MODEL 1
REMARK VINA RESULT:     -10.9      0.000      0.000
REMARK SMILES O=C(NCCCCCCNC(=O)[C@@H]1CSc2ccccc21)c1ccc(-c2c3nc(c(-c4ccc(S(=O)(=O)[O-])cc4)c4ccc([nH]4)c(-c4ccc(S(=O)(=O)[O-])cc4)c4nc(c(-c5ccc(S(=O)(=O)[O-])cc5)c5ccc2[nH]5)C=C4)C=C3)cc1
REMARK SMILES IDX 5 1 4 2 3 3 1 4 2 5 22 7 23 8 81 9 24 10 80 11 25 12 26 13
REMARK SMILES IDX 27 14 74 15 28 16 79 17 73 18 75 19 29 20 78 21 72 22 71 23
REMARK SMILES IDX 30 25 60 26 41 27 59 28 42 29 45 30 58 31 76 32 43 33 44 34
REMARK SMILES IDX 57 36 77 37 46 38 31 39 32 40 40 41 33 42 39 43 34 44 35 45
REMARK SMILES IDX 36 46 37 47 38 48 61 49 62 50 70 51 63 52 69 53 64 54 65 55
REMARK SMILES IDX 66 56 67 57 68 58 47 59 48 60 56 61 49 62 55 63 50 64 51 65
REMARK SMILES IDX 52 66 53 67 54 68 6 69 7 70 8 71 9 72 10 73 11 74 12 76
REMARK SMILES IDX 13 77 14 78 21 79 15 80 16 81 20 82 17 83 19 84 18 85
REMARK H PARENT 3 6 75 24 45 35 10 75
REMARK Flexibility Score: inf
ROOT
ATOM      1  C   UNL A   1      34.012  28.068  26.007  1.00  0.00     0.021 C 
ENDROOT
BRANCH   1   2
ATOM      2  C   UNL A   1      33.361  28.522  27.307  1.00  0.00     0.116 C 
BRANCH   2   3
ATOM      3  N   UNL A   1      33.370  29.967  27.457  1.00  0.00    -0.352 N 
ATOM      4  O   UNL A   1      34.087  31.972  28.177  1.00  0.00    -0.269 OA
ATOM      5  C   UNL A   1      34.343  30.783  27.968  1.00  0.00     0.251 C 
ATOM      6  H   UNL A   1      32.557  30.427  27.145  1.00  0.00     0.163 HD
BRANCH   5   7
ATOM      7  C   UNL A   1      35.689  30.253  28.281  1.00  0.00     0.039 A 
ATOM      8  C   UNL A   1      35.929  29.730  29.555  1.00  0.00     0.014 A 
ATOM      9  C   UNL A   1      36.728  30.313  27.347  1.00  0.00     0.014 A 
ATOM     10  C   UNL A   1      37.201  29.255  29.885  1.00  0.00     0.010 A 
ATOM     11  C   UNL A   1      37.970  29.761  27.647  1.00  0.00     0.010 A 
ATOM     12  C   UNL A   1      38.231  29.259  28.930  1.00  0.00    -0.014 A 
BRANCH  12  13
ATOM     13  C   UNL A   1      39.605  28.815  29.279  1.00  0.00     0.031 A 
ATOM     14  C   UNL A   1      40.490  29.711  30.105  1.00  0.00     0.074 A 
ATOM     15  C   UNL A   1      40.063  27.623  28.852  1.00  0.00     0.049 A 
ATOM     16  N   UNL A   1      41.726  29.523  30.488  1.00  0.00    -0.248 NA
ATOM     17  C   UNL A   1      39.920  30.999  30.538  1.00  0.00     0.031 C 
ATOM     18  C   UNL A   1      39.306  26.674  28.036  1.00  0.00     0.029 A 
ATOM     19  N   UNL A   1      41.270  27.001  29.055  1.00  0.00    -0.354 N 
ATOM     20  C   UNL A   1      42.077  30.661  31.204  1.00  0.00     0.074 A 
ATOM     21  C   UNL A   1      40.956  31.570  31.134  1.00  0.00     0.031 C 
ATOM     22  C   UNL A   1      40.049  25.572  27.845  1.00  0.00     0.029 A 
ATOM     23  C   UNL A   1      41.349  25.752  28.486  1.00  0.00     0.049 A 
ATOM     24  H   UNL A   1      42.010  27.411  29.559  1.00  0.00     0.167 HD
ATOM     25  C   UNL A   1      43.214  30.913  31.894  1.00  0.00     0.031 A 
ATOM     26  C   UNL A   1      42.351  24.847  28.484  1.00  0.00     0.031 A 
ATOM     27  C   UNL A   1      44.320  29.998  31.974  1.00  0.00     0.049 A 
ATOM     28  C   UNL A   1      43.619  25.155  29.229  1.00  0.00     0.074 A 
ATOM     29  C   UNL A   1      45.512  30.152  32.659  1.00  0.00     0.029 A 
ATOM     30  N   UNL A   1      44.368  28.753  31.364  1.00  0.00    -0.354 N 
ATOM     31  N   UNL A   1      43.926  26.230  29.917  1.00  0.00    -0.248 NA
ATOM     32  C   UNL A   1      44.671  24.129  29.215  1.00  0.00     0.031 C 
ATOM     33  C   UNL A   1      46.304  29.028  32.416  1.00  0.00     0.029 A 
ATOM     34  C   UNL A   1      45.577  28.137  31.641  1.00  0.00     0.049 A 
ATOM     35  H   UNL A   1      43.650  28.365  30.814  1.00  0.00     0.167 HD
ATOM     36  C   UNL A   1      45.199  26.004  30.430  1.00  0.00     0.074 A 
ATOM     37  C   UNL A   1      45.596  24.682  29.990  1.00  0.00     0.031 C 
ATOM     38  C   UNL A   1      45.966  26.822  31.192  1.00  0.00     0.031 A 
BRANCH  25  39
ATOM     39  C   UNL A   1      43.308  32.216  32.647  1.00  0.00    -0.014 A 
ATOM     40  C   UNL A   1      42.833  32.309  33.967  1.00  0.00     0.010 A 
ATOM     41  C   UNL A   1      43.797  33.376  32.015  1.00  0.00     0.010 A 
ATOM     42  C   UNL A   1      42.823  33.538  34.633  1.00  0.00     0.020 A 
ATOM     43  C   UNL A   1      43.822  34.599  32.689  1.00  0.00     0.020 A 
ATOM     44  C   UNL A   1      43.313  34.677  33.988  1.00  0.00     0.054 A 
BRANCH  44  45
ATOM     45  S   UNL A   1      43.289  36.263  34.866  1.00  0.00     0.124 S 
ATOM     46  O   UNL A   1      42.087  36.144  35.684  1.00  0.00    -0.237 OA
ATOM     47  O   UNL A   1      44.555  36.245  35.595  1.00  0.00    -0.237 OA
ATOM     48  O   UNL A   1      43.217  37.249  33.789  1.00  0.00    -0.744 OA
ENDBRANCH  44  45
ENDBRANCH  25  39
BRANCH  26  49
ATOM     49  C   UNL A   1      42.137  23.543  27.795  1.00  0.00    -0.014 A 
ATOM     50  C   UNL A   1      41.548  22.462  28.479  1.00  0.00     0.010 A 
ATOM     51  C   UNL A   1      42.638  23.337  26.498  1.00  0.00     0.010 A 
ATOM     52  C   UNL A   1      41.533  21.186  27.910  1.00  0.00     0.020 A 
ATOM     53  C   UNL A   1      42.596  22.067  25.912  1.00  0.00     0.020 A 
ATOM     54  C   UNL A   1      42.078  20.992  26.639  1.00  0.00     0.054 A 
BRANCH  54  55
ATOM     55  S   UNL A   1      42.143  19.308  25.967  1.00  0.00     0.124 S 
ATOM     56  O   UNL A   1      42.681  18.558  27.099  1.00  0.00    -0.237 OA
ATOM     57  O   UNL A   1      40.745  19.041  25.643  1.00  0.00    -0.237 OA
ATOM     58  O   UNL A   1      43.035  19.432  24.817  1.00  0.00    -0.744 OA
ENDBRANCH  54  55
ENDBRANCH  26  49
BRANCH  38  59
ATOM     59  C   UNL A   1      47.331  26.336  31.608  1.00  0.00    -0.014 A 
ATOM     60  C   UNL A   1      48.419  26.466  30.724  1.00  0.00     0.010 A 
ATOM     61  C   UNL A   1      47.507  25.624  32.808  1.00  0.00     0.010 A 
ATOM     62  C   UNL A   1      49.645  25.861  31.012  1.00  0.00     0.020 A 
ATOM     63  C   UNL A   1      48.741  25.045  33.115  1.00  0.00     0.020 A 
ATOM     64  C   UNL A   1      49.794  25.144  32.202  1.00  0.00     0.054 A 
BRANCH  64  65
ATOM     65  S   UNL A   1      51.381  24.331  32.540  1.00  0.00     0.124 S 
ATOM     66  O   UNL A   1      51.555  24.582  33.968  1.00  0.00    -0.237 OA
ATOM     67  O   UNL A   1      51.115  22.943  32.172  1.00  0.00    -0.237 OA
ATOM     68  O   UNL A   1      52.318  25.032  31.664  1.00  0.00    -0.744 OA
ENDBRANCH  64  65
ENDBRANCH  38  59
ENDBRANCH  12  13
ENDBRANCH   5   7
ENDBRANCH   2   3
ENDBRANCH   1   2
BRANCH   1  69
ATOM     69  C   UNL A   1      33.273  26.959  25.255  1.00  0.00     0.002 C 
BRANCH  69  70
ATOM     70  C   UNL A   1      31.879  26.605  25.780  1.00  0.00     0.002 C 
BRANCH  70  71
ATOM     71  C   UNL A   1      31.194  25.408  25.114  1.00  0.00     0.021 C 
BRANCH  71  72
ATOM     72  C   UNL A   1      30.336  24.543  26.030  1.00  0.00     0.116 C 
BRANCH  72  73
ATOM     73  N   UNL A   1      31.100  23.833  27.036  1.00  0.00    -0.356 N 
ATOM     74  C   UNL A   1      32.180  23.016  26.938  1.00  0.00     0.228 C 
ATOM     75  H   UNL A   1      30.776  23.966  27.956  1.00  0.00     0.163 HD
ATOM     76  O   UNL A   1      32.662  22.616  28.007  1.00  0.00    -0.274 OA
BRANCH  74  77
ATOM     77  C   UNL A   1      32.775  22.520  25.618  1.00  0.00     0.120 C 
ATOM     78  C   UNL A   1      32.390  21.106  25.166  1.00  0.00     0.093 C 
ATOM     79  C   UNL A   1      34.276  22.658  25.567  1.00  0.00    -0.021 A 
ATOM     80  S   UNL A   1      33.911  20.095  25.025  1.00  0.00    -0.125 SA
ATOM     81  C   UNL A   1      34.972  21.476  25.324  1.00  0.00     0.011 A 
ATOM     82  C   UNL A   1      34.965  23.859  25.722  1.00  0.00     0.006 A 
ATOM     83  C   UNL A   1      36.359  21.458  25.302  1.00  0.00     0.015 A 
ATOM     84  C   UNL A   1      36.360  23.855  25.672  1.00  0.00     0.000 A 
ATOM     85  C   UNL A   1      37.055  22.657  25.480  1.00  0.00     0.001 A 
ENDBRANCH  74  77
ENDBRANCH  72  73
ENDBRANCH  71  72
ENDBRANCH  70  71
ENDBRANCH  69  70
ENDBRANCH   1  69
TORSDOF 16
ENDMDL
MODEL 2
REMARK VINA RESULT:     -10.8      3.025      9.548
REMARK SMILES O=C(NCCCCCCNC(=O)[C@@H]1CSc2ccccc21)c1ccc(-c2c3nc(c(-c4ccc(S(=O)(=O)[O-])cc4)c4ccc([nH]4)c(-c4ccc(S(=O)(=O)[O-])cc4)c4nc(c(-c5ccc(S(=O)(=O)[O-])cc5)c5ccc2[nH]5)C=C4)C=C3)cc1
REMARK SMILES IDX 5 1 4 2 3 3 1 4 2 5 22 7 23 8 81 9 24 10 80 11 25 12 26 13
REMARK SMILES IDX 27 14 74 15 28 16 79 17 73 18 75 19 29 20 78 21 72 22 71 23
REMARK SMILES IDX 30 25 60 26 41 27 59 28 42 29 45 30 58 31 76 32 43 33 44 34
REMARK SMILES IDX 57 36 77 37 46 38 31 39 32 40 40 41 33 42 39 43 34 44 35 45
REMARK SMILES IDX 36 46 37 47 38 48 61 49 62 50 70 51 63 52 69 53 64 54 65 55
REMARK SMILES IDX 66 56 67 57 68 58 47 59 48 60 56 61 49 62 55 63 50 64 51 65
REMARK SMILES IDX 52 66 53 67 54 68 6 69 7 70 8 71 9 72 10 73 11 74 12 76
REMARK SMILES IDX 13 77 14 78 21 79 15 80 16 81 20 82 17 83 19 84 18 85
REMARK H PARENT 3 6 75 24 45 35 10 75
REMARK Flexibility Score: inf
ROOT
ATOM      1  C   UNL A   1      35.573  23.233  24.915  1.00  0.00     0.021 C 
ENDROOT
BRANCH   1   2
ATOM      2  C   UNL A   1      37.042  23.614  24.789  1.00  0.00     0.116 C 
BRANCH   2   3
ATOM      3  N   UNL A   1      37.928  22.588  25.311  1.00  0.00    -0.352 N 
ATOM      4  O   UNL A   1      39.760  21.736  26.296  1.00  0.00    -0.269 OA
ATOM      5  C   UNL A   1      39.033  22.716  26.108  1.00  0.00     0.251 C 
ATOM      6  H   UNL A   1      37.699  21.665  25.054  1.00  0.00     0.163 HD
BRANCH   5   7
ATOM      7  C   UNL A   1      39.370  24.013  26.735  1.00  0.00     0.039 A 
ATOM      8  C   UNL A   1      40.099  24.950  25.997  1.00  0.00     0.014 A 
ATOM      9  C   UNL A   1      39.017  24.294  28.059  1.00  0.00     0.014 A 
ATOM     10  C   UNL A   1      40.458  26.169  26.579  1.00  0.00     0.010 A 
ATOM     11  C   UNL A   1      39.299  25.541  28.608  1.00  0.00     0.010 A 
ATOM     12  C   UNL A   1      40.053  26.478  27.888  1.00  0.00    -0.014 A 
BRANCH  12  13
ATOM     13  C   UNL A   1      40.476  27.741  28.545  1.00  0.00     0.031 A 
ATOM     14  C   UNL A   1      41.899  27.899  29.012  1.00  0.00     0.074 A 
ATOM     15  C   UNL A   1      39.590  28.738  28.734  1.00  0.00     0.049 A 
ATOM     16  N   UNL A   1      42.456  28.905  29.633  1.00  0.00    -0.248 NA
ATOM     17  C   UNL A   1      42.811  26.767  28.769  1.00  0.00     0.031 C 
ATOM     18  C   UNL A   1      38.182  28.700  28.338  1.00  0.00     0.029 A 
ATOM     19  N   UNL A   1      39.746  29.982  29.295  1.00  0.00    -0.354 N 
ATOM     20  C   UNL A   1      43.776  28.530  29.852  1.00  0.00     0.074 A 
ATOM     21  C   UNL A   1      43.917  27.174  29.372  1.00  0.00     0.031 C 
ATOM     22  C   UNL A   1      37.614  29.881  28.627  1.00  0.00     0.029 A 
ATOM     23  C   UNL A   1      38.602  30.745  29.269  1.00  0.00     0.049 A 
ATOM     24  H   UNL A   1      40.595  30.297  29.680  1.00  0.00     0.167 HD
ATOM     25  C   UNL A   1      44.792  29.261  30.368  1.00  0.00     0.031 A 
ATOM     26  C   UNL A   1      38.373  32.002  29.704  1.00  0.00     0.031 A 
ATOM     27  C   UNL A   1      44.650  30.616  30.828  1.00  0.00     0.049 A 
ATOM     28  C   UNL A   1      39.505  32.790  30.302  1.00  0.00     0.074 A 
ATOM     29  C   UNL A   1      45.621  31.448  31.354  1.00  0.00     0.029 A 
ATOM     30  N   UNL A   1      43.469  31.343  30.805  1.00  0.00    -0.354 N 
ATOM     31  N   UNL A   1      40.752  32.424  30.484  1.00  0.00    -0.248 NA
ATOM     32  C   UNL A   1      39.209  34.161  30.740  1.00  0.00     0.031 C 
ATOM     33  C   UNL A   1      45.017  32.658  31.703  1.00  0.00     0.029 A 
ATOM     34  C   UNL A   1      43.683  32.608  31.325  1.00  0.00     0.049 A 
ATOM     35  H   UNL A   1      42.606  31.010  30.469  1.00  0.00     0.167 HD
ATOM     36  C   UNL A   1      41.393  33.524  31.043  1.00  0.00     0.074 A 
ATOM     37  C   UNL A   1      40.402  34.574  31.151  1.00  0.00     0.031 C 
ATOM     38  C   UNL A   1      42.686  33.646  31.435  1.00  0.00     0.031 A 
BRANCH  25  39
ATOM     39  C   UNL A   1      46.157  28.623  30.432  1.00  0.00    -0.014 A 
ATOM     40  C   UNL A   1      46.569  27.944  31.592  1.00  0.00     0.010 A 
ATOM     41  C   UNL A   1      47.067  28.766  29.366  1.00  0.00     0.010 A 
ATOM     42  C   UNL A   1      47.869  27.439  31.696  1.00  0.00     0.020 A 
ATOM     43  C   UNL A   1      48.356  28.234  29.452  1.00  0.00     0.020 A 
ATOM     44  C   UNL A   1      48.756  27.593  30.626  1.00  0.00     0.054 A 
BRANCH  44  45
ATOM     45  S   UNL A   1      50.440  26.937  30.780  1.00  0.00     0.124 S 
ATOM     46  O   UNL A   1      50.206  25.498  30.837  1.00  0.00    -0.237 OA
ATOM     47  O   UNL A   1      51.086  27.425  29.564  1.00  0.00    -0.237 OA
ATOM     48  O   UNL A   1      50.929  27.541  32.018  1.00  0.00    -0.744 OA
ENDBRANCH  44  45
ENDBRANCH  25  39
BRANCH  26  49
ATOM     49  C   UNL A   1      37.017  32.590  29.514  1.00  0.00    -0.014 A 
ATOM     50  C   UNL A   1      36.656  33.172  28.283  1.00  0.00     0.010 A 
ATOM     51  C   UNL A   1      36.128  32.685  30.599  1.00  0.00     0.010 A 
ATOM     52  C   UNL A   1      35.471  33.903  28.164  1.00  0.00     0.020 A 
ATOM     53  C   UNL A   1      34.925  33.389  30.474  1.00  0.00     0.020 A 
ATOM     54  C   UNL A   1      34.623  34.025  29.268  1.00  0.00     0.054 A 
BRANCH  54  55
ATOM     55  S   UNL A   1      33.146  35.067  29.119  1.00  0.00     0.124 S 
ATOM     56  O   UNL A   1      33.719  36.336  28.679  1.00  0.00    -0.237 OA
ATOM     57  O   UNL A   1      32.354  34.355  28.119  1.00  0.00    -0.237 OA
ATOM     58  O   UNL A   1      32.588  35.066  30.469  1.00  0.00    -0.744 OA
ENDBRANCH  54  55
ENDBRANCH  26  49
BRANCH  38  59
ATOM     59  C   UNL A   1      43.130  34.957  32.031  1.00  0.00    -0.014 A 
ATOM     60  C   UNL A   1      42.904  35.215  33.397  1.00  0.00     0.010 A 
ATOM     61  C   UNL A   1      43.636  35.985  31.216  1.00  0.00     0.010 A 
ATOM     62  C   UNL A   1      43.138  36.487  33.928  1.00  0.00     0.020 A 
ATOM     63  C   UNL A   1      43.902  37.249  31.751  1.00  0.00     0.020 A 
ATOM     64  C   UNL A   1      43.625  37.498  33.097  1.00  0.00     0.054 A 
BRANCH  64  65
ATOM     65  S   UNL A   1      43.885  39.153  33.795  1.00  0.00     0.124 S 
ATOM     66  O   UNL A   1      43.852  38.889  35.231  1.00  0.00    -0.237 OA
ATOM     67  O   UNL A   1      45.189  39.528  33.254  1.00  0.00    -0.237 OA
ATOM     68  O   UNL A   1      42.757  39.925  33.277  1.00  0.00    -0.744 OA
ENDBRANCH  64  65
ENDBRANCH  38  59
ENDBRANCH  12  13
ENDBRANCH   5   7
ENDBRANCH   2   3
ENDBRANCH   1   2
BRANCH   1  69
ATOM     69  C   UNL A   1      34.821  23.888  26.077  1.00  0.00     0.002 C 
BRANCH  69  70
ATOM     70  C   UNL A   1      33.680  24.833  25.691  1.00  0.00     0.002 C 
BRANCH  70  71
ATOM     71  C   UNL A   1      33.938  26.326  25.914  1.00  0.00     0.021 C 
BRANCH  71  72
ATOM     72  C   UNL A   1      33.140  27.276  25.028  1.00  0.00     0.116 C 
BRANCH  72  73
ATOM     73  N   UNL A   1      33.778  27.553  23.758  1.00  0.00    -0.356 N 
ATOM     74  C   UNL A   1      33.350  27.394  22.478  1.00  0.00     0.228 C 
ATOM     75  H   UNL A   1      34.687  27.923  23.836  1.00  0.00     0.163 HD
ATOM     76  O   UNL A   1      34.111  27.802  21.592  1.00  0.00    -0.274 OA
BRANCH  74  77
ATOM     77  C   UNL A   1      32.048  26.693  22.082  1.00  0.00     0.120 C 
ATOM     78  C   UNL A   1      30.738  27.316  22.582  1.00  0.00     0.093 C 
ATOM     79  C   UNL A   1      32.051  25.224  22.423  1.00  0.00    -0.021 A 
ATOM     80  S   UNL A   1      29.859  26.092  23.622  1.00  0.00    -0.125 SA
ATOM     81  C   UNL A   1      31.011  24.805  23.249  1.00  0.00     0.011 A 
ATOM     82  C   UNL A   1      32.988  24.305  21.954  1.00  0.00     0.006 A 
ATOM     83  C   UNL A   1      30.927  23.488  23.677  1.00  0.00     0.015 A 
ATOM     84  C   UNL A   1      32.895  22.972  22.355  1.00  0.00     0.000 A 
ATOM     85  C   UNL A   1      31.878  22.568  23.227  1.00  0.00     0.001 A 
ENDBRANCH  74  77
ENDBRANCH  72  73
ENDBRANCH  71  72
ENDBRANCH  70  71
ENDBRANCH  69  70
ENDBRANCH   1  69
TORSDOF 16
ENDMDL
MODEL 3
REMARK VINA RESULT:     -10.7      0.804      1.888
REMARK SMILES O=C(NCCCCCCNC(=O)[C@@H]1CSc2ccccc21)c1ccc(-c2c3nc(c(-c4ccc(S(=O)(=O)[O-])cc4)c4ccc([nH]4)c(-c4ccc(S(=O)(=O)[O-])cc4)c4nc(c(-c5ccc(S(=O)(=O)[O-])cc5)c5ccc2[nH]5)C=C4)C=C3)cc1
REMARK SMILES IDX 5 1 4 2 3 3 1 4 2 5 22 7 23 8 81 9 24 10 80 11 25 12 26 13
REMARK SMILES IDX 27 14 74 15 28 16 79 17 73 18 75 19 29 20 78 21 72 22 71 23
REMARK SMILES IDX 30 25 60 26 41 27 59 28 42 29 45 30 58 31 76 32 43 33 44 34
REMARK SMILES IDX 57 36 77 37 46 38 31 39 32 40 40 41 33 42 39 43 34 44 35 45
REMARK SMILES IDX 36 46 37 47 38 48 61 49 62 50 70 51 63 52 69 53 64 54 65 55
REMARK SMILES IDX 66 56 67 57 68 58 47 59 48 60 56 61 49 62 55 63 50 64 51 65
REMARK SMILES IDX 52 66 53 67 54 68 6 69 7 70 8 71 9 72 10 73 11 74 12 76
REMARK SMILES IDX 13 77 14 78 21 79 15 80 16 81 20 82 17 83 19 84 18 85
REMARK H PARENT 3 6 75 24 45 35 10 75
REMARK Flexibility Score: inf
ROOT
ATOM      1  C   UNL A   1      32.713  28.033  26.318  1.00  0.00     0.021 C 
ENDROOT
BRANCH   1   2
ATOM      2  C   UNL A   1      33.299  28.614  27.598  1.00  0.00     0.116 C 
BRANCH   2   3
ATOM      3  N   UNL A   1      33.369  30.065  27.567  1.00  0.00    -0.352 N 
ATOM      4  O   UNL A   1      34.191  32.110  28.007  1.00  0.00    -0.269 OA
ATOM      5  C   UNL A   1      34.392  30.895  27.938  1.00  0.00     0.251 C 
ATOM      6  H   UNL A   1      32.562  30.517  27.229  1.00  0.00     0.163 HD
BRANCH   5   7
ATOM      7  C   UNL A   1      35.728  30.351  28.267  1.00  0.00     0.039 A 
ATOM      8  C   UNL A   1      35.952  29.837  29.547  1.00  0.00     0.014 A 
ATOM      9  C   UNL A   1      36.776  30.387  27.340  1.00  0.00     0.014 A 
ATOM     10  C   UNL A   1      37.215  29.349  29.892  1.00  0.00     0.010 A 
ATOM     11  C   UNL A   1      38.008  29.822  27.655  1.00  0.00     0.010 A 
ATOM     12  C   UNL A   1      38.252  29.329  28.945  1.00  0.00    -0.014 A 
BRANCH  12  13
ATOM     13  C   UNL A   1      39.617  28.871  29.309  1.00  0.00     0.031 A 
ATOM     14  C   UNL A   1      40.498  29.752  30.155  1.00  0.00     0.074 A 
ATOM     15  C   UNL A   1      40.071  27.679  28.877  1.00  0.00     0.049 A 
ATOM     16  N   UNL A   1      41.727  29.550  30.553  1.00  0.00    -0.248 NA
ATOM     17  C   UNL A   1      39.933  31.040  30.592  1.00  0.00     0.031 C 
ATOM     18  C   UNL A   1      39.317  26.743  28.042  1.00  0.00     0.029 A 
ATOM     19  N   UNL A   1      41.270  27.045  29.091  1.00  0.00    -0.354 N 
ATOM     20  C   UNL A   1      42.078  30.678  31.285  1.00  0.00     0.074 A 
ATOM     21  C   UNL A   1      40.964  31.597  31.208  1.00  0.00     0.031 C 
ATOM     22  C   UNL A   1      40.054  25.637  27.852  1.00  0.00     0.029 A 
ATOM     23  C   UNL A   1      41.347  25.800  28.512  1.00  0.00     0.049 A 
ATOM     24  H   UNL A   1      42.006  27.444  29.609  1.00  0.00     0.167 HD
ATOM     25  C   UNL A   1      43.207  30.914  31.993  1.00  0.00     0.031 A 
ATOM     26  C   UNL A   1      42.341  24.887  28.516  1.00  0.00     0.031 A 
ATOM     27  C   UNL A   1      44.304  29.989  32.080  1.00  0.00     0.049 A 
ATOM     28  C   UNL A   1      43.601  25.178  29.282  1.00  0.00     0.074 A 
ATOM     29  C   UNL A   1      45.487  30.128  32.783  1.00  0.00     0.029 A 
ATOM     30  N   UNL A   1      44.350  28.749  31.459  1.00  0.00    -0.354 N 
ATOM     31  N   UNL A   1      43.907  26.243  29.983  1.00  0.00    -0.248 NA
ATOM     32  C   UNL A   1      44.644  24.143  29.273  1.00  0.00     0.031 C 
ATOM     33  C   UNL A   1      46.273  28.999  32.541  1.00  0.00     0.029 A 
ATOM     34  C   UNL A   1      45.550  28.121  31.748  1.00  0.00     0.049 A 
ATOM     35  H   UNL A   1      43.636  28.372  30.896  1.00  0.00     0.167 HD
ATOM     36  C   UNL A   1      45.171  26.002  30.512  1.00  0.00     0.074 A 
ATOM     37  C   UNL A   1      45.563  24.680  30.066  1.00  0.00     0.031 C 
ATOM     38  C   UNL A   1      45.934  26.807  31.292  1.00  0.00     0.031 A 
BRANCH  25  39
ATOM     39  C   UNL A   1      43.301  32.210  32.759  1.00  0.00    -0.014 A 
ATOM     40  C   UNL A   1      42.848  32.283  34.088  1.00  0.00     0.010 A 
ATOM     41  C   UNL A   1      43.768  33.382  32.132  1.00  0.00     0.010 A 
ATOM     42  C   UNL A   1      42.838  33.504  34.768  1.00  0.00     0.020 A 
ATOM     43  C   UNL A   1      43.792  34.597  32.820  1.00  0.00     0.020 A 
ATOM     44  C   UNL A   1      43.305  34.655  34.127  1.00  0.00     0.054 A 
BRANCH  44  45
ATOM     45  S   UNL A   1      43.281  36.232  35.024  1.00  0.00     0.124 S 
ATOM     46  O   UNL A   1      42.604  35.870  36.265  1.00  0.00    -0.237 OA
ATOM     47  O   UNL A   1      44.701  36.551  35.148  1.00  0.00    -0.237 OA
ATOM     48  O   UNL A   1      42.530  37.117  34.136  1.00  0.00    -0.744 OA
ENDBRANCH  44  45
ENDBRANCH  25  39
BRANCH  26  49
ATOM     49  C   UNL A   1      42.126  23.591  27.812  1.00  0.00    -0.014 A 
ATOM     50  C   UNL A   1      41.378  22.564  28.419  1.00  0.00     0.010 A 
ATOM     51  C   UNL A   1      42.774  23.332  26.592  1.00  0.00     0.010 A 
ATOM     52  C   UNL A   1      41.346  21.283  27.861  1.00  0.00     0.020 A 
ATOM     53  C   UNL A   1      42.718  22.059  26.013  1.00  0.00     0.020 A 
ATOM     54  C   UNL A   1      42.036  21.034  26.672  1.00  0.00     0.054 A 
BRANCH  54  55
ATOM     55  S   UNL A   1      42.068  19.340  26.024  1.00  0.00     0.124 S 
ATOM     56  O   UNL A   1      40.660  19.115  25.709  1.00  0.00    -0.237 OA
ATOM     57  O   UNL A   1      42.959  19.456  24.873  1.00  0.00    -0.237 OA
ATOM     58  O   UNL A   1      42.593  18.556  27.139  1.00  0.00    -0.744 OA
ENDBRANCH  54  55
ENDBRANCH  26  49
BRANCH  38  59
ATOM     59  C   UNL A   1      47.289  26.305  31.723  1.00  0.00    -0.014 A 
ATOM     60  C   UNL A   1      48.392  26.440  30.857  1.00  0.00     0.010 A 
ATOM     61  C   UNL A   1      47.441  25.576  32.915  1.00  0.00     0.010 A 
ATOM     62  C   UNL A   1      49.609  25.823  31.156  1.00  0.00     0.020 A 
ATOM     63  C   UNL A   1      48.667  24.984  33.233  1.00  0.00     0.020 A 
ATOM     64  C   UNL A   1      49.734  25.088  32.337  1.00  0.00     0.054 A 
BRANCH  64  65
ATOM     65  S   UNL A   1      51.310  24.260  32.689  1.00  0.00     0.124 S 
ATOM     66  O   UNL A   1      51.508  24.565  34.103  1.00  0.00    -0.237 OA
ATOM     67  O   UNL A   1      51.014  22.863  32.381  1.00  0.00    -0.237 OA
ATOM     68  O   UNL A   1      52.249  24.907  31.774  1.00  0.00    -0.744 OA
ENDBRANCH  64  65
ENDBRANCH  38  59
ENDBRANCH  12  13
ENDBRANCH   5   7
ENDBRANCH   2   3
ENDBRANCH   1   2
BRANCH   1  69
ATOM     69  C   UNL A   1      33.672  27.175  25.487  1.00  0.00     0.002 C 
BRANCH  69  70
ATOM     70  C   UNL A   1      33.656  25.673  25.783  1.00  0.00     0.002 C 
BRANCH  70  71
ATOM     71  C   UNL A   1      34.770  24.848  25.133  1.00  0.00     0.021 C 
BRANCH  71  72
ATOM     72  C   UNL A   1      34.808  23.371  25.512  1.00  0.00     0.116 C 
BRANCH  72  73
ATOM     73  N   UNL A   1      34.142  23.080  26.764  1.00  0.00    -0.356 N 
ATOM     74  C   UNL A   1      32.921  22.550  27.035  1.00  0.00     0.228 C 
ATOM     75  H   UNL A   1      34.668  23.310  27.564  1.00  0.00     0.163 HD
ATOM     76  O   UNL A   1      32.664  22.350  28.230  1.00  0.00    -0.274 OA
BRANCH  74  77
ATOM     77  C   UNL A   1      31.850  22.259  25.981  1.00  0.00     0.120 C 
ATOM     78  C   UNL A   1      32.269  21.408  24.775  1.00  0.00     0.093 C 
ATOM     79  C   UNL A   1      31.170  23.510  25.482  1.00  0.00    -0.021 A 
ATOM     80  S   UNL A   1      32.024  22.385  23.246  1.00  0.00    -0.125 SA
ATOM     81  C   UNL A   1      31.237  23.713  24.106  1.00  0.00     0.011 A 
ATOM     82  C   UNL A   1      30.490  24.417  26.293  1.00  0.00     0.006 A 
ATOM     83  C   UNL A   1      30.694  24.850  23.526  1.00  0.00     0.015 A 
ATOM     84  C   UNL A   1      29.915  25.549  25.715  1.00  0.00     0.000 A 
ATOM     85  C   UNL A   1      30.031  25.774  24.339  1.00  0.00     0.001 A 
ENDBRANCH  74  77
ENDBRANCH  72  73
ENDBRANCH  71  72
ENDBRANCH  70  71
ENDBRANCH  69  70
ENDBRANCH   1  69
TORSDOF 16
ENDMDL
