MODEL 1
REMARK VINA RESULT:     -10.7      0.000      0.000
REMARK SMILES CCc1cc(Nc2ccc(C(=O)NCCCCCCNC(=O)c3ccc(-c4c5nc(c(-c6ccc(S(=O)(=O)[O-])cc6)c6ccc([nH]6)c(-c6ccc(S(=O)(=O)[O-])cc6)c6nc(c(-c7ccc(S(=O)(=O)[O-])cc7)c7ccc4[nH]7)C=C6)C=C5)cc3)cc2)nc(C(C)C)n1
REMARK SMILES IDX 16 1 15 2 14 3 13 4 11 5 12 6 10 8 7 9 8 10 84 11 9 12 83 13
REMARK SMILES IDX 6 14 5 16 3 17 4 18 90 19 86 20 85 21 2 22 1 23 87 24 88 25
REMARK SMILES IDX 89 26 17 27 18 28 19 29 20 30 21 31 22 33 23 34 24 35 82 36
REMARK SMILES IDX 25 37 81 38 26 39 27 40 28 41 75 42 29 43 80 44 74 45 76 46
REMARK SMILES IDX 30 47 79 48 73 49 72 50 31 52 61 53 42 54 60 55 43 56 46 57
REMARK SMILES IDX 59 58 77 59 44 60 45 61 58 63 78 64 47 65 32 66 33 67 41 68
REMARK SMILES IDX 34 69 40 70 35 71 36 72 37 73 38 74 39 75 62 76 63 77 71 78
REMARK SMILES IDX 64 79 70 80 65 81 66 82 67 83 68 84 69 85 48 86 49 87 57 88
REMARK SMILES IDX 50 89 56 90 51 91 52 92 53 93 54 94 55 95
REMARK H PARENT 13 7 6 15 20 32 76 51 46 62
REMARK Flexibility Score: inf
ROOT
ATOM      1  C   UNL A   1      33.883  26.166  25.734  1.00  0.00     0.002 C 
ENDROOT
BRANCH   1   2
ATOM      2  C   UNL A   1      32.992  27.357  25.357  1.00  0.00     0.021 C 
BRANCH   2   3
ATOM      3  C   UNL A   1      33.415  28.024  24.047  1.00  0.00     0.116 C 
BRANCH   3   4
ATOM      4  N   UNL A   1      32.255  28.179  23.187  1.00  0.00    -0.352 N 
ATOM      5  C   UNL A   1      31.472  27.275  22.518  1.00  0.00     0.251 C 
ATOM      6  O   UNL A   1      30.565  27.711  21.809  1.00  0.00    -0.269 OA
ATOM      7  H   UNL A   1      31.977  29.115  23.059  1.00  0.00     0.163 HD
BRANCH   5   8
ATOM      8  C   UNL A   1      31.617  25.803  22.686  1.00  0.00     0.039 A 
ATOM      9  C   UNL A   1      31.823  23.000  22.612  1.00  0.00     0.040 A 
ATOM     10  C   UNL A   1      32.745  23.785  21.923  1.00  0.00     0.027 A 
ATOM     11  C   UNL A   1      30.899  23.626  23.456  1.00  0.00     0.027 A 
ATOM     12  C   UNL A   1      32.626  25.177  21.939  1.00  0.00     0.016 A 
ATOM     13  C   UNL A   1      30.815  25.018  23.514  1.00  0.00     0.016 A 
BRANCH   9  14
ATOM     14  N   UNL A   1      31.880  21.599  22.528  1.00  0.00    -0.340 N 
ATOM     15  H   UNL A   1      31.567  21.171  21.699  1.00  0.00     0.168 HD
BRANCH  14  16
ATOM     16  C   UNL A   1      32.362  20.770  23.563  1.00  0.00     0.134 A 
ATOM     17  C   UNL A   1      33.344  20.493  25.689  1.00  0.00     0.046 A 
ATOM     18  C   UNL A   1      32.866  21.345  24.711  1.00  0.00     0.071 A 
ATOM     19  N   UNL A   1      33.379  19.159  25.516  1.00  0.00    -0.238 NA
ATOM     20  C   UNL A   1      32.892  18.674  24.361  1.00  0.00     0.133 A 
ATOM     21  N   UNL A   1      32.381  19.437  23.381  1.00  0.00    -0.216 NA
BRANCH  17  22
ATOM     22  C   UNL A   1      33.868  21.065  26.984  1.00  0.00     0.053 C 
ATOM     23  C   UNL A   1      33.091  22.269  27.501  1.00  0.00     0.011 C 
ENDBRANCH  17  22
BRANCH  20  24
ATOM     24  C   UNL A   1      32.946  17.181  24.123  1.00  0.00     0.051 C 
ATOM     25  C   UNL A   1      34.033  16.836  23.106  1.00  0.00     0.016 C 
ATOM     26  C   UNL A   1      33.156  16.421  25.431  1.00  0.00     0.016 C 
ENDBRANCH  20  24
ENDBRANCH  14  16
ENDBRANCH   9  14
ENDBRANCH   5   8
ENDBRANCH   3   4
ENDBRANCH   2   3
ENDBRANCH   1   2
BRANCH   1  27
ATOM     27  C   UNL A   1      34.507  25.434  24.541  1.00  0.00     0.002 C 
BRANCH  27  28
ATOM     28  C   UNL A   1      35.117  24.070  24.876  1.00  0.00     0.021 C 
BRANCH  28  29
ATOM     29  C   UNL A   1      36.109  24.108  26.031  1.00  0.00     0.116 C 
BRANCH  29  30
ATOM     30  N   UNL A   1      37.026  22.977  25.983  1.00  0.00    -0.352 N 
ATOM     31  C   UNL A   1      38.381  22.964  26.208  1.00  0.00     0.251 C 
ATOM     32  H   UNL A   1      36.620  22.108  25.762  1.00  0.00     0.163 HD
ATOM     33  O   UNL A   1      39.054  21.990  25.902  1.00  0.00    -0.269 OA
BRANCH  31  34
ATOM     34  C   UNL A   1      39.013  24.155  26.815  1.00  0.00     0.039 A 
ATOM     35  C   UNL A   1      39.772  25.011  26.016  1.00  0.00     0.014 A 
ATOM     36  C   UNL A   1      38.830  24.425  28.174  1.00  0.00     0.014 A 
ATOM     37  C   UNL A   1      40.306  26.176  26.573  1.00  0.00     0.010 A 
ATOM     38  C   UNL A   1      39.296  25.620  28.705  1.00  0.00     0.010 A 
ATOM     39  C   UNL A   1      40.049  26.503  27.914  1.00  0.00    -0.014 A 
BRANCH  39  40
ATOM     40  C   UNL A   1      40.576  27.743  28.535  1.00  0.00     0.031 A 
ATOM     41  C   UNL A   1      41.991  27.771  29.050  1.00  0.00     0.074 A 
ATOM     42  C   UNL A   1      39.767  28.806  28.713  1.00  0.00     0.049 A 
ATOM     43  N   UNL A   1      42.601  28.701  29.737  1.00  0.00    -0.248 NA
ATOM     44  C   UNL A   1      42.815  26.580  28.784  1.00  0.00     0.031 C 
ATOM     45  C   UNL A   1      38.370  28.892  28.282  1.00  0.00     0.029 A 
ATOM     46  N   UNL A   1      40.001  30.014  29.321  1.00  0.00    -0.354 N 
ATOM     47  C   UNL A   1      43.869  28.197  30.007  1.00  0.00     0.074 A 
ATOM     48  C   UNL A   1      43.921  26.861  29.455  1.00  0.00     0.031 C 
ATOM     49  C   UNL A   1      37.878  30.096  28.622  1.00  0.00     0.029 A 
ATOM     50  C   UNL A   1      38.906  30.846  29.337  1.00  0.00     0.049 A 
ATOM     51  H   UNL A   1      40.871  30.262  29.709  1.00  0.00     0.167 HD
ATOM     52  C   UNL A   1      44.902  28.799  30.641  1.00  0.00     0.031 A 
ATOM     53  C   UNL A   1      38.742  32.069  29.880  1.00  0.00     0.031 A 
ATOM     54  C   UNL A   1      44.848  30.134  31.173  1.00  0.00     0.049 A 
ATOM     55  C   UNL A   1      39.901  32.713  30.595  1.00  0.00     0.074 A 
ATOM     56  C   UNL A   1      45.855  30.855  31.790  1.00  0.00     0.029 A 
ATOM     57  N   UNL A   1      43.726  30.950  31.151  1.00  0.00    -0.354 N 
ATOM     58  N   UNL A   1      41.108  32.241  30.799  1.00  0.00    -0.248 NA
ATOM     59  C   UNL A   1      39.678  34.057  31.144  1.00  0.00     0.031 C 
ATOM     60  C   UNL A   1      45.327  32.087  32.189  1.00  0.00     0.029 A 
ATOM     61  C   UNL A   1      44.011  32.160  31.760  1.00  0.00     0.049 A 
ATOM     62  H   UNL A   1      42.856  30.704  30.760  1.00  0.00     0.167 HD
ATOM     63  C   UNL A   1      41.800  33.247  31.465  1.00  0.00     0.074 A 
ATOM     64  C   UNL A   1      40.879  34.353  31.625  1.00  0.00     0.031 C 
ATOM     65  C   UNL A   1      43.085  33.256  31.897  1.00  0.00     0.031 A 
BRANCH  52  66
ATOM     66  C   UNL A   1      46.178  28.013  30.799  1.00  0.00    -0.014 A 
ATOM     67  C   UNL A   1      46.425  27.250  31.955  1.00  0.00     0.010 A 
ATOM     68  C   UNL A   1      47.130  28.011  29.764  1.00  0.00     0.010 A 
ATOM     69  C   UNL A   1      47.618  26.535  32.091  1.00  0.00     0.020 A 
ATOM     70  C   UNL A   1      48.310  27.271  29.881  1.00  0.00     0.020 A 
ATOM     71  C   UNL A   1      48.555  26.553  31.053  1.00  0.00     0.054 A 
BRANCH  71  72
ATOM     72  S   UNL A   1      50.085  25.599  31.249  1.00  0.00     0.124 S 
ATOM     73  O   UNL A   1      49.709  24.635  32.279  1.00  0.00    -0.237 OA
ATOM     74  O   UNL A   1      50.288  25.044  29.913  1.00  0.00    -0.237 OA
ATOM     75  O   UNL A   1      51.067  26.599  31.660  1.00  0.00    -0.744 OA
ENDBRANCH  71  72
ENDBRANCH  52  66
BRANCH  53  76
ATOM     76  C   UNL A   1      37.435  32.770  29.758  1.00  0.00    -0.014 A 
ATOM     77  C   UNL A   1      36.515  32.755  30.822  1.00  0.00     0.010 A 
ATOM     78  C   UNL A   1      37.104  33.466  28.581  1.00  0.00     0.010 A 
ATOM     79  C   UNL A   1      35.281  33.401  30.703  1.00  0.00     0.020 A 
ATOM     80  C   UNL A   1      35.884  34.140  28.470  1.00  0.00     0.020 A 
ATOM     81  C   UNL A   1      34.975  34.093  29.528  1.00  0.00     0.054 A 
BRANCH  81  82
ATOM     82  S   UNL A   1      33.386  34.962  29.415  1.00  0.00     0.124 S 
ATOM     83  O   UNL A   1      32.663  34.148  28.444  1.00  0.00    -0.237 OA
ATOM     84  O   UNL A   1      32.894  34.897  30.789  1.00  0.00    -0.237 OA
ATOM     85  O   UNL A   1      33.761  36.298  28.957  1.00  0.00    -0.744 OA
ENDBRANCH  81  82
ENDBRANCH  53  76
BRANCH  65  86
ATOM     86  C   UNL A   1      43.600  34.520  32.536  1.00  0.00    -0.014 A 
ATOM     87  C   UNL A   1      44.209  35.533  31.777  1.00  0.00     0.010 A 
ATOM     88  C   UNL A   1      43.397  34.723  33.914  1.00  0.00     0.010 A 
ATOM     89  C   UNL A   1      44.626  36.718  32.389  1.00  0.00     0.020 A 
ATOM     90  C   UNL A   1      43.784  35.918  34.523  1.00  0.00     0.020 A 
ATOM     91  C   UNL A   1      44.406  36.905  33.758  1.00  0.00     0.054 A 
BRANCH  91  92
ATOM     92  S   UNL A   1      44.899  38.478  34.514  1.00  0.00     0.124 S 
ATOM     93  O   UNL A   1      45.490  39.188  33.383  1.00  0.00    -0.237 OA
ATOM     94  O   UNL A   1      43.628  39.012  34.997  1.00  0.00    -0.237 OA
ATOM     95  O   UNL A   1      45.839  38.081  35.560  1.00  0.00    -0.744 OA
ENDBRANCH  91  92
ENDBRANCH  65  86
ENDBRANCH  39  40
ENDBRANCH  31  34
ENDBRANCH  29  30
ENDBRANCH  28  29
ENDBRANCH  27  28
ENDBRANCH   1  27
TORSDOF 20
ENDMDL
MODEL 2
REMARK VINA RESULT:     -10.6      3.923     10.033
REMARK SMILES CCc1cc(Nc2ccc(C(=O)NCCCCCCNC(=O)c3ccc(-c4c5nc(c(-c6ccc(S(=O)(=O)[O-])cc6)c6ccc([nH]6)c(-c6ccc(S(=O)(=O)[O-])cc6)c6nc(c(-c7ccc(S(=O)(=O)[O-])cc7)c7ccc4[nH]7)C=C6)C=C5)cc3)cc2)nc(C(C)C)n1
REMARK SMILES IDX 16 1 15 2 14 3 13 4 11 5 12 6 10 8 7 9 8 10 84 11 9 12 83 13
REMARK SMILES IDX 6 14 5 16 3 17 4 18 90 19 86 20 85 21 2 22 1 23 87 24 88 25
REMARK SMILES IDX 89 26 17 27 18 28 19 29 20 30 21 31 22 33 23 34 24 35 82 36
REMARK SMILES IDX 25 37 81 38 26 39 27 40 28 41 75 42 29 43 80 44 74 45 76 46
REMARK SMILES IDX 30 47 79 48 73 49 72 50 31 52 61 53 42 54 60 55 43 56 46 57
REMARK SMILES IDX 59 58 77 59 44 60 45 61 58 63 78 64 47 65 32 66 33 67 41 68
REMARK SMILES IDX 34 69 40 70 35 71 36 72 37 73 38 74 39 75 62 76 63 77 71 78
REMARK SMILES IDX 64 79 70 80 65 81 66 82 67 83 68 84 69 85 48 86 49 87 57 88
REMARK SMILES IDX 50 89 56 90 51 91 52 92 53 93 54 94 55 95
REMARK H PARENT 13 7 6 15 20 32 76 51 46 62
REMARK Flexibility Score: inf
ROOT
ATOM      1  C   UNL A   1      37.026  22.285  25.476  1.00  0.00     0.002 C 
ENDROOT
BRANCH   1   2
ATOM      2  C   UNL A   1      35.772  23.040  25.017  1.00  0.00     0.021 C 
BRANCH   2   3
ATOM      3  C   UNL A   1      34.493  22.526  25.682  1.00  0.00     0.116 C 
BRANCH   3   4
ATOM      4  N   UNL A   1      33.766  21.686  24.746  1.00  0.00    -0.352 N 
ATOM      5  C   UNL A   1      32.874  21.972  23.747  1.00  0.00     0.251 C 
ATOM      6  O   UNL A   1      32.371  21.028  23.136  1.00  0.00    -0.269 OA
ATOM      7  H   UNL A   1      33.951  20.724  24.851  1.00  0.00     0.163 HD
BRANCH   5   8
ATOM      8  C   UNL A   1      32.562  23.361  23.316  1.00  0.00     0.039 A 
ATOM      9  C   UNL A   1      31.676  25.827  22.295  1.00  0.00     0.040 A 
ATOM     10  C   UNL A   1      30.852  25.085  23.138  1.00  0.00     0.027 A 
ATOM     11  C   UNL A   1      32.994  25.403  22.094  1.00  0.00     0.027 A 
ATOM     12  C   UNL A   1      31.283  23.848  23.625  1.00  0.00     0.016 A 
ATOM     13  C   UNL A   1      33.443  24.192  22.624  1.00  0.00     0.016 A 
BRANCH   9  14
ATOM     14  N   UNL A   1      31.217  27.028  21.730  1.00  0.00    -0.340 N 
ATOM     15  H   UNL A   1      31.181  27.094  20.748  1.00  0.00     0.168 HD
BRANCH  14  16
ATOM     16  C   UNL A   1      30.803  28.144  22.486  1.00  0.00     0.134 A 
ATOM     17  C   UNL A   1      31.007  29.537  24.380  1.00  0.00     0.046 A 
ATOM     18  C   UNL A   1      31.460  28.445  23.662  1.00  0.00     0.071 A 
ATOM     19  N   UNL A   1      29.933  30.248  23.990  1.00  0.00    -0.238 NA
ATOM     20  C   UNL A   1      29.331  29.880  22.847  1.00  0.00     0.133 A 
ATOM     21  N   UNL A   1      29.734  28.853  22.081  1.00  0.00    -0.216 NA
BRANCH  17  22
ATOM     22  C   UNL A   1      31.715  29.937  25.651  1.00  0.00     0.053 C 
ATOM     23  C   UNL A   1      31.994  28.785  26.608  1.00  0.00     0.011 C 
ENDBRANCH  17  22
BRANCH  20  24
ATOM     24  C   UNL A   1      28.102  30.639  22.400  1.00  0.00     0.051 C 
ATOM     25  C   UNL A   1      27.463  31.374  23.578  1.00  0.00     0.016 C 
ATOM     26  C   UNL A   1      28.433  31.606  21.264  1.00  0.00     0.016 C 
ENDBRANCH  20  24
ENDBRANCH  14  16
ENDBRANCH   9  14
ENDBRANCH   5   8
ENDBRANCH   3   4
ENDBRANCH   2   3
ENDBRANCH   1   2
BRANCH   1  27
ATOM     27  C   UNL A   1      36.968  20.767  25.270  1.00  0.00     0.002 C 
BRANCH  27  28
ATOM     28  C   UNL A   1      38.310  20.118  24.922  1.00  0.00     0.021 C 
BRANCH  28  29
ATOM     29  C   UNL A   1      39.427  20.451  25.903  1.00  0.00     0.116 C 
BRANCH  29  30
ATOM     30  N   UNL A   1      40.360  19.342  26.046  1.00  0.00    -0.352 N 
ATOM     31  C   UNL A   1      41.729  19.383  26.154  1.00  0.00     0.251 C 
ATOM     32  H   UNL A   1      39.956  18.445  26.069  1.00  0.00     0.163 HD
ATOM     33  O   UNL A   1      42.394  18.365  26.031  1.00  0.00    -0.269 OA
BRANCH  31  34
ATOM     34  C   UNL A   1      42.383  20.684  26.411  1.00  0.00     0.039 A 
ATOM     35  C   UNL A   1      42.862  21.435  25.336  1.00  0.00     0.014 A 
ATOM     36  C   UNL A   1      42.499  21.161  27.719  1.00  0.00     0.014 A 
ATOM     37  C   UNL A   1      43.413  22.697  25.571  1.00  0.00     0.010 A 
ATOM     38  C   UNL A   1      42.975  22.446  27.942  1.00  0.00     0.010 A 
ATOM     39  C   UNL A   1      43.447  23.223  26.873  1.00  0.00    -0.014 A 
BRANCH  39  40
ATOM     40  C   UNL A   1      43.999  24.570  27.161  1.00  0.00     0.031 A 
ATOM     41  C   UNL A   1      43.070  25.678  27.579  1.00  0.00     0.074 A 
ATOM     42  C   UNL A   1      45.309  24.819  26.965  1.00  0.00     0.049 A 
ATOM     43  N   UNL A   1      43.325  26.949  27.750  1.00  0.00    -0.248 NA
ATOM     44  C   UNL A   1      41.661  25.311  27.802  1.00  0.00     0.031 C 
ATOM     45  C   UNL A   1      46.307  23.836  26.535  1.00  0.00     0.029 A 
ATOM     46  N   UNL A   1      46.024  25.985  27.087  1.00  0.00    -0.354 N 
ATOM     47  C   UNL A   1      42.107  27.536  28.074  1.00  0.00     0.074 A 
ATOM     48  C   UNL A   1      41.106  26.492  28.025  1.00  0.00     0.031 C 
ATOM     49  C   UNL A   1      47.506  24.435  26.449  1.00  0.00     0.029 A 
ATOM     50  C   UNL A   1      47.355  25.852  26.766  1.00  0.00     0.049 A 
ATOM     51  H   UNL A   1      45.622  26.836  27.375  1.00  0.00     0.167 HD
ATOM     52  C   UNL A   1      41.847  28.824  28.402  1.00  0.00     0.031 A 
ATOM     53  C   UNL A   1      48.340  26.771  26.719  1.00  0.00     0.031 A 
ATOM     54  C   UNL A   1      42.849  29.853  28.464  1.00  0.00     0.049 A 
ATOM     55  C   UNL A   1      48.025  28.201  27.071  1.00  0.00     0.074 A 
ATOM     56  C   UNL A   1      42.700  31.177  28.833  1.00  0.00     0.029 A 
ATOM     57  N   UNL A   1      44.189  29.672  28.152  1.00  0.00    -0.354 N 
ATOM     58  N   UNL A   1      46.876  28.728  27.422  1.00  0.00    -0.248 NA
ATOM     59  C   UNL A   1      49.141  29.156  27.031  1.00  0.00     0.031 C 
ATOM     60  C   UNL A   1      43.938  31.811  28.692  1.00  0.00     0.029 A 
ATOM     61  C   UNL A   1      44.873  30.866  28.302  1.00  0.00     0.049 A 
ATOM     62  H   UNL A   1      44.593  28.821  27.866  1.00  0.00     0.167 HD
ATOM     63  C   UNL A   1      47.140  30.069  27.683  1.00  0.00     0.074 A 
ATOM     64  C   UNL A   1      48.555  30.270  27.454  1.00  0.00     0.031 C 
ATOM     65  C   UNL A   1      46.286  31.044  28.083  1.00  0.00     0.031 A 
BRANCH  52  66
ATOM     66  C   UNL A   1      40.418  29.191  28.709  1.00  0.00    -0.014 A 
ATOM     67  C   UNL A   1      39.482  29.400  27.681  1.00  0.00     0.010 A 
ATOM     68  C   UNL A   1      39.998  29.298  30.047  1.00  0.00     0.010 A 
ATOM     69  C   UNL A   1      38.163  29.752  27.983  1.00  0.00     0.020 A 
ATOM     70  C   UNL A   1      38.672  29.617  30.355  1.00  0.00     0.020 A 
ATOM     71  C   UNL A   1      37.768  29.861  29.319  1.00  0.00     0.054 A 
BRANCH  71  72
ATOM     72  S   UNL A   1      36.046  30.298  29.682  1.00  0.00     0.124 S 
ATOM     73  O   UNL A   1      36.091  31.757  29.639  1.00  0.00    -0.237 OA
ATOM     74  O   UNL A   1      35.317  29.660  28.588  1.00  0.00    -0.237 OA
ATOM     75  O   UNL A   1      35.811  29.721  31.003  1.00  0.00    -0.744 OA
ENDBRANCH  71  72
ENDBRANCH  52  66
BRANCH  53  76
ATOM     76  C   UNL A   1      49.720  26.365  26.335  1.00  0.00    -0.014 A 
ATOM     77  C   UNL A   1      50.579  25.775  27.279  1.00  0.00     0.010 A 
ATOM     78  C   UNL A   1      50.183  26.558  25.021  1.00  0.00     0.010 A 
ATOM     79  C   UNL A   1      51.880  25.406  26.923  1.00  0.00     0.020 A 
ATOM     80  C   UNL A   1      51.473  26.163  24.652  1.00  0.00     0.020 A 
ATOM     81  C   UNL A   1      52.317  25.600  25.610  1.00  0.00     0.054 A 
BRANCH  81  82
ATOM     82  S   UNL A   1      53.994  25.072  25.161  1.00  0.00     0.124 S 
ATOM     83  O   UNL A   1      53.810  23.644  24.923  1.00  0.00    -0.237 OA
ATOM     84  O   UNL A   1      54.272  25.881  23.977  1.00  0.00    -0.237 OA
ATOM     85  O   UNL A   1      54.786  25.414  26.340  1.00  0.00    -0.744 OA
ENDBRANCH  81  82
ENDBRANCH  53  76
BRANCH  65  86
ATOM     86  C   UNL A   1      46.862  32.409  28.359  1.00  0.00    -0.014 A 
ATOM     87  C   UNL A   1      46.909  33.402  27.367  1.00  0.00     0.010 A 
ATOM     88  C   UNL A   1      47.292  32.719  29.663  1.00  0.00     0.010 A 
ATOM     89  C   UNL A   1      47.397  34.677  27.669  1.00  0.00     0.020 A 
ATOM     90  C   UNL A   1      47.751  34.000  29.976  1.00  0.00     0.020 A 
ATOM     91  C   UNL A   1      47.810  34.969  28.973  1.00  0.00     0.054 A 
BRANCH  91  92
ATOM     92  S   UNL A   1      48.379  36.648  29.353  1.00  0.00     0.124 S 
ATOM     93  O   UNL A   1      47.792  37.423  28.262  1.00  0.00    -0.237 OA
ATOM     94  O   UNL A   1      47.805  36.889  30.675  1.00  0.00    -0.237 OA
ATOM     95  O   UNL A   1      49.835  36.537  29.323  1.00  0.00    -0.744 OA
ENDBRANCH  91  92
ENDBRANCH  65  86
ENDBRANCH  39  40
ENDBRANCH  31  34
ENDBRANCH  29  30
ENDBRANCH  28  29
ENDBRANCH  27  28
ENDBRANCH   1  27
TORSDOF 20
ENDMDL
MODEL 3
REMARK VINA RESULT:     -10.3      3.865      9.699
REMARK SMILES CCc1cc(Nc2ccc(C(=O)NCCCCCCNC(=O)c3ccc(-c4c5nc(c(-c6ccc(S(=O)(=O)[O-])cc6)c6ccc([nH]6)c(-c6ccc(S(=O)(=O)[O-])cc6)c6nc(c(-c7ccc(S(=O)(=O)[O-])cc7)c7ccc4[nH]7)C=C6)C=C5)cc3)cc2)nc(C(C)C)n1
REMARK SMILES IDX 16 1 15 2 14 3 13 4 11 5 12 6 10 8 7 9 8 10 84 11 9 12 83 13
REMARK SMILES IDX 6 14 5 16 3 17 4 18 90 19 86 20 85 21 2 22 1 23 87 24 88 25
REMARK SMILES IDX 89 26 17 27 18 28 19 29 20 30 21 31 22 33 23 34 24 35 82 36
REMARK SMILES IDX 25 37 81 38 26 39 27 40 28 41 75 42 29 43 80 44 74 45 76 46
REMARK SMILES IDX 30 47 79 48 73 49 72 50 31 52 61 53 42 54 60 55 43 56 46 57
REMARK SMILES IDX 59 58 77 59 44 60 45 61 58 63 78 64 47 65 32 66 33 67 41 68
REMARK SMILES IDX 34 69 40 70 35 71 36 72 37 73 38 74 39 75 62 76 63 77 71 78
REMARK SMILES IDX 64 79 70 80 65 81 66 82 67 83 68 84 69 85 48 86 49 87 57 88
REMARK SMILES IDX 50 89 56 90 51 91 52 92 53 93 54 94 55 95
REMARK H PARENT 13 7 6 15 20 32 76 51 46 62
REMARK Flexibility Score: inf
ROOT
ATOM      1  C   UNL A   1      37.296  22.438  25.272  1.00  0.00     0.002 C 
ENDROOT
BRANCH   1   2
ATOM      2  C   UNL A   1      36.315  21.258  25.301  1.00  0.00     0.021 C 
BRANCH   2   3
ATOM      3  C   UNL A   1      35.097  21.519  26.190  1.00  0.00     0.116 C 
BRANCH   3   4
ATOM      4  N   UNL A   1      34.120  20.463  25.995  1.00  0.00    -0.352 N 
ATOM      5  C   UNL A   1      32.890  20.440  25.392  1.00  0.00     0.251 C 
ATOM      6  O   UNL A   1      32.253  19.387  25.423  1.00  0.00    -0.269 OA
ATOM      7  H   UNL A   1      34.396  19.594  26.367  1.00  0.00     0.163 HD
BRANCH   5   8
ATOM      8  C   UNL A   1      32.341  21.598  24.635  1.00  0.00     0.039 A 
ATOM      9  C   UNL A   1      31.672  23.929  23.213  1.00  0.00     0.040 A 
ATOM     10  C   UNL A   1      32.559  23.007  22.661  1.00  0.00     0.027 A 
ATOM     11  C   UNL A   1      31.010  23.604  24.402  1.00  0.00     0.027 A 
ATOM     12  C   UNL A   1      32.911  21.861  23.380  1.00  0.00     0.016 A 
ATOM     13  C   UNL A   1      31.322  22.432  25.094  1.00  0.00     0.016 A 
BRANCH   9  14
ATOM     14  N   UNL A   1      31.383  25.126  22.538  1.00  0.00    -0.340 N 
ATOM     15  H   UNL A   1      31.316  25.100  21.556  1.00  0.00     0.168 HD
BRANCH  14  16
ATOM     16  C   UNL A   1      31.181  26.363  23.185  1.00  0.00     0.134 A 
ATOM     17  C   UNL A   1      30.048  28.424  23.378  1.00  0.00     0.046 A 
ATOM     18  C   UNL A   1      30.196  27.213  22.725  1.00  0.00     0.071 A 
ATOM     19  N   UNL A   1      30.864  28.795  24.381  1.00  0.00    -0.238 NA
ATOM     20  C   UNL A   1      31.816  27.923  24.757  1.00  0.00     0.133 A 
ATOM     21  N   UNL A   1      31.998  26.719  24.193  1.00  0.00    -0.216 NA
BRANCH  17  22
ATOM     22  C   UNL A   1      28.959  29.374  22.946  1.00  0.00     0.053 C 
ATOM     23  C   UNL A   1      27.551  28.796  23.019  1.00  0.00     0.011 C 
ENDBRANCH  17  22
BRANCH  20  24
ATOM     24  C   UNL A   1      32.769  28.325  25.861  1.00  0.00     0.051 C 
ATOM     25  C   UNL A   1      32.006  28.634  27.148  1.00  0.00     0.016 C 
ATOM     26  C   UNL A   1      33.828  27.250  26.094  1.00  0.00     0.016 C 
ENDBRANCH  20  24
ENDBRANCH  14  16
ENDBRANCH   9  14
ENDBRANCH   5   8
ENDBRANCH   3   4
ENDBRANCH   2   3
ENDBRANCH   1   2
BRANCH   1  27
ATOM     27  C   UNL A   1      38.708  22.106  25.770  1.00  0.00     0.002 C 
BRANCH  27  28
ATOM     28  C   UNL A   1      39.203  22.988  26.919  1.00  0.00     0.021 C 
BRANCH  28  29
ATOM     29  C   UNL A   1      39.112  24.481  26.632  1.00  0.00     0.116 C 
BRANCH  29  30
ATOM     30  N   UNL A   1      40.208  24.929  25.785  1.00  0.00    -0.352 N 
ATOM     31  C   UNL A   1      41.002  26.041  25.930  1.00  0.00     0.251 C 
ATOM     32  H   UNL A   1      40.408  24.359  25.007  1.00  0.00     0.163 HD
ATOM     33  O   UNL A   1      41.724  26.414  25.016  1.00  0.00    -0.269 OA
BRANCH  31  34
ATOM     34  C   UNL A   1      40.958  26.785  27.206  1.00  0.00     0.039 A 
ATOM     35  C   UNL A   1      41.637  28.000  27.316  1.00  0.00     0.014 A 
ATOM     36  C   UNL A   1      40.223  26.281  28.282  1.00  0.00     0.014 A 
ATOM     37  C   UNL A   1      41.535  28.739  28.497  1.00  0.00     0.010 A 
ATOM     38  C   UNL A   1      40.060  27.054  29.424  1.00  0.00     0.010 A 
ATOM     39  C   UNL A   1      40.723  28.285  29.549  1.00  0.00    -0.014 A 
BRANCH  39  40
ATOM     40  C   UNL A   1      40.566  29.055  30.808  1.00  0.00     0.031 A 
ATOM     41  C   UNL A   1      39.507  30.120  30.899  1.00  0.00     0.074 A 
ATOM     42  C   UNL A   1      41.423  28.859  31.830  1.00  0.00     0.049 A 
ATOM     43  N   UNL A   1      39.289  30.989  31.851  1.00  0.00    -0.248 NA
ATOM     44  C   UNL A   1      38.593  30.245  29.750  1.00  0.00     0.031 C 
ATOM     45  C   UNL A   1      42.508  27.875  31.854  1.00  0.00     0.029 A 
ATOM     46  N   UNL A   1      41.524  29.493  33.044  1.00  0.00    -0.354 N 
ATOM     47  C   UNL A   1      38.234  31.778  31.406  1.00  0.00     0.074 A 
ATOM     48  C   UNL A   1      37.891  31.318  30.078  1.00  0.00     0.031 C 
ATOM     49  C   UNL A   1      43.151  27.958  33.030  1.00  0.00     0.029 A 
ATOM     50  C   UNL A   1      42.560  29.032  33.822  1.00  0.00     0.049 A 
ATOM     51  H   UNL A   1      40.914  30.210  33.329  1.00  0.00     0.167 HD
ATOM     52  C   UNL A   1      37.595  32.782  32.052  1.00  0.00     0.031 A 
ATOM     53  C   UNL A   1      42.994  29.439  35.032  1.00  0.00     0.031 A 
ATOM     54  C   UNL A   1      37.932  33.224  33.378  1.00  0.00     0.049 A 
ATOM     55  C   UNL A   1      42.280  30.569  35.724  1.00  0.00     0.074 A 
ATOM     56  C   UNL A   1      37.316  34.199  34.141  1.00  0.00     0.029 A 
ATOM     57  N   UNL A   1      38.975  32.717  34.140  1.00  0.00    -0.354 N 
ATOM     58  N   UNL A   1      41.253  31.271  35.308  1.00  0.00    -0.248 NA
ATOM     59  C   UNL A   1      42.776  30.954  37.053  1.00  0.00     0.031 C 
ATOM     60  C   UNL A   1      38.020  34.321  35.343  1.00  0.00     0.029 A 
ATOM     61  C   UNL A   1      39.031  33.373  35.357  1.00  0.00     0.049 A 
ATOM     62  H   UNL A   1      39.584  31.998  33.857  1.00  0.00     0.167 HD
ATOM     63  C   UNL A   1      40.955  32.154  36.341  1.00  0.00     0.074 A 
ATOM     64  C   UNL A   1      41.907  31.894  37.401  1.00  0.00     0.031 C 
ATOM     65  C   UNL A   1      39.977  33.091  36.408  1.00  0.00     0.031 A 
BRANCH  52  66
ATOM     66  C   UNL A   1      36.473  33.477  31.325  1.00  0.00    -0.014 A 
ATOM     67  C   UNL A   1      35.324  33.915  32.007  1.00  0.00     0.010 A 
ATOM     68  C   UNL A   1      36.583  33.724  29.945  1.00  0.00     0.010 A 
ATOM     69  C   UNL A   1      34.287  34.548  31.316  1.00  0.00     0.020 A 
ATOM     70  C   UNL A   1      35.563  34.387  29.255  1.00  0.00     0.020 A 
ATOM     71  C   UNL A   1      34.412  34.777  29.943  1.00  0.00     0.054 A 
BRANCH  71  72
ATOM     72  S   UNL A   1      33.060  35.618  29.076  1.00  0.00     0.124 S 
ATOM     73  O   UNL A   1      32.478  34.528  28.297  1.00  0.00    -0.237 OA
ATOM     74  O   UNL A   1      32.236  36.114  30.175  1.00  0.00    -0.237 OA
ATOM     75  O   UNL A   1      33.737  36.650  28.294  1.00  0.00    -0.744 OA
ENDBRANCH  71  72
ENDBRANCH  52  66
BRANCH  53  76
ATOM     76  C   UNL A   1      44.158  28.764  35.672  1.00  0.00    -0.014 A 
ATOM     77  C   UNL A   1      43.965  27.655  36.514  1.00  0.00     0.010 A 
ATOM     78  C   UNL A   1      45.467  29.221  35.436  1.00  0.00     0.010 A 
ATOM     79  C   UNL A   1      45.055  27.030  37.126  1.00  0.00     0.020 A 
ATOM     80  C   UNL A   1      46.563  28.580  36.022  1.00  0.00     0.020 A 
ATOM     81  C   UNL A   1      46.349  27.495  36.873  1.00  0.00     0.054 A 
BRANCH  81  82
ATOM     82  S   UNL A   1      47.751  26.639  37.643  1.00  0.00     0.124 S 
ATOM     83  O   UNL A   1      48.712  27.723  37.814  1.00  0.00    -0.237 OA
ATOM     84  O   UNL A   1      47.162  26.114  38.873  1.00  0.00    -0.237 OA
ATOM     85  O   UNL A   1      48.117  25.627  36.655  1.00  0.00    -0.744 OA
ENDBRANCH  81  82
ENDBRANCH  53  76
BRANCH  65  86
ATOM     86  C   UNL A   1      39.840  33.871  37.689  1.00  0.00    -0.014 A 
ATOM     87  C   UNL A   1      40.442  35.130  37.852  1.00  0.00     0.010 A 
ATOM     88  C   UNL A   1      39.027  33.360  38.718  1.00  0.00     0.010 A 
ATOM     89  C   UNL A   1      40.249  35.855  39.032  1.00  0.00     0.020 A 
ATOM     90  C   UNL A   1      38.808  34.095  39.885  1.00  0.00     0.020 A 
ATOM     91  C   UNL A   1      39.430  35.335  40.039  1.00  0.00     0.054 A 
BRANCH  91  92
ATOM     92  S   UNL A   1      39.147  36.324  41.532  1.00  0.00     0.124 S 
ATOM     93  O   UNL A   1      37.949  35.700  42.089  1.00  0.00    -0.237 OA
ATOM     94  O   UNL A   1      40.377  36.115  42.292  1.00  0.00    -0.237 OA
ATOM     95  O   UNL A   1      38.961  37.680  41.021  1.00  0.00    -0.744 OA
ENDBRANCH  91  92
ENDBRANCH  65  86
ENDBRANCH  39  40
ENDBRANCH  31  34
ENDBRANCH  29  30
ENDBRANCH  28  29
ENDBRANCH  27  28
ENDBRANCH   1  27
TORSDOF 20
ENDMDL
