MODEL 1
REMARK VINA RESULT:     -11.4      0.000      0.000
REMARK SMILES O=C(NCCCCCCNC(=O)[C@H](NC(=O)c1ccc(Br)nc1)c1ccccc1)c1ccc(-c2c3nc(c(-c4ccc(S(=O)(=O)[O-])cc4)c4ccc([nH]4)c(-c4ccc(S(=O)(=O)[O-])cc4)c4nc(c(-c5ccc(S(=O)(=O)[O-])cc5)c5ccc2[nH]5)C=C4)C=C3)cc1
REMARK SMILES IDX 6 1 5 2 4 3 3 4 1 5 2 6 30 8 31 9 89 10 32 11 88 12 33 13
REMARK SMILES IDX 34 14 35 15 82 16 36 17 87 18 81 19 83 20 37 21 86 22 80 23
REMARK SMILES IDX 79 24 38 26 68 27 49 28 67 29 50 30 53 31 66 32 84 33 51 34
REMARK SMILES IDX 52 35 65 37 85 38 54 39 39 40 40 41 48 42 41 43 47 44 42 45
REMARK SMILES IDX 43 46 44 47 45 48 46 49 69 50 70 51 78 52 71 53 77 54 72 55
REMARK SMILES IDX 73 56 74 57 75 58 76 59 55 60 56 61 64 62 57 63 63 64 58 65
REMARK SMILES IDX 59 66 60 67 61 68 62 69 7 70 8 71 9 72 10 73 11 74 12 76
REMARK SMILES IDX 13 77 24 78 25 79 29 80 26 81 28 82 27 83 14 84 15 85 16 87
REMARK SMILES IDX 17 88 18 89 23 90 19 91 22 92 20 93 21 94
REMARK H PARENT 3 7 83 25 53 36 10 75 14 86
REMARK Flexibility Score: inf
ROOT
ATOM      1  C   UNL A   1      36.670  23.370  24.589  1.00  0.00     0.002 C 
ENDROOT
BRANCH   1   2
ATOM      2  C   UNL A   1      37.367  23.112  25.924  1.00  0.00     0.021 C 
BRANCH   2   3
ATOM      3  C   UNL A   1      38.235  24.245  26.450  1.00  0.00     0.116 C 
BRANCH   3   4
ATOM      4  N   UNL A   1      39.639  24.086  26.125  1.00  0.00    -0.352 N 
ATOM      5  O   UNL A   1      41.829  24.611  26.125  1.00  0.00    -0.269 OA
ATOM      6  C   UNL A   1      40.717  24.797  26.600  1.00  0.00     0.251 C 
ATOM      7  H   UNL A   1      39.848  23.376  25.477  1.00  0.00     0.163 HD
BRANCH   6   8
ATOM      8  C   UNL A   1      40.517  25.801  27.671  1.00  0.00     0.039 A 
ATOM      9  C   UNL A   1      39.565  25.596  28.675  1.00  0.00     0.014 A 
ATOM     10  C   UNL A   1      41.311  26.950  27.680  1.00  0.00     0.014 A 
ATOM     11  C   UNL A   1      39.336  26.584  29.626  1.00  0.00     0.010 A 
ATOM     12  C   UNL A   1      41.136  27.906  28.685  1.00  0.00     0.010 A 
ATOM     13  C   UNL A   1      40.145  27.732  29.663  1.00  0.00    -0.014 A 
BRANCH  13  14
ATOM     14  C   UNL A   1      40.041  28.656  30.819  1.00  0.00     0.031 A 
ATOM     15  C   UNL A   1      39.027  29.764  30.853  1.00  0.00     0.074 A 
ATOM     16  C   UNL A   1      40.909  28.488  31.839  1.00  0.00     0.049 A 
ATOM     17  N   UNL A   1      38.841  30.669  31.779  1.00  0.00    -0.248 NA
ATOM     18  C   UNL A   1      38.108  29.877  29.710  1.00  0.00     0.031 C 
ATOM     19  C   UNL A   1      41.948  27.454  31.897  1.00  0.00     0.029 A 
ATOM     20  N   UNL A   1      41.063  29.175  33.014  1.00  0.00    -0.354 N 
ATOM     21  C   UNL A   1      37.806  31.477  31.322  1.00  0.00     0.074 A 
ATOM     22  C   UNL A   1      37.405  30.956  30.032  1.00  0.00     0.031 C 
ATOM     23  C   UNL A   1      42.614  27.561  33.055  1.00  0.00     0.029 A 
ATOM     24  C   UNL A   1      42.103  28.712  33.786  1.00  0.00     0.049 A 
ATOM     25  H   UNL A   1      40.485  29.927  33.280  1.00  0.00     0.167 HD
ATOM     26  C   UNL A   1      37.253  32.555  31.927  1.00  0.00     0.031 A 
ATOM     27  C   UNL A   1      42.622  29.185  34.935  1.00  0.00     0.031 A 
ATOM     28  C   UNL A   1      37.662  33.056  33.215  1.00  0.00     0.049 A 
ATOM     29  C   UNL A   1      42.011  30.406  35.555  1.00  0.00     0.074 A 
ATOM     30  C   UNL A   1      37.109  34.096  33.943  1.00  0.00     0.029 A 
ATOM     31  N   UNL A   1      38.730  32.574  33.955  1.00  0.00    -0.354 N 
ATOM     32  N   UNL A   1      40.972  31.099  35.151  1.00  0.00    -0.248 NA
ATOM     33  C   UNL A   1      42.641  30.917  36.780  1.00  0.00     0.031 C 
ATOM     34  C   UNL A   1      37.889  34.290  35.087  1.00  0.00     0.029 A 
ATOM     35  C   UNL A   1      38.887  33.330  35.105  1.00  0.00     0.049 A 
ATOM     36  H   UNL A   1      39.294  31.808  33.700  1.00  0.00     0.167 HD
ATOM     37  C   UNL A   1      40.823  32.124  36.076  1.00  0.00     0.074 A 
ATOM     38  C   UNL A   1      41.853  31.940  37.078  1.00  0.00     0.031 C 
ATOM     39  C   UNL A   1      39.921  33.135  36.089  1.00  0.00     0.031 A 
BRANCH  26  40
ATOM     40  C   UNL A   1      36.160  33.304  31.208  1.00  0.00    -0.014 A 
ATOM     41  C   UNL A   1      34.949  33.622  31.845  1.00  0.00     0.010 A 
ATOM     42  C   UNL A   1      36.405  33.803  29.915  1.00  0.00     0.010 A 
ATOM     43  C   UNL A   1      34.001  34.423  31.200  1.00  0.00     0.020 A 
ATOM     44  C   UNL A   1      35.470  34.623  29.276  1.00  0.00     0.020 A 
ATOM     45  C   UNL A   1      34.270  34.924  29.922  1.00  0.00     0.054 A 
BRANCH  45  46
ATOM     46  S   UNL A   1      33.053  36.022  29.144  1.00  0.00     0.124 S 
ATOM     47  O   UNL A   1      33.907  36.913  28.363  1.00  0.00    -0.237 OA
ATOM     48  O   UNL A   1      32.238  35.093  28.365  1.00  0.00    -0.237 OA
ATOM     49  O   UNL A   1      32.372  36.646  30.276  1.00  0.00    -0.744 OA
ENDBRANCH  45  46
ENDBRANCH  26  40
BRANCH  27  50
ATOM     50  C   UNL A   1      43.825  28.540  35.529  1.00  0.00    -0.014 A 
ATOM     51  C   UNL A   1      45.117  28.892  35.107  1.00  0.00     0.010 A 
ATOM     52  C   UNL A   1      43.675  27.552  36.522  1.00  0.00     0.010 A 
ATOM     53  C   UNL A   1      46.235  28.244  35.641  1.00  0.00     0.020 A 
ATOM     54  C   UNL A   1      44.790  26.928  37.083  1.00  0.00     0.020 A 
ATOM     55  C   UNL A   1      46.063  27.264  36.622  1.00  0.00     0.054 A 
BRANCH  55  56
ATOM     56  S   UNL A   1      47.527  26.443  37.310  1.00  0.00     0.124 S 
ATOM     57  O   UNL A   1      47.607  27.037  38.640  1.00  0.00    -0.237 OA
ATOM     58  O   UNL A   1      47.147  25.033  37.267  1.00  0.00    -0.237 OA
ATOM     59  O   UNL A   1      48.596  26.820  36.389  1.00  0.00    -0.744 OA
ENDBRANCH  55  56
ENDBRANCH  27  50
BRANCH  39  60
ATOM     60  C   UNL A   1      40.003  34.117  37.225  1.00  0.00    -0.014 A 
ATOM     61  C   UNL A   1      40.875  35.219  37.163  1.00  0.00     0.010 A 
ATOM     62  C   UNL A   1      39.156  33.970  38.338  1.00  0.00     0.010 A 
ATOM     63  C   UNL A   1      40.913  36.147  38.206  1.00  0.00     0.020 A 
ATOM     64  C   UNL A   1      39.170  34.913  39.369  1.00  0.00     0.020 A 
ATOM     65  C   UNL A   1      40.056  35.991  39.300  1.00  0.00     0.054 A 
BRANCH  65  66
ATOM     66  S   UNL A   1      40.081  37.246  40.609  1.00  0.00     0.124 S 
ATOM     67  O   UNL A   1      40.401  38.458  39.863  1.00  0.00    -0.237 OA
ATOM     68  O   UNL A   1      38.722  37.175  41.142  1.00  0.00    -0.237 OA
ATOM     69  O   UNL A   1      41.126  36.779  41.517  1.00  0.00    -0.744 OA
ENDBRANCH  65  66
ENDBRANCH  39  60
ENDBRANCH  13  14
ENDBRANCH   6   8
ENDBRANCH   3   4
ENDBRANCH   2   3
ENDBRANCH   1   2
BRANCH   1  70
ATOM     70  C   UNL A   1      35.333  24.120  24.636  1.00  0.00     0.002 C 
BRANCH  70  71
ATOM     71  C   UNL A   1      34.381  23.955  23.442  1.00  0.00     0.021 C 
BRANCH  71  72
ATOM     72  C   UNL A   1      33.720  25.231  22.933  1.00  0.00     0.116 C 
BRANCH  72  73
ATOM     73  N   UNL A   1      32.274  25.189  22.955  1.00  0.00    -0.354 N 
ATOM     74  C   UNL A   1      31.405  25.385  23.989  1.00  0.00     0.247 C 
ATOM     75  H   UNL A   1      31.850  24.988  22.089  1.00  0.00     0.163 HD
ATOM     76  O   UNL A   1      30.206  25.365  23.679  1.00  0.00    -0.272 OA
BRANCH  74  77
ATOM     77  C   UNL A   1      31.851  25.470  25.478  1.00  0.00     0.202 C 
BRANCH  77  78
ATOM     78  C   UNL A   1      32.330  26.785  26.073  1.00  0.00    -0.016 A 
ATOM     79  C   UNL A   1      33.653  27.240  25.987  1.00  0.00     0.006 A 
ATOM     80  C   UNL A   1      31.394  27.627  26.702  1.00  0.00     0.006 A 
ATOM     81  C   UNL A   1      34.047  28.453  26.552  1.00  0.00     0.000 A 
ATOM     82  C   UNL A   1      31.782  28.851  27.256  1.00  0.00     0.000 A 
ATOM     83  C   UNL A   1      33.111  29.258  27.190  1.00  0.00     0.000 A 
ENDBRANCH  77  78
BRANCH  77  84
ATOM     84  N   UNL A   1      30.860  24.806  26.350  1.00  0.00    -0.336 N 
ATOM     85  C   UNL A   1      30.827  23.539  26.876  1.00  0.00     0.253 C 
ATOM     86  H   UNL A   1      30.092  25.368  26.596  1.00  0.00     0.165 HD
ATOM     87  O   UNL A   1      29.898  23.182  27.593  1.00  0.00    -0.269 OA
BRANCH  85  88
ATOM     88  C   UNL A   1      31.882  22.576  26.551  1.00  0.00     0.058 A 
ATOM     89  C   UNL A   1      33.003  22.401  27.359  1.00  0.00     0.018 A 
ATOM     90  C   UNL A   1      31.780  21.838  25.382  1.00  0.00     0.126 A 
ATOM     91  C   UNL A   1      34.029  21.568  26.914  1.00  0.00     0.037 A 
ATOM     92  N   UNL A   1      32.757  21.011  24.934  1.00  0.00    -0.249 NA
ATOM     93  C   UNL A   1      33.872  20.918  25.693  1.00  0.00     0.106 A 
ATOM     94  Br  UNL A   1      35.325  19.917  25.002  1.00  0.00    -0.029 Br
ENDBRANCH  85  88
ENDBRANCH  77  84
ENDBRANCH  74  77
ENDBRANCH  72  73
ENDBRANCH  71  72
ENDBRANCH  70  71
ENDBRANCH   1  70
TORSDOF 19
ENDMDL
MODEL 2
REMARK VINA RESULT:     -11.2      2.985      9.127
REMARK SMILES O=C(NCCCCCCNC(=O)[C@H](NC(=O)c1ccc(Br)nc1)c1ccccc1)c1ccc(-c2c3nc(c(-c4ccc(S(=O)(=O)[O-])cc4)c4ccc([nH]4)c(-c4ccc(S(=O)(=O)[O-])cc4)c4nc(c(-c5ccc(S(=O)(=O)[O-])cc5)c5ccc2[nH]5)C=C4)C=C3)cc1
REMARK SMILES IDX 6 1 5 2 4 3 3 4 1 5 2 6 30 8 31 9 89 10 32 11 88 12 33 13
REMARK SMILES IDX 34 14 35 15 82 16 36 17 87 18 81 19 83 20 37 21 86 22 80 23
REMARK SMILES IDX 79 24 38 26 68 27 49 28 67 29 50 30 53 31 66 32 84 33 51 34
REMARK SMILES IDX 52 35 65 37 85 38 54 39 39 40 40 41 48 42 41 43 47 44 42 45
REMARK SMILES IDX 43 46 44 47 45 48 46 49 69 50 70 51 78 52 71 53 77 54 72 55
REMARK SMILES IDX 73 56 74 57 75 58 76 59 55 60 56 61 64 62 57 63 63 64 58 65
REMARK SMILES IDX 59 66 60 67 61 68 62 69 7 70 8 71 9 72 10 73 11 74 12 76
REMARK SMILES IDX 13 77 24 78 25 79 29 80 26 81 28 82 27 83 14 84 15 85 16 87
REMARK SMILES IDX 17 88 18 89 23 90 19 91 22 92 20 93 21 94
REMARK H PARENT 3 7 83 25 53 36 10 75 14 86
REMARK Flexibility Score: inf
ROOT
ATOM      1  C   UNL A   1      33.009  27.031  26.137  1.00  0.00     0.002 C 
ENDROOT
BRANCH   1   2
ATOM      2  C   UNL A   1      33.567  28.117  27.055  1.00  0.00     0.021 C 
BRANCH   2   3
ATOM      3  C   UNL A   1      34.266  29.277  26.362  1.00  0.00     0.116 C 
BRANCH   3   4
ATOM      4  N   UNL A   1      33.859  30.573  26.870  1.00  0.00    -0.352 N 
ATOM      5  O   UNL A   1      33.904  32.359  28.242  1.00  0.00    -0.269 OA
ATOM      6  C   UNL A   1      34.451  31.337  27.849  1.00  0.00     0.251 C 
ATOM      7  H   UNL A   1      33.051  30.957  26.460  1.00  0.00     0.163 HD
BRANCH   6   8
ATOM      8  C   UNL A   1      35.740  30.903  28.435  1.00  0.00     0.039 A 
ATOM      9  C   UNL A   1      36.930  31.566  28.119  1.00  0.00     0.014 A 
ATOM     10  C   UNL A   1      35.750  29.832  29.332  1.00  0.00     0.014 A 
ATOM     11  C   UNL A   1      38.140  31.095  28.617  1.00  0.00     0.010 A 
ATOM     12  C   UNL A   1      36.958  29.410  29.896  1.00  0.00     0.010 A 
ATOM     13  C   UNL A   1      38.162  30.037  29.540  1.00  0.00    -0.014 A 
BRANCH  13  14
ATOM     14  C   UNL A   1      39.430  29.706  30.234  1.00  0.00     0.031 A 
ATOM     15  C   UNL A   1      40.327  28.602  29.752  1.00  0.00     0.074 A 
ATOM     16  C   UNL A   1      39.747  30.415  31.338  1.00  0.00     0.049 A 
ATOM     17  N   UNL A   1      41.449  28.176  30.275  1.00  0.00    -0.248 NA
ATOM     18  C   UNL A   1      39.922  27.881  28.536  1.00  0.00     0.031 C 
ATOM     19  C   UNL A   1      38.934  31.497  31.905  1.00  0.00     0.029 A 
ATOM     20  N   UNL A   1      40.824  30.337  32.182  1.00  0.00    -0.354 N 
ATOM     21  C   UNL A   1      41.869  27.122  29.473  1.00  0.00     0.074 A 
ATOM     22  C   UNL A   1      40.881  26.969  28.427  1.00  0.00     0.031 C 
ATOM     23  C   UNL A   1      39.551  31.994  32.985  1.00  0.00     0.029 A 
ATOM     24  C   UNL A   1      40.761  31.223  33.232  1.00  0.00     0.049 A 
ATOM     25  H   UNL A   1      41.570  29.708  32.049  1.00  0.00     0.167 HD
ATOM     26  C   UNL A   1      42.977  26.354  29.609  1.00  0.00     0.031 A 
ATOM     27  C   UNL A   1      41.561  31.372  34.304  1.00  0.00     0.031 A 
ATOM     28  C   UNL A   1      43.954  26.525  30.654  1.00  0.00     0.049 A 
ATOM     29  C   UNL A   1      42.756  30.476  34.444  1.00  0.00     0.074 A 
ATOM     30  C   UNL A   1      45.148  25.845  30.829  1.00  0.00     0.029 A 
ATOM     31  N   UNL A   1      43.845  27.417  31.709  1.00  0.00    -0.354 N 
ATOM     32  N   UNL A   1      43.185  29.547  33.623  1.00  0.00    -0.248 NA
ATOM     33  C   UNL A   1      43.573  30.640  35.654  1.00  0.00     0.031 C 
ATOM     34  C   UNL A   1      45.723  26.274  32.028  1.00  0.00     0.029 A 
ATOM     35  C   UNL A   1      44.922  27.268  32.567  1.00  0.00     0.049 A 
ATOM     36  H   UNL A   1      43.111  28.062  31.830  1.00  0.00     0.167 HD
ATOM     37  C   UNL A   1      44.324  29.019  34.217  1.00  0.00     0.074 A 
ATOM     38  C   UNL A   1      44.538  29.756  35.445  1.00  0.00     0.031 C 
ATOM     39  C   UNL A   1      45.116  28.007  33.788  1.00  0.00     0.031 A 
BRANCH  26  40
ATOM     40  C   UNL A   1      43.200  25.230  28.630  1.00  0.00    -0.014 A 
ATOM     41  C   UNL A   1      42.673  23.947  28.855  1.00  0.00     0.010 A 
ATOM     42  C   UNL A   1      43.841  25.502  27.406  1.00  0.00     0.010 A 
ATOM     43  C   UNL A   1      42.788  22.955  27.876  1.00  0.00     0.020 A 
ATOM     44  C   UNL A   1      43.938  24.519  26.416  1.00  0.00     0.020 A 
ATOM     45  C   UNL A   1      43.414  23.249  26.660  1.00  0.00     0.054 A 
BRANCH  45  46
ATOM     46  S   UNL A   1      43.479  21.963  25.381  1.00  0.00     0.124 S 
ATOM     47  O   UNL A   1      44.774  21.343  25.642  1.00  0.00    -0.237 OA
ATOM     48  O   UNL A   1      42.313  21.140  25.698  1.00  0.00    -0.237 OA
ATOM     49  O   UNL A   1      43.387  22.711  24.129  1.00  0.00    -0.744 OA
ENDBRANCH  45  46
ENDBRANCH  26  40
BRANCH  27  50
ATOM     50  C   UNL A   1      41.216  32.363  35.360  1.00  0.00    -0.014 A 
ATOM     51  C   UNL A   1      40.364  32.021  36.423  1.00  0.00     0.010 A 
ATOM     52  C   UNL A   1      41.736  33.671  35.294  1.00  0.00     0.010 A 
ATOM     53  C   UNL A   1      40.011  32.977  37.380  1.00  0.00     0.020 A 
ATOM     54  C   UNL A   1      41.414  34.617  36.267  1.00  0.00     0.020 A 
ATOM     55  C   UNL A   1      40.535  34.269  37.293  1.00  0.00     0.054 A 
BRANCH  55  56
ATOM     56  S   UNL A   1      40.073  35.491  38.551  1.00  0.00     0.124 S 
ATOM     57  O   UNL A   1      38.955  34.830  39.216  1.00  0.00    -0.237 OA
ATOM     58  O   UNL A   1      41.298  35.612  39.339  1.00  0.00    -0.237 OA
ATOM     59  O   UNL A   1      39.727  36.675  37.769  1.00  0.00    -0.744 OA
ENDBRANCH  55  56
ENDBRANCH  27  50
BRANCH  39  60
ATOM     60  C   UNL A   1      46.292  27.639  34.652  1.00  0.00    -0.014 A 
ATOM     61  C   UNL A   1      46.180  26.639  35.634  1.00  0.00     0.010 A 
ATOM     62  C   UNL A   1      47.537  28.259  34.437  1.00  0.00     0.010 A 
ATOM     63  C   UNL A   1      47.289  26.278  36.402  1.00  0.00     0.020 A 
ATOM     64  C   UNL A   1      48.655  27.878  35.183  1.00  0.00     0.020 A 
ATOM     65  C   UNL A   1      48.521  26.897  36.168  1.00  0.00     0.054 A 
BRANCH  65  66
ATOM     66  S   UNL A   1      49.960  26.363  37.134  1.00  0.00     0.124 S 
ATOM     67  O   UNL A   1      49.347  25.504  38.142  1.00  0.00    -0.237 OA
ATOM     68  O   UNL A   1      50.778  25.678  36.136  1.00  0.00    -0.237 OA
ATOM     69  O   UNL A   1      50.521  27.614  37.641  1.00  0.00    -0.744 OA
ENDBRANCH  65  66
ENDBRANCH  39  60
ENDBRANCH  13  14
ENDBRANCH   6   8
ENDBRANCH   3   4
ENDBRANCH   2   3
ENDBRANCH   1   2
BRANCH   1  70
ATOM     70  C   UNL A   1      31.563  26.582  26.388  1.00  0.00     0.002 C 
BRANCH  70  71
ATOM     71  C   UNL A   1      31.231  25.098  26.179  1.00  0.00     0.021 C 
BRANCH  71  72
ATOM     72  C   UNL A   1      30.424  24.764  24.929  1.00  0.00     0.116 C 
BRANCH  72  73
ATOM     73  N   UNL A   1      30.767  23.489  24.336  1.00  0.00    -0.354 N 
ATOM     74  C   UNL A   1      31.931  23.074  23.757  1.00  0.00     0.247 C 
ATOM     75  H   UNL A   1      30.049  22.815  24.355  1.00  0.00     0.163 HD
ATOM     76  O   UNL A   1      31.951  21.885  23.409  1.00  0.00    -0.272 OA
BRANCH  74  77
ATOM     77  C   UNL A   1      33.101  24.037  23.401  1.00  0.00     0.202 C 
BRANCH  77  78
ATOM     78  C   UNL A   1      34.495  23.810  23.966  1.00  0.00    -0.016 A 
ATOM     79  C   UNL A   1      34.854  24.103  25.289  1.00  0.00     0.006 A 
ATOM     80  C   UNL A   1      35.474  23.224  23.143  1.00  0.00     0.006 A 
ATOM     81  C   UNL A   1      36.148  23.881  25.761  1.00  0.00     0.000 A 
ATOM     82  C   UNL A   1      36.767  22.984  23.618  1.00  0.00     0.000 A 
ATOM     83  C   UNL A   1      37.106  23.324  24.923  1.00  0.00     0.000 A 
ENDBRANCH  77  78
BRANCH  77  84
ATOM     84  N   UNL A   1      33.137  24.288  21.946  1.00  0.00    -0.336 N 
ATOM     85  C   UNL A   1      32.880  25.422  21.219  1.00  0.00     0.253 C 
ATOM     86  H   UNL A   1      33.388  23.506  21.404  1.00  0.00     0.165 HD
ATOM     87  O   UNL A   1      32.972  25.418  19.996  1.00  0.00    -0.269 OA
BRANCH  85  88
ATOM     88  C   UNL A   1      32.445  26.649  21.892  1.00  0.00     0.058 A 
ATOM     89  C   UNL A   1      33.346  27.622  22.317  1.00  0.00     0.018 A 
ATOM     90  C   UNL A   1      31.094  26.832  22.147  1.00  0.00     0.126 A 
ATOM     91  C   UNL A   1      32.870  28.694  23.073  1.00  0.00     0.037 A 
ATOM     92  N   UNL A   1      30.606  27.872  22.867  1.00  0.00    -0.249 NA
ATOM     93  C   UNL A   1      31.506  28.762  23.339  1.00  0.00     0.106 A 
ATOM     94  Br  UNL A   1      30.874  30.121  24.500  1.00  0.00    -0.029 Br
ENDBRANCH  85  88
ENDBRANCH  77  84
ENDBRANCH  74  77
ENDBRANCH  72  73
ENDBRANCH  71  72
ENDBRANCH  70  71
ENDBRANCH   1  70
TORSDOF 19
ENDMDL
MODEL 3
REMARK VINA RESULT:     -11.0      6.338     11.120
REMARK SMILES O=C(NCCCCCCNC(=O)[C@H](NC(=O)c1ccc(Br)nc1)c1ccccc1)c1ccc(-c2c3nc(c(-c4ccc(S(=O)(=O)[O-])cc4)c4ccc([nH]4)c(-c4ccc(S(=O)(=O)[O-])cc4)c4nc(c(-c5ccc(S(=O)(=O)[O-])cc5)c5ccc2[nH]5)C=C4)C=C3)cc1
REMARK SMILES IDX 6 1 5 2 4 3 3 4 1 5 2 6 30 8 31 9 89 10 32 11 88 12 33 13
REMARK SMILES IDX 34 14 35 15 82 16 36 17 87 18 81 19 83 20 37 21 86 22 80 23
REMARK SMILES IDX 79 24 38 26 68 27 49 28 67 29 50 30 53 31 66 32 84 33 51 34
REMARK SMILES IDX 52 35 65 37 85 38 54 39 39 40 40 41 48 42 41 43 47 44 42 45
REMARK SMILES IDX 43 46 44 47 45 48 46 49 69 50 70 51 78 52 71 53 77 54 72 55
REMARK SMILES IDX 73 56 74 57 75 58 76 59 55 60 56 61 64 62 57 63 63 64 58 65
REMARK SMILES IDX 59 66 60 67 61 68 62 69 7 70 8 71 9 72 10 73 11 74 12 76
REMARK SMILES IDX 13 77 24 78 25 79 29 80 26 81 28 82 27 83 14 84 15 85 16 87
REMARK SMILES IDX 17 88 18 89 23 90 19 91 22 92 20 93 21 94
REMARK H PARENT 3 7 83 25 53 36 10 75 14 86
REMARK Flexibility Score: inf
ROOT
ATOM      1  C   UNL A   1      33.496  29.931  26.398  1.00  0.00     0.002 C 
ENDROOT
BRANCH   1   2
ATOM      2  C   UNL A   1      34.355  28.947  27.191  1.00  0.00     0.021 C 
BRANCH   2   3
ATOM      3  C   UNL A   1      35.617  29.522  27.815  1.00  0.00     0.116 C 
BRANCH   3   4
ATOM      4  N   UNL A   1      35.451  29.877  29.212  1.00  0.00    -0.352 N 
ATOM      5  O   UNL A   1      36.064  30.122  31.365  1.00  0.00    -0.269 OA
ATOM      6  C   UNL A   1      36.401  29.916  30.207  1.00  0.00     0.251 C 
ATOM      7  H   UNL A   1      34.538  30.121  29.483  1.00  0.00     0.163 HD
BRANCH   6   8
ATOM      8  C   UNL A   1      37.824  29.687  29.869  1.00  0.00     0.039 A 
ATOM      9  C   UNL A   1      38.745  29.320  30.855  1.00  0.00     0.014 A 
ATOM     10  C   UNL A   1      38.236  29.821  28.540  1.00  0.00     0.014 A 
ATOM     11  C   UNL A   1      40.091  29.186  30.533  1.00  0.00     0.010 A 
ATOM     12  C   UNL A   1      39.575  29.607  28.203  1.00  0.00     0.010 A 
ATOM     13  C   UNL A   1      40.513  29.291  29.198  1.00  0.00    -0.014 A 
BRANCH  13  14
ATOM     14  C   UNL A   1      41.904  28.916  28.846  1.00  0.00     0.031 A 
ATOM     15  C   UNL A   1      43.012  29.930  28.824  1.00  0.00     0.074 A 
ATOM     16  C   UNL A   1      42.145  27.629  28.516  1.00  0.00     0.049 A 
ATOM     17  N   UNL A   1      44.269  29.757  28.502  1.00  0.00    -0.248 NA
ATOM     18  C   UNL A   1      42.676  31.310  29.205  1.00  0.00     0.031 C 
ATOM     19  C   UNL A   1      41.134  26.566  28.485  1.00  0.00     0.029 A 
ATOM     20  N   UNL A   1      43.300  26.995  28.143  1.00  0.00    -0.354 N 
ATOM     21  C   UNL A   1      44.869  31.005  28.615  1.00  0.00     0.074 A 
ATOM     22  C   UNL A   1      43.837  31.931  29.032  1.00  0.00     0.031 C 
ATOM     23  C   UNL A   1      41.717  25.411  28.137  1.00  0.00     0.029 A 
ATOM     24  C   UNL A   1      43.123  25.663  27.848  1.00  0.00     0.049 A 
ATOM     25  H   UNL A   1      44.173  27.448  28.091  1.00  0.00     0.167 HD
ATOM     26  C   UNL A   1      46.160  31.340  28.383  1.00  0.00     0.031 A 
ATOM     27  C   UNL A   1      43.981  24.751  27.355  1.00  0.00     0.031 A 
ATOM     28  C   UNL A   1      47.176  30.403  27.974  1.00  0.00     0.049 A 
ATOM     29  C   UNL A   1      45.393  25.167  27.070  1.00  0.00     0.074 A 
ATOM     30  C   UNL A   1      48.529  30.635  27.788  1.00  0.00     0.029 A 
ATOM     31  N   UNL A   1      46.953  29.071  27.666  1.00  0.00    -0.354 N 
ATOM     32  N   UNL A   1      45.961  26.333  27.272  1.00  0.00    -0.248 NA
ATOM     33  C   UNL A   1      46.281  24.153  26.485  1.00  0.00     0.031 C 
ATOM     34  C   UNL A   1      49.109  29.461  27.298  1.00  0.00     0.029 A 
ATOM     35  C   UNL A   1      48.132  28.481  27.240  1.00  0.00     0.049 A 
ATOM     36  H   UNL A   1      46.085  28.611  27.739  1.00  0.00     0.167 HD
ATOM     37  C   UNL A   1      47.274  26.189  26.843  1.00  0.00     0.074 A 
ATOM     38  C   UNL A   1      47.426  24.817  26.406  1.00  0.00     0.031 C 
ATOM     39  C   UNL A   1      48.263  27.114  26.803  1.00  0.00     0.031 A 
BRANCH  26  40
ATOM     40  C   UNL A   1      46.569  32.783  28.531  1.00  0.00    -0.014 A 
ATOM     41  C   UNL A   1      46.459  33.689  27.462  1.00  0.00     0.010 A 
ATOM     42  C   UNL A   1      46.950  33.263  29.798  1.00  0.00     0.010 A 
ATOM     43  C   UNL A   1      46.728  35.048  27.657  1.00  0.00     0.020 A 
ATOM     44  C   UNL A   1      47.198  34.624  30.003  1.00  0.00     0.020 A 
ATOM     45  C   UNL A   1      47.089  35.508  28.929  1.00  0.00     0.054 A 
BRANCH  45  46
ATOM     46  S   UNL A   1      47.357  37.287  29.167  1.00  0.00     0.124 S 
ATOM     47  O   UNL A   1      48.434  37.559  28.220  1.00  0.00    -0.237 OA
ATOM     48  O   UNL A   1      46.056  37.853  28.818  1.00  0.00    -0.237 OA
ATOM     49  O   UNL A   1      47.723  37.398  30.577  1.00  0.00    -0.744 OA
ENDBRANCH  45  46
ENDBRANCH  26  40
BRANCH  27  50
ATOM     50  C   UNL A   1      43.505  23.377  27.036  1.00  0.00    -0.014 A 
ATOM     51  C   UNL A   1      43.115  22.491  28.054  1.00  0.00     0.010 A 
ATOM     52  C   UNL A   1      43.453  22.944  25.697  1.00  0.00     0.010 A 
ATOM     53  C   UNL A   1      42.716  21.188  27.742  1.00  0.00     0.020 A 
ATOM     54  C   UNL A   1      43.021  21.656  25.378  1.00  0.00     0.020 A 
ATOM     55  C   UNL A   1      42.675  20.779  26.407  1.00  0.00     0.054 A 
BRANCH  55  56
ATOM     56  S   UNL A   1      42.144  19.087  26.022  1.00  0.00     0.124 S 
ATOM     57  O   UNL A   1      40.704  19.256  25.854  1.00  0.00    -0.237 OA
ATOM     58  O   UNL A   1      42.894  18.790  24.804  1.00  0.00    -0.237 OA
ATOM     59  O   UNL A   1      42.553  18.324  27.199  1.00  0.00    -0.744 OA
ENDBRANCH  55  56
ENDBRANCH  27  50
BRANCH  39  60
ATOM     60  C   UNL A   1      49.600  26.672  26.275  1.00  0.00    -0.014 A 
ATOM     61  C   UNL A   1      49.975  26.942  24.946  1.00  0.00     0.010 A 
ATOM     62  C   UNL A   1      50.514  26.032  27.132  1.00  0.00     0.010 A 
ATOM     63  C   UNL A   1      51.234  26.562  24.478  1.00  0.00     0.020 A 
ATOM     64  C   UNL A   1      51.786  25.678  26.676  1.00  0.00     0.020 A 
ATOM     65  C   UNL A   1      52.134  25.937  25.348  1.00  0.00     0.054 A 
BRANCH  65  66
ATOM     66  S   UNL A   1      53.786  25.513  24.732  1.00  0.00     0.124 S 
ATOM     67  O   UNL A   1      53.749  26.042  23.373  1.00  0.00    -0.237 OA
ATOM     68  O   UNL A   1      54.663  26.223  25.660  1.00  0.00    -0.237 OA
ATOM     69  O   UNL A   1      53.830  24.056  24.832  1.00  0.00    -0.744 OA
ENDBRANCH  65  66
ENDBRANCH  39  60
ENDBRANCH  13  14
ENDBRANCH   6   8
ENDBRANCH   3   4
ENDBRANCH   2   3
ENDBRANCH   1   2
BRANCH   1  70
ATOM     70  C   UNL A   1      32.511  29.335  25.384  1.00  0.00     0.002 C 
BRANCH  70  71
ATOM     71  C   UNL A   1      33.081  28.814  24.057  1.00  0.00     0.021 C 
BRANCH  71  72
ATOM     72  C   UNL A   1      33.246  27.302  23.949  1.00  0.00     0.116 C 
BRANCH  72  73
ATOM     73  N   UNL A   1      33.352  26.822  22.587  1.00  0.00    -0.354 N 
ATOM     74  C   UNL A   1      33.324  25.548  22.101  1.00  0.00     0.247 C 
ATOM     75  H   UNL A   1      33.460  27.525  21.906  1.00  0.00     0.163 HD
ATOM     76  O   UNL A   1      33.357  25.456  20.866  1.00  0.00    -0.272 OA
BRANCH  74  77
ATOM     77  C   UNL A   1      33.408  24.283  23.005  1.00  0.00     0.202 C 
BRANCH  77  78
ATOM     78  C   UNL A   1      34.698  23.927  23.727  1.00  0.00    -0.016 A 
ATOM     79  C   UNL A   1      35.047  24.428  24.988  1.00  0.00     0.006 A 
ATOM     80  C   UNL A   1      35.577  23.002  23.131  1.00  0.00     0.006 A 
ATOM     81  C   UNL A   1      36.245  24.075  25.610  1.00  0.00     0.000 A 
ATOM     82  C   UNL A   1      36.770  22.633  23.759  1.00  0.00     0.000 A 
ATOM     83  C   UNL A   1      37.109  23.179  24.992  1.00  0.00     0.000 A 
ENDBRANCH  77  78
BRANCH  77  84
ATOM     84  N   UNL A   1      32.242  24.219  23.909  1.00  0.00    -0.336 N 
ATOM     85  C   UNL A   1      31.629  23.153  24.517  1.00  0.00     0.253 C 
ATOM     86  H   UNL A   1      31.833  25.091  24.110  1.00  0.00     0.165 HD
ATOM     87  O   UNL A   1      30.657  23.321  25.247  1.00  0.00    -0.269 OA
BRANCH  85  88
ATOM     88  C   UNL A   1      32.099  21.788  24.266  1.00  0.00     0.058 A 
ATOM     89  C   UNL A   1      32.036  21.201  23.005  1.00  0.00     0.018 A 
ATOM     90  C   UNL A   1      32.592  21.042  25.327  1.00  0.00     0.126 A 
ATOM     91  C   UNL A   1      32.374  19.854  22.874  1.00  0.00     0.037 A 
ATOM     92  N   UNL A   1      32.940  19.736  25.221  1.00  0.00    -0.249 NA
ATOM     93  C   UNL A   1      32.794  19.163  24.006  1.00  0.00     0.106 A 
ATOM     94  Br  UNL A   1      33.096  17.297  23.872  1.00  0.00    -0.029 Br
ENDBRANCH  85  88
ENDBRANCH  77  84
ENDBRANCH  74  77
ENDBRANCH  72  73
ENDBRANCH  71  72
ENDBRANCH  70  71
ENDBRANCH   1  70
TORSDOF 19
ENDMDL
