MODEL 1
REMARK VINA RESULT:     -11.1      0.000      0.000
REMARK SMILES C[C@@H](Sc1nc2ccccc2c(=O)n1N)C(=O)NCCCCCCNC(=O)c1ccc(-c2c3nc(c(-c4ccc(S(=O)(=O)[O-])cc4)c4ccc([nH]4)c(-c4ccc(S(=O)(=O)[O-])cc4)c4nc(c(-c5ccc(S(=O)(=O)[O-])cc5)c5ccc2[nH]5)C=C4)C=C3)cc1
REMARK SMILES IDX 21 1 20 2 19 3 18 4 16 5 17 6 2 8 1 9 3 10 4 11 5 12 14 13
REMARK SMILES IDX 6 14 12 15 7 16 11 17 13 18 8 19 10 20 9 21 15 22 22 25
REMARK SMILES IDX 23 26 24 27 25 28 26 29 27 31 28 32 29 33 87 34 30 35 86 36
REMARK SMILES IDX 31 37 32 38 33 39 80 40 34 41 85 42 79 43 81 44 35 45 84 46
REMARK SMILES IDX 78 47 77 48 36 50 66 51 47 52 65 53 48 54 51 55 64 56 82 57
REMARK SMILES IDX 49 58 50 59 63 61 83 62 52 63 37 64 38 65 46 66 39 67 45 68
REMARK SMILES IDX 40 69 41 70 42 71 43 72 44 73 67 74 68 75 76 76 69 77 75 78
REMARK SMILES IDX 70 79 71 80 72 81 73 82 74 83 53 84 54 85 62 86 55 87 61 88
REMARK SMILES IDX 56 89 57 90 58 91 59 92 60 93
REMARK H PARENT 18 7 15 23 15 24 25 30 81 49 51 60
REMARK Flexibility Score: inf
ROOT
ATOM      1  C   UNL A   1      39.111  22.191  26.268  1.00  0.00     0.002 C 
ENDROOT
BRANCH   1   2
ATOM      2  C   UNL A   1      38.160  21.372  25.387  1.00  0.00     0.021 C 
BRANCH   2   3
ATOM      3  C   UNL A   1      36.684  21.671  25.637  1.00  0.00     0.116 C 
BRANCH   3   4
ATOM      4  N   UNL A   1      35.863  20.532  25.271  1.00  0.00    -0.355 N 
ATOM      5  C   UNL A   1      34.550  20.463  24.913  1.00  0.00     0.233 C 
ATOM      6  O   UNL A   1      34.088  19.345  24.663  1.00  0.00    -0.274 OA
ATOM      7  H   UNL A   1      36.331  19.666  25.285  1.00  0.00     0.163 HD
BRANCH   5   8
ATOM      8  C   UNL A   1      33.670  21.712  24.806  1.00  0.00     0.141 C 
ATOM      9  C   UNL A   1      32.711  21.662  23.621  1.00  0.00     0.030 C 
BRANCH   8  10
ATOM     10  S   UNL A   1      32.935  22.023  26.453  1.00  0.00    -0.073 SA
BRANCH  10  11
ATOM     11  C   UNL A   1      32.428  23.685  26.319  1.00  0.00     0.191 A 
ATOM     12  N   UNL A   1      33.358  24.573  26.193  1.00  0.00    -0.222 NA
ATOM     13  N   UNL A   1      31.068  23.968  26.265  1.00  0.00    -0.202 N 
ATOM     14  C   UNL A   1      32.977  25.901  25.959  1.00  0.00     0.079 A 
ATOM     15  C   UNL A   1      30.603  25.262  26.026  1.00  0.00     0.280 A 
ATOM     16  C   UNL A   1      33.974  26.861  25.771  1.00  0.00     0.029 A 
ATOM     17  C   UNL A   1      31.642  26.295  25.859  1.00  0.00     0.068 A 
ATOM     18  O   UNL A   1      29.410  25.545  25.921  1.00  0.00    -0.267 OA
ATOM     19  C   UNL A   1      33.640  28.189  25.487  1.00  0.00     0.002 A 
ATOM     20  C   UNL A   1      31.296  27.622  25.578  1.00  0.00     0.016 A 
ATOM     21  C   UNL A   1      32.301  28.569  25.390  1.00  0.00     0.001 A 
BRANCH  13  22
ATOM     22  N   UNL A   1      30.074  22.947  26.423  1.00  0.00    -0.334 N 
ATOM     23  H   UNL A   1      30.331  22.057  26.759  1.00  0.00     0.178 HD
ATOM     24  H   UNL A   1      29.134  23.134  26.195  1.00  0.00     0.178 HD
ENDBRANCH  13  22
ENDBRANCH  10  11
ENDBRANCH   8  10
ENDBRANCH   5   8
ENDBRANCH   3   4
ENDBRANCH   2   3
ENDBRANCH   1   2
BRANCH   1  25
ATOM     25  C   UNL A   1      40.538  21.639  26.359  1.00  0.00     0.002 C 
BRANCH  25  26
ATOM     26  C   UNL A   1      41.229  21.854  27.707  1.00  0.00     0.021 C 
BRANCH  26  27
ATOM     27  C   UNL A   1      42.259  22.976  27.715  1.00  0.00     0.116 C 
BRANCH  27  28
ATOM     28  N   UNL A   1      42.258  23.722  26.466  1.00  0.00    -0.352 N 
ATOM     29  C   UNL A   1      41.906  25.026  26.241  1.00  0.00     0.251 C 
ATOM     30  H   UNL A   1      42.552  23.219  25.673  1.00  0.00     0.163 HD
ATOM     31  O   UNL A   1      41.766  25.431  25.086  1.00  0.00    -0.269 OA
BRANCH  29  32
ATOM     32  C   UNL A   1      41.681  25.939  27.381  1.00  0.00     0.039 A 
ATOM     33  C   UNL A   1      42.612  26.951  27.629  1.00  0.00     0.014 A 
ATOM     34  C   UNL A   1      40.569  25.788  28.214  1.00  0.00     0.014 A 
ATOM     35  C   UNL A   1      42.405  27.834  28.690  1.00  0.00     0.010 A 
ATOM     36  C   UNL A   1      40.325  26.716  29.223  1.00  0.00     0.010 A 
ATOM     37  C   UNL A   1      41.249  27.738  29.483  1.00  0.00    -0.014 A 
BRANCH  37  38
ATOM     38  C   UNL A   1      41.013  28.676  30.611  1.00  0.00     0.031 A 
ATOM     39  C   UNL A   1      41.842  28.571  31.864  1.00  0.00     0.074 A 
ATOM     40  C   UNL A   1      40.034  29.599  30.522  1.00  0.00     0.049 A 
ATOM     41  N   UNL A   1      41.759  29.265  32.969  1.00  0.00    -0.248 NA
ATOM     42  C   UNL A   1      42.887  27.532  31.887  1.00  0.00     0.031 C 
ATOM     43  C   UNL A   1      39.138  29.778  29.377  1.00  0.00     0.029 A 
ATOM     44  N   UNL A   1      39.628  30.559  31.414  1.00  0.00    -0.354 N 
ATOM     45  C   UNL A   1      42.734  28.750  33.815  1.00  0.00     0.074 A 
ATOM     46  C   UNL A   1      43.352  27.642  33.122  1.00  0.00     0.031 C 
ATOM     47  C   UNL A   1      38.304  30.800  29.628  1.00  0.00     0.029 A 
ATOM     48  C   UNL A   1      38.579  31.325  30.961  1.00  0.00     0.049 A 
ATOM     49  H   UNL A   1      40.047  30.688  32.295  1.00  0.00     0.167 HD
ATOM     50  C   UNL A   1      43.107  29.179  35.044  1.00  0.00     0.031 A 
ATOM     51  C   UNL A   1      37.910  32.333  31.556  1.00  0.00     0.031 A 
ATOM     52  C   UNL A   1      42.495  30.286  35.731  1.00  0.00     0.049 A 
ATOM     53  C   UNL A   1      38.332  32.779  32.930  1.00  0.00     0.074 A 
ATOM     54  C   UNL A   1      42.810  30.809  36.973  1.00  0.00     0.029 A 
ATOM     55  N   UNL A   1      41.449  31.046  35.230  1.00  0.00    -0.354 N 
ATOM     56  N   UNL A   1      39.285  32.303  33.696  1.00  0.00    -0.248 NA
ATOM     57  C   UNL A   1      37.602  33.915  33.511  1.00  0.00     0.031 C 
ATOM     58  C   UNL A   1      41.928  31.861  37.240  1.00  0.00     0.029 A 
ATOM     59  C   UNL A   1      41.105  32.032  36.139  1.00  0.00     0.049 A 
ATOM     60  H   UNL A   1      41.017  30.906  34.357  1.00  0.00     0.167 HD
ATOM     61  C   UNL A   1      39.293  33.108  34.832  1.00  0.00     0.074 A 
ATOM     62  C   UNL A   1      38.263  34.107  34.644  1.00  0.00     0.031 C 
ATOM     63  C   UNL A   1      40.084  33.028  35.931  1.00  0.00     0.031 A 
BRANCH  50  64
ATOM     64  C   UNL A   1      44.244  28.456  35.719  1.00  0.00    -0.014 A 
ATOM     65  C   UNL A   1      45.573  28.883  35.542  1.00  0.00     0.010 A 
ATOM     66  C   UNL A   1      43.984  27.370  36.574  1.00  0.00     0.010 A 
ATOM     67  C   UNL A   1      46.623  28.216  36.179  1.00  0.00     0.020 A 
ATOM     68  C   UNL A   1      45.029  26.720  37.239  1.00  0.00     0.020 A 
ATOM     69  C   UNL A   1      46.344  27.139  37.024  1.00  0.00     0.054 A 
BRANCH  69  70
ATOM     70  S   UNL A   1      47.724  26.319  37.866  1.00  0.00     0.124 S 
ATOM     71  O   UNL A   1      48.006  25.204  36.966  1.00  0.00    -0.237 OA
ATOM     72  O   UNL A   1      48.742  27.366  37.906  1.00  0.00    -0.237 OA
ATOM     73  O   UNL A   1      47.167  25.945  39.164  1.00  0.00    -0.744 OA
ENDBRANCH  69  70
ENDBRANCH  50  64
BRANCH  51  74
ATOM     74  C   UNL A   1      36.772  32.993  30.858  1.00  0.00    -0.014 A 
ATOM     75  C   UNL A   1      36.993  33.818  29.739  1.00  0.00     0.010 A 
ATOM     76  C   UNL A   1      35.457  32.819  31.326  1.00  0.00     0.010 A 
ATOM     77  C   UNL A   1      35.927  34.489  29.132  1.00  0.00     0.020 A 
ATOM     78  C   UNL A   1      34.385  33.462  30.700  1.00  0.00     0.020 A 
ATOM     79  C   UNL A   1      34.631  34.310  29.620  1.00  0.00     0.054 A 
BRANCH  79  80
ATOM     80  S   UNL A   1      33.260  35.182  28.812  1.00  0.00     0.124 S 
ATOM     81  O   UNL A   1      33.966  36.178  28.012  1.00  0.00    -0.237 OA
ATOM     82  O   UNL A   1      32.604  34.114  28.061  1.00  0.00    -0.237 OA
ATOM     83  O   UNL A   1      32.486  35.713  29.932  1.00  0.00    -0.744 OA
ENDBRANCH  79  80
ENDBRANCH  51  74
BRANCH  63  84
ATOM     84  C   UNL A   1      39.910  34.086  36.988  1.00  0.00    -0.014 A 
ATOM     85  C   UNL A   1      40.562  35.328  36.903  1.00  0.00     0.010 A 
ATOM     86  C   UNL A   1      39.046  33.839  38.072  1.00  0.00     0.010 A 
ATOM     87  C   UNL A   1      40.392  36.286  37.907  1.00  0.00     0.020 A 
ATOM     88  C   UNL A   1      38.848  34.805  39.060  1.00  0.00     0.020 A 
ATOM     89  C   UNL A   1      39.538  36.016  38.981  1.00  0.00     0.054 A 
BRANCH  89  90
ATOM     90  S   UNL A   1      39.316  37.283  40.260  1.00  0.00     0.124 S 
ATOM     91  O   UNL A   1      38.548  36.562  41.270  1.00  0.00    -0.237 OA
ATOM     92  O   UNL A   1      40.691  37.611  40.629  1.00  0.00    -0.237 OA
ATOM     93  O   UNL A   1      38.593  38.348  39.569  1.00  0.00    -0.744 OA
ENDBRANCH  89  90
ENDBRANCH  63  84
ENDBRANCH  37  38
ENDBRANCH  29  32
ENDBRANCH  27  28
ENDBRANCH  26  27
ENDBRANCH  25  26
ENDBRANCH   1  25
TORSDOF 19
ENDMDL
MODEL 2
REMARK VINA RESULT:     -11.0      5.962      8.212
REMARK SMILES C[C@@H](Sc1nc2ccccc2c(=O)n1N)C(=O)NCCCCCCNC(=O)c1ccc(-c2c3nc(c(-c4ccc(S(=O)(=O)[O-])cc4)c4ccc([nH]4)c(-c4ccc(S(=O)(=O)[O-])cc4)c4nc(c(-c5ccc(S(=O)(=O)[O-])cc5)c5ccc2[nH]5)C=C4)C=C3)cc1
REMARK SMILES IDX 21 1 20 2 19 3 18 4 16 5 17 6 2 8 1 9 3 10 4 11 5 12 14 13
REMARK SMILES IDX 6 14 12 15 7 16 11 17 13 18 8 19 10 20 9 21 15 22 22 25
REMARK SMILES IDX 23 26 24 27 25 28 26 29 27 31 28 32 29 33 87 34 30 35 86 36
REMARK SMILES IDX 31 37 32 38 33 39 80 40 34 41 85 42 79 43 81 44 35 45 84 46
REMARK SMILES IDX 78 47 77 48 36 50 66 51 47 52 65 53 48 54 51 55 64 56 82 57
REMARK SMILES IDX 49 58 50 59 63 61 83 62 52 63 37 64 38 65 46 66 39 67 45 68
REMARK SMILES IDX 40 69 41 70 42 71 43 72 44 73 67 74 68 75 76 76 69 77 75 78
REMARK SMILES IDX 70 79 71 80 72 81 73 82 74 83 53 84 54 85 62 86 55 87 61 88
REMARK SMILES IDX 56 89 57 90 58 91 59 92 60 93
REMARK H PARENT 18 7 15 23 15 24 25 30 81 49 51 60
REMARK Flexibility Score: inf
ROOT
ATOM      1  C   UNL A   1      38.725  22.700  25.936  1.00  0.00     0.002 C 
ENDROOT
BRANCH   1   2
ATOM      2  C   UNL A   1      37.785  23.845  26.333  1.00  0.00     0.021 C 
BRANCH   2   3
ATOM      3  C   UNL A   1      36.382  23.716  25.749  1.00  0.00     0.116 C 
BRANCH   3   4
ATOM      4  N   UNL A   1      35.518  22.978  26.653  1.00  0.00    -0.355 N 
ATOM      5  C   UNL A   1      34.605  21.998  26.405  1.00  0.00     0.233 C 
ATOM      6  O   UNL A   1      33.984  21.544  27.372  1.00  0.00    -0.274 OA
ATOM      7  H   UNL A   1      35.607  23.228  27.601  1.00  0.00     0.163 HD
BRANCH   5   8
ATOM      8  C   UNL A   1      34.352  21.460  24.994  1.00  0.00     0.141 C 
ATOM      9  C   UNL A   1      34.718  19.986  24.847  1.00  0.00     0.030 C 
BRANCH   8  10
ATOM     10  S   UNL A   1      32.657  21.944  24.504  1.00  0.00    -0.073 SA
BRANCH  10  11
ATOM     11  C   UNL A   1      32.853  23.636  24.132  1.00  0.00     0.191 A 
ATOM     12  N   UNL A   1      32.938  24.449  25.133  1.00  0.00    -0.222 NA
ATOM     13  N   UNL A   1      32.997  24.018  22.803  1.00  0.00    -0.202 N 
ATOM     14  C   UNL A   1      33.219  25.796  24.868  1.00  0.00     0.079 A 
ATOM     15  C   UNL A   1      33.289  25.336  22.453  1.00  0.00     0.280 A 
ATOM     16  C   UNL A   1      33.363  26.675  25.944  1.00  0.00     0.029 A 
ATOM     17  C   UNL A   1      33.410  26.286  23.574  1.00  0.00     0.068 A 
ATOM     18  O   UNL A   1      33.473  25.704  21.293  1.00  0.00    -0.267 OA
ATOM     19  C   UNL A   1      33.692  28.017  25.728  1.00  0.00     0.002 A 
ATOM     20  C   UNL A   1      33.736  27.627  23.347  1.00  0.00     0.016 A 
ATOM     21  C   UNL A   1      33.879  28.493  24.430  1.00  0.00     0.001 A 
BRANCH  13  22
ATOM     22  N   UNL A   1      32.883  23.076  21.728  1.00  0.00    -0.334 N 
ATOM     23  H   UNL A   1      32.537  22.170  21.901  1.00  0.00     0.178 HD
ATOM     24  H   UNL A   1      33.149  23.336  20.816  1.00  0.00     0.178 HD
ENDBRANCH  13  22
ENDBRANCH  10  11
ENDBRANCH   8  10
ENDBRANCH   5   8
ENDBRANCH   3   4
ENDBRANCH   2   3
ENDBRANCH   1   2
BRANCH   1  25
ATOM     25  C   UNL A   1      38.061  21.571  25.139  1.00  0.00     0.002 C 
BRANCH  25  26
ATOM     26  C   UNL A   1      38.718  20.198  25.295  1.00  0.00     0.021 C 
BRANCH  26  27
ATOM     27  C   UNL A   1      39.696  20.095  26.458  1.00  0.00     0.116 C 
BRANCH  27  28
ATOM     28  N   UNL A   1      40.836  19.252  26.135  1.00  0.00    -0.352 N 
ATOM     29  C   UNL A   1      42.137  19.614  25.903  1.00  0.00     0.251 C 
ATOM     30  H   UNL A   1      40.646  18.289  26.074  1.00  0.00     0.163 HD
ATOM     31  O   UNL A   1      42.926  18.790  25.438  1.00  0.00    -0.269 OA
BRANCH  29  32
ATOM     32  C   UNL A   1      42.587  20.989  26.200  1.00  0.00     0.039 A 
ATOM     33  C   UNL A   1      42.826  21.351  27.527  1.00  0.00     0.014 A 
ATOM     34  C   UNL A   1      42.755  21.926  25.175  1.00  0.00     0.014 A 
ATOM     35  C   UNL A   1      43.270  22.641  27.823  1.00  0.00     0.010 A 
ATOM     36  C   UNL A   1      43.271  23.186  25.464  1.00  0.00     0.010 A 
ATOM     37  C   UNL A   1      43.517  23.563  26.792  1.00  0.00    -0.014 A 
BRANCH  37  38
ATOM     38  C   UNL A   1      43.997  24.937  27.092  1.00  0.00     0.031 A 
ATOM     39  C   UNL A   1      45.456  25.276  26.930  1.00  0.00     0.074 A 
ATOM     40  C   UNL A   1      43.131  25.868  27.540  1.00  0.00     0.049 A 
ATOM     41  N   UNL A   1      46.075  26.401  27.181  1.00  0.00    -0.248 NA
ATOM     42  C   UNL A   1      46.341  24.203  26.442  1.00  0.00     0.031 C 
ATOM     43  C   UNL A   1      41.702  25.654  27.774  1.00  0.00     0.029 A 
ATOM     44  N   UNL A   1      43.329  27.182  27.881  1.00  0.00    -0.354 N 
ATOM     45  C   UNL A   1      47.413  26.172  26.886  1.00  0.00     0.074 A 
ATOM     46  C   UNL A   1      47.529  24.783  26.500  1.00  0.00     0.031 C 
ATOM     47  C   UNL A   1      41.149  26.802  28.199  1.00  0.00     0.029 A 
ATOM     48  C   UNL A   1      42.187  27.822  28.301  1.00  0.00     0.049 A 
ATOM     49  H   UNL A   1      44.207  27.626  27.830  1.00  0.00     0.167 HD
ATOM     50  C   UNL A   1      48.449  27.045  26.901  1.00  0.00     0.031 A 
ATOM     51  C   UNL A   1      41.998  29.087  28.727  1.00  0.00     0.031 A 
ATOM     52  C   UNL A   1      48.332  28.427  27.279  1.00  0.00     0.049 A 
ATOM     53  C   UNL A   1      43.169  30.032  28.753  1.00  0.00     0.074 A 
ATOM     54  C   UNL A   1      49.318  29.398  27.313  1.00  0.00     0.029 A 
ATOM     55  N   UNL A   1      47.154  29.040  27.680  1.00  0.00    -0.354 N 
ATOM     56  N   UNL A   1      44.421  29.805  28.430  1.00  0.00    -0.248 NA
ATOM     57  C   UNL A   1      42.898  31.412  29.178  1.00  0.00     0.031 C 
ATOM     58  C   UNL A   1      48.745  30.588  27.773  1.00  0.00     0.029 A 
ATOM     59  C   UNL A   1      47.390  30.374  27.966  1.00  0.00     0.049 A 
ATOM     60  H   UNL A   1      46.280  28.593  27.750  1.00  0.00     0.167 HD
ATOM     61  C   UNL A   1      45.075  31.024  28.576  1.00  0.00     0.074 A 
ATOM     62  C   UNL A   1      44.079  31.986  29.000  1.00  0.00     0.031 C 
ATOM     63  C   UNL A   1      46.384  31.321  28.375  1.00  0.00     0.031 A 
BRANCH  50  64
ATOM     64  C   UNL A   1      49.801  26.528  26.479  1.00  0.00    -0.014 A 
ATOM     65  C   UNL A   1      50.213  26.609  25.135  1.00  0.00     0.010 A 
ATOM     66  C   UNL A   1      50.687  26.001  27.434  1.00  0.00     0.010 A 
ATOM     67  C   UNL A   1      51.471  26.140  24.750  1.00  0.00     0.020 A 
ATOM     68  C   UNL A   1      51.960  25.560  27.058  1.00  0.00     0.020 A 
ATOM     69  C   UNL A   1      52.337  25.618  25.715  1.00  0.00     0.054 A 
BRANCH  69  70
ATOM     70  S   UNL A   1      53.978  25.053  25.190  1.00  0.00     0.124 S 
ATOM     71  O   UNL A   1      54.246  25.924  24.048  1.00  0.00    -0.237 OA
ATOM     72  O   UNL A   1      54.796  25.302  26.374  1.00  0.00    -0.237 OA
ATOM     73  O   UNL A   1      53.773  23.644  24.863  1.00  0.00    -0.744 OA
ENDBRANCH  69  70
ENDBRANCH  50  64
BRANCH  51  74
ATOM     74  C   UNL A   1      40.648  29.537  29.165  1.00  0.00    -0.014 A 
ATOM     75  C   UNL A   1      40.404  29.890  30.505  1.00  0.00     0.010 A 
ATOM     76  C   UNL A   1      39.586  29.592  28.243  1.00  0.00     0.010 A 
ATOM     77  C   UNL A   1      39.117  30.245  30.922  1.00  0.00     0.020 A 
ATOM     78  C   UNL A   1      38.307  29.980  28.649  1.00  0.00     0.020 A 
ATOM     79  C   UNL A   1      38.076  30.283  29.992  1.00  0.00     0.054 A 
BRANCH  79  80
ATOM     80  S   UNL A   1      36.416  30.756  30.551  1.00  0.00     0.124 S 
ATOM     81  O   UNL A   1      35.761  31.104  29.294  1.00  0.00    -0.237 OA
ATOM     82  O   UNL A   1      35.940  29.536  31.198  1.00  0.00    -0.237 OA
ATOM     83  O   UNL A   1      36.668  31.875  31.457  1.00  0.00    -0.744 OA
ENDBRANCH  79  80
ENDBRANCH  51  74
BRANCH  63  84
ATOM     84  C   UNL A   1      46.802  32.758  28.551  1.00  0.00    -0.014 A 
ATOM     85  C   UNL A   1      47.333  33.228  29.764  1.00  0.00     0.010 A 
ATOM     86  C   UNL A   1      46.689  33.645  27.464  1.00  0.00     0.010 A 
ATOM     87  C   UNL A   1      47.700  34.569  29.902  1.00  0.00     0.020 A 
ATOM     88  C   UNL A   1      47.084  34.977  27.587  1.00  0.00     0.020 A 
ATOM     89  C   UNL A   1      47.569  35.437  28.813  1.00  0.00     0.054 A 
BRANCH  89  90
ATOM     90  S   UNL A   1      48.072  37.168  29.010  1.00  0.00     0.124 S 
ATOM     91  O   UNL A   1      47.637  37.457  30.373  1.00  0.00    -0.237 OA
ATOM     92  O   UNL A   1      49.518  37.107  28.809  1.00  0.00    -0.237 OA
ATOM     93  O   UNL A   1      47.333  37.865  27.959  1.00  0.00    -0.744 OA
ENDBRANCH  89  90
ENDBRANCH  63  84
ENDBRANCH  37  38
ENDBRANCH  29  32
ENDBRANCH  27  28
ENDBRANCH  26  27
ENDBRANCH  25  26
ENDBRANCH   1  25
TORSDOF 19
ENDMDL
MODEL 3
REMARK VINA RESULT:     -10.9      5.832      8.131
REMARK SMILES C[C@@H](Sc1nc2ccccc2c(=O)n1N)C(=O)NCCCCCCNC(=O)c1ccc(-c2c3nc(c(-c4ccc(S(=O)(=O)[O-])cc4)c4ccc([nH]4)c(-c4ccc(S(=O)(=O)[O-])cc4)c4nc(c(-c5ccc(S(=O)(=O)[O-])cc5)c5ccc2[nH]5)C=C4)C=C3)cc1
REMARK SMILES IDX 21 1 20 2 19 3 18 4 16 5 17 6 2 8 1 9 3 10 4 11 5 12 14 13
REMARK SMILES IDX 6 14 12 15 7 16 11 17 13 18 8 19 10 20 9 21 15 22 22 25
REMARK SMILES IDX 23 26 24 27 25 28 26 29 27 31 28 32 29 33 87 34 30 35 86 36
REMARK SMILES IDX 31 37 32 38 33 39 80 40 34 41 85 42 79 43 81 44 35 45 84 46
REMARK SMILES IDX 78 47 77 48 36 50 66 51 47 52 65 53 48 54 51 55 64 56 82 57
REMARK SMILES IDX 49 58 50 59 63 61 83 62 52 63 37 64 38 65 46 66 39 67 45 68
REMARK SMILES IDX 40 69 41 70 42 71 43 72 44 73 67 74 68 75 76 76 69 77 75 78
REMARK SMILES IDX 70 79 71 80 72 81 73 82 74 83 53 84 54 85 62 86 55 87 61 88
REMARK SMILES IDX 56 89 57 90 58 91 59 92 60 93
REMARK H PARENT 18 7 15 23 15 24 25 30 81 49 51 60
REMARK Flexibility Score: inf
ROOT
ATOM      1  C   UNL A   1      37.170  21.712  24.329  1.00  0.00     0.002 C 
ENDROOT
BRANCH   1   2
ATOM      2  C   UNL A   1      35.810  22.394  24.134  1.00  0.00     0.021 C 
BRANCH   2   3
ATOM      3  C   UNL A   1      34.634  21.572  24.654  1.00  0.00     0.116 C 
BRANCH   3   4
ATOM      4  N   UNL A   1      33.405  21.960  23.987  1.00  0.00    -0.355 N 
ATOM      5  C   UNL A   1      32.348  22.696  24.432  1.00  0.00     0.233 C 
ATOM      6  O   UNL A   1      31.406  22.867  23.650  1.00  0.00    -0.274 OA
ATOM      7  H   UNL A   1      33.320  21.638  23.060  1.00  0.00     0.163 HD
BRANCH   5   8
ATOM      8  C   UNL A   1      32.316  23.307  25.835  1.00  0.00     0.141 C 
ATOM      9  C   UNL A   1      33.428  24.324  26.067  1.00  0.00     0.030 C 
BRANCH   8  10
ATOM     10  S   UNL A   1      30.604  23.864  26.165  1.00  0.00    -0.073 SA
BRANCH  10  11
ATOM     11  C   UNL A   1      30.706  25.573  25.836  1.00  0.00     0.191 A 
ATOM     12  N   UNL A   1      31.193  26.321  26.770  1.00  0.00    -0.222 NA
ATOM     13  N   UNL A   1      30.349  26.035  24.574  1.00  0.00    -0.202 N 
ATOM     14  C   UNL A   1      31.402  27.678  26.489  1.00  0.00     0.079 A 
ATOM     15  C   UNL A   1      30.533  27.369  24.208  1.00  0.00     0.280 A 
ATOM     16  C   UNL A   1      31.975  28.486  27.473  1.00  0.00     0.029 A 
ATOM     17  C   UNL A   1      31.106  28.244  25.247  1.00  0.00     0.068 A 
ATOM     18  O   UNL A   1      30.277  27.805  23.087  1.00  0.00    -0.267 OA
ATOM     19  C   UNL A   1      32.247  29.834  27.219  1.00  0.00     0.002 A 
ATOM     20  C   UNL A   1      31.370  29.593  24.984  1.00  0.00     0.016 A 
ATOM     21  C   UNL A   1      31.944  30.387  25.974  1.00  0.00     0.001 A 
BRANCH  13  22
ATOM     22  N   UNL A   1      29.800  25.164  23.575  1.00  0.00    -0.334 N 
ATOM     23  H   UNL A   1      28.844  25.217  23.346  1.00  0.00     0.178 HD
ATOM     24  H   UNL A   1      30.380  24.512  23.119  1.00  0.00     0.178 HD
ENDBRANCH  13  22
ENDBRANCH  10  11
ENDBRANCH   8  10
ENDBRANCH   5   8
ENDBRANCH   3   4
ENDBRANCH   2   3
ENDBRANCH   1   2
BRANCH   1  25
ATOM     25  C   UNL A   1      37.107  20.329  24.986  1.00  0.00     0.002 C 
BRANCH  25  26
ATOM     26  C   UNL A   1      38.429  19.558  24.995  1.00  0.00     0.021 C 
BRANCH  26  27
ATOM     27  C   UNL A   1      39.514  20.177  25.866  1.00  0.00     0.116 C 
BRANCH  27  28
ATOM     28  N   UNL A   1      40.594  19.241  26.134  1.00  0.00    -0.352 N 
ATOM     29  C   UNL A   1      41.919  19.497  26.371  1.00  0.00     0.251 C 
ATOM     30  H   UNL A   1      40.337  18.291  26.147  1.00  0.00     0.163 HD
ATOM     31  O   UNL A   1      42.731  18.571  26.371  1.00  0.00    -0.269 OA
BRANCH  29  32
ATOM     32  C   UNL A   1      42.372  20.882  26.613  1.00  0.00     0.039 A 
ATOM     33  C   UNL A   1      42.467  21.342  27.928  1.00  0.00     0.014 A 
ATOM     34  C   UNL A   1      42.685  21.732  25.547  1.00  0.00     0.014 A 
ATOM     35  C   UNL A   1      42.912  22.642  28.175  1.00  0.00     0.010 A 
ATOM     36  C   UNL A   1      43.201  23.000  25.798  1.00  0.00     0.010 A 
ATOM     37  C   UNL A   1      43.304  23.475  27.113  1.00  0.00    -0.014 A 
BRANCH  37  38
ATOM     38  C   UNL A   1      43.787  24.858  27.362  1.00  0.00     0.031 A 
ATOM     39  C   UNL A   1      45.239  25.198  27.147  1.00  0.00     0.074 A 
ATOM     40  C   UNL A   1      42.931  25.798  27.810  1.00  0.00     0.049 A 
ATOM     41  N   UNL A   1      45.860  26.332  27.350  1.00  0.00    -0.248 NA
ATOM     42  C   UNL A   1      46.113  24.115  26.662  1.00  0.00     0.031 C 
ATOM     43  C   UNL A   1      41.509  25.585  28.093  1.00  0.00     0.029 A 
ATOM     44  N   UNL A   1      43.133  27.121  28.110  1.00  0.00    -0.354 N 
ATOM     45  C   UNL A   1      47.190  26.099  27.021  1.00  0.00     0.074 A 
ATOM     46  C   UNL A   1      47.301  24.701  26.669  1.00  0.00     0.031 C 
ATOM     47  C   UNL A   1      40.965  26.743  28.503  1.00  0.00     0.029 A 
ATOM     48  C   UNL A   1      42.001  27.768  28.547  1.00  0.00     0.049 A 
ATOM     49  H   UNL A   1      44.007  27.567  28.021  1.00  0.00     0.167 HD
ATOM     50  C   UNL A   1      48.222  26.975  26.982  1.00  0.00     0.031 A 
ATOM     51  C   UNL A   1      41.819  29.043  28.945  1.00  0.00     0.031 A 
ATOM     52  C   UNL A   1      48.110  28.367  27.328  1.00  0.00     0.049 A 
ATOM     53  C   UNL A   1      42.987  29.993  28.910  1.00  0.00     0.074 A 
ATOM     54  C   UNL A   1      49.093  29.342  27.307  1.00  0.00     0.029 A 
ATOM     55  N   UNL A   1      46.943  28.986  27.747  1.00  0.00    -0.354 N 
ATOM     56  N   UNL A   1      44.229  29.761  28.557  1.00  0.00    -0.248 NA
ATOM     57  C   UNL A   1      42.723  31.383  29.307  1.00  0.00     0.031 C 
ATOM     58  C   UNL A   1      48.528  30.542  27.751  1.00  0.00     0.029 A 
ATOM     59  C   UNL A   1      47.181  30.329  27.990  1.00  0.00     0.049 A 
ATOM     60  H   UNL A   1      46.073  28.538  27.855  1.00  0.00     0.167 HD
ATOM     61  C   UNL A   1      44.883  30.986  28.651  1.00  0.00     0.074 A 
ATOM     62  C   UNL A   1      43.896  31.955  29.079  1.00  0.00     0.031 C 
ATOM     63  C   UNL A   1      46.183  31.283  28.404  1.00  0.00     0.031 A 
BRANCH  50  64
ATOM     64  C   UNL A   1      49.563  26.453  26.534  1.00  0.00    -0.014 A 
ATOM     65  C   UNL A   1      49.972  26.581  25.194  1.00  0.00     0.010 A 
ATOM     66  C   UNL A   1      50.443  25.871  27.464  1.00  0.00     0.010 A 
ATOM     67  C   UNL A   1      51.221  26.106  24.785  1.00  0.00     0.020 A 
ATOM     68  C   UNL A   1      51.706  25.422  27.065  1.00  0.00     0.020 A 
ATOM     69  C   UNL A   1      52.080  25.529  25.724  1.00  0.00     0.054 A 
BRANCH  69  70
ATOM     70  S   UNL A   1      53.709  24.956  25.170  1.00  0.00     0.124 S 
ATOM     71  O   UNL A   1      54.566  25.365  26.281  1.00  0.00    -0.237 OA
ATOM     72  O   UNL A   1      53.511  23.516  25.029  1.00  0.00    -0.237 OA
ATOM     73  O   UNL A   1      53.925  25.679  23.919  1.00  0.00    -0.744 OA
ENDBRANCH  69  70
ENDBRANCH  50  64
BRANCH  51  74
ATOM     74  C   UNL A   1      40.481  29.501  29.410  1.00  0.00    -0.014 A 
ATOM     75  C   UNL A   1      39.453  29.777  28.490  1.00  0.00     0.010 A 
ATOM     76  C   UNL A   1      40.234  29.687  30.783  1.00  0.00     0.010 A 
ATOM     77  C   UNL A   1      38.221  30.273  28.930  1.00  0.00     0.020 A 
ATOM     78  C   UNL A   1      38.992  30.149  31.229  1.00  0.00     0.020 A 
ATOM     79  C   UNL A   1      38.001  30.460  30.297  1.00  0.00     0.054 A 
BRANCH  79  80
ATOM     80  S   UNL A   1      36.393  31.094  30.847  1.00  0.00     0.124 S 
ATOM     81  O   UNL A   1      35.897  29.991  31.664  1.00  0.00    -0.237 OA
ATOM     82  O   UNL A   1      36.762  32.305  31.576  1.00  0.00    -0.237 OA
ATOM     83  O   UNL A   1      35.671  31.322  29.598  1.00  0.00    -0.744 OA
ENDBRANCH  79  80
ENDBRANCH  51  74
BRANCH  63  84
ATOM     84  C   UNL A   1      46.600  32.725  28.529  1.00  0.00    -0.014 A 
ATOM     85  C   UNL A   1      46.475  33.624  27.456  1.00  0.00     0.010 A 
ATOM     86  C   UNL A   1      47.098  33.193  29.759  1.00  0.00     0.010 A 
ATOM     87  C   UNL A   1      46.883  34.953  27.597  1.00  0.00     0.020 A 
ATOM     88  C   UNL A   1      47.476  34.527  29.914  1.00  0.00     0.020 A 
ATOM     89  C   UNL A   1      47.385  35.395  28.825  1.00  0.00     0.054 A 
BRANCH  89  90
ATOM     90  S   UNL A   1      47.888  37.130  28.990  1.00  0.00     0.124 S 
ATOM     91  O   UNL A   1      47.834  37.325  30.436  1.00  0.00    -0.237 OA
ATOM     92  O   UNL A   1      49.226  37.134  28.404  1.00  0.00    -0.237 OA
ATOM     93  O   UNL A   1      46.877  37.857  28.225  1.00  0.00    -0.744 OA
ENDBRANCH  89  90
ENDBRANCH  63  84
ENDBRANCH  37  38
ENDBRANCH  29  32
ENDBRANCH  27  28
ENDBRANCH  26  27
ENDBRANCH  25  26
ENDBRANCH   1  25
TORSDOF 19
ENDMDL
