MODEL 1
REMARK VINA RESULT:     -11.3      0.000      0.000
REMARK SMILES CC[C@](C)(NC(=O)CNC(=O)c1cccc(Cl)c1)C(=O)NCCCCCCNC(=O)c1ccc(-c2c3nc(c(-c4ccc(S(=O)(=O)[O-])cc4)c4ccc([nH]4)c(-c4ccc(S(=O)(=O)[O-])cc4)c4nc(c(-c5ccc(S(=O)(=O)[O-])cc5)c5ccc2[nH]5)C=C4)C=C3)cc1
REMARK SMILES IDX 24 1 23 2 22 3 21 4 19 5 20 6 3 8 4 9 2 10 1 11 5 12 6 13
REMARK SMILES IDX 7 15 8 16 9 17 10 18 11 20 12 21 13 22 18 23 14 24 16 25
REMARK SMILES IDX 15 26 17 27 25 28 26 29 27 30 28 31 29 32 30 34 31 35 32 36
REMARK SMILES IDX 90 37 33 38 89 39 34 40 35 41 36 42 83 43 37 44 88 45 82 46
REMARK SMILES IDX 84 47 38 48 87 49 81 50 80 51 39 53 69 54 50 55 68 56 51 57
REMARK SMILES IDX 54 58 67 59 85 60 52 61 53 62 66 64 86 65 55 66 40 67 41 68
REMARK SMILES IDX 49 69 42 70 48 71 43 72 44 73 45 74 46 75 47 76 70 77 71 78
REMARK SMILES IDX 79 79 72 80 78 81 73 82 74 83 75 84 76 85 77 86 56 87 57 88
REMARK SMILES IDX 65 89 58 90 64 91 59 92 60 93 61 94 62 95 63 96
REMARK H PARENT 21 7 5 14 9 19 28 33 84 52 54 63
REMARK Flexibility Score: inf
ROOT
ATOM      1  C   UNL A   1      37.767  21.805  25.126  1.00  0.00     0.002 C 
ENDROOT
BRANCH   1   2
ATOM      2  C   UNL A   1      36.863  20.585  25.297  1.00  0.00     0.021 C 
BRANCH   2   3
ATOM      3  C   UNL A   1      35.546  20.581  24.512  1.00  0.00     0.116 C 
BRANCH   3   4
ATOM      4  N   UNL A   1      34.415  19.891  25.127  1.00  0.00    -0.354 N 
ATOM      5  C   UNL A   1      33.163  20.332  25.480  1.00  0.00     0.245 C 
ATOM      6  O   UNL A   1      32.265  19.502  25.621  1.00  0.00    -0.272 OA
ATOM      7  H   UNL A   1      34.580  18.940  25.324  1.00  0.00     0.163 HD
BRANCH   5   8
ATOM      8  C   UNL A   1      32.806  21.821  25.519  1.00  0.00     0.116 C 
ATOM      9  C   UNL A   1      32.740  22.495  24.129  1.00  0.00     0.045 C 
BRANCH   8  10
ATOM     10  C   UNL A   1      33.967  22.477  26.341  1.00  0.00     0.035 C 
ATOM     11  C   UNL A   1      33.774  22.403  27.870  1.00  0.00     0.007 C 
ENDBRANCH   8  10
BRANCH   8  12
ATOM     12  N   UNL A   1      31.472  21.970  26.127  1.00  0.00    -0.340 N 
ATOM     13  C   UNL A   1      30.810  23.143  26.415  1.00  0.00     0.240 C 
ATOM     14  H   UNL A   1      31.001  21.136  26.354  1.00  0.00     0.164 HD
ATOM     15  O   UNL A   1      30.021  23.111  27.365  1.00  0.00    -0.273 OA
BRANCH  13  16
ATOM     16  C   UNL A   1      30.900  24.422  25.518  1.00  0.00     0.216 C 
BRANCH  16  17
ATOM     17  N   UNL A   1      29.745  25.254  25.213  1.00  0.00    -0.343 N 
ATOM     18  C   UNL A   1      29.608  26.337  24.361  1.00  0.00     0.251 C 
ATOM     19  H   UNL A   1      28.923  25.005  25.694  1.00  0.00     0.164 HD
ATOM     20  O   UNL A   1      28.481  26.650  23.979  1.00  0.00    -0.269 OA
BRANCH  18  21
ATOM     21  C   UNL A   1      30.734  27.227  23.975  1.00  0.00     0.041 A 
ATOM     22  C   UNL A   1      31.514  27.063  22.830  1.00  0.00     0.014 A 
ATOM     23  C   UNL A   1      30.992  28.314  24.823  1.00  0.00     0.034 A 
ATOM     24  C   UNL A   1      32.629  27.894  22.621  1.00  0.00     0.002 A 
ATOM     25  C   UNL A   1      32.135  29.093  24.647  1.00  0.00     0.041 A 
ATOM     26  C   UNL A   1      32.971  28.873  23.557  1.00  0.00     0.020 A 
ATOM     27  Cl  UNL A   1      32.565  30.270  25.827  1.00  0.00    -0.084 Cl
ENDBRANCH  18  21
ENDBRANCH  16  17
ENDBRANCH  13  16
ENDBRANCH   8  12
ENDBRANCH   5   8
ENDBRANCH   3   4
ENDBRANCH   2   3
ENDBRANCH   1   2
BRANCH   1  28
ATOM     28  C   UNL A   1      38.976  21.863  26.053  1.00  0.00     0.002 C 
BRANCH  28  29
ATOM     29  C   UNL A   1      39.222  23.225  26.687  1.00  0.00     0.021 C 
BRANCH  29  30
ATOM     30  C   UNL A   1      40.678  23.492  27.039  1.00  0.00     0.116 C 
BRANCH  30  31
ATOM     31  N   UNL A   1      41.395  24.160  25.964  1.00  0.00    -0.352 N 
ATOM     32  C   UNL A   1      41.772  25.480  25.892  1.00  0.00     0.251 C 
ATOM     33  H   UNL A   1      41.641  23.598  25.194  1.00  0.00     0.163 HD
ATOM     34  O   UNL A   1      42.210  25.946  24.844  1.00  0.00    -0.269 OA
BRANCH  32  35
ATOM     35  C   UNL A   1      41.614  26.330  27.089  1.00  0.00     0.039 A 
ATOM     36  C   UNL A   1      42.402  27.473  27.225  1.00  0.00     0.014 A 
ATOM     37  C   UNL A   1      40.643  26.019  28.046  1.00  0.00     0.014 A 
ATOM     38  C   UNL A   1      42.180  28.333  28.303  1.00  0.00     0.010 A 
ATOM     39  C   UNL A   1      40.360  26.925  29.060  1.00  0.00     0.010 A 
ATOM     40  C   UNL A   1      41.140  28.080  29.214  1.00  0.00    -0.014 A 
BRANCH  40  41
ATOM     41  C   UNL A   1      40.886  28.980  30.367  1.00  0.00     0.031 A 
ATOM     42  C   UNL A   1      41.717  28.835  31.616  1.00  0.00     0.074 A 
ATOM     43  C   UNL A   1      39.893  29.891  30.314  1.00  0.00     0.049 A 
ATOM     44  N   UNL A   1      41.616  29.473  32.755  1.00  0.00    -0.248 NA
ATOM     45  C   UNL A   1      42.787  27.820  31.594  1.00  0.00     0.031 C 
ATOM     46  C   UNL A   1      38.990  30.100  29.180  1.00  0.00     0.029 A 
ATOM     47  N   UNL A   1      39.475  30.811  31.242  1.00  0.00    -0.354 N 
ATOM     48  C   UNL A   1      42.599  28.934  33.577  1.00  0.00     0.074 A 
ATOM     49  C   UNL A   1      43.235  27.867  32.838  1.00  0.00     0.031 C 
ATOM     50  C   UNL A   1      38.143  31.102  29.469  1.00  0.00     0.029 A 
ATOM     51  C   UNL A   1      38.416  31.582  30.821  1.00  0.00     0.049 A 
ATOM     52  H   UNL A   1      39.894  30.911  32.127  1.00  0.00     0.167 HD
ATOM     53  C   UNL A   1      42.968  29.315  34.822  1.00  0.00     0.031 A 
ATOM     54  C   UNL A   1      37.739  32.560  31.454  1.00  0.00     0.031 A 
ATOM     55  C   UNL A   1      42.347  30.388  35.550  1.00  0.00     0.049 A 
ATOM     56  C   UNL A   1      38.163  32.959  32.844  1.00  0.00     0.074 A 
ATOM     57  C   UNL A   1      42.660  30.868  36.809  1.00  0.00     0.029 A 
ATOM     58  N   UNL A   1      41.298  31.160  35.076  1.00  0.00    -0.354 N 
ATOM     59  N   UNL A   1      39.122  32.460  33.589  1.00  0.00    -0.248 NA
ATOM     60  C   UNL A   1      37.428  34.067  33.470  1.00  0.00     0.031 C 
ATOM     61  C   UNL A   1      41.773  31.905  37.113  1.00  0.00     0.029 A 
ATOM     62  C   UNL A   1      40.950  32.112  36.017  1.00  0.00     0.049 A 
ATOM     63  H   UNL A   1      40.865  31.048  34.198  1.00  0.00     0.167 HD
ATOM     64  C   UNL A   1      39.132  33.225  34.752  1.00  0.00     0.074 A 
ATOM     65  C   UNL A   1      38.095  34.224  34.604  1.00  0.00     0.031 C 
ATOM     66  C   UNL A   1      39.928  33.112  35.843  1.00  0.00     0.031 A 
BRANCH  53  67
ATOM     67  C   UNL A   1      44.116  28.581  35.464  1.00  0.00    -0.014 A 
ATOM     68  C   UNL A   1      45.444  28.982  35.231  1.00  0.00     0.010 A 
ATOM     69  C   UNL A   1      43.868  27.517  36.350  1.00  0.00     0.010 A 
ATOM     70  C   UNL A   1      46.505  28.315  35.847  1.00  0.00     0.020 A 
ATOM     71  C   UNL A   1      44.925  26.867  36.993  1.00  0.00     0.020 A 
ATOM     72  C   UNL A   1      46.238  27.264  36.728  1.00  0.00     0.054 A 
BRANCH  72  73
ATOM     73  S   UNL A   1      47.634  26.452  37.553  1.00  0.00     0.124 S 
ATOM     74  O   UNL A   1      48.388  25.924  36.417  1.00  0.00    -0.237 OA
ATOM     75  O   UNL A   1      48.269  27.557  38.267  1.00  0.00    -0.237 OA
ATOM     76  O   UNL A   1      46.999  25.446  38.400  1.00  0.00    -0.744 OA
ENDBRANCH  72  73
ENDBRANCH  53  67
BRANCH  54  77
ATOM     77  C   UNL A   1      36.592  33.238  30.787  1.00  0.00    -0.014 A 
ATOM     78  C   UNL A   1      36.784  34.011  29.628  1.00  0.00     0.010 A 
ATOM     79  C   UNL A   1      35.299  33.144  31.334  1.00  0.00     0.010 A 
ATOM     80  C   UNL A   1      35.719  34.714  29.057  1.00  0.00     0.020 A 
ATOM     81  C   UNL A   1      34.224  33.817  30.747  1.00  0.00     0.020 A 
ATOM     82  C   UNL A   1      34.446  34.616  29.625  1.00  0.00     0.054 A 
BRANCH  82  83
ATOM     83  S   UNL A   1      33.075  35.535  28.870  1.00  0.00     0.124 S 
ATOM     84  O   UNL A   1      33.781  36.573  28.125  1.00  0.00    -0.237 OA
ATOM     85  O   UNL A   1      32.415  34.512  28.065  1.00  0.00    -0.237 OA
ATOM     86  O   UNL A   1      32.305  36.004  30.021  1.00  0.00    -0.744 OA
ENDBRANCH  82  83
ENDBRANCH  54  77
BRANCH  66  87
ATOM     87  C   UNL A   1      39.762  34.136  36.934  1.00  0.00    -0.014 A 
ATOM     88  C   UNL A   1      38.983  33.878  38.077  1.00  0.00     0.010 A 
ATOM     89  C   UNL A   1      40.436  35.367  36.827  1.00  0.00     0.010 A 
ATOM     90  C   UNL A   1      38.847  34.851  39.070  1.00  0.00     0.020 A 
ATOM     91  C   UNL A   1      40.328  36.329  37.833  1.00  0.00     0.020 A 
ATOM     92  C   UNL A   1      39.517  36.072  38.940  1.00  0.00     0.054 A 
BRANCH  92  93
ATOM     93  S   UNL A   1      39.344  37.307  40.255  1.00  0.00     0.124 S 
ATOM     94  O   UNL A   1      40.735  37.656  40.529  1.00  0.00    -0.237 OA
ATOM     95  O   UNL A   1      38.548  38.350  39.612  1.00  0.00    -0.237 OA
ATOM     96  O   UNL A   1      38.662  36.582  41.325  1.00  0.00    -0.744 OA
ENDBRANCH  92  93
ENDBRANCH  66  87
ENDBRANCH  40  41
ENDBRANCH  32  35
ENDBRANCH  30  31
ENDBRANCH  29  30
ENDBRANCH  28  29
ENDBRANCH   1  28
TORSDOF 21
ENDMDL
MODEL 2
REMARK VINA RESULT:     -11.0      2.811      8.915
REMARK SMILES CC[C@](C)(NC(=O)CNC(=O)c1cccc(Cl)c1)C(=O)NCCCCCCNC(=O)c1ccc(-c2c3nc(c(-c4ccc(S(=O)(=O)[O-])cc4)c4ccc([nH]4)c(-c4ccc(S(=O)(=O)[O-])cc4)c4nc(c(-c5ccc(S(=O)(=O)[O-])cc5)c5ccc2[nH]5)C=C4)C=C3)cc1
REMARK SMILES IDX 24 1 23 2 22 3 21 4 19 5 20 6 3 8 4 9 2 10 1 11 5 12 6 13
REMARK SMILES IDX 7 15 8 16 9 17 10 18 11 20 12 21 13 22 18 23 14 24 16 25
REMARK SMILES IDX 15 26 17 27 25 28 26 29 27 30 28 31 29 32 30 34 31 35 32 36
REMARK SMILES IDX 90 37 33 38 89 39 34 40 35 41 36 42 83 43 37 44 88 45 82 46
REMARK SMILES IDX 84 47 38 48 87 49 81 50 80 51 39 53 69 54 50 55 68 56 51 57
REMARK SMILES IDX 54 58 67 59 85 60 52 61 53 62 66 64 86 65 55 66 40 67 41 68
REMARK SMILES IDX 49 69 42 70 48 71 43 72 44 73 45 74 46 75 47 76 70 77 71 78
REMARK SMILES IDX 79 79 72 80 78 81 73 82 74 83 75 84 76 85 77 86 56 87 57 88
REMARK SMILES IDX 65 89 58 90 64 91 59 92 60 93 61 94 62 95 63 96
REMARK H PARENT 21 7 5 14 9 19 28 33 84 52 54 63
REMARK Flexibility Score: inf
ROOT
ATOM      1  C   UNL A   1      34.041  26.708  25.924  1.00  0.00     0.002 C 
ENDROOT
BRANCH   1   2
ATOM      2  C   UNL A   1      33.923  26.251  24.471  1.00  0.00     0.021 C 
BRANCH   2   3
ATOM      3  C   UNL A   1      34.015  24.743  24.208  1.00  0.00     0.116 C 
BRANCH   3   4
ATOM      4  N   UNL A   1      35.113  24.288  23.361  1.00  0.00    -0.354 N 
ATOM      5  C   UNL A   1      35.961  23.212  23.471  1.00  0.00     0.245 C 
ATOM      6  O   UNL A   1      36.542  22.815  22.461  1.00  0.00    -0.272 OA
ATOM      7  H   UNL A   1      35.275  24.852  22.570  1.00  0.00     0.163 HD
BRANCH   5   8
ATOM      8  C   UNL A   1      36.061  22.383  24.754  1.00  0.00     0.116 C 
ATOM      9  C   UNL A   1      36.205  23.223  26.045  1.00  0.00     0.045 C 
BRANCH   8  10
ATOM     10  C   UNL A   1      37.358  21.527  24.564  1.00  0.00     0.035 C 
ATOM     11  C   UNL A   1      37.185  20.035  24.922  1.00  0.00     0.007 C 
ENDBRANCH   8  10
BRANCH   8  12
ATOM     12  N   UNL A   1      34.827  21.591  24.900  1.00  0.00    -0.340 N 
ATOM     13  C   UNL A   1      33.971  21.565  25.979  1.00  0.00     0.240 C 
ATOM     14  H   UNL A   1      34.587  21.014  24.139  1.00  0.00     0.164 HD
ATOM     15  O   UNL A   1      33.351  20.512  26.165  1.00  0.00    -0.273 OA
BRANCH  13  16
ATOM     16  C   UNL A   1      33.650  22.824  26.850  1.00  0.00     0.216 C 
BRANCH  16  17
ATOM     17  N   UNL A   1      32.360  23.030  27.494  1.00  0.00    -0.343 N 
ATOM     18  C   UNL A   1      31.093  23.171  26.958  1.00  0.00     0.251 C 
ATOM     19  H   UNL A   1      32.397  23.077  28.477  1.00  0.00     0.164 HD
ATOM     20  O   UNL A   1      30.118  22.964  27.680  1.00  0.00    -0.269 OA
BRANCH  18  21
ATOM     21  C   UNL A   1      30.832  23.682  25.587  1.00  0.00     0.041 A 
ATOM     22  C   UNL A   1      30.984  22.931  24.421  1.00  0.00     0.014 A 
ATOM     23  C   UNL A   1      30.378  25.006  25.488  1.00  0.00     0.034 A 
ATOM     24  C   UNL A   1      30.823  23.548  23.168  1.00  0.00     0.002 A 
ATOM     25  C   UNL A   1      30.284  25.630  24.244  1.00  0.00     0.041 A 
ATOM     26  C   UNL A   1      30.526  24.910  23.079  1.00  0.00     0.020 A 
ATOM     27  Cl  UNL A   1      29.954  27.317  24.151  1.00  0.00    -0.084 Cl
ENDBRANCH  18  21
ENDBRANCH  16  17
ENDBRANCH  13  16
ENDBRANCH   8  12
ENDBRANCH   5   8
ENDBRANCH   3   4
ENDBRANCH   2   3
ENDBRANCH   1   2
BRANCH   1  28
ATOM     28  C   UNL A   1      32.730  27.098  26.600  1.00  0.00     0.002 C 
BRANCH  28  29
ATOM     29  C   UNL A   1      32.656  28.551  27.047  1.00  0.00     0.021 C 
BRANCH  29  30
ATOM     30  C   UNL A   1      33.903  29.362  26.732  1.00  0.00     0.116 C 
BRANCH  30  31
ATOM     31  N   UNL A   1      33.718  30.784  26.982  1.00  0.00    -0.352 N 
ATOM     32  C   UNL A   1      34.462  31.602  27.797  1.00  0.00     0.251 C 
ATOM     33  H   UNL A   1      32.968  31.212  26.509  1.00  0.00     0.163 HD
ATOM     34  O   UNL A   1      34.080  32.740  28.055  1.00  0.00    -0.269 OA
BRANCH  32  35
ATOM     35  C   UNL A   1      35.715  31.077  28.379  1.00  0.00     0.039 A 
ATOM     36  C   UNL A   1      36.917  31.736  28.123  1.00  0.00     0.014 A 
ATOM     37  C   UNL A   1      35.681  29.962  29.221  1.00  0.00     0.014 A 
ATOM     38  C   UNL A   1      38.084  31.302  28.756  1.00  0.00     0.010 A 
ATOM     39  C   UNL A   1      36.823  29.595  29.923  1.00  0.00     0.010 A 
ATOM     40  C   UNL A   1      38.041  30.246  29.682  1.00  0.00    -0.014 A 
BRANCH  40  41
ATOM     41  C   UNL A   1      39.269  29.767  30.366  1.00  0.00     0.031 A 
ATOM     42  C   UNL A   1      39.732  30.456  31.625  1.00  0.00     0.074 A 
ATOM     43  C   UNL A   1      39.987  28.752  29.844  1.00  0.00     0.049 A 
ATOM     44  N   UNL A   1      40.807  30.238  32.338  1.00  0.00    -0.248 NA
ATOM     45  C   UNL A   1      38.890  31.554  32.135  1.00  0.00     0.031 C 
ATOM     46  C   UNL A   1      39.669  28.032  28.609  1.00  0.00     0.029 A 
ATOM     47  N   UNL A   1      41.138  28.152  30.288  1.00  0.00    -0.354 N 
ATOM     48  C   UNL A   1      40.771  31.170  33.369  1.00  0.00     0.074 A 
ATOM     49  C   UNL A   1      39.611  32.004  33.149  1.00  0.00     0.031 C 
ATOM     50  C   UNL A   1      40.587  27.072  28.409  1.00  0.00     0.029 A 
ATOM     51  C   UNL A   1      41.579  27.131  29.478  1.00  0.00     0.049 A 
ATOM     52  H   UNL A   1      41.605  28.426  31.110  1.00  0.00     0.167 HD
ATOM     53  C   UNL A   1      41.604  31.300  34.427  1.00  0.00     0.031 A 
ATOM     54  C   UNL A   1      42.663  26.337  29.583  1.00  0.00     0.031 A 
ATOM     55  C   UNL A   1      42.747  30.458  34.657  1.00  0.00     0.049 A 
ATOM     56  C   UNL A   1      43.581  26.508  30.766  1.00  0.00     0.074 A 
ATOM     57  C   UNL A   1      43.643  30.492  35.710  1.00  0.00     0.029 A 
ATOM     58  N   UNL A   1      43.141  29.419  33.827  1.00  0.00    -0.354 N 
ATOM     59  N   UNL A   1      43.505  27.372  31.751  1.00  0.00    -0.248 NA
ATOM     60  C   UNL A   1      44.718  25.581  30.863  1.00  0.00     0.031 C 
ATOM     61  C   UNL A   1      44.604  29.498  35.497  1.00  0.00     0.029 A 
ATOM     62  C   UNL A   1      44.267  28.805  34.344  1.00  0.00     0.049 A 
ATOM     63  H   UNL A   1      42.686  29.157  32.994  1.00  0.00     0.167 HD
ATOM     64  C   UNL A   1      44.559  27.062  32.606  1.00  0.00     0.074 A 
ATOM     65  C   UNL A   1      45.246  25.926  32.029  1.00  0.00     0.031 C 
ATOM     66  C   UNL A   1      44.925  27.662  33.765  1.00  0.00     0.031 A 
BRANCH  53  67
ATOM     67  C   UNL A   1      41.291  32.375  35.434  1.00  0.00    -0.014 A 
ATOM     68  C   UNL A   1      41.581  33.724  35.157  1.00  0.00     0.010 A 
ATOM     69  C   UNL A   1      40.652  32.047  36.643  1.00  0.00     0.010 A 
ATOM     70  C   UNL A   1      41.267  34.721  36.082  1.00  0.00     0.020 A 
ATOM     71  C   UNL A   1      40.308  33.046  37.559  1.00  0.00     0.020 A 
ATOM     72  C   UNL A   1      40.628  34.376  37.276  1.00  0.00     0.054 A 
BRANCH  72  73
ATOM     73  S   UNL A   1      40.187  35.700  38.434  1.00  0.00     0.124 S 
ATOM     74  O   UNL A   1      41.320  35.683  39.356  1.00  0.00    -0.237 OA
ATOM     75  O   UNL A   1      40.103  36.870  37.564  1.00  0.00    -0.237 OA
ATOM     76  O   UNL A   1      38.916  35.255  39.001  1.00  0.00    -0.744 OA
ENDBRANCH  72  73
ENDBRANCH  53  67
BRANCH  54  77
ATOM     77  C   UNL A   1      42.946  25.304  28.546  1.00  0.00    -0.014 A 
ATOM     78  C   UNL A   1      43.638  25.635  27.367  1.00  0.00     0.010 A 
ATOM     79  C   UNL A   1      42.488  23.985  28.719  1.00  0.00     0.010 A 
ATOM     80  C   UNL A   1      43.824  24.681  26.361  1.00  0.00     0.020 A 
ATOM     81  C   UNL A   1      42.703  23.019  27.731  1.00  0.00     0.020 A 
ATOM     82  C   UNL A   1      43.349  23.380  26.549  1.00  0.00     0.054 A 
BRANCH  82  83
ATOM     83  S   UNL A   1      43.601  22.157  25.232  1.00  0.00     0.124 S 
ATOM     84  O   UNL A   1      42.521  21.210  25.489  1.00  0.00    -0.237 OA
ATOM     85  O   UNL A   1      43.467  22.962  24.023  1.00  0.00    -0.237 OA
ATOM     86  O   UNL A   1      44.949  21.653  25.490  1.00  0.00    -0.744 OA
ENDBRANCH  82  83
ENDBRANCH  54  77
BRANCH  66  87
ATOM     87  C   UNL A   1      46.076  27.060  34.526  1.00  0.00    -0.014 A 
ATOM     88  C   UNL A   1      47.408  27.427  34.262  1.00  0.00     0.010 A 
ATOM     89  C   UNL A   1      45.810  26.138  35.556  1.00  0.00     0.010 A 
ATOM     90  C   UNL A   1      48.454  26.847  34.985  1.00  0.00     0.020 A 
ATOM     91  C   UNL A   1      46.851  25.582  36.302  1.00  0.00     0.020 A 
ATOM     92  C   UNL A   1      48.168  25.926  35.998  1.00  0.00     0.054 A 
BRANCH  92  93
ATOM     93  S   UNL A   1      49.543  25.208  36.937  1.00  0.00     0.124 S 
ATOM     94  O   UNL A   1      49.145  23.806  37.033  1.00  0.00    -0.237 OA
ATOM     95  O   UNL A   1      50.694  25.478  36.079  1.00  0.00    -0.237 OA
ATOM     96  O   UNL A   1      49.525  25.947  38.197  1.00  0.00    -0.744 OA
ENDBRANCH  92  93
ENDBRANCH  66  87
ENDBRANCH  40  41
ENDBRANCH  32  35
ENDBRANCH  30  31
ENDBRANCH  29  30
ENDBRANCH  28  29
ENDBRANCH   1  28
TORSDOF 21
ENDMDL
MODEL 3
REMARK VINA RESULT:     -10.8      6.037      8.157
REMARK SMILES CC[C@](C)(NC(=O)CNC(=O)c1cccc(Cl)c1)C(=O)NCCCCCCNC(=O)c1ccc(-c2c3nc(c(-c4ccc(S(=O)(=O)[O-])cc4)c4ccc([nH]4)c(-c4ccc(S(=O)(=O)[O-])cc4)c4nc(c(-c5ccc(S(=O)(=O)[O-])cc5)c5ccc2[nH]5)C=C4)C=C3)cc1
REMARK SMILES IDX 24 1 23 2 22 3 21 4 19 5 20 6 3 8 4 9 2 10 1 11 5 12 6 13
REMARK SMILES IDX 7 15 8 16 9 17 10 18 11 20 12 21 13 22 18 23 14 24 16 25
REMARK SMILES IDX 15 26 17 27 25 28 26 29 27 30 28 31 29 32 30 34 31 35 32 36
REMARK SMILES IDX 90 37 33 38 89 39 34 40 35 41 36 42 83 43 37 44 88 45 82 46
REMARK SMILES IDX 84 47 38 48 87 49 81 50 80 51 39 53 69 54 50 55 68 56 51 57
REMARK SMILES IDX 54 58 67 59 85 60 52 61 53 62 66 64 86 65 55 66 40 67 41 68
REMARK SMILES IDX 49 69 42 70 48 71 43 72 44 73 45 74 46 75 47 76 70 77 71 78
REMARK SMILES IDX 79 79 72 80 78 81 73 82 74 83 75 84 76 85 77 86 56 87 57 88
REMARK SMILES IDX 65 89 58 90 64 91 59 92 60 93 61 94 62 95 63 96
REMARK H PARENT 21 7 5 14 9 19 28 33 84 52 54 63
REMARK Flexibility Score: inf
ROOT
ATOM      1  C   UNL A   1      37.891  21.498  25.333  1.00  0.00     0.002 C 
ENDROOT
BRANCH   1   2
ATOM      2  C   UNL A   1      36.742  20.591  24.896  1.00  0.00     0.021 C 
BRANCH   2   3
ATOM      3  C   UNL A   1      35.361  21.241  24.749  1.00  0.00     0.116 C 
BRANCH   3   4
ATOM      4  N   UNL A   1      34.203  20.405  25.057  1.00  0.00    -0.354 N 
ATOM      5  C   UNL A   1      32.891  20.726  25.305  1.00  0.00     0.245 C 
ATOM      6  O   UNL A   1      32.035  19.853  25.159  1.00  0.00    -0.272 OA
ATOM      7  H   UNL A   1      34.399  19.441  25.093  1.00  0.00     0.163 HD
BRANCH   5   8
ATOM      8  C   UNL A   1      32.441  22.165  25.572  1.00  0.00     0.116 C 
ATOM      9  C   UNL A   1      32.387  23.058  24.310  1.00  0.00     0.045 C 
BRANCH   8  10
ATOM     10  C   UNL A   1      33.527  22.737  26.546  1.00  0.00     0.035 C 
ATOM     11  C   UNL A   1      34.146  24.073  26.082  1.00  0.00     0.007 C 
ENDBRANCH   8  10
BRANCH   8  12
ATOM     12  N   UNL A   1      31.078  22.137  26.132  1.00  0.00    -0.340 N 
ATOM     13  C   UNL A   1      30.422  23.154  26.788  1.00  0.00     0.240 C 
ATOM     14  H   UNL A   1      30.580  21.295  26.024  1.00  0.00     0.164 HD
ATOM     15  O   UNL A   1      29.581  22.816  27.627  1.00  0.00    -0.273 OA
BRANCH  13  16
ATOM     16  C   UNL A   1      30.585  24.665  26.412  1.00  0.00     0.216 C 
BRANCH  16  17
ATOM     17  N   UNL A   1      29.590  25.398  25.644  1.00  0.00    -0.343 N 
ATOM     18  C   UNL A   1      29.718  26.189  24.516  1.00  0.00     0.251 C 
ATOM     19  H   UNL A   1      28.669  25.318  25.986  1.00  0.00     0.164 HD
ATOM     20  O   UNL A   1      28.721  26.404  23.826  1.00  0.00    -0.269 OA
BRANCH  18  21
ATOM     21  C   UNL A   1      30.969  26.904  24.150  1.00  0.00     0.041 A 
ATOM     22  C   UNL A   1      31.844  26.499  23.142  1.00  0.00     0.014 A 
ATOM     23  C   UNL A   1      31.253  28.076  24.867  1.00  0.00     0.034 A 
ATOM     24  C   UNL A   1      33.059  27.183  22.958  1.00  0.00     0.002 A 
ATOM     25  C   UNL A   1      32.487  28.710  24.725  1.00  0.00     0.041 A 
ATOM     26  C   UNL A   1      33.404  28.254  23.785  1.00  0.00     0.020 A 
ATOM     27  Cl  UNL A   1      32.915  30.004  25.776  1.00  0.00    -0.084 Cl
ENDBRANCH  18  21
ENDBRANCH  16  17
ENDBRANCH  13  16
ENDBRANCH   8  12
ENDBRANCH   5   8
ENDBRANCH   3   4
ENDBRANCH   2   3
ENDBRANCH   1   2
BRANCH   1  28
ATOM     28  C   UNL A   1      39.215  20.795  25.610  1.00  0.00     0.002 C 
BRANCH  28  29
ATOM     29  C   UNL A   1      40.063  21.444  26.695  1.00  0.00     0.021 C 
BRANCH  29  30
ATOM     30  C   UNL A   1      41.025  20.491  27.385  1.00  0.00     0.116 C 
BRANCH  30  31
ATOM     31  N   UNL A   1      41.873  19.778  26.441  1.00  0.00    -0.352 N 
ATOM     32  C   UNL A   1      42.926  20.274  25.710  1.00  0.00     0.251 C 
ATOM     33  H   UNL A   1      41.668  18.824  26.311  1.00  0.00     0.163 HD
ATOM     34  O   UNL A   1      43.435  19.603  24.816  1.00  0.00    -0.269 OA
BRANCH  32  35
ATOM     35  C   UNL A   1      43.414  21.637  26.001  1.00  0.00     0.039 A 
ATOM     36  C   UNL A   1      43.121  22.673  25.114  1.00  0.00     0.014 A 
ATOM     37  C   UNL A   1      44.115  21.892  27.184  1.00  0.00     0.014 A 
ATOM     38  C   UNL A   1      43.491  23.979  25.440  1.00  0.00     0.010 A 
ATOM     39  C   UNL A   1      44.394  23.203  27.549  1.00  0.00     0.010 A 
ATOM     40  C   UNL A   1      44.106  24.259  26.672  1.00  0.00    -0.014 A 
BRANCH  40  41
ATOM     41  C   UNL A   1      44.508  25.640  27.040  1.00  0.00     0.031 A 
ATOM     42  C   UNL A   1      45.899  26.118  26.710  1.00  0.00     0.074 A 
ATOM     43  C   UNL A   1      43.652  26.445  27.700  1.00  0.00     0.049 A 
ATOM     44  N   UNL A   1      46.471  27.259  26.999  1.00  0.00    -0.248 NA
ATOM     45  C   UNL A   1      46.775  25.180  25.983  1.00  0.00     0.031 C 
ATOM     46  C   UNL A   1      42.294  26.085  28.116  1.00  0.00     0.029 A 
ATOM     47  N   UNL A   1      43.801  27.735  28.142  1.00  0.00    -0.354 N 
ATOM     48  C   UNL A   1      47.764  27.171  26.496  1.00  0.00     0.074 A 
ATOM     49  C   UNL A   1      47.920  25.842  25.953  1.00  0.00     0.031 C 
ATOM     50  C   UNL A   1      41.727  27.138  28.727  1.00  0.00     0.029 A 
ATOM     51  C   UNL A   1      42.690  28.234  28.782  1.00  0.00     0.049 A 
ATOM     52  H   UNL A   1      44.626  28.257  28.012  1.00  0.00     0.167 HD
ATOM     53  C   UNL A   1      48.726  28.122  26.455  1.00  0.00     0.031 A 
ATOM     54  C   UNL A   1      42.474  29.436  29.353  1.00  0.00     0.031 A 
ATOM     55  C   UNL A   1      48.565  29.451  26.980  1.00  0.00     0.049 A 
ATOM     56  C   UNL A   1      43.565  30.474  29.302  1.00  0.00     0.074 A 
ATOM     57  C   UNL A   1      49.471  30.496  26.969  1.00  0.00     0.029 A 
ATOM     58  N   UNL A   1      47.415  29.922  27.595  1.00  0.00    -0.354 N 
ATOM     59  N   UNL A   1      44.768  30.381  28.786  1.00  0.00    -0.248 NA
ATOM     60  C   UNL A   1      43.261  31.786  29.890  1.00  0.00     0.031 C 
ATOM     61  C   UNL A   1      48.882  31.589  27.614  1.00  0.00     0.029 A 
ATOM     62  C   UNL A   1      47.588  31.242  27.968  1.00  0.00     0.049 A 
ATOM     63  H   UNL A   1      46.596  29.395  27.743  1.00  0.00     0.167 HD
ATOM     64  C   UNL A   1      45.346  31.637  28.950  1.00  0.00     0.074 A 
ATOM     65  C   UNL A   1      44.357  32.472  29.598  1.00  0.00     0.031 C 
ATOM     66  C   UNL A   1      46.583  32.063  28.594  1.00  0.00     0.031 A 
BRANCH  53  67
ATOM     67  C   UNL A   1      50.031  27.765  25.794  1.00  0.00    -0.014 A 
ATOM     68  C   UNL A   1      50.947  26.907  26.430  1.00  0.00     0.010 A 
ATOM     69  C   UNL A   1      50.325  28.244  24.504  1.00  0.00     0.010 A 
ATOM     70  C   UNL A   1      52.145  26.558  25.803  1.00  0.00     0.020 A 
ATOM     71  C   UNL A   1      51.509  27.873  23.860  1.00  0.00     0.020 A 
ATOM     72  C   UNL A   1      52.416  27.040  24.520  1.00  0.00     0.054 A 
BRANCH  72  73
ATOM     73  S   UNL A   1      53.957  26.528  23.711  1.00  0.00     0.124 S 
ATOM     74  O   UNL A   1      54.731  27.767  23.727  1.00  0.00    -0.237 OA
ATOM     75  O   UNL A   1      54.444  25.472  24.595  1.00  0.00    -0.237 OA
ATOM     76  O   UNL A   1      53.523  26.081  22.390  1.00  0.00    -0.744 OA
ENDBRANCH  72  73
ENDBRANCH  53  67
BRANCH  54  77
ATOM     77  C   UNL A   1      41.175  29.733  30.020  1.00  0.00    -0.014 A 
ATOM     78  C   UNL A   1      41.034  29.611  31.414  1.00  0.00     0.010 A 
ATOM     79  C   UNL A   1      40.055  30.106  29.254  1.00  0.00     0.010 A 
ATOM     80  C   UNL A   1      39.791  29.808  32.023  1.00  0.00     0.020 A 
ATOM     81  C   UNL A   1      38.818  30.338  29.863  1.00  0.00     0.020 A 
ATOM     82  C   UNL A   1      38.689  30.165  31.241  1.00  0.00     0.054 A 
BRANCH  82  83
ATOM     83  S   UNL A   1      37.084  30.417  32.049  1.00  0.00     0.124 S 
ATOM     84  O   UNL A   1      36.854  29.119  32.675  1.00  0.00    -0.237 OA
ATOM     85  O   UNL A   1      37.360  31.522  32.962  1.00  0.00    -0.237 OA
ATOM     86  O   UNL A   1      36.192  30.744  30.938  1.00  0.00    -0.744 OA
ENDBRANCH  82  83
ENDBRANCH  54  77
BRANCH  66  87
ATOM     87  C   UNL A   1      46.914  33.512  28.831  1.00  0.00    -0.014 A 
ATOM     88  C   UNL A   1      47.553  33.941  30.008  1.00  0.00     0.010 A 
ATOM     89  C   UNL A   1      46.614  34.456  27.830  1.00  0.00     0.010 A 
ATOM     90  C   UNL A   1      47.844  35.295  30.198  1.00  0.00     0.020 A 
ATOM     91  C   UNL A   1      46.933  35.804  28.003  1.00  0.00     0.020 A 
ATOM     92  C   UNL A   1      47.529  36.217  29.195  1.00  0.00     0.054 A 
BRANCH  92  93
ATOM     93  S   UNL A   1      47.941  37.964  29.456  1.00  0.00     0.124 S 
ATOM     94  O   UNL A   1      47.229  38.610  28.358  1.00  0.00    -0.237 OA
ATOM     95  O   UNL A   1      47.406  38.223  30.791  1.00  0.00    -0.237 OA
ATOM     96  O   UNL A   1      49.398  37.995  29.359  1.00  0.00    -0.744 OA
ENDBRANCH  92  93
ENDBRANCH  66  87
ENDBRANCH  40  41
ENDBRANCH  32  35
ENDBRANCH  30  31
ENDBRANCH  29  30
ENDBRANCH  28  29
ENDBRANCH   1  28
TORSDOF 21
ENDMDL
