MODEL 1
REMARK VINA RESULT:     -11.3      0.000      0.000
REMARK SMILES CCCCN(c1ccccc1C(=O)NCCCCCCNC(=O)c1ccc(-c2c3nc(c(-c4ccc(S(=O)(=O)[O-])cc4)c4ccc([nH]4)c(-c4ccc(S(=O)(=O)[O-])cc4)c4nc(c(-c5ccc(S(=O)(=O)[O-])cc5)c5ccc2[nH]5)C=C4)C=C3)cc1)S(=O)(=O)c1ccc2c(c1)oc(=O)n2C
REMARK SMILES IDX 17 1 16 2 15 3 14 4 12 5 13 6 11 8 6 9 7 10 8 11 10 12 9 13
REMARK SMILES IDX 5 14 4 15 3 16 2 17 1 18 84 19 85 20 86 21 87 22 88 23 92 24
REMARK SMILES IDX 89 25 91 26 90 27 93 28 96 29 94 30 97 31 95 32 18 33 19 34
REMARK SMILES IDX 20 35 21 36 22 37 23 39 24 40 25 41 83 42 26 43 82 44 27 45
REMARK SMILES IDX 28 46 29 47 76 48 30 49 81 50 75 51 77 52 31 53 80 54 74 55
REMARK SMILES IDX 73 56 32 58 62 59 43 60 61 61 44 62 47 63 60 64 78 65 45 66
REMARK SMILES IDX 46 67 59 69 79 70 48 71 33 72 34 73 42 74 35 75 41 76 36 77
REMARK SMILES IDX 37 78 38 79 39 80 40 81 63 82 64 83 72 84 65 85 71 86 66 87
REMARK SMILES IDX 67 88 68 89 69 90 70 91 49 92 50 93 58 94 51 95 57 96 52 97
REMARK SMILES IDX 53 98 54 99 55 100 56 101
REMARK H PARENT 14 7 21 38 77 57 47 68
REMARK Flexibility Score: inf
ROOT
ATOM      1  C   UNL A   1      33.950  30.209  26.719  1.00  0.00     0.002 C 
ENDROOT
BRANCH   1   2
ATOM      2  C   UNL A   1      32.425  30.423  26.825  1.00  0.00     0.021 C 
BRANCH   2   3
ATOM      3  C   UNL A   1      31.596  30.292  25.546  1.00  0.00     0.116 C 
BRANCH   3   4
ATOM      4  N   UNL A   1      32.189  29.491  24.502  1.00  0.00    -0.352 N 
ATOM      5  C   UNL A   1      31.631  28.687  23.541  1.00  0.00     0.253 C 
ATOM      6  O   UNL A   1      32.424  28.141  22.765  1.00  0.00    -0.269 OA
ATOM      7  H   UNL A   1      33.173  29.529  24.475  1.00  0.00     0.163 HD
BRANCH   5   8
ATOM      8  C   UNL A   1      30.175  28.372  23.363  1.00  0.00     0.064 A 
ATOM      9  C   UNL A   1      29.475  27.204  23.734  1.00  0.00     0.065 A 
ATOM     10  C   UNL A   1      28.066  27.240  23.777  1.00  0.00     0.028 A 
ATOM     11  C   UNL A   1      27.342  28.338  23.316  1.00  0.00     0.002 A 
ATOM     12  C   UNL A   1      29.416  29.481  22.915  1.00  0.00     0.016 A 
ATOM     13  C   UNL A   1      28.020  29.458  22.865  1.00  0.00     0.001 A 
BRANCH   9  14
ATOM     14  N   UNL A   1      30.120  26.012  24.225  1.00  0.00    -0.266 N 
BRANCH  14  15
ATOM     15  C   UNL A   1      30.802  25.180  23.168  1.00  0.00     0.136 C 
BRANCH  15  16
ATOM     16  C   UNL A   1      30.843  23.652  23.268  1.00  0.00     0.022 C 
BRANCH  16  17
ATOM     17  C   UNL A   1      31.954  22.832  22.604  1.00  0.00    -0.002 C 
ATOM     18  C   UNL A   1      33.276  23.543  22.421  1.00  0.00     0.004 C 
ENDBRANCH  16  17
ENDBRANCH  15  16
ENDBRANCH  14  15
BRANCH  14  19
ATOM     19  S   UNL A   1      30.633  25.970  25.853  1.00  0.00     0.264 S 
ATOM     20  O   UNL A   1      30.795  27.338  26.300  1.00  0.00    -0.201 OA
ATOM     21  O   UNL A   1      29.768  25.045  26.559  1.00  0.00    -0.201 OA
BRANCH  19  22
ATOM     22  C   UNL A   1      32.278  25.252  25.942  1.00  0.00     0.091 A 
ATOM     23  C   UNL A   1      33.375  26.055  25.534  1.00  0.00     0.025 A 
ATOM     24  C   UNL A   1      32.453  23.886  26.195  1.00  0.00     0.071 A 
ATOM     25  C   UNL A   1      34.662  25.525  25.432  1.00  0.00     0.032 A 
ATOM     26  C   UNL A   1      33.739  23.388  26.077  1.00  0.00     0.157 A 
ATOM     27  C   UNL A   1      34.808  24.186  25.711  1.00  0.00     0.090 A 
ATOM     28  O   UNL A   1      34.111  22.065  26.271  1.00  0.00    -0.408 OA
ATOM     29  N   UNL A   1      35.906  23.363  25.675  1.00  0.00    -0.277 N 
ATOM     30  C   UNL A   1      35.491  22.088  26.008  1.00  0.00     0.419 A 
ATOM     31  C   UNL A   1      37.256  23.737  25.370  1.00  0.00     0.157 C 
ATOM     32  O   UNL A   1      36.206  21.099  26.088  1.00  0.00    -0.223 OA
ENDBRANCH  19  22
ENDBRANCH  14  19
ENDBRANCH   9  14
ENDBRANCH   5   8
ENDBRANCH   3   4
ENDBRANCH   2   3
ENDBRANCH   1   2
BRANCH   1  33
ATOM     33  C   UNL A   1      34.810  30.555  27.940  1.00  0.00     0.002 C 
BRANCH  33  34
ATOM     34  C   UNL A   1      34.808  31.998  28.473  1.00  0.00     0.021 C 
BRANCH  34  35
ATOM     35  C   UNL A   1      35.989  32.480  29.316  1.00  0.00     0.116 C 
BRANCH  35  36
ATOM     36  N   UNL A   1      35.984  31.761  30.582  1.00  0.00    -0.352 N 
ATOM     37  C   UNL A   1      36.710  30.646  30.920  1.00  0.00     0.251 C 
ATOM     38  H   UNL A   1      35.388  32.117  31.279  1.00  0.00     0.163 HD
ATOM     39  O   UNL A   1      36.217  29.824  31.689  1.00  0.00    -0.269 OA
BRANCH  37  40
ATOM     40  C   UNL A   1      38.095  30.455  30.420  1.00  0.00     0.039 A 
ATOM     41  C   UNL A   1      38.291  30.237  29.051  1.00  0.00     0.014 A 
ATOM     42  C   UNL A   1      39.178  30.342  31.297  1.00  0.00     0.014 A 
ATOM     43  C   UNL A   1      39.556  29.886  28.571  1.00  0.00     0.010 A 
ATOM     44  C   UNL A   1      40.455  30.051  30.807  1.00  0.00     0.010 A 
ATOM     45  C   UNL A   1      40.652  29.782  29.444  1.00  0.00    -0.014 A 
BRANCH  45  46
ATOM     46  C   UNL A   1      41.984  29.356  28.933  1.00  0.00     0.031 A 
ATOM     47  C   UNL A   1      43.129  30.335  28.857  1.00  0.00     0.074 A 
ATOM     48  C   UNL A   1      42.166  28.081  28.536  1.00  0.00     0.049 A 
ATOM     49  N   UNL A   1      44.371  30.127  28.493  1.00  0.00    -0.248 NA
ATOM     50  C   UNL A   1      42.841  31.732  29.217  1.00  0.00     0.031 C 
ATOM     51  C   UNL A   1      41.129  27.046  28.518  1.00  0.00     0.029 A 
ATOM     52  N   UNL A   1      43.289  27.435  28.080  1.00  0.00    -0.354 N 
ATOM     53  C   UNL A   1      45.005  31.363  28.569  1.00  0.00     0.074 A 
ATOM     54  C   UNL A   1      44.000  32.325  28.965  1.00  0.00     0.031 C 
ATOM     55  C   UNL A   1      41.672  25.889  28.108  1.00  0.00     0.029 A 
ATOM     56  C   UNL A   1      43.083  26.104  27.802  1.00  0.00     0.049 A 
ATOM     57  H   UNL A   1      44.158  27.882  27.963  1.00  0.00     0.167 HD
ATOM     58  C   UNL A   1      46.307  31.668  28.348  1.00  0.00     0.031 A 
ATOM     59  C   UNL A   1      43.931  25.158  27.353  1.00  0.00     0.031 A 
ATOM     60  C   UNL A   1      47.307  30.707  27.954  1.00  0.00     0.049 A 
ATOM     61  C   UNL A   1      45.374  25.519  27.123  1.00  0.00     0.074 A 
ATOM     62  C   UNL A   1      48.664  30.905  27.764  1.00  0.00     0.029 A 
ATOM     63  N   UNL A   1      47.057  29.370  27.685  1.00  0.00    -0.354 N 
ATOM     64  N   UNL A   1      45.970  26.677  27.277  1.00  0.00    -0.248 NA
ATOM     65  C   UNL A   1      46.262  24.437  26.676  1.00  0.00     0.031 C 
ATOM     66  C   UNL A   1      49.223  29.702  27.316  1.00  0.00     0.029 A 
ATOM     67  C   UNL A   1      48.228  28.737  27.298  1.00  0.00     0.049 A 
ATOM     68  H   UNL A   1      46.177  28.934  27.756  1.00  0.00     0.167 HD
ATOM     69  C   UNL A   1      47.309  26.457  26.971  1.00  0.00     0.074 A 
ATOM     70  C   UNL A   1      47.437  25.051  26.647  1.00  0.00     0.031 C 
ATOM     71  C   UNL A   1      48.340  27.340  26.959  1.00  0.00     0.031 A 
BRANCH  58  72
ATOM     72  C   UNL A   1      46.727  33.110  28.508  1.00  0.00    -0.014 A 
ATOM     73  C   UNL A   1      47.314  33.575  29.699  1.00  0.00     0.010 A 
ATOM     74  C   UNL A   1      46.571  34.006  27.433  1.00  0.00     0.010 A 
ATOM     75  C   UNL A   1      47.692  34.916  29.830  1.00  0.00     0.020 A 
ATOM     76  C   UNL A   1      46.977  35.340  27.548  1.00  0.00     0.020 A 
ATOM     77  C   UNL A   1      47.519  35.790  28.753  1.00  0.00     0.054 A 
BRANCH  77  78
ATOM     78  S   UNL A   1      48.037  37.519  28.944  1.00  0.00     0.124 S 
ATOM     79  O   UNL A   1      47.111  38.000  29.965  1.00  0.00    -0.237 OA
ATOM     80  O   UNL A   1      49.428  37.390  29.369  1.00  0.00    -0.237 OA
ATOM     81  O   UNL A   1      47.846  38.088  27.612  1.00  0.00    -0.744 OA
ENDBRANCH  77  78
ENDBRANCH  58  72
BRANCH  59  82
ATOM     82  C   UNL A   1      43.435  23.775  27.110  1.00  0.00    -0.014 A 
ATOM     83  C   UNL A   1      43.353  22.842  28.159  1.00  0.00     0.010 A 
ATOM     84  C   UNL A   1      43.019  23.391  25.821  1.00  0.00     0.010 A 
ATOM     85  C   UNL A   1      42.879  21.548  27.921  1.00  0.00     0.020 A 
ATOM     86  C   UNL A   1      42.514  22.109  25.587  1.00  0.00     0.020 A 
ATOM     87  C   UNL A   1      42.458  21.192  26.637  1.00  0.00     0.054 A 
BRANCH  87  88
ATOM     88  S   UNL A   1      41.790  19.527  26.364  1.00  0.00     0.124 S 
ATOM     89  O   UNL A   1      42.447  19.135  25.122  1.00  0.00    -0.237 OA
ATOM     90  O   UNL A   1      42.225  18.814  27.563  1.00  0.00    -0.237 OA
ATOM     91  O   UNL A   1      40.349  19.748  26.268  1.00  0.00    -0.744 OA
ENDBRANCH  87  88
ENDBRANCH  59  82
BRANCH  71  92
ATOM     92  C   UNL A   1      49.703  26.799  26.608  1.00  0.00    -0.014 A 
ATOM     93  C   UNL A   1      50.555  26.260  27.588  1.00  0.00     0.010 A 
ATOM     94  C   UNL A   1      50.132  26.820  25.267  1.00  0.00     0.010 A 
ATOM     95  C   UNL A   1      51.832  25.808  27.246  1.00  0.00     0.020 A 
ATOM     96  C   UNL A   1      51.395  26.336  24.915  1.00  0.00     0.020 A 
ATOM     97  C   UNL A   1      52.246  25.855  25.911  1.00  0.00     0.054 A 
BRANCH  97  98
ATOM     98  S   UNL A   1      53.909  25.263  25.491  1.00  0.00     0.124 S 
ATOM     99  O   UNL A   1      53.616  24.149  24.594  1.00  0.00    -0.237 OA
ATOM    100  O   UNL A   1      54.517  26.433  24.864  1.00  0.00    -0.237 OA
ATOM    101  O   UNL A   1      54.480  24.888  26.783  1.00  0.00    -0.744 OA
ENDBRANCH  97  98
ENDBRANCH  71  92
ENDBRANCH  45  46
ENDBRANCH  37  40
ENDBRANCH  35  36
ENDBRANCH  34  35
ENDBRANCH  33  34
ENDBRANCH   1  33
TORSDOF 22
ENDMDL
MODEL 2
REMARK VINA RESULT:     -11.2      2.433      9.095
REMARK SMILES CCCCN(c1ccccc1C(=O)NCCCCCCNC(=O)c1ccc(-c2c3nc(c(-c4ccc(S(=O)(=O)[O-])cc4)c4ccc([nH]4)c(-c4ccc(S(=O)(=O)[O-])cc4)c4nc(c(-c5ccc(S(=O)(=O)[O-])cc5)c5ccc2[nH]5)C=C4)C=C3)cc1)S(=O)(=O)c1ccc2c(c1)oc(=O)n2C
REMARK SMILES IDX 17 1 16 2 15 3 14 4 12 5 13 6 11 8 6 9 7 10 8 11 10 12 9 13
REMARK SMILES IDX 5 14 4 15 3 16 2 17 1 18 84 19 85 20 86 21 87 22 88 23 92 24
REMARK SMILES IDX 89 25 91 26 90 27 93 28 96 29 94 30 97 31 95 32 18 33 19 34
REMARK SMILES IDX 20 35 21 36 22 37 23 39 24 40 25 41 83 42 26 43 82 44 27 45
REMARK SMILES IDX 28 46 29 47 76 48 30 49 81 50 75 51 77 52 31 53 80 54 74 55
REMARK SMILES IDX 73 56 32 58 62 59 43 60 61 61 44 62 47 63 60 64 78 65 45 66
REMARK SMILES IDX 46 67 59 69 79 70 48 71 33 72 34 73 42 74 35 75 41 76 36 77
REMARK SMILES IDX 37 78 38 79 39 80 40 81 63 82 64 83 72 84 65 85 71 86 66 87
REMARK SMILES IDX 67 88 68 89 69 90 70 91 49 92 50 93 58 94 51 95 57 96 52 97
REMARK SMILES IDX 53 98 54 99 55 100 56 101
REMARK H PARENT 14 7 21 38 77 57 47 68
REMARK Flexibility Score: inf
ROOT
ATOM      1  C   UNL A   1      39.873  23.183  27.056  1.00  0.00     0.002 C 
ENDROOT
BRANCH   1   2
ATOM      2  C   UNL A   1      38.744  22.614  26.172  1.00  0.00     0.021 C 
BRANCH   2   3
ATOM      3  C   UNL A   1      37.612  23.558  25.763  1.00  0.00     0.116 C 
BRANCH   3   4
ATOM      4  N   UNL A   1      37.197  23.467  24.384  1.00  0.00    -0.352 N 
ATOM      5  C   UNL A   1      36.029  23.036  23.809  1.00  0.00     0.253 C 
ATOM      6  O   UNL A   1      35.975  23.103  22.575  1.00  0.00    -0.269 OA
ATOM      7  H   UNL A   1      37.876  23.769  23.738  1.00  0.00     0.163 HD
BRANCH   5   8
ATOM      8  C   UNL A   1      34.837  22.458  24.515  1.00  0.00     0.064 A 
ATOM      9  C   UNL A   1      33.596  23.070  24.794  1.00  0.00     0.065 A 
ATOM     10  C   UNL A   1      32.507  22.258  25.170  1.00  0.00     0.028 A 
ATOM     11  C   UNL A   1      32.656  20.896  25.426  1.00  0.00     0.002 A 
ATOM     12  C   UNL A   1      34.959  21.069  24.766  1.00  0.00     0.016 A 
ATOM     13  C   UNL A   1      33.893  20.302  25.241  1.00  0.00     0.001 A 
BRANCH   9  14
ATOM     14  N   UNL A   1      33.331  24.468  24.567  1.00  0.00    -0.266 N 
BRANCH  14  15
ATOM     15  C   UNL A   1      34.043  25.409  25.506  1.00  0.00     0.136 C 
BRANCH  15  16
ATOM     16  C   UNL A   1      33.400  26.728  25.945  1.00  0.00     0.022 C 
BRANCH  16  17
ATOM     17  C   UNL A   1      32.070  26.761  26.705  1.00  0.00    -0.002 C 
ATOM     18  C   UNL A   1      31.730  28.071  27.378  1.00  0.00     0.004 C 
ENDBRANCH  16  17
ENDBRANCH  15  16
ENDBRANCH  14  15
BRANCH  14  19
ATOM     19  S   UNL A   1      32.854  24.968  23.005  1.00  0.00     0.264 S 
ATOM     20  O   UNL A   1      33.938  25.746  22.441  1.00  0.00    -0.201 OA
ATOM     21  O   UNL A   1      32.324  23.806  22.318  1.00  0.00    -0.201 OA
BRANCH  19  22
ATOM     22  C   UNL A   1      31.478  26.116  23.141  1.00  0.00     0.091 A 
ATOM     23  C   UNL A   1      30.305  25.669  23.803  1.00  0.00     0.025 A 
ATOM     24  C   UNL A   1      31.478  27.325  22.435  1.00  0.00     0.071 A 
ATOM     25  C   UNL A   1      29.144  26.444  23.821  1.00  0.00     0.032 A 
ATOM     26  C   UNL A   1      30.310  28.066  22.463  1.00  0.00     0.157 A 
ATOM     27  C   UNL A   1      29.181  27.638  23.139  1.00  0.00     0.090 A 
ATOM     28  O   UNL A   1      30.108  29.277  21.814  1.00  0.00    -0.408 OA
ATOM     29  N   UNL A   1      28.223  28.600  22.934  1.00  0.00    -0.277 N 
ATOM     30  C   UNL A   1      28.776  29.584  22.137  1.00  0.00     0.419 A 
ATOM     31  C   UNL A   1      26.889  28.615  23.457  1.00  0.00     0.157 C 
ATOM     32  O   UNL A   1      28.212  30.602  21.761  1.00  0.00    -0.223 OA
ENDBRANCH  19  22
ENDBRANCH  14  19
ENDBRANCH   9  14
ENDBRANCH   5   8
ENDBRANCH   3   4
ENDBRANCH   2   3
ENDBRANCH   1   2
BRANCH   1  33
ATOM     33  C   UNL A   1      40.998  22.233  27.484  1.00  0.00     0.002 C 
BRANCH  33  34
ATOM     34  C   UNL A   1      41.140  20.874  26.777  1.00  0.00     0.021 C 
BRANCH  34  35
ATOM     35  C   UNL A   1      42.105  19.836  27.351  1.00  0.00     0.116 C 
BRANCH  35  36
ATOM     36  N   UNL A   1      42.984  19.376  26.285  1.00  0.00    -0.352 N 
ATOM     37  C   UNL A   1      43.575  20.125  25.298  1.00  0.00     0.251 C 
ATOM     38  H   UNL A   1      43.177  18.411  26.271  1.00  0.00     0.163 HD
ATOM     39  O   UNL A   1      43.752  19.620  24.192  1.00  0.00    -0.269 OA
BRANCH  37  40
ATOM     40  C   UNL A   1      44.054  21.504  25.569  1.00  0.00     0.039 A 
ATOM     41  C   UNL A   1      44.770  21.748  26.746  1.00  0.00     0.014 A 
ATOM     42  C   UNL A   1      43.679  22.579  24.755  1.00  0.00     0.014 A 
ATOM     43  C   UNL A   1      45.087  23.058  27.115  1.00  0.00     0.010 A 
ATOM     44  C   UNL A   1      44.050  23.883  25.096  1.00  0.00     0.010 A 
ATOM     45  C   UNL A   1      44.725  24.142  26.298  1.00  0.00    -0.014 A 
BRANCH  45  46
ATOM     46  C   UNL A   1      45.020  25.538  26.724  1.00  0.00     0.031 A 
ATOM     47  C   UNL A   1      46.411  26.105  26.595  1.00  0.00     0.074 A 
ATOM     48  C   UNL A   1      44.031  26.301  27.231  1.00  0.00     0.049 A 
ATOM     49  N   UNL A   1      46.838  27.316  26.861  1.00  0.00    -0.248 NA
ATOM     50  C   UNL A   1      47.465  25.194  26.122  1.00  0.00     0.031 C 
ATOM     51  C   UNL A   1      42.652  25.858  27.449  1.00  0.00     0.029 A 
ATOM     52  N   UNL A   1      44.029  27.610  27.644  1.00  0.00    -0.354 N 
ATOM     53  C   UNL A   1      48.204  27.307  26.601  1.00  0.00     0.074 A 
ATOM     54  C   UNL A   1      48.546  25.958  26.205  1.00  0.00     0.031 C 
ATOM     55  C   UNL A   1      41.930  26.887  27.923  1.00  0.00     0.029 A 
ATOM     56  C   UNL A   1      42.799  28.050  28.074  1.00  0.00     0.049 A 
ATOM     57  H   UNL A   1      44.832  28.179  27.634  1.00  0.00     0.167 HD
ATOM     58  C   UNL A   1      49.092  28.329  26.669  1.00  0.00     0.031 A 
ATOM     59  C   UNL A   1      42.409  29.254  28.536  1.00  0.00     0.031 A 
ATOM     60  C   UNL A   1      48.749  29.672  27.064  1.00  0.00     0.049 A 
ATOM     61  C   UNL A   1      43.410  30.376  28.594  1.00  0.00     0.074 A 
ATOM     62  C   UNL A   1      49.563  30.792  27.107  1.00  0.00     0.029 A 
ATOM     63  N   UNL A   1      47.492  30.076  27.490  1.00  0.00    -0.354 N 
ATOM     64  N   UNL A   1      44.680  30.366  28.268  1.00  0.00    -0.248 NA
ATOM     65  C   UNL A   1      42.916  31.677  29.064  1.00  0.00     0.031 C 
ATOM     66  C   UNL A   1      48.814  31.857  27.621  1.00  0.00     0.029 A 
ATOM     67  C   UNL A   1      47.516  31.420  27.829  1.00  0.00     0.049 A 
ATOM     68  H   UNL A   1      46.701  29.494  27.545  1.00  0.00     0.167 HD
ATOM     69  C   UNL A   1      45.133  31.666  28.470  1.00  0.00     0.074 A 
ATOM     70  C   UNL A   1      43.993  32.438  28.923  1.00  0.00     0.031 C 
ATOM     71  C   UNL A   1      46.379  32.174  28.297  1.00  0.00     0.031 A 
BRANCH  58  72
ATOM     72  C   UNL A   1      50.532  28.032  26.325  1.00  0.00    -0.014 A 
ATOM     73  C   UNL A   1      51.414  27.480  27.273  1.00  0.00     0.010 A 
ATOM     74  C   UNL A   1      51.001  28.267  25.018  1.00  0.00     0.010 A 
ATOM     75  C   UNL A   1      52.746  27.216  26.936  1.00  0.00     0.020 A 
ATOM     76  C   UNL A   1      52.323  27.974  24.667  1.00  0.00     0.020 A 
ATOM     77  C   UNL A   1      53.192  27.466  25.635  1.00  0.00     0.054 A 
BRANCH  77  78
ATOM     78  S   UNL A   1      54.920  27.095  25.221  1.00  0.00     0.124 S 
ATOM     79  O   UNL A   1      54.790  25.841  24.483  1.00  0.00    -0.237 OA
ATOM     80  O   UNL A   1      55.313  28.254  24.424  1.00  0.00    -0.237 OA
ATOM     81  O   UNL A   1      55.573  26.986  26.523  1.00  0.00    -0.744 OA
ENDBRANCH  77  78
ENDBRANCH  58  72
BRANCH  59  82
ATOM     82  C   UNL A   1      40.997  29.460  28.964  1.00  0.00    -0.014 A 
ATOM     83  C   UNL A   1      40.669  29.609  30.323  1.00  0.00     0.010 A 
ATOM     84  C   UNL A   1      39.971  29.529  28.003  1.00  0.00     0.010 A 
ATOM     85  C   UNL A   1      39.341  29.808  30.714  1.00  0.00     0.020 A 
ATOM     86  C   UNL A   1      38.648  29.761  28.387  1.00  0.00     0.020 A 
ATOM     87  C   UNL A   1      38.339  29.888  29.742  1.00  0.00     0.054 A 
BRANCH  87  88
ATOM     88  S   UNL A   1      36.632  30.208  30.268  1.00  0.00     0.124 S 
ATOM     89  O   UNL A   1      36.510  29.350  31.442  1.00  0.00    -0.237 OA
ATOM     90  O   UNL A   1      36.648  31.644  30.531  1.00  0.00    -0.237 OA
ATOM     91  O   UNL A   1      35.837  29.803  29.110  1.00  0.00    -0.744 OA
ENDBRANCH  87  88
ENDBRANCH  59  82
BRANCH  71  92
ATOM     92  C   UNL A   1      46.566  33.645  28.574  1.00  0.00    -0.014 A 
ATOM     93  C   UNL A   1      47.011  34.107  29.825  1.00  0.00     0.010 A 
ATOM     94  C   UNL A   1      46.303  34.580  27.555  1.00  0.00     0.010 A 
ATOM     95  C   UNL A   1      47.132  35.476  30.072  1.00  0.00     0.020 A 
ATOM     96  C   UNL A   1      46.457  35.950  27.787  1.00  0.00     0.020 A 
ATOM     97  C   UNL A   1      46.848  36.390  29.053  1.00  0.00     0.054 A 
BRANCH  97  98
ATOM     98  S   UNL A   1      47.012  38.163  29.398  1.00  0.00     0.124 S 
ATOM     99  O   UNL A   1      47.502  38.676  28.122  1.00  0.00    -0.237 OA
ATOM    100  O   UNL A   1      45.648  38.549  29.748  1.00  0.00    -0.237 OA
ATOM    101  O   UNL A   1      47.970  38.215  30.500  1.00  0.00    -0.744 OA
ENDBRANCH  97  98
ENDBRANCH  71  92
ENDBRANCH  45  46
ENDBRANCH  37  40
ENDBRANCH  35  36
ENDBRANCH  34  35
ENDBRANCH  33  34
ENDBRANCH   1  33
TORSDOF 22
ENDMDL
MODEL 3
REMARK VINA RESULT:     -11.2      1.279      7.924
REMARK SMILES CCCCN(c1ccccc1C(=O)NCCCCCCNC(=O)c1ccc(-c2c3nc(c(-c4ccc(S(=O)(=O)[O-])cc4)c4ccc([nH]4)c(-c4ccc(S(=O)(=O)[O-])cc4)c4nc(c(-c5ccc(S(=O)(=O)[O-])cc5)c5ccc2[nH]5)C=C4)C=C3)cc1)S(=O)(=O)c1ccc2c(c1)oc(=O)n2C
REMARK SMILES IDX 17 1 16 2 15 3 14 4 12 5 13 6 11 8 6 9 7 10 8 11 10 12 9 13
REMARK SMILES IDX 5 14 4 15 3 16 2 17 1 18 84 19 85 20 86 21 87 22 88 23 92 24
REMARK SMILES IDX 89 25 91 26 90 27 93 28 96 29 94 30 97 31 95 32 18 33 19 34
REMARK SMILES IDX 20 35 21 36 22 37 23 39 24 40 25 41 83 42 26 43 82 44 27 45
REMARK SMILES IDX 28 46 29 47 76 48 30 49 81 50 75 51 77 52 31 53 80 54 74 55
REMARK SMILES IDX 73 56 32 58 62 59 43 60 61 61 44 62 47 63 60 64 78 65 45 66
REMARK SMILES IDX 46 67 59 69 79 70 48 71 33 72 34 73 42 74 35 75 41 76 36 77
REMARK SMILES IDX 37 78 38 79 39 80 40 81 63 82 64 83 72 84 65 85 71 86 66 87
REMARK SMILES IDX 67 88 68 89 69 90 70 91 49 92 50 93 58 94 51 95 57 96 52 97
REMARK SMILES IDX 53 98 54 99 55 100 56 101
REMARK H PARENT 14 7 21 38 77 57 47 68
REMARK Flexibility Score: inf
ROOT
ATOM      1  C   UNL A   1      34.490  29.462  27.676  1.00  0.00     0.002 C 
ENDROOT
BRANCH   1   2
ATOM      2  C   UNL A   1      34.488  28.615  26.387  1.00  0.00     0.021 C 
BRANCH   2   3
ATOM      3  C   UNL A   1      33.528  29.021  25.267  1.00  0.00     0.116 C 
BRANCH   3   4
ATOM      4  N   UNL A   1      33.923  28.622  23.937  1.00  0.00    -0.352 N 
ATOM      5  C   UNL A   1      33.191  28.363  22.807  1.00  0.00     0.253 C 
ATOM      6  O   UNL A   1      33.840  28.057  21.799  1.00  0.00    -0.269 OA
ATOM      7  H   UNL A   1      34.895  28.517  23.820  1.00  0.00     0.163 HD
BRANCH   5   8
ATOM      8  C   UNL A   1      31.695  28.372  22.680  1.00  0.00     0.064 A 
ATOM      9  C   UNL A   1      30.763  27.446  23.194  1.00  0.00     0.065 A 
ATOM     10  C   UNL A   1      29.401  27.808  23.244  1.00  0.00     0.028 A 
ATOM     11  C   UNL A   1      28.929  28.983  22.661  1.00  0.00     0.002 A 
ATOM     12  C   UNL A   1      31.192  29.566  22.109  1.00  0.00     0.016 A 
ATOM     13  C   UNL A   1      29.827  29.858  22.074  1.00  0.00     0.001 A 
BRANCH   9  14
ATOM     14  N   UNL A   1      31.139  26.202  23.818  1.00  0.00    -0.266 N 
BRANCH  14  15
ATOM     15  C   UNL A   1      30.678  26.044  25.246  1.00  0.00     0.136 C 
BRANCH  15  16
ATOM     16  C   UNL A   1      31.664  25.686  26.362  1.00  0.00     0.022 C 
BRANCH  16  17
ATOM     17  C   UNL A   1      31.798  24.253  26.887  1.00  0.00    -0.002 C 
ATOM     18  C   UNL A   1      30.702  23.297  26.475  1.00  0.00     0.004 C 
ENDBRANCH  16  17
ENDBRANCH  15  16
ENDBRANCH  14  15
BRANCH  14  19
ATOM     19  S   UNL A   1      31.430  24.843  22.826  1.00  0.00     0.264 S 
ATOM     20  O   UNL A   1      30.353  23.899  23.046  1.00  0.00    -0.201 OA
ATOM     21  O   UNL A   1      31.743  25.332  21.497  1.00  0.00    -0.201 OA
BRANCH  19  22
ATOM     22  C   UNL A   1      32.912  23.999  23.390  1.00  0.00     0.091 A 
ATOM     23  C   UNL A   1      32.889  22.582  23.446  1.00  0.00     0.025 A 
ATOM     24  C   UNL A   1      33.974  24.715  23.958  1.00  0.00     0.071 A 
ATOM     25  C   UNL A   1      33.943  21.861  24.010  1.00  0.00     0.032 A 
ATOM     26  C   UNL A   1      34.999  23.973  24.518  1.00  0.00     0.157 A 
ATOM     27  C   UNL A   1      34.983  22.590  24.538  1.00  0.00     0.090 A 
ATOM     28  O   UNL A   1      36.124  24.496  25.142  1.00  0.00    -0.408 OA
ATOM     29  N   UNL A   1      36.132  22.202  25.182  1.00  0.00    -0.277 N 
ATOM     30  C   UNL A   1      36.818  23.344  25.548  1.00  0.00     0.419 A 
ATOM     31  C   UNL A   1      36.574  20.861  25.427  1.00  0.00     0.157 C 
ATOM     32  O   UNL A   1      37.893  23.378  26.131  1.00  0.00    -0.223 OA
ENDBRANCH  19  22
ENDBRANCH  14  19
ENDBRANCH   9  14
ENDBRANCH   5   8
ENDBRANCH   3   4
ENDBRANCH   2   3
ENDBRANCH   1   2
BRANCH   1  33
ATOM     33  C   UNL A   1      33.782  30.821  27.645  1.00  0.00     0.002 C 
BRANCH  33  34
ATOM     34  C   UNL A   1      34.391  32.000  28.423  1.00  0.00     0.021 C 
BRANCH  34  35
ATOM     35  C   UNL A   1      35.843  31.910  28.892  1.00  0.00     0.116 C 
BRANCH  35  36
ATOM     36  N   UNL A   1      35.860  31.430  30.267  1.00  0.00    -0.352 N 
ATOM     37  C   UNL A   1      36.666  30.460  30.810  1.00  0.00     0.251 C 
ATOM     38  H   UNL A   1      35.217  31.853  30.881  1.00  0.00     0.163 HD
ATOM     39  O   UNL A   1      36.220  29.749  31.708  1.00  0.00    -0.269 OA
BRANCH  37  40
ATOM     40  C   UNL A   1      38.076  30.304  30.372  1.00  0.00     0.039 A 
ATOM     41  C   UNL A   1      38.349  30.235  29.001  1.00  0.00     0.014 A 
ATOM     42  C   UNL A   1      39.104  30.076  31.291  1.00  0.00     0.014 A 
ATOM     43  C   UNL A   1      39.636  29.919  28.558  1.00  0.00     0.010 A 
ATOM     44  C   UNL A   1      40.404  29.820  30.845  1.00  0.00     0.010 A 
ATOM     45  C   UNL A   1      40.678  29.700  29.475  1.00  0.00    -0.014 A 
BRANCH  45  46
ATOM     46  C   UNL A   1      42.033  29.312  28.996  1.00  0.00     0.031 A 
ATOM     47  C   UNL A   1      42.299  27.918  28.483  1.00  0.00     0.074 A 
ATOM     48  C   UNL A   1      43.032  30.217  29.021  1.00  0.00     0.049 A 
ATOM     49  N   UNL A   1      43.401  27.422  27.974  1.00  0.00    -0.248 NA
ATOM     50  C   UNL A   1      41.194  26.951  28.568  1.00  0.00     0.031 C 
ATOM     51  C   UNL A   1      42.917  31.585  29.533  1.00  0.00     0.029 A 
ATOM     52  N   UNL A   1      44.335  30.128  28.598  1.00  0.00    -0.354 N 
ATOM     53  C   UNL A   1      43.125  26.088  27.692  1.00  0.00     0.074 A 
ATOM     54  C   UNL A   1      41.769  25.838  28.132  1.00  0.00     0.031 C 
ATOM     55  C   UNL A   1      44.089  32.217  29.362  1.00  0.00     0.029 A 
ATOM     56  C   UNL A   1      45.047  31.294  28.761  1.00  0.00     0.049 A 
ATOM     57  H   UNL A   1      44.722  29.309  28.215  1.00  0.00     0.167 HD
ATOM     58  C   UNL A   1      43.918  25.158  27.105  1.00  0.00     0.031 A 
ATOM     59  C   UNL A   1      46.326  31.591  28.461  1.00  0.00     0.031 A 
ATOM     60  C   UNL A   1      45.268  25.409  26.667  1.00  0.00     0.049 A 
ATOM     61  C   UNL A   1      47.186  30.546  27.802  1.00  0.00     0.074 A 
ATOM     62  C   UNL A   1      46.134  24.553  26.008  1.00  0.00     0.029 A 
ATOM     63  N   UNL A   1      45.951  26.603  26.850  1.00  0.00    -0.354 N 
ATOM     64  N   UNL A   1      46.880  29.314  27.472  1.00  0.00    -0.248 NA
ATOM     65  C   UNL A   1      48.558  30.941  27.458  1.00  0.00     0.031 C 
ATOM     66  C   UNL A   1      47.361  25.207  25.850  1.00  0.00     0.029 A 
ATOM     67  C   UNL A   1      47.238  26.495  26.345  1.00  0.00     0.049 A 
ATOM     68  H   UNL A   1      45.578  27.408  27.276  1.00  0.00     0.167 HD
ATOM     69  C   UNL A   1      48.014  28.794  26.858  1.00  0.00     0.074 A 
ATOM     70  C   UNL A   1      49.002  29.854  26.842  1.00  0.00     0.031 C 
ATOM     71  C   UNL A   1      48.220  27.552  26.352  1.00  0.00     0.031 A 
BRANCH  58  72
ATOM     72  C   UNL A   1      43.353  23.771  26.917  1.00  0.00    -0.014 A 
ATOM     73  C   UNL A   1      42.812  23.360  25.684  1.00  0.00     0.010 A 
ATOM     74  C   UNL A   1      43.403  22.846  27.978  1.00  0.00     0.010 A 
ATOM     75  C   UNL A   1      42.289  22.071  25.531  1.00  0.00     0.020 A 
ATOM     76  C   UNL A   1      42.911  21.546  27.819  1.00  0.00     0.020 A 
ATOM     77  C   UNL A   1      42.341  21.173  26.601  1.00  0.00     0.054 A 
BRANCH  77  78
ATOM     78  S   UNL A   1      41.673  19.502  26.367  1.00  0.00     0.124 S 
ATOM     79  O   UNL A   1      42.443  19.027  25.221  1.00  0.00    -0.237 OA
ATOM     80  O   UNL A   1      41.979  18.856  27.641  1.00  0.00    -0.237 OA
ATOM     81  O   UNL A   1      40.252  19.728  26.112  1.00  0.00    -0.744 OA
ENDBRANCH  77  78
ENDBRANCH  58  72
BRANCH  59  82
ATOM     82  C   UNL A   1      46.862  32.946  28.769  1.00  0.00    -0.014 A 
ATOM     83  C   UNL A   1      46.733  34.000  27.848  1.00  0.00     0.010 A 
ATOM     84  C   UNL A   1      47.489  33.193  30.005  1.00  0.00     0.010 A 
ATOM     85  C   UNL A   1      47.234  35.271  28.149  1.00  0.00     0.020 A 
ATOM     86  C   UNL A   1      47.961  34.469  30.323  1.00  0.00     0.020 A 
ATOM     87  C   UNL A   1      47.840  35.498  29.388  1.00  0.00     0.054 A 
BRANCH  87  88
ATOM     88  S   UNL A   1      48.428  37.169  29.782  1.00  0.00     0.124 S 
ATOM     89  O   UNL A   1      49.118  36.958  31.050  1.00  0.00    -0.237 OA
ATOM     90  O   UNL A   1      49.283  37.479  28.639  1.00  0.00    -0.237 OA
ATOM     91  O   UNL A   1      47.198  37.954  29.861  1.00  0.00    -0.744 OA
ENDBRANCH  87  88
ENDBRANCH  59  82
BRANCH  71  92
ATOM     92  C   UNL A   1      49.559  27.282  25.714  1.00  0.00    -0.014 A 
ATOM     93  C   UNL A   1      49.789  27.537  24.350  1.00  0.00     0.010 A 
ATOM     94  C   UNL A   1      50.612  26.778  26.501  1.00  0.00     0.010 A 
ATOM     95  C   UNL A   1      51.024  27.235  23.772  1.00  0.00     0.020 A 
ATOM     96  C   UNL A   1      51.861  26.509  25.933  1.00  0.00     0.020 A 
ATOM     97  C   UNL A   1      52.051  26.717  24.566  1.00  0.00     0.054 A 
BRANCH  97  98
ATOM     98  S   UNL A   1      53.646  26.333  23.793  1.00  0.00     0.124 S 
ATOM     99  O   UNL A   1      53.251  26.024  22.422  1.00  0.00    -0.237 OA
ATOM    100  O   UNL A   1      54.394  27.576  23.967  1.00  0.00    -0.237 OA
ATOM    101  O   UNL A   1      54.144  25.199  24.568  1.00  0.00    -0.744 OA
ENDBRANCH  97  98
ENDBRANCH  71  92
ENDBRANCH  45  46
ENDBRANCH  37  40
ENDBRANCH  35  36
ENDBRANCH  34  35
ENDBRANCH  33  34
ENDBRANCH   1  33
TORSDOF 22
ENDMDL
