MODEL 1
REMARK VINA RESULT:     -10.8      0.000      0.000
REMARK SMILES O=C(NCCCCCCNC(=O)c1ccc2c(c1)[C@@H]1C=CC[C@@H]1[C@H](c1ccncc1)N2)c1ccc(-c2c3nc(c(-c4ccc(S(=O)(=O)[O-])cc4)c4ccc([nH]4)c(-c4ccc(S(=O)(=O)[O-])cc4)c4nc(c(-c5ccc(S(=O)(=O)[O-])cc5)c5ccc2[nH]5)C=C4)C=C3)cc1
REMARK SMILES IDX 5 1 4 2 3 3 1 4 2 5 32 7 33 8 91 9 34 10 90 11 35 12 36 13
REMARK SMILES IDX 37 14 84 15 38 16 89 17 83 18 85 19 39 20 88 21 82 22 81 23
REMARK SMILES IDX 40 25 70 26 51 27 69 28 52 29 55 30 68 31 86 32 53 33 54 34
REMARK SMILES IDX 67 36 87 37 56 38 41 39 42 40 50 41 43 42 49 43 44 44 45 45
REMARK SMILES IDX 46 46 47 47 48 48 71 49 72 50 80 51 73 52 79 53 74 54 75 55
REMARK SMILES IDX 76 56 77 57 78 58 57 59 58 60 66 61 59 62 65 63 60 64 61 65
REMARK SMILES IDX 62 66 63 67 64 68 6 69 7 70 8 71 9 72 10 73 11 74 12 76
REMARK SMILES IDX 13 77 14 78 18 79 15 80 17 81 16 82 19 83 31 84 20 85 23 86
REMARK SMILES IDX 24 87 21 89 22 90 25 91 26 92 30 93 27 94 29 95 28 96
REMARK H PARENT 3 6 85 24 55 35 10 75 31 88
REMARK Flexibility Score: inf
ROOT
ATOM      1  C   UNL A   1      34.450  33.379  29.581  1.00  0.00     0.021 C 
ENDROOT
BRANCH   1   2
ATOM      2  C   UNL A   1      35.218  32.070  29.463  1.00  0.00     0.116 C 
BRANCH   2   3
ATOM      3  N   UNL A   1      34.517  31.067  28.679  1.00  0.00    -0.352 N 
ATOM      4  O   UNL A   1      34.309  29.285  27.311  1.00  0.00    -0.269 OA
ATOM      5  C   UNL A   1      35.026  29.958  28.045  1.00  0.00     0.251 C 
ATOM      6  H   UNL A   1      33.545  31.200  28.591  1.00  0.00     0.163 HD
BRANCH   5   7
ATOM      7  C   UNL A   1      36.452  29.598  28.227  1.00  0.00     0.039 A 
ATOM      8  C   UNL A   1      36.883  28.968  29.395  1.00  0.00     0.014 A 
ATOM      9  C   UNL A   1      37.369  29.895  27.213  1.00  0.00     0.014 A 
ATOM     10  C   UNL A   1      38.241  28.761  29.609  1.00  0.00     0.010 A 
ATOM     11  C   UNL A   1      38.727  29.607  27.394  1.00  0.00     0.010 A 
ATOM     12  C   UNL A   1      39.178  29.061  28.605  1.00  0.00    -0.014 A 
BRANCH  12  13
ATOM     13  C   UNL A   1      40.604  28.709  28.829  1.00  0.00     0.031 A 
ATOM     14  C   UNL A   1      41.157  27.366  28.443  1.00  0.00     0.074 A 
ATOM     15  C   UNL A   1      41.419  29.656  29.339  1.00  0.00     0.049 A 
ATOM     16  N   UNL A   1      42.394  26.940  28.507  1.00  0.00    -0.248 NA
ATOM     17  C   UNL A   1      40.208  26.367  27.924  1.00  0.00     0.031 C 
ATOM     18  C   UNL A   1      40.991  30.992  29.769  1.00  0.00     0.029 A 
ATOM     19  N   UNL A   1      42.773  29.658  29.552  1.00  0.00    -0.354 N 
ATOM     20  C   UNL A   1      42.374  25.628  28.048  1.00  0.00     0.074 A 
ATOM     21  C   UNL A   1      40.997  25.317  27.731  1.00  0.00     0.031 C 
ATOM     22  C   UNL A   1      42.068  31.701  30.135  1.00  0.00     0.029 A 
ATOM     23  C   UNL A   1      43.251  30.858  30.023  1.00  0.00     0.049 A 
ATOM     24  H   UNL A   1      43.348  28.877  29.384  1.00  0.00     0.167 HD
ATOM     25  C   UNL A   1      43.410  24.767  27.899  1.00  0.00     0.031 A 
ATOM     26  C   UNL A   1      44.502  31.240  30.339  1.00  0.00     0.031 A 
ATOM     27  C   UNL A   1      44.780  25.081  28.220  1.00  0.00     0.049 A 
ATOM     28  C   UNL A   1      45.627  30.263  30.168  1.00  0.00     0.074 A 
ATOM     29  C   UNL A   1      45.900  24.275  28.095  1.00  0.00     0.029 A 
ATOM     30  N   UNL A   1      45.218  26.295  28.725  1.00  0.00    -0.354 N 
ATOM     31  N   UNL A   1      45.584  29.033  29.715  1.00  0.00    -0.248 NA
ATOM     32  C   UNL A   1      46.967  30.725  30.553  1.00  0.00     0.031 C 
ATOM     33  C   UNL A   1      47.009  24.989  28.560  1.00  0.00     0.029 A 
ATOM     34  C   UNL A   1      46.589  26.256  28.931  1.00  0.00     0.049 A 
ATOM     35  H   UNL A   1      44.642  27.071  28.911  1.00  0.00     0.167 HD
ATOM     36  C   UNL A   1      46.893  28.573  29.759  1.00  0.00     0.074 A 
ATOM     37  C   UNL A   1      47.707  29.668  30.247  1.00  0.00     0.031 C 
ATOM     38  C   UNL A   1      47.378  27.349  29.435  1.00  0.00     0.031 A 
BRANCH  25  39
ATOM     39  C   UNL A   1      43.108  23.387  27.374  1.00  0.00    -0.014 A 
ATOM     40  C   UNL A   1      43.556  22.986  26.103  1.00  0.00     0.010 A 
ATOM     41  C   UNL A   1      42.442  22.456  28.191  1.00  0.00     0.010 A 
ATOM     42  C   UNL A   1      43.323  21.684  25.649  1.00  0.00     0.020 A 
ATOM     43  C   UNL A   1      42.224  21.147  27.749  1.00  0.00     0.020 A 
ATOM     44  C   UNL A   1      42.658  20.772  26.475  1.00  0.00     0.054 A 
BRANCH  44  45
ATOM     45  S   UNL A   1      42.410  19.076  25.878  1.00  0.00     0.124 S 
ATOM     46  O   UNL A   1      43.198  19.073  24.648  1.00  0.00    -0.237 OA
ATOM     47  O   UNL A   1      42.948  18.269  26.970  1.00  0.00    -0.237 OA
ATOM     48  O   UNL A   1      40.964  18.981  25.691  1.00  0.00    -0.744 OA
ENDBRANCH  44  45
ENDBRANCH  25  39
BRANCH  26  49
ATOM     49  C   UNL A   1      44.744  32.607  30.874  1.00  0.00    -0.014 A 
ATOM     50  C   UNL A   1      45.019  33.680  30.010  1.00  0.00     0.010 A 
ATOM     51  C   UNL A   1      44.689  32.839  32.260  1.00  0.00     0.010 A 
ATOM     52  C   UNL A   1      45.255  34.959  30.525  1.00  0.00     0.020 A 
ATOM     53  C   UNL A   1      44.895  34.119  32.777  1.00  0.00     0.020 A 
ATOM     54  C   UNL A   1      45.193  35.168  31.905  1.00  0.00     0.054 A 
BRANCH  54  55
ATOM     55  S   UNL A   1      45.460  36.840  32.557  1.00  0.00     0.124 S 
ATOM     56  O   UNL A   1      44.495  37.621  31.789  1.00  0.00    -0.237 OA
ATOM     57  O   UNL A   1      45.161  36.682  33.978  1.00  0.00    -0.237 OA
ATOM     58  O   UNL A   1      46.865  37.102  32.251  1.00  0.00    -0.744 OA
ENDBRANCH  54  55
ENDBRANCH  26  49
BRANCH  38  59
ATOM     59  C   UNL A   1      48.859  27.144  29.598  1.00  0.00    -0.014 A 
ATOM     60  C   UNL A   1      49.390  26.642  30.800  1.00  0.00     0.010 A 
ATOM     61  C   UNL A   1      49.728  27.454  28.537  1.00  0.00     0.010 A 
ATOM     62  C   UNL A   1      50.770  26.500  30.955  1.00  0.00     0.020 A 
ATOM     63  C   UNL A   1      51.108  27.289  28.681  1.00  0.00     0.020 A 
ATOM     64  C   UNL A   1      51.622  26.832  29.897  1.00  0.00     0.054 A 
BRANCH  64  65
ATOM     65  S   UNL A   1      53.410  26.632  30.117  1.00  0.00     0.124 S 
ATOM     66  O   UNL A   1      53.831  27.994  30.431  1.00  0.00    -0.237 OA
ATOM     67  O   UNL A   1      53.496  25.677  31.220  1.00  0.00    -0.237 OA
ATOM     68  O   UNL A   1      53.861  26.121  28.823  1.00  0.00    -0.744 OA
ENDBRANCH  64  65
ENDBRANCH  38  59
ENDBRANCH  12  13
ENDBRANCH   5   7
ENDBRANCH   2   3
ENDBRANCH   1   2
BRANCH   1  69
ATOM     69  C   UNL A   1      35.141  34.602  28.979  1.00  0.00     0.002 C 
BRANCH  69  70
ATOM     70  C   UNL A   1      34.239  35.563  28.200  1.00  0.00     0.002 C 
BRANCH  70  71
ATOM     71  C   UNL A   1      33.535  36.644  29.027  1.00  0.00     0.021 C 
BRANCH  71  72
ATOM     72  C   UNL A   1      32.842  36.156  30.297  1.00  0.00     0.116 C 
BRANCH  72  73
ATOM     73  N   UNL A   1      33.071  37.039  31.428  1.00  0.00    -0.352 N 
ATOM     74  C   UNL A   1      33.726  36.783  32.607  1.00  0.00     0.251 C 
ATOM     75  H   UNL A   1      32.704  37.948  31.337  1.00  0.00     0.163 HD
ATOM     76  O   UNL A   1      33.698  37.598  33.524  1.00  0.00    -0.269 OA
BRANCH  74  77
ATOM     77  C   UNL A   1      34.455  35.509  32.780  1.00  0.00     0.040 A 
ATOM     78  C   UNL A   1      33.740  34.362  33.114  1.00  0.00     0.016 A 
ATOM     79  C   UNL A   1      35.840  35.446  32.608  1.00  0.00     0.020 A 
ATOM     80  C   UNL A   1      34.414  33.147  33.250  1.00  0.00     0.027 A 
ATOM     81  C   UNL A   1      36.510  34.213  32.680  1.00  0.00    -0.017 A 
ATOM     82  C   UNL A   1      35.802  33.061  33.062  1.00  0.00     0.038 A 
ATOM     83  C   UNL A   1      37.980  34.142  32.334  1.00  0.00     0.049 C 
ATOM     84  N   UNL A   1      36.426  31.826  33.175  1.00  0.00    -0.378 N 
ATOM     85  C   UNL A   1      38.272  34.649  30.941  1.00  0.00    -0.023 C 
ATOM     86  C   UNL A   1      38.528  32.707  32.229  1.00  0.00     0.031 C 
ATOM     87  C   UNL A   1      37.880  31.765  33.243  1.00  0.00     0.114 C 
ATOM     88  H   UNL A   1      35.892  31.000  33.208  1.00  0.00     0.161 HD
ATOM     89  C   UNL A   1      38.481  33.650  30.075  1.00  0.00    -0.030 C 
ATOM     90  C   UNL A   1      38.376  32.317  30.748  1.00  0.00     0.034 C 
BRANCH  87  91
ATOM     91  C   UNL A   1      38.400  30.339  33.122  1.00  0.00    -0.022 A 
ATOM     92  C   UNL A   1      39.783  30.111  33.135  1.00  0.00     0.026 A 
ATOM     93  C   UNL A   1      37.562  29.227  32.972  1.00  0.00     0.026 A 
ATOM     94  C   UNL A   1      40.256  28.812  33.018  1.00  0.00     0.111 A 
ATOM     95  C   UNL A   1      38.129  27.965  32.878  1.00  0.00     0.111 A 
ATOM     96  N   UNL A   1      39.459  27.732  32.906  1.00  0.00    -0.265 NA
ENDBRANCH  87  91
ENDBRANCH  74  77
ENDBRANCH  72  73
ENDBRANCH  71  72
ENDBRANCH  70  71
ENDBRANCH  69  70
ENDBRANCH   1  69
TORSDOF 17
ENDMDL
MODEL 2
REMARK VINA RESULT:     -10.8      4.493      7.211
REMARK SMILES O=C(NCCCCCCNC(=O)c1ccc2c(c1)[C@@H]1C=CC[C@@H]1[C@H](c1ccncc1)N2)c1ccc(-c2c3nc(c(-c4ccc(S(=O)(=O)[O-])cc4)c4ccc([nH]4)c(-c4ccc(S(=O)(=O)[O-])cc4)c4nc(c(-c5ccc(S(=O)(=O)[O-])cc5)c5ccc2[nH]5)C=C4)C=C3)cc1
REMARK SMILES IDX 5 1 4 2 3 3 1 4 2 5 32 7 33 8 91 9 34 10 90 11 35 12 36 13
REMARK SMILES IDX 37 14 84 15 38 16 89 17 83 18 85 19 39 20 88 21 82 22 81 23
REMARK SMILES IDX 40 25 70 26 51 27 69 28 52 29 55 30 68 31 86 32 53 33 54 34
REMARK SMILES IDX 67 36 87 37 56 38 41 39 42 40 50 41 43 42 49 43 44 44 45 45
REMARK SMILES IDX 46 46 47 47 48 48 71 49 72 50 80 51 73 52 79 53 74 54 75 55
REMARK SMILES IDX 76 56 77 57 78 58 57 59 58 60 66 61 59 62 65 63 60 64 61 65
REMARK SMILES IDX 62 66 63 67 64 68 6 69 7 70 8 71 9 72 10 73 11 74 12 76
REMARK SMILES IDX 13 77 14 78 18 79 15 80 17 81 16 82 19 83 31 84 20 85 23 86
REMARK SMILES IDX 24 87 21 89 22 90 25 91 26 92 30 93 27 94 29 95 28 96
REMARK H PARENT 3 6 85 24 55 35 10 75 31 88
REMARK Flexibility Score: inf
ROOT
ATOM      1  C   UNL A   1      32.903  27.397  26.613  1.00  0.00     0.021 C 
ENDROOT
BRANCH   1   2
ATOM      2  C   UNL A   1      34.144  28.221  26.924  1.00  0.00     0.116 C 
BRANCH   2   3
ATOM      3  N   UNL A   1      33.836  29.579  27.341  1.00  0.00    -0.352 N 
ATOM      4  O   UNL A   1      34.155  31.531  28.426  1.00  0.00    -0.269 OA
ATOM      5  C   UNL A   1      34.623  30.465  28.040  1.00  0.00     0.251 C 
ATOM      6  H   UNL A   1      32.944  29.910  27.088  1.00  0.00     0.163 HD
BRANCH   5   7
ATOM      7  C   UNL A   1      36.028  30.112  28.350  1.00  0.00     0.039 A 
ATOM      8  C   UNL A   1      37.030  30.271  27.391  1.00  0.00     0.014 A 
ATOM      9  C   UNL A   1      36.346  29.617  29.619  1.00  0.00     0.014 A 
ATOM     10  C   UNL A   1      38.315  29.809  27.651  1.00  0.00     0.010 A 
ATOM     11  C   UNL A   1      37.661  29.231  29.908  1.00  0.00     0.010 A 
ATOM     12  C   UNL A   1      38.651  29.300  28.917  1.00  0.00    -0.014 A 
BRANCH  12  13
ATOM     13  C   UNL A   1      40.065  28.933  29.189  1.00  0.00     0.031 A 
ATOM     14  C   UNL A   1      40.623  27.593  28.795  1.00  0.00     0.074 A 
ATOM     15  C   UNL A   1      40.866  29.861  29.751  1.00  0.00     0.049 A 
ATOM     16  N   UNL A   1      41.854  27.156  28.898  1.00  0.00    -0.248 NA
ATOM     17  C   UNL A   1      39.688  26.614  28.217  1.00  0.00     0.031 C 
ATOM     18  C   UNL A   1      40.432  31.191  30.194  1.00  0.00     0.029 A 
ATOM     19  N   UNL A   1      42.211  29.848  30.017  1.00  0.00    -0.354 N 
ATOM     20  C   UNL A   1      41.842  25.855  28.409  1.00  0.00     0.074 A 
ATOM     21  C   UNL A   1      40.476  25.562  28.032  1.00  0.00     0.031 C 
ATOM     22  C   UNL A   1      41.498  31.883  30.617  1.00  0.00     0.029 A 
ATOM     23  C   UNL A   1      42.679  31.034  30.532  1.00  0.00     0.049 A 
ATOM     24  H   UNL A   1      42.786  29.066  29.854  1.00  0.00     0.167 HD
ATOM     25  C   UNL A   1      42.877  24.989  28.283  1.00  0.00     0.031 A 
ATOM     26  C   UNL A   1      43.919  31.399  30.905  1.00  0.00     0.031 A 
ATOM     27  C   UNL A   1      44.235  25.285  28.663  1.00  0.00     0.049 A 
ATOM     28  C   UNL A   1      45.043  30.416  30.757  1.00  0.00     0.074 A 
ATOM     29  C   UNL A   1      45.354  24.473  28.564  1.00  0.00     0.029 A 
ATOM     30  N   UNL A   1      44.662  26.484  29.212  1.00  0.00    -0.354 N 
ATOM     31  N   UNL A   1      45.008  29.197  30.275  1.00  0.00    -0.248 NA
ATOM     32  C   UNL A   1      46.369  30.858  31.204  1.00  0.00     0.031 C 
ATOM     33  C   UNL A   1      46.449  25.168  29.088  1.00  0.00     0.029 A 
ATOM     34  C   UNL A   1      46.023  26.430  29.470  1.00  0.00     0.049 A 
ATOM     35  H   UNL A   1      44.085  27.260  29.392  1.00  0.00     0.167 HD
ATOM     36  C   UNL A   1      46.312  28.725  30.360  1.00  0.00     0.074 A 
ATOM     37  C   UNL A   1      47.114  29.803  30.904  1.00  0.00     0.031 C 
ATOM     38  C   UNL A   1      46.801  27.505  30.028  1.00  0.00     0.031 A 
BRANCH  25  39
ATOM     39  C   UNL A   1      42.586  23.624  27.715  1.00  0.00    -0.014 A 
ATOM     40  C   UNL A   1      42.784  23.353  26.350  1.00  0.00     0.010 A 
ATOM     41  C   UNL A   1      42.189  22.579  28.570  1.00  0.00     0.010 A 
ATOM     42  C   UNL A   1      42.569  22.067  25.845  1.00  0.00     0.020 A 
ATOM     43  C   UNL A   1      41.992  21.287  28.072  1.00  0.00     0.020 A 
ATOM     44  C   UNL A   1      42.174  21.041  26.710  1.00  0.00     0.054 A 
BRANCH  44  45
ATOM     45  S   UNL A   1      41.946  19.372  26.035  1.00  0.00     0.124 S 
ATOM     46  O   UNL A   1      42.760  19.425  24.823  1.00  0.00    -0.237 OA
ATOM     47  O   UNL A   1      42.465  18.520  27.102  1.00  0.00    -0.237 OA
ATOM     48  O   UNL A   1      40.505  19.280  25.813  1.00  0.00    -0.744 OA
ENDBRANCH  44  45
ENDBRANCH  25  39
BRANCH  26  49
ATOM     49  C   UNL A   1      44.150  32.751  31.479  1.00  0.00    -0.014 A 
ATOM     50  C   UNL A   1      44.459  33.842  30.650  1.00  0.00     0.010 A 
ATOM     51  C   UNL A   1      44.049  32.952  32.868  1.00  0.00     0.010 A 
ATOM     52  C   UNL A   1      44.684  35.107  31.202  1.00  0.00     0.020 A 
ATOM     53  C   UNL A   1      44.244  34.219  33.420  1.00  0.00     0.020 A 
ATOM     54  C   UNL A   1      44.577  35.286  32.583  1.00  0.00     0.054 A 
BRANCH  54  55
ATOM     55  S   UNL A   1      44.830  36.941  33.282  1.00  0.00     0.124 S 
ATOM     56  O   UNL A   1      45.048  37.744  32.084  1.00  0.00    -0.237 OA
ATOM     57  O   UNL A   1      43.575  37.186  33.990  1.00  0.00    -0.237 OA
ATOM     58  O   UNL A   1      45.997  36.769  34.145  1.00  0.00    -0.744 OA
ENDBRANCH  54  55
ENDBRANCH  26  49
BRANCH  38  59
ATOM     59  C   UNL A   1      48.272  27.284  30.244  1.00  0.00    -0.014 A 
ATOM     60  C   UNL A   1      48.753  26.771  31.463  1.00  0.00     0.010 A 
ATOM     61  C   UNL A   1      49.182  27.592  29.218  1.00  0.00     0.010 A 
ATOM     62  C   UNL A   1      50.126  26.614  31.667  1.00  0.00     0.020 A 
ATOM     63  C   UNL A   1      50.555  27.413  29.412  1.00  0.00     0.020 A 
ATOM     64  C   UNL A   1      51.019  26.943  30.643  1.00  0.00     0.054 A 
BRANCH  64  65
ATOM     65  S   UNL A   1      52.796  26.725  30.927  1.00  0.00     0.124 S 
ATOM     66  O   UNL A   1      53.172  28.014  31.500  1.00  0.00    -0.237 OA
ATOM     67  O   UNL A   1      52.839  25.591  31.848  1.00  0.00    -0.237 OA
ATOM     68  O   UNL A   1      53.327  26.455  29.592  1.00  0.00    -0.744 OA
ENDBRANCH  64  65
ENDBRANCH  38  59
ENDBRANCH  12  13
ENDBRANCH   5   7
ENDBRANCH   2   3
ENDBRANCH   1   2
BRANCH   1  69
ATOM     69  C   UNL A   1      31.641  28.202  26.303  1.00  0.00     0.002 C 
BRANCH  69  70
ATOM     70  C   UNL A   1      30.969  27.902  24.961  1.00  0.00     0.002 C 
BRANCH  70  71
ATOM     71  C   UNL A   1      30.826  29.085  23.999  1.00  0.00     0.021 C 
BRANCH  71  72
ATOM     72  C   UNL A   1      31.120  28.781  22.532  1.00  0.00     0.116 C 
BRANCH  72  73
ATOM     73  N   UNL A   1      32.515  28.995  22.188  1.00  0.00    -0.352 N 
ATOM     74  C   UNL A   1      33.553  28.097  22.183  1.00  0.00     0.251 C 
ATOM     75  H   UNL A   1      32.750  29.914  21.922  1.00  0.00     0.163 HD
ATOM     76  O   UNL A   1      34.706  28.479  22.010  1.00  0.00    -0.269 OA
BRANCH  74  77
ATOM     77  C   UNL A   1      33.282  26.661  22.404  1.00  0.00     0.040 A 
ATOM     78  C   UNL A   1      32.762  25.903  21.358  1.00  0.00     0.016 A 
ATOM     79  C   UNL A   1      33.544  26.064  23.640  1.00  0.00     0.020 A 
ATOM     80  C   UNL A   1      32.532  24.538  21.547  1.00  0.00     0.027 A 
ATOM     81  C   UNL A   1      33.374  24.680  23.811  1.00  0.00    -0.017 A 
ATOM     82  C   UNL A   1      32.808  23.918  22.775  1.00  0.00     0.038 A 
ATOM     83  C   UNL A   1      33.815  24.029  25.103  1.00  0.00     0.049 C 
ATOM     84  N   UNL A   1      32.594  22.553  22.908  1.00  0.00    -0.378 N 
ATOM     85  C   UNL A   1      35.275  24.269  25.404  1.00  0.00    -0.023 C 
ATOM     86  C   UNL A   1      33.787  22.490  25.067  1.00  0.00     0.031 C 
ATOM     87  C   UNL A   1      32.624  21.951  24.234  1.00  0.00     0.114 C 
ATOM     88  H   UNL A   1      32.425  21.996  22.114  1.00  0.00     0.161 HD
ATOM     89  C   UNL A   1      36.029  23.197  25.131  1.00  0.00    -0.030 C 
ATOM     90  C   UNL A   1      35.197  22.065  24.618  1.00  0.00     0.034 C 
BRANCH  87  91
ATOM     91  C   UNL A   1      32.612  20.430  24.174  1.00  0.00    -0.022 A 
ATOM     92  C   UNL A   1      32.823  19.696  25.350  1.00  0.00     0.026 A 
ATOM     93  C   UNL A   1      32.423  19.711  22.988  1.00  0.00     0.026 A 
ATOM     94  C   UNL A   1      32.818  18.311  25.294  1.00  0.00     0.111 A 
ATOM     95  C   UNL A   1      32.419  18.324  23.035  1.00  0.00     0.111 A 
ATOM     96  N   UNL A   1      32.604  17.608  24.164  1.00  0.00    -0.265 NA
ENDBRANCH  87  91
ENDBRANCH  74  77
ENDBRANCH  72  73
ENDBRANCH  71  72
ENDBRANCH  70  71
ENDBRANCH  69  70
ENDBRANCH   1  69
TORSDOF 17
ENDMDL
MODEL 3
REMARK VINA RESULT:     -10.7      5.636     11.996
REMARK SMILES O=C(NCCCCCCNC(=O)c1ccc2c(c1)[C@@H]1C=CC[C@@H]1[C@H](c1ccncc1)N2)c1ccc(-c2c3nc(c(-c4ccc(S(=O)(=O)[O-])cc4)c4ccc([nH]4)c(-c4ccc(S(=O)(=O)[O-])cc4)c4nc(c(-c5ccc(S(=O)(=O)[O-])cc5)c5ccc2[nH]5)C=C4)C=C3)cc1
REMARK SMILES IDX 5 1 4 2 3 3 1 4 2 5 32 7 33 8 91 9 34 10 90 11 35 12 36 13
REMARK SMILES IDX 37 14 84 15 38 16 89 17 83 18 85 19 39 20 88 21 82 22 81 23
REMARK SMILES IDX 40 25 70 26 51 27 69 28 52 29 55 30 68 31 86 32 53 33 54 34
REMARK SMILES IDX 67 36 87 37 56 38 41 39 42 40 50 41 43 42 49 43 44 44 45 45
REMARK SMILES IDX 46 46 47 47 48 48 71 49 72 50 80 51 73 52 79 53 74 54 75 55
REMARK SMILES IDX 76 56 77 57 78 58 57 59 58 60 66 61 59 62 65 63 60 64 61 65
REMARK SMILES IDX 62 66 63 67 64 68 6 69 7 70 8 71 9 72 10 73 11 74 12 76
REMARK SMILES IDX 13 77 14 78 18 79 15 80 17 81 16 82 19 83 31 84 20 85 23 86
REMARK SMILES IDX 24 87 21 89 22 90 25 91 26 92 30 93 27 94 29 95 28 96
REMARK H PARENT 3 6 85 24 55 35 10 75 31 88
REMARK Flexibility Score: inf
ROOT
ATOM      1  C   UNL A   1      38.718  22.803  26.499  1.00  0.00     0.021 C 
ENDROOT
BRANCH   1   2
ATOM      2  C   UNL A   1      39.918  23.575  27.027  1.00  0.00     0.116 C 
BRANCH   2   3
ATOM      3  N   UNL A   1      40.651  24.271  25.983  1.00  0.00    -0.352 N 
ATOM      4  O   UNL A   1      41.600  26.037  24.948  1.00  0.00    -0.269 OA
ATOM      5  C   UNL A   1      41.112  25.567  25.971  1.00  0.00     0.251 C 
ATOM      6  H   UNL A   1      40.844  23.743  25.174  1.00  0.00     0.163 HD
BRANCH   5   7
ATOM      7  C   UNL A   1      40.990  26.401  27.189  1.00  0.00     0.039 A 
ATOM      8  C   UNL A   1      40.030  26.107  28.159  1.00  0.00     0.014 A 
ATOM      9  C   UNL A   1      41.849  27.491  27.363  1.00  0.00     0.014 A 
ATOM     10  C   UNL A   1      39.837  26.977  29.227  1.00  0.00     0.010 A 
ATOM     11  C   UNL A   1      41.709  28.318  28.484  1.00  0.00     0.010 A 
ATOM     12  C   UNL A   1      40.685  28.082  29.412  1.00  0.00    -0.014 A 
BRANCH  12  13
ATOM     13  C   UNL A   1      40.520  28.914  30.633  1.00  0.00     0.031 A 
ATOM     14  C   UNL A   1      41.436  28.769  31.817  1.00  0.00     0.074 A 
ATOM     15  C   UNL A   1      39.555  29.855  30.634  1.00  0.00     0.049 A 
ATOM     16  N   UNL A   1      41.464  29.475  32.921  1.00  0.00    -0.248 NA
ATOM     17  C   UNL A   1      42.446  27.701  31.765  1.00  0.00     0.031 C 
ATOM     18  C   UNL A   1      38.592  30.075  29.549  1.00  0.00     0.029 A 
ATOM     19  N   UNL A   1      39.241  30.822  31.554  1.00  0.00    -0.354 N 
ATOM     20  C   UNL A   1      42.481  28.933  33.697  1.00  0.00     0.074 A 
ATOM     21  C   UNL A   1      43.033  27.824  32.950  1.00  0.00     0.031 C 
ATOM     22  C   UNL A   1      37.840  31.146  29.839  1.00  0.00     0.029 A 
ATOM     23  C   UNL A   1      38.222  31.653  31.150  1.00  0.00     0.049 A 
ATOM     24  H   UNL A   1      39.700  30.912  32.420  1.00  0.00     0.167 HD
ATOM     25  C   UNL A   1      42.918  29.330  34.918  1.00  0.00     0.031 A 
ATOM     26  C   UNL A   1      37.650  32.702  31.768  1.00  0.00     0.031 A 
ATOM     27  C   UNL A   1      42.363  30.433  35.660  1.00  0.00     0.049 A 
ATOM     28  C   UNL A   1      38.152  33.114  33.120  1.00  0.00     0.074 A 
ATOM     29  C   UNL A   1      42.745  30.916  36.901  1.00  0.00     0.029 A 
ATOM     30  N   UNL A   1      41.312  31.229  35.232  1.00  0.00    -0.354 N 
ATOM     31  N   UNL A   1      39.129  32.597  33.825  1.00  0.00    -0.248 NA
ATOM     32  C   UNL A   1      37.475  34.250  33.758  1.00  0.00     0.031 C 
ATOM     33  C   UNL A   1      41.900  31.978  37.239  1.00  0.00     0.029 A 
ATOM     34  C   UNL A   1      41.022  32.189  36.189  1.00  0.00     0.049 A 
ATOM     35  H   UNL A   1      40.839  31.128  34.374  1.00  0.00     0.167 HD
ATOM     36  C   UNL A   1      39.184  33.346  34.993  1.00  0.00     0.074 A 
ATOM     37  C   UNL A   1      38.168  34.373  34.881  1.00  0.00     0.031 C 
ATOM     38  C   UNL A   1      39.996  33.191  36.068  1.00  0.00     0.031 A 
BRANCH  25  39
ATOM     39  C   UNL A   1      44.052  28.560  35.543  1.00  0.00    -0.014 A 
ATOM     40  C   UNL A   1      45.390  28.896  35.269  1.00  0.00     0.010 A 
ATOM     41  C   UNL A   1      43.779  27.543  36.477  1.00  0.00     0.010 A 
ATOM     42  C   UNL A   1      46.434  28.215  35.902  1.00  0.00     0.020 A 
ATOM     43  C   UNL A   1      44.821  26.874  37.127  1.00  0.00     0.020 A 
ATOM     44  C   UNL A   1      46.143  27.207  36.827  1.00  0.00     0.054 A 
BRANCH  44  45
ATOM     45  S   UNL A   1      47.518  26.371  37.666  1.00  0.00     0.124 S 
ATOM     46  O   UNL A   1      48.495  26.244  36.588  1.00  0.00    -0.237 OA
ATOM     47  O   UNL A   1      47.871  27.315  38.723  1.00  0.00    -0.237 OA
ATOM     48  O   UNL A   1      46.933  25.115  38.127  1.00  0.00    -0.744 OA
ENDBRANCH  44  45
ENDBRANCH  25  39
BRANCH  26  49
ATOM     49  C   UNL A   1      36.520  33.416  31.116  1.00  0.00    -0.014 A 
ATOM     50  C   UNL A   1      35.304  33.610  31.794  1.00  0.00     0.010 A 
ATOM     51  C   UNL A   1      36.664  33.917  29.809  1.00  0.00     0.010 A 
ATOM     52  C   UNL A   1      34.245  34.275  31.167  1.00  0.00     0.020 A 
ATOM     53  C   UNL A   1      35.620  34.607  29.191  1.00  0.00     0.020 A 
ATOM     54  C   UNL A   1      34.410  34.766  29.870  1.00  0.00     0.054 A 
BRANCH  54  55
ATOM     55  S   UNL A   1      33.043  35.663  29.085  1.00  0.00     0.124 S 
ATOM     56  O   UNL A   1      32.248  36.071  30.238  1.00  0.00    -0.237 OA
ATOM     57  O   UNL A   1      33.730  36.740  28.375  1.00  0.00    -0.237 OA
ATOM     58  O   UNL A   1      32.428  34.656  28.222  1.00  0.00    -0.744 OA
ENDBRANCH  54  55
ENDBRANCH  26  49
BRANCH  38  59
ATOM     59  C   UNL A   1      39.811  34.163  37.200  1.00  0.00    -0.014 A 
ATOM     60  C   UNL A   1      39.062  33.812  38.338  1.00  0.00     0.010 A 
ATOM     61  C   UNL A   1      40.394  35.440  37.126  1.00  0.00     0.010 A 
ATOM     62  C   UNL A   1      38.860  34.740  39.361  1.00  0.00     0.020 A 
ATOM     63  C   UNL A   1      40.214  36.362  38.160  1.00  0.00     0.020 A 
ATOM     64  C   UNL A   1      39.430  36.012  39.262  1.00  0.00     0.054 A 
BRANCH  64  65
ATOM     65  S   UNL A   1      39.161  37.199  40.606  1.00  0.00     0.124 S 
ATOM     66  O   UNL A   1      38.252  38.159  39.986  1.00  0.00    -0.237 OA
ATOM     67  O   UNL A   1      38.578  36.370  41.659  1.00  0.00    -0.237 OA
ATOM     68  O   UNL A   1      40.503  37.705  40.892  1.00  0.00    -0.744 OA
ENDBRANCH  64  65
ENDBRANCH  38  59
ENDBRANCH  12  13
ENDBRANCH   5   7
ENDBRANCH   2   3
ENDBRANCH   1   2
BRANCH   1  69
ATOM     69  C   UNL A   1      37.570  23.659  25.965  1.00  0.00     0.002 C 
BRANCH  69  70
ATOM     70  C   UNL A   1      36.931  23.181  24.658  1.00  0.00     0.002 C 
BRANCH  70  71
ATOM     71  C   UNL A   1      36.699  21.672  24.534  1.00  0.00     0.021 C 
BRANCH  71  72
ATOM     72  C   UNL A   1      35.267  21.203  24.778  1.00  0.00     0.116 C 
BRANCH  72  73
ATOM     73  N   UNL A   1      34.909  21.216  26.187  1.00  0.00    -0.352 N 
ATOM     74  C   UNL A   1      34.063  22.063  26.857  1.00  0.00     0.251 C 
ATOM     75  H   UNL A   1      35.334  20.518  26.737  1.00  0.00     0.163 HD
ATOM     76  O   UNL A   1      33.989  22.027  28.082  1.00  0.00    -0.269 OA
BRANCH  74  77
ATOM     77  C   UNL A   1      33.249  23.037  26.102  1.00  0.00     0.040 A 
ATOM     78  C   UNL A   1      31.968  22.673  25.693  1.00  0.00     0.016 A 
ATOM     79  C   UNL A   1      33.746  24.307  25.801  1.00  0.00     0.020 A 
ATOM     80  C   UNL A   1      31.178  23.597  25.006  1.00  0.00     0.027 A 
ATOM     81  C   UNL A   1      32.929  25.259  25.168  1.00  0.00    -0.017 A 
ATOM     82  C   UNL A   1      31.654  24.884  24.713  1.00  0.00     0.038 A 
ATOM     83  C   UNL A   1      33.430  26.676  24.997  1.00  0.00     0.049 C 
ATOM     84  N   UNL A   1      30.822  25.781  24.056  1.00  0.00    -0.378 N 
ATOM     85  C   UNL A   1      33.809  27.319  26.310  1.00  0.00    -0.023 C 
ATOM     86  C   UNL A   1      32.355  27.662  24.503  1.00  0.00     0.031 C 
ATOM     87  C   UNL A   1      31.383  27.013  23.519  1.00  0.00     0.114 C 
ATOM     88  H   UNL A   1      29.861  25.587  23.956  1.00  0.00     0.161 HD
ATOM     89  C   UNL A   1      32.876  28.179  26.737  1.00  0.00    -0.030 C 
ATOM     90  C   UNL A   1      31.732  28.260  25.776  1.00  0.00     0.034 C 
BRANCH  87  91
ATOM     91  C   UNL A   1      30.303  27.979  23.051  1.00  0.00    -0.022 A 
ATOM     92  C   UNL A   1      28.960  27.699  23.344  1.00  0.00     0.026 A 
ATOM     93  C   UNL A   1      30.576  29.137  22.314  1.00  0.00     0.026 A 
ATOM     94  C   UNL A   1      27.976  28.576  22.912  1.00  0.00     0.111 A 
ATOM     95  C   UNL A   1      29.525  29.961  21.940  1.00  0.00     0.111 A 
ATOM     96  N   UNL A   1      28.231  29.710  22.230  1.00  0.00    -0.265 NA
ENDBRANCH  87  91
ENDBRANCH  74  77
ENDBRANCH  72  73
ENDBRANCH  71  72
ENDBRANCH  70  71
ENDBRANCH  69  70
ENDBRANCH   1  69
TORSDOF 17
ENDMDL
