MODEL 1
REMARK VINA RESULT:      -8.3      0.000      0.000
REMARK SMILES C[C@@H](C(=O)NCCCCCCNC(=O)c1ccc(-c2c3nc(c(-c4ccc(S(=O)(=O)[O-])cc4)c4ccc([nH]4)c(-c4ccc(S(=O)(=O)[O-])cc4)c4nc(c(-c5ccc(S(=O)(=O)[O-])cc5)c5ccc2[nH]5)C=C4)C=C3)cc1)c1ccc2c3cc(Cl)ccc3n(C(=O)c3cocn3)c2c1
REMARK SMILES IDX 8 1 7 2 6 3 5 4 3 5 4 6 2 8 1 9 75 10 76 11 95 12 77 13
REMARK SMILES IDX 94 14 78 15 86 16 79 17 85 18 80 19 84 20 81 21 83 22 82 23
REMARK SMILES IDX 87 24 88 25 89 26 90 27 93 28 91 29 92 30 9 31 10 32 11 33
REMARK SMILES IDX 12 34 13 35 14 37 15 38 16 39 74 40 17 41 73 42 18 43 19 44
REMARK SMILES IDX 20 45 67 46 21 47 72 48 66 49 68 50 22 51 71 52 65 53 64 54
REMARK SMILES IDX 23 56 53 57 34 58 52 59 35 60 38 61 51 62 69 63 36 64 37 65
REMARK SMILES IDX 50 67 70 68 39 69 24 70 25 71 33 72 26 73 32 74 27 75 28 76
REMARK SMILES IDX 29 77 30 78 31 79 54 80 55 81 63 82 56 83 62 84 57 85 58 86
REMARK SMILES IDX 59 87 60 88 61 89 40 90 41 91 49 92 42 93 48 94 43 95 44 96
REMARK SMILES IDX 45 97 46 98 47 99
REMARK H PARENT 5 7 12 36 68 55 38 66
REMARK Flexibility Score: inf
ROOT
ATOM      1  C   UNL A   1      44.324  23.378  26.714  1.00  0.00     0.002 C 
ENDROOT
BRANCH   1   2
ATOM      2  C   UNL A   1      45.711  23.522  26.074  1.00  0.00     0.021 C 
BRANCH   2   3
ATOM      3  C   UNL A   1      46.604  24.554  26.766  1.00  0.00     0.116 C 
BRANCH   3   4
ATOM      4  N   UNL A   1      46.887  25.650  25.867  1.00  0.00    -0.356 N 
ATOM      5  C   UNL A   1      46.061  26.624  25.396  1.00  0.00     0.227 C 
ATOM      6  O   UNL A   1      46.504  27.332  24.489  1.00  0.00    -0.274 OA
ATOM      7  H   UNL A   1      47.817  25.698  25.547  1.00  0.00     0.163 HD
BRANCH   5   8
ATOM      8  C   UNL A   1      44.675  26.828  26.034  1.00  0.00     0.105 C 
ATOM      9  C   UNL A   1      43.522  26.378  25.123  1.00  0.00     0.023 C 
BRANCH   8  10
ATOM     10  C   UNL A   1      44.484  28.287  26.442  1.00  0.00    -0.034 A 
ATOM     11  C   UNL A   1      43.222  28.881  26.427  1.00  0.00     0.005 A 
ATOM     12  C   UNL A   1      45.590  29.030  26.880  1.00  0.00     0.032 A 
ATOM     13  C   UNL A   1      43.050  30.203  26.861  1.00  0.00     0.011 A 
ATOM     14  C   UNL A   1      45.426  30.376  27.239  1.00  0.00     0.058 A 
ATOM     15  C   UNL A   1      44.167  30.959  27.281  1.00  0.00     0.008 A 
ATOM     16  N   UNL A   1      46.380  31.322  27.620  1.00  0.00    -0.274 N 
ATOM     17  C   UNL A   1      44.338  32.282  27.774  1.00  0.00     0.009 A 
ATOM     18  C   UNL A   1      45.713  32.514  27.934  1.00  0.00     0.057 A 
ATOM     19  C   UNL A   1      43.418  33.316  28.053  1.00  0.00     0.031 A 
ATOM     20  C   UNL A   1      46.186  33.800  28.259  1.00  0.00     0.029 A 
ATOM     21  C   UNL A   1      43.892  34.570  28.430  1.00  0.00     0.041 A 
ATOM     22  C   UNL A   1      45.256  34.815  28.515  1.00  0.00     0.023 A 
ATOM     23  Cl  UNL A   1      42.773  35.836  28.758  1.00  0.00    -0.084 Cl
BRANCH  16  24
ATOM     24  C   UNL A   1      47.778  31.077  27.591  1.00  0.00     0.284 C 
ATOM     25  O   UNL A   1      48.243  30.774  26.488  1.00  0.00    -0.266 OA
BRANCH  24  26
ATOM     26  C   UNL A   1      48.666  31.119  28.746  1.00  0.00     0.167 A 
ATOM     27  C   UNL A   1      48.531  31.811  29.931  1.00  0.00     0.231 A 
ATOM     28  N   UNL A   1      49.784  30.299  28.848  1.00  0.00    -0.211 NA
ATOM     29  O   UNL A   1      49.549  31.449  30.764  1.00  0.00    -0.451 OA
ATOM     30  C   UNL A   1      50.247  30.525  30.051  1.00  0.00     0.308 A 
ENDBRANCH  24  26
ENDBRANCH  16  24
ENDBRANCH   8  10
ENDBRANCH   5   8
ENDBRANCH   3   4
ENDBRANCH   2   3
ENDBRANCH   1   2
BRANCH   1  31
ATOM     31  C   UNL A   1      43.578  22.090  26.352  1.00  0.00     0.002 C 
BRANCH  31  32
ATOM     32  C   UNL A   1      42.181  22.302  25.764  1.00  0.00     0.021 C 
BRANCH  32  33
ATOM     33  C   UNL A   1      41.045  21.792  26.642  1.00  0.00     0.116 C 
BRANCH  33  34
ATOM     34  N   UNL A   1      39.751  21.978  26.010  1.00  0.00    -0.352 N 
ATOM     35  C   UNL A   1      38.863  23.014  26.147  1.00  0.00     0.251 C 
ATOM     36  H   UNL A   1      39.473  21.260  25.396  1.00  0.00     0.163 HD
ATOM     37  O   UNL A   1      37.725  22.905  25.702  1.00  0.00    -0.269 OA
BRANCH  35  38
ATOM     38  C   UNL A   1      39.276  24.254  26.841  1.00  0.00     0.039 A 
ATOM     39  C   UNL A   1      39.996  25.216  26.130  1.00  0.00     0.014 A 
ATOM     40  C   UNL A   1      38.982  24.455  28.194  1.00  0.00     0.014 A 
ATOM     41  C   UNL A   1      40.397  26.392  26.767  1.00  0.00     0.010 A 
ATOM     42  C   UNL A   1      39.318  25.658  28.807  1.00  0.00     0.010 A 
ATOM     43  C   UNL A   1      40.049  26.630  28.107  1.00  0.00    -0.014 A 
BRANCH  43  44
ATOM     44  C   UNL A   1      40.478  27.871  28.799  1.00  0.00     0.031 A 
ATOM     45  C   UNL A   1      41.865  27.968  29.380  1.00  0.00     0.074 A 
ATOM     46  C   UNL A   1      39.612  28.893  28.940  1.00  0.00     0.049 A 
ATOM     47  N   UNL A   1      42.420  28.960  30.029  1.00  0.00    -0.248 NA
ATOM     48  C   UNL A   1      42.732  26.787  29.236  1.00  0.00     0.031 C 
ATOM     49  C   UNL A   1      38.230  28.906  28.455  1.00  0.00     0.029 A 
ATOM     50  N   UNL A   1      39.769  30.122  29.530  1.00  0.00    -0.354 N 
ATOM     51  C   UNL A   1      43.687  28.515  30.390  1.00  0.00     0.074 A 
ATOM     52  C   UNL A   1      43.801  27.148  29.930  1.00  0.00     0.031 C 
ATOM     53  C   UNL A   1      37.679  30.099  28.734  1.00  0.00     0.029 A 
ATOM     54  C   UNL A   1      38.653  30.920  29.446  1.00  0.00     0.049 A 
ATOM     55  H   UNL A   1      40.602  30.405  29.972  1.00  0.00     0.167 HD
ATOM     56  C   UNL A   1      44.674  29.187  31.029  1.00  0.00     0.031 A 
ATOM     57  C   UNL A   1      38.441  32.176  29.886  1.00  0.00     0.031 A 
ATOM     58  C   UNL A   1      44.565  30.554  31.463  1.00  0.00     0.049 A 
ATOM     59  C   UNL A   1      39.556  32.906  30.583  1.00  0.00     0.074 A 
ATOM     60  C   UNL A   1      45.530  31.349  32.057  1.00  0.00     0.029 A 
ATOM     61  N   UNL A   1      43.421  31.330  31.352  1.00  0.00    -0.354 N 
ATOM     62  N   UNL A   1      40.771  32.494  30.851  1.00  0.00    -0.248 NA
ATOM     63  C   UNL A   1      39.273  34.280  31.020  1.00  0.00     0.031 C 
ATOM     64  C   UNL A   1      44.954  32.589  32.349  1.00  0.00     0.029 A 
ATOM     65  C   UNL A   1      43.647  32.587  31.886  1.00  0.00     0.049 A 
ATOM     66  H   UNL A   1      42.572  31.031  30.953  1.00  0.00     0.167 HD
ATOM     67  C   UNL A   1      41.411  33.569  31.459  1.00  0.00     0.074 A 
ATOM     68  C   UNL A   1      40.449  34.652  31.509  1.00  0.00     0.031 C 
ATOM     69  C   UNL A   1      42.681  33.654  31.928  1.00  0.00     0.031 A 
BRANCH  56  70
ATOM     70  C   UNL A   1      45.955  28.444  31.306  1.00  0.00    -0.014 A 
ATOM     71  C   UNL A   1      46.969  28.347  30.334  1.00  0.00     0.010 A 
ATOM     72  C   UNL A   1      46.160  27.853  32.566  1.00  0.00     0.010 A 
ATOM     73  C   UNL A   1      48.139  27.631  30.600  1.00  0.00     0.020 A 
ATOM     74  C   UNL A   1      47.341  27.161  32.845  1.00  0.00     0.020 A 
ATOM     75  C   UNL A   1      48.314  27.036  31.853  1.00  0.00     0.054 A 
BRANCH  75  76
ATOM     76  S   UNL A   1      49.845  26.118  32.175  1.00  0.00     0.124 S 
ATOM     77  O   UNL A   1      50.493  26.146  30.866  1.00  0.00    -0.237 OA
ATOM     78  O   UNL A   1      50.490  26.922  33.211  1.00  0.00    -0.237 OA
ATOM     79  O   UNL A   1      49.378  24.805  32.611  1.00  0.00    -0.744 OA
ENDBRANCH  75  76
ENDBRANCH  56  70
BRANCH  57  80
ATOM     80  C   UNL A   1      37.129  32.837  29.644  1.00  0.00    -0.014 A 
ATOM     81  C   UNL A   1      36.104  32.750  30.603  1.00  0.00     0.010 A 
ATOM     82  C   UNL A   1      36.903  33.566  28.463  1.00  0.00     0.010 A 
ATOM     83  C   UNL A   1      34.869  33.365  30.376  1.00  0.00     0.020 A 
ATOM     84  C   UNL A   1      35.678  34.204  28.246  1.00  0.00     0.020 A 
ATOM     85  C   UNL A   1      34.664  34.090  29.199  1.00  0.00     0.054 A 
BRANCH  85  86
ATOM     86  S   UNL A   1      33.071  34.922  28.951  1.00  0.00     0.124 S 
ATOM     87  O   UNL A   1      32.533  34.958  30.306  1.00  0.00    -0.237 OA
ATOM     88  O   UNL A   1      33.471  36.211  28.393  1.00  0.00    -0.237 OA
ATOM     89  O   UNL A   1      32.369  34.040  28.020  1.00  0.00    -0.744 OA
ENDBRANCH  85  86
ENDBRANCH  57  80
BRANCH  69  90
ATOM     90  C   UNL A   1      43.119  34.977  32.497  1.00  0.00    -0.014 A 
ATOM     91  C   UNL A   1      43.718  35.960  31.690  1.00  0.00     0.010 A 
ATOM     92  C   UNL A   1      42.888  35.252  33.857  1.00  0.00     0.010 A 
ATOM     93  C   UNL A   1      44.114  37.181  32.243  1.00  0.00     0.020 A 
ATOM     94  C   UNL A   1      43.257  36.482  34.407  1.00  0.00     0.020 A 
ATOM     95  C   UNL A   1      43.884  37.432  33.600  1.00  0.00     0.054 A 
BRANCH  95  96
ATOM     96  S   UNL A   1      44.380  39.035  34.288  1.00  0.00     0.124 S 
ATOM     97  O   UNL A   1      45.589  39.332  33.526  1.00  0.00    -0.237 OA
ATOM     98  O   UNL A   1      43.227  39.882  33.993  1.00  0.00    -0.237 OA
ATOM     99  O   UNL A   1      44.590  38.752  35.706  1.00  0.00    -0.744 OA
ENDBRANCH  95  96
ENDBRANCH  69  90
ENDBRANCH  43  44
ENDBRANCH  35  38
ENDBRANCH  33  34
ENDBRANCH  32  33
ENDBRANCH  31  32
ENDBRANCH   1  31
TORSDOF 19
ENDMDL
MODEL 2
REMARK VINA RESULT:      -8.2      1.792      2.856
REMARK SMILES C[C@@H](C(=O)NCCCCCCNC(=O)c1ccc(-c2c3nc(c(-c4ccc(S(=O)(=O)[O-])cc4)c4ccc([nH]4)c(-c4ccc(S(=O)(=O)[O-])cc4)c4nc(c(-c5ccc(S(=O)(=O)[O-])cc5)c5ccc2[nH]5)C=C4)C=C3)cc1)c1ccc2c3cc(Cl)ccc3n(C(=O)c3cocn3)c2c1
REMARK SMILES IDX 8 1 7 2 6 3 5 4 3 5 4 6 2 8 1 9 75 10 76 11 95 12 77 13
REMARK SMILES IDX 94 14 78 15 86 16 79 17 85 18 80 19 84 20 81 21 83 22 82 23
REMARK SMILES IDX 87 24 88 25 89 26 90 27 93 28 91 29 92 30 9 31 10 32 11 33
REMARK SMILES IDX 12 34 13 35 14 37 15 38 16 39 74 40 17 41 73 42 18 43 19 44
REMARK SMILES IDX 20 45 67 46 21 47 72 48 66 49 68 50 22 51 71 52 65 53 64 54
REMARK SMILES IDX 23 56 53 57 34 58 52 59 35 60 38 61 51 62 69 63 36 64 37 65
REMARK SMILES IDX 50 67 70 68 39 69 24 70 25 71 33 72 26 73 32 74 27 75 28 76
REMARK SMILES IDX 29 77 30 78 31 79 54 80 55 81 63 82 56 83 62 84 57 85 58 86
REMARK SMILES IDX 59 87 60 88 61 89 40 90 41 91 49 92 42 93 48 94 43 95 44 96
REMARK SMILES IDX 45 97 46 98 47 99
REMARK H PARENT 5 7 12 36 68 55 38 66
REMARK Flexibility Score: inf
ROOT
ATOM      1  C   UNL A   1      43.699  24.059  26.862  1.00  0.00     0.002 C 
ENDROOT
BRANCH   1   2
ATOM      2  C   UNL A   1      44.332  25.080  25.907  1.00  0.00     0.021 C 
BRANCH   2   3
ATOM      3  C   UNL A   1      45.467  25.890  26.537  1.00  0.00     0.116 C 
BRANCH   3   4
ATOM      4  N   UNL A   1      46.056  26.769  25.552  1.00  0.00    -0.356 N 
ATOM      5  C   UNL A   1      46.029  28.127  25.471  1.00  0.00     0.227 C 
ATOM      6  O   UNL A   1      46.451  28.626  24.424  1.00  0.00    -0.274 OA
ATOM      7  H   UNL A   1      46.552  26.315  24.831  1.00  0.00     0.163 HD
BRANCH   5   8
ATOM      8  C   UNL A   1      45.541  28.957  26.672  1.00  0.00     0.105 C 
ATOM      9  C   UNL A   1      44.021  29.181  26.668  1.00  0.00     0.023 C 
BRANCH   8  10
ATOM     10  C   UNL A   1      46.270  30.297  26.727  1.00  0.00    -0.034 A 
ATOM     11  C   UNL A   1      47.610  30.375  27.110  1.00  0.00     0.005 A 
ATOM     12  C   UNL A   1      45.596  31.465  26.343  1.00  0.00     0.032 A 
ATOM     13  C   UNL A   1      48.287  31.602  27.097  1.00  0.00     0.011 A 
ATOM     14  C   UNL A   1      46.253  32.702  26.407  1.00  0.00     0.058 A 
ATOM     15  C   UNL A   1      47.601  32.782  26.732  1.00  0.00     0.008 A 
ATOM     16  N   UNL A   1      45.767  33.987  26.158  1.00  0.00    -0.274 N 
ATOM     17  C   UNL A   1      47.977  34.148  26.609  1.00  0.00     0.009 A 
ATOM     18  C   UNL A   1      46.828  34.892  26.302  1.00  0.00     0.057 A 
ATOM     19  C   UNL A   1      49.212  34.810  26.784  1.00  0.00     0.031 A 
ATOM     20  C   UNL A   1      46.874  36.300  26.279  1.00  0.00     0.029 A 
ATOM     21  C   UNL A   1      49.260  36.200  26.702  1.00  0.00     0.041 A 
ATOM     22  C   UNL A   1      48.107  36.936  26.472  1.00  0.00     0.023 A 
ATOM     23  Cl  UNL A   1      50.762  37.010  26.927  1.00  0.00    -0.084 Cl
BRANCH  16  24
ATOM     24  C   UNL A   1      44.401  34.268  25.892  1.00  0.00     0.284 C 
ATOM     25  O   UNL A   1      44.034  34.075  24.728  1.00  0.00    -0.266 OA
BRANCH  24  26
ATOM     26  C   UNL A   1      43.443  34.789  26.859  1.00  0.00     0.167 A 
ATOM     27  C   UNL A   1      43.366  34.575  28.219  1.00  0.00     0.231 A 
ATOM     28  N   UNL A   1      42.491  35.742  26.515  1.00  0.00    -0.211 NA
ATOM     29  O   UNL A   1      42.377  35.366  28.728  1.00  0.00    -0.451 OA
ATOM     30  C   UNL A   1      41.913  36.050  27.648  1.00  0.00     0.308 A 
ENDBRANCH  24  26
ENDBRANCH  16  24
ENDBRANCH   8  10
ENDBRANCH   5   8
ENDBRANCH   3   4
ENDBRANCH   2   3
ENDBRANCH   1   2
BRANCH   1  31
ATOM     31  C   UNL A   1      43.603  22.633  26.311  1.00  0.00     0.002 C 
BRANCH  31  32
ATOM     32  C   UNL A   1      42.287  22.308  25.600  1.00  0.00     0.021 C 
BRANCH  32  33
ATOM     33  C   UNL A   1      41.153  21.899  26.533  1.00  0.00     0.116 C 
BRANCH  33  34
ATOM     34  N   UNL A   1      39.852  22.107  25.922  1.00  0.00    -0.352 N 
ATOM     35  C   UNL A   1      38.975  23.146  26.095  1.00  0.00     0.251 C 
ATOM     36  H   UNL A   1      39.561  21.406  25.297  1.00  0.00     0.163 HD
ATOM     37  O   UNL A   1      37.829  23.055  25.663  1.00  0.00    -0.269 OA
BRANCH  35  38
ATOM     38  C   UNL A   1      39.406  24.368  26.811  1.00  0.00     0.039 A 
ATOM     39  C   UNL A   1      40.156  25.322  26.122  1.00  0.00     0.014 A 
ATOM     40  C   UNL A   1      39.098  24.557  28.162  1.00  0.00     0.014 A 
ATOM     41  C   UNL A   1      40.575  26.481  26.780  1.00  0.00     0.010 A 
ATOM     42  C   UNL A   1      39.453  25.745  28.796  1.00  0.00     0.010 A 
ATOM     43  C   UNL A   1      40.214  26.708  28.119  1.00  0.00    -0.014 A 
BRANCH  43  44
ATOM     44  C   UNL A   1      40.662  27.930  28.833  1.00  0.00     0.031 A 
ATOM     45  C   UNL A   1      42.062  28.010  29.384  1.00  0.00     0.074 A 
ATOM     46  C   UNL A   1      39.802  28.950  29.021  1.00  0.00     0.049 A 
ATOM     47  N   UNL A   1      42.634  28.984  30.046  1.00  0.00    -0.248 NA
ATOM     48  C   UNL A   1      42.924  26.832  29.189  1.00  0.00     0.031 C 
ATOM     49  C   UNL A   1      38.409  28.978  28.569  1.00  0.00     0.029 A 
ATOM     50  N   UNL A   1      39.974  30.163  29.640  1.00  0.00    -0.354 N 
ATOM     51  C   UNL A   1      43.908  28.528  30.365  1.00  0.00     0.074 A 
ATOM     52  C   UNL A   1      44.009  27.174  29.867  1.00  0.00     0.031 C 
ATOM     53  C   UNL A   1      37.866  30.163  28.892  1.00  0.00     0.029 A 
ATOM     54  C   UNL A   1      38.859  30.964  29.602  1.00  0.00     0.049 A 
ATOM     55  H   UNL A   1      40.818  30.433  30.069  1.00  0.00     0.167 HD
ATOM     56  C   UNL A   1      44.911  29.182  30.998  1.00  0.00     0.031 A 
ATOM     57  C   UNL A   1      38.659  32.208  30.080  1.00  0.00     0.031 A 
ATOM     58  C   UNL A   1      44.815  30.537  31.471  1.00  0.00     0.049 A 
ATOM     59  C   UNL A   1      39.791  32.918  30.769  1.00  0.00     0.074 A 
ATOM     60  C   UNL A   1      45.794  31.315  32.062  1.00  0.00     0.029 A 
ATOM     61  N   UNL A   1      43.670  31.317  31.407  1.00  0.00    -0.354 N 
ATOM     62  N   UNL A   1      41.012  32.497  30.999  1.00  0.00    -0.248 NA
ATOM     63  C   UNL A   1      39.521  34.280  31.249  1.00  0.00     0.031 C 
ATOM     64  C   UNL A   1      45.228  32.548  32.401  1.00  0.00     0.029 A 
ATOM     65  C   UNL A   1      43.911  32.559  31.969  1.00  0.00     0.049 A 
ATOM     66  H   UNL A   1      42.812  31.030  31.020  1.00  0.00     0.167 HD
ATOM     67  C   UNL A   1      41.667  33.555  31.619  1.00  0.00     0.074 A 
ATOM     68  C   UNL A   1      40.709  34.638  31.720  1.00  0.00     0.031 C 
ATOM     69  C   UNL A   1      42.948  33.626  32.060  1.00  0.00     0.031 A 
BRANCH  56  70
ATOM     70  C   UNL A   1      46.197  28.430  31.226  1.00  0.00    -0.014 A 
ATOM     71  C   UNL A   1      47.239  28.462  30.281  1.00  0.00     0.010 A 
ATOM     72  C   UNL A   1      46.376  27.699  32.414  1.00  0.00     0.010 A 
ATOM     73  C   UNL A   1      48.414  27.736  30.497  1.00  0.00     0.020 A 
ATOM     74  C   UNL A   1      47.561  26.996  32.647  1.00  0.00     0.020 A 
ATOM     75  C   UNL A   1      48.564  27.002  31.677  1.00  0.00     0.054 A 
BRANCH  75  76
ATOM     76  S   UNL A   1      50.101  26.075  31.937  1.00  0.00     0.124 S 
ATOM     77  O   UNL A   1      50.543  25.836  30.565  1.00  0.00    -0.237 OA
ATOM     78  O   UNL A   1      50.917  27.013  32.703  1.00  0.00    -0.237 OA
ATOM     79  O   UNL A   1      49.671  24.886  32.668  1.00  0.00    -0.744 OA
ENDBRANCH  75  76
ENDBRANCH  56  70
BRANCH  57  80
ATOM     80  C   UNL A   1      37.343  32.877  29.886  1.00  0.00    -0.014 A 
ATOM     81  C   UNL A   1      37.106  33.652  28.737  1.00  0.00     0.010 A 
ATOM     82  C   UNL A   1      36.319  32.732  30.838  1.00  0.00     0.010 A 
ATOM     83  C   UNL A   1      35.873  34.287  28.554  1.00  0.00     0.020 A 
ATOM     84  C   UNL A   1      35.077  33.343  30.644  1.00  0.00     0.020 A 
ATOM     85  C   UNL A   1      34.865  34.126  29.508  1.00  0.00     0.054 A 
BRANCH  85  86
ATOM     86  S   UNL A   1      33.258  34.918  29.223  1.00  0.00     0.124 S 
ATOM     87  O   UNL A   1      32.672  34.904  30.559  1.00  0.00    -0.237 OA
ATOM     88  O   UNL A   1      33.638  36.231  28.712  1.00  0.00    -0.237 OA
ATOM     89  O   UNL A   1      32.615  34.040  28.247  1.00  0.00    -0.744 OA
ENDBRANCH  85  86
ENDBRANCH  57  80
BRANCH  69  90
ATOM     90  C   UNL A   1      43.402  34.933  32.654  1.00  0.00    -0.014 A 
ATOM     91  C   UNL A   1      44.021  35.920  31.867  1.00  0.00     0.010 A 
ATOM     92  C   UNL A   1      43.166  35.190  34.017  1.00  0.00     0.010 A 
ATOM     93  C   UNL A   1      44.432  37.126  32.442  1.00  0.00     0.020 A 
ATOM     94  C   UNL A   1      43.548  36.405  34.589  1.00  0.00     0.020 A 
ATOM     95  C   UNL A   1      44.195  37.359  33.801  1.00  0.00     0.054 A 
BRANCH  95  96
ATOM     96  S   UNL A   1      44.710  38.942  34.519  1.00  0.00     0.124 S 
ATOM     97  O   UNL A   1      44.736  38.636  35.946  1.00  0.00    -0.237 OA
ATOM     98  O   UNL A   1      46.015  39.166  33.901  1.00  0.00    -0.237 OA
ATOM     99  O   UNL A   1      43.662  39.870  34.099  1.00  0.00    -0.744 OA
ENDBRANCH  95  96
ENDBRANCH  69  90
ENDBRANCH  43  44
ENDBRANCH  35  38
ENDBRANCH  33  34
ENDBRANCH  32  33
ENDBRANCH  31  32
ENDBRANCH   1  31
TORSDOF 19
ENDMDL
MODEL 3
REMARK VINA RESULT:      -7.4      6.850     11.604
REMARK SMILES C[C@@H](C(=O)NCCCCCCNC(=O)c1ccc(-c2c3nc(c(-c4ccc(S(=O)(=O)[O-])cc4)c4ccc([nH]4)c(-c4ccc(S(=O)(=O)[O-])cc4)c4nc(c(-c5ccc(S(=O)(=O)[O-])cc5)c5ccc2[nH]5)C=C4)C=C3)cc1)c1ccc2c3cc(Cl)ccc3n(C(=O)c3cocn3)c2c1
REMARK SMILES IDX 8 1 7 2 6 3 5 4 3 5 4 6 2 8 1 9 75 10 76 11 95 12 77 13
REMARK SMILES IDX 94 14 78 15 86 16 79 17 85 18 80 19 84 20 81 21 83 22 82 23
REMARK SMILES IDX 87 24 88 25 89 26 90 27 93 28 91 29 92 30 9 31 10 32 11 33
REMARK SMILES IDX 12 34 13 35 14 37 15 38 16 39 74 40 17 41 73 42 18 43 19 44
REMARK SMILES IDX 20 45 67 46 21 47 72 48 66 49 68 50 22 51 71 52 65 53 64 54
REMARK SMILES IDX 23 56 53 57 34 58 52 59 35 60 38 61 51 62 69 63 36 64 37 65
REMARK SMILES IDX 50 67 70 68 39 69 24 70 25 71 33 72 26 73 32 74 27 75 28 76
REMARK SMILES IDX 29 77 30 78 31 79 54 80 55 81 63 82 56 83 62 84 57 85 58 86
REMARK SMILES IDX 59 87 60 88 61 89 40 90 41 91 49 92 42 93 48 94 43 95 44 96
REMARK SMILES IDX 45 97 46 98 47 99
REMARK H PARENT 5 7 12 36 68 55 38 66
REMARK Flexibility Score: inf
ROOT
ATOM      1  C   UNL A   1      46.875  39.496  27.380  1.00  0.00     0.002 C 
ENDROOT
BRANCH   1   2
ATOM      2  C   UNL A   1      45.655  38.680  27.830  1.00  0.00     0.021 C 
BRANCH   2   3
ATOM      3  C   UNL A   1      44.568  38.557  26.761  1.00  0.00     0.116 C 
BRANCH   3   4
ATOM      4  N   UNL A   1      43.389  39.290  27.164  1.00  0.00    -0.356 N 
ATOM      5  C   UNL A   1      43.166  40.632  27.191  1.00  0.00     0.227 C 
ATOM      6  O   UNL A   1      42.138  41.009  27.758  1.00  0.00    -0.274 OA
ATOM      7  H   UNL A   1      42.633  38.733  27.463  1.00  0.00     0.163 HD
BRANCH   5   8
ATOM      8  C   UNL A   1      44.148  41.587  26.487  1.00  0.00     0.105 C 
ATOM      9  C   UNL A   1      44.469  42.838  27.320  1.00  0.00     0.023 C 
BRANCH   8  10
ATOM     10  C   UNL A   1      43.611  41.991  25.117  1.00  0.00    -0.034 A 
ATOM     11  C   UNL A   1      42.316  41.652  24.721  1.00  0.00     0.005 A 
ATOM     12  C   UNL A   1      44.415  42.753  24.258  1.00  0.00     0.032 A 
ATOM     13  C   UNL A   1      41.812  42.080  23.486  1.00  0.00     0.011 A 
ATOM     14  C   UNL A   1      43.935  43.113  22.991  1.00  0.00     0.058 A 
ATOM     15  C   UNL A   1      42.630  42.829  22.611  1.00  0.00     0.008 A 
ATOM     16  N   UNL A   1      44.576  43.789  21.950  1.00  0.00    -0.274 N 
ATOM     17  C   UNL A   1      42.435  43.410  21.328  1.00  0.00     0.009 A 
ATOM     18  C   UNL A   1      43.657  43.957  20.906  1.00  0.00     0.057 A 
ATOM     19  C   UNL A   1      41.312  43.467  20.473  1.00  0.00     0.031 A 
ATOM     20  C   UNL A   1      43.800  44.460  19.598  1.00  0.00     0.029 A 
ATOM     21  C   UNL A   1      41.448  44.019  19.202  1.00  0.00     0.041 A 
ATOM     22  C   UNL A   1      42.676  44.491  18.762  1.00  0.00     0.023 A 
ATOM     23  Cl  UNL A   1      40.083  44.078  18.155  1.00  0.00    -0.084 Cl
BRANCH  16  24
ATOM     24  C   UNL A   1      45.952  44.140  21.978  1.00  0.00     0.284 C 
ATOM     25  O   UNL A   1      46.205  45.267  22.414  1.00  0.00    -0.266 OA
BRANCH  24  26
ATOM     26  C   UNL A   1      47.046  43.302  21.504  1.00  0.00     0.167 A 
ATOM     27  C   UNL A   1      47.002  42.073  20.880  1.00  0.00     0.231 A 
ATOM     28  N   UNL A   1      48.367  43.737  21.513  1.00  0.00    -0.211 NA
ATOM     29  O   UNL A   1      48.270  41.727  20.511  1.00  0.00    -0.451 OA
ATOM     30  C   UNL A   1      49.029  42.784  20.907  1.00  0.00     0.308 A 
ENDBRANCH  24  26
ENDBRANCH  16  24
ENDBRANCH   8  10
ENDBRANCH   5   8
ENDBRANCH   3   4
ENDBRANCH   2   3
ENDBRANCH   1   2
BRANCH   1  31
ATOM     31  C   UNL A   1      46.936  39.789  25.879  1.00  0.00     0.002 C 
BRANCH  31  32
ATOM     32  C   UNL A   1      47.504  38.652  25.026  1.00  0.00     0.021 C 
BRANCH  32  33
ATOM     33  C   UNL A   1      48.722  37.962  25.630  1.00  0.00     0.116 C 
BRANCH  33  34
ATOM     34  N   UNL A   1      49.017  36.708  24.959  1.00  0.00    -0.352 N 
ATOM     35  C   UNL A   1      48.679  35.432  25.329  1.00  0.00     0.251 C 
ATOM     36  H   UNL A   1      49.529  36.785  24.123  1.00  0.00     0.163 HD
ATOM     37  O   UNL A   1      49.193  34.475  24.757  1.00  0.00    -0.269 OA
BRANCH  35  38
ATOM     38  C   UNL A   1      47.707  35.211  26.423  1.00  0.00     0.039 A 
ATOM     39  C   UNL A   1      46.345  35.358  26.154  1.00  0.00     0.014 A 
ATOM     40  C   UNL A   1      48.137  34.890  27.715  1.00  0.00     0.014 A 
ATOM     41  C   UNL A   1      45.412  35.157  27.173  1.00  0.00     0.010 A 
ATOM     42  C   UNL A   1      47.203  34.619  28.710  1.00  0.00     0.010 A 
ATOM     43  C   UNL A   1      45.832  34.771  28.456  1.00  0.00    -0.014 A 
BRANCH  43  44
ATOM     44  C   UNL A   1      44.851  34.565  29.551  1.00  0.00     0.031 A 
ATOM     45  C   UNL A   1      44.057  33.286  29.621  1.00  0.00     0.074 A 
ATOM     46  C   UNL A   1      44.645  35.539  30.459  1.00  0.00     0.049 A 
ATOM     47  N   UNL A   1      43.148  32.925  30.490  1.00  0.00    -0.248 NA
ATOM     48  C   UNL A   1      44.297  32.294  28.559  1.00  0.00     0.031 C 
ATOM     49  C   UNL A   1      45.323  36.837  30.477  1.00  0.00     0.029 A 
ATOM     50  N   UNL A   1      43.807  35.587  31.544  1.00  0.00    -0.354 N 
ATOM     51  C   UNL A   1      42.693  31.681  30.069  1.00  0.00     0.074 A 
ATOM     52  C   UNL A   1      43.390  31.371  28.840  1.00  0.00     0.031 C 
ATOM     53  C   UNL A   1      44.902  37.537  31.543  1.00  0.00     0.029 A 
ATOM     54  C   UNL A   1      43.901  36.755  32.262  1.00  0.00     0.049 A 
ATOM     55  H   UNL A   1      43.196  34.854  31.785  1.00  0.00     0.167 HD
ATOM     56  C   UNL A   1      41.790  30.862  30.659  1.00  0.00     0.031 A 
ATOM     57  C   UNL A   1      43.260  37.149  33.379  1.00  0.00     0.031 A 
ATOM     58  C   UNL A   1      41.116  31.164  31.893  1.00  0.00     0.049 A 
ATOM     59  C   UNL A   1      42.271  36.217  34.024  1.00  0.00     0.074 A 
ATOM     60  C   UNL A   1      40.238  30.372  32.611  1.00  0.00     0.029 A 
ATOM     61  N   UNL A   1      41.246  32.354  32.593  1.00  0.00    -0.354 N 
ATOM     62  N   UNL A   1      41.906  35.014  33.649  1.00  0.00    -0.248 NA
ATOM     63  C   UNL A   1      41.619  36.691  35.251  1.00  0.00     0.031 C 
ATOM     64  C   UNL A   1      39.798  31.103  33.720  1.00  0.00     0.029 A 
ATOM     65  C   UNL A   1      40.446  32.328  33.723  1.00  0.00     0.049 A 
ATOM     66  H   UNL A   1      41.821  33.106  32.327  1.00  0.00     0.167 HD
ATOM     67  C   UNL A   1      41.008  34.573  34.615  1.00  0.00     0.074 A 
ATOM     68  C   UNL A   1      40.892  35.636  35.594  1.00  0.00     0.031 C 
ATOM     69  C   UNL A   1      40.343  33.393  34.688  1.00  0.00     0.031 A 
BRANCH  56  70
ATOM     70  C   UNL A   1      41.473  29.562  29.966  1.00  0.00    -0.014 A 
ATOM     71  C   UNL A   1      42.254  28.411  30.177  1.00  0.00     0.010 A 
ATOM     72  C   UNL A   1      40.361  29.484  29.107  1.00  0.00     0.010 A 
ATOM     73  C   UNL A   1      41.961  27.222  29.504  1.00  0.00     0.020 A 
ATOM     74  C   UNL A   1      40.047  28.288  28.455  1.00  0.00     0.020 A 
ATOM     75  C   UNL A   1      40.862  27.171  28.641  1.00  0.00     0.054 A 
BRANCH  75  76
ATOM     76  S   UNL A   1      40.498  25.613  27.785  1.00  0.00     0.124 S 
ATOM     77  O   UNL A   1      41.622  24.775  28.195  1.00  0.00    -0.237 OA
ATOM     78  O   UNL A   1      39.200  25.236  28.342  1.00  0.00    -0.237 OA
ATOM     79  O   UNL A   1      40.482  25.988  26.374  1.00  0.00    -0.744 OA
ENDBRANCH  75  76
ENDBRANCH  56  70
BRANCH  57  80
ATOM     80  C   UNL A   1      43.565  38.475  33.984  1.00  0.00    -0.014 A 
ATOM     81  C   UNL A   1      44.400  38.564  35.111  1.00  0.00     0.010 A 
ATOM     82  C   UNL A   1      43.034  39.653  33.429  1.00  0.00     0.010 A 
ATOM     83  C   UNL A   1      44.684  39.807  35.685  1.00  0.00     0.020 A 
ATOM     84  C   UNL A   1      43.338  40.899  33.984  1.00  0.00     0.020 A 
ATOM     85  C   UNL A   1      44.152  40.968  35.116  1.00  0.00     0.054 A 
BRANCH  85  86
ATOM     86  S   UNL A   1      44.576  42.573  35.848  1.00  0.00     0.124 S 
ATOM     87  O   UNL A   1      46.021  42.623  35.653  1.00  0.00    -0.237 OA
ATOM     88  O   UNL A   1      43.795  43.505  35.039  1.00  0.00    -0.237 OA
ATOM     89  O   UNL A   1      44.134  42.442  37.235  1.00  0.00    -0.744 OA
ENDBRANCH  85  86
ENDBRANCH  57  80
BRANCH  69  90
ATOM     90  C   UNL A   1      39.463  33.169  35.889  1.00  0.00    -0.014 A 
ATOM     91  C   UNL A   1      38.157  33.686  35.947  1.00  0.00     0.010 A 
ATOM     92  C   UNL A   1      39.943  32.394  36.960  1.00  0.00     0.010 A 
ATOM     93  C   UNL A   1      37.360  33.462  37.073  1.00  0.00     0.020 A 
ATOM     94  C   UNL A   1      39.139  32.145  38.075  1.00  0.00     0.020 A 
ATOM     95  C   UNL A   1      37.859  32.696  38.132  1.00  0.00     0.054 A 
BRANCH  95  96
ATOM     96  S   UNL A   1      36.795  32.395  39.570  1.00  0.00     0.124 S 
ATOM     97  O   UNL A   1      37.350  31.155  40.104  1.00  0.00    -0.237 OA
ATOM     98  O   UNL A   1      37.016  33.585  40.388  1.00  0.00    -0.237 OA
ATOM     99  O   UNL A   1      35.457  32.283  38.993  1.00  0.00    -0.744 OA
ENDBRANCH  95  96
ENDBRANCH  69  90
ENDBRANCH  43  44
ENDBRANCH  35  38
ENDBRANCH  33  34
ENDBRANCH  32  33
ENDBRANCH  31  32
ENDBRANCH   1  31
TORSDOF 19
ENDMDL
