MODEL 1
REMARK VINA RESULT:     -11.0      0.000      0.000
REMARK SMILES CC[C@@H]1CCCN1C(=O)N1CC[C@@H](C(=O)NCCCCCCNC(=O)c2ccc(-c3c4nc(c(-c5ccc(S(=O)(=O)[O-])cc5)c5ccc([nH]5)c(-c5ccc(S(=O)(=O)[O-])cc5)c5nc(c(-c6ccc(S(=O)(=O)[O-])cc6)c6ccc3[nH]6)C=C5)C=C4)cc2)[C@@H]1C
REMARK SMILES IDX 19 1 18 2 17 3 16 4 14 5 15 6 13 8 10 9 11 10 86 11 12 12
REMARK SMILES IDX 87 13 8 14 9 15 7 16 3 17 4 18 5 19 6 20 2 21 1 22 20 23
REMARK SMILES IDX 21 24 22 25 23 26 24 27 25 29 26 30 27 31 85 32 28 33 84 34
REMARK SMILES IDX 29 35 30 36 31 37 78 38 32 39 83 40 77 41 79 42 33 43 82 44
REMARK SMILES IDX 76 45 75 46 34 48 64 49 45 50 63 51 46 52 49 53 62 54 80 55
REMARK SMILES IDX 47 56 48 57 61 59 81 60 50 61 35 62 36 63 44 64 37 65 43 66
REMARK SMILES IDX 38 67 39 68 40 69 41 70 42 71 65 72 66 73 74 74 67 75 73 76
REMARK SMILES IDX 68 77 69 78 70 79 71 80 72 81 51 82 52 83 60 84 53 85 59 86
REMARK SMILES IDX 54 87 55 88 56 89 57 90 58 91
REMARK H PARENT 16 7 23 28 79 47 49 58
REMARK Flexibility Score: inf
ROOT
ATOM      1  C   UNL A   1      32.810  30.033  25.628  1.00  0.00     0.002 C 
ENDROOT
BRANCH   1   2
ATOM      2  C   UNL A   1      31.400  29.577  25.230  1.00  0.00     0.021 C 
BRANCH   2   3
ATOM      3  C   UNL A   1      31.233  29.261  23.743  1.00  0.00     0.116 C 
BRANCH   3   4
ATOM      4  N   UNL A   1      32.518  29.136  23.082  1.00  0.00    -0.356 N 
ATOM      5  C   UNL A   1      33.288  28.041  22.860  1.00  0.00     0.225 C 
ATOM      6  O   UNL A   1      34.398  28.202  22.350  1.00  0.00    -0.275 OA
ATOM      7  H   UNL A   1      32.890  29.980  22.739  1.00  0.00     0.163 HD
BRANCH   5   8
ATOM      8  C   UNL A   1      32.756  26.668  23.210  1.00  0.00     0.102 C 
ATOM      9  N   UNL A   1      33.975  24.681  23.592  1.00  0.00    -0.321 N 
ATOM     10  C   UNL A   1      34.122  25.479  24.793  1.00  0.00     0.122 C 
ATOM     11  C   UNL A   1      33.602  25.578  22.507  1.00  0.00     0.096 C 
ATOM     12  C   UNL A   1      32.928  26.409  24.721  1.00  0.00     0.037 C 
ATOM     13  C   UNL A   1      32.852  24.856  21.392  1.00  0.00     0.032 C 
BRANCH   9  14
ATOM     14  C   UNL A   1      34.759  23.575  23.393  1.00  0.00     0.320 C 
ATOM     15  O   UNL A   1      35.808  23.641  22.753  1.00  0.00    -0.248 OA
BRANCH  14  16
ATOM     16  N   UNL A   1      34.303  22.391  23.940  1.00  0.00    -0.322 N 
ATOM     17  C   UNL A   1      34.791  21.648  25.119  1.00  0.00     0.086 C 
ATOM     18  C   UNL A   1      34.004  20.339  24.999  1.00  0.00     0.027 C 
ATOM     19  C   UNL A   1      32.628  20.811  24.551  1.00  0.00     0.024 C 
ATOM     20  C   UNL A   1      32.920  22.022  23.674  1.00  0.00     0.122 C 
BRANCH  17  21
ATOM     21  C   UNL A   1      36.287  21.404  25.299  1.00  0.00     0.022 C 
ATOM     22  C   UNL A   1      36.738  19.982  25.000  1.00  0.00     0.006 C 
ENDBRANCH  17  21
ENDBRANCH  14  16
ENDBRANCH   9  14
ENDBRANCH   5   8
ENDBRANCH   3   4
ENDBRANCH   2   3
ENDBRANCH   1   2
BRANCH   1  23
ATOM     23  C   UNL A   1      33.218  29.711  27.068  1.00  0.00     0.002 C 
BRANCH  23  24
ATOM     24  C   UNL A   1      34.538  28.951  27.210  1.00  0.00     0.021 C 
BRANCH  24  25
ATOM     25  C   UNL A   1      35.671  29.763  27.823  1.00  0.00     0.116 C 
BRANCH  25  26
ATOM     26  N   UNL A   1      35.612  29.773  29.276  1.00  0.00    -0.352 N 
ATOM     27  C   UNL A   1      36.601  29.484  30.183  1.00  0.00     0.251 C 
ATOM     28  H   UNL A   1      34.742  30.021  29.663  1.00  0.00     0.163 HD
ATOM     29  O   UNL A   1      36.323  29.345  31.372  1.00  0.00    -0.269 OA
BRANCH  27  30
ATOM     30  C   UNL A   1      37.995  29.322  29.720  1.00  0.00     0.039 A 
ATOM     31  C   UNL A   1      38.968  28.896  30.627  1.00  0.00     0.014 A 
ATOM     32  C   UNL A   1      38.342  29.590  28.392  1.00  0.00     0.014 A 
ATOM     33  C   UNL A   1      40.277  28.687  30.188  1.00  0.00     0.010 A 
ATOM     34  C   UNL A   1      39.627  29.303  27.940  1.00  0.00     0.010 A 
ATOM     35  C   UNL A   1      40.611  28.859  28.835  1.00  0.00    -0.014 A 
BRANCH  35  36
ATOM     36  C   UNL A   1      41.987  28.594  28.339  1.00  0.00     0.031 A 
ATOM     37  C   UNL A   1      42.375  27.208  27.897  1.00  0.00     0.074 A 
ATOM     38  C   UNL A   1      42.901  29.585  28.338  1.00  0.00     0.049 A 
ATOM     39  N   UNL A   1      43.537  26.769  27.485  1.00  0.00    -0.248 NA
ATOM     40  C   UNL A   1      41.328  26.174  27.948  1.00  0.00     0.031 C 
ATOM     41  C   UNL A   1      42.660  30.963  28.776  1.00  0.00     0.029 A 
ATOM     42  N   UNL A   1      44.221  29.585  27.961  1.00  0.00    -0.354 N 
ATOM     43  C   UNL A   1      43.364  25.411  27.244  1.00  0.00     0.074 A 
ATOM     44  C   UNL A   1      42.003  25.087  27.609  1.00  0.00     0.031 C 
ATOM     45  C   UNL A   1      43.783  31.678  28.614  1.00  0.00     0.029 A 
ATOM     46  C   UNL A   1      44.837  30.806  28.106  1.00  0.00     0.049 A 
ATOM     47  H   UNL A   1      44.683  28.786  27.619  1.00  0.00     0.167 HD
ATOM     48  C   UNL A   1      44.252  24.518  26.745  1.00  0.00     0.031 A 
ATOM     49  C   UNL A   1      46.109  31.180  27.864  1.00  0.00     0.031 A 
ATOM     50  C   UNL A   1      45.603  24.847  26.375  1.00  0.00     0.049 A 
ATOM     51  C   UNL A   1      47.082  30.166  27.328  1.00  0.00     0.074 A 
ATOM     52  C   UNL A   1      46.564  24.026  25.813  1.00  0.00     0.029 A 
ATOM     53  N   UNL A   1      46.187  26.096  26.534  1.00  0.00    -0.354 N 
ATOM     54  N   UNL A   1      46.883  28.900  27.048  1.00  0.00    -0.248 NA
ATOM     55  C   UNL A   1      48.450  30.633  27.065  1.00  0.00     0.031 C 
ATOM     56  C   UNL A   1      47.748  24.761  25.688  1.00  0.00     0.029 A 
ATOM     57  C   UNL A   1      47.503  26.060  26.106  1.00  0.00     0.049 A 
ATOM     58  H   UNL A   1      45.732  26.889  26.898  1.00  0.00     0.167 HD
ATOM     59  C   UNL A   1      48.090  28.430  26.542  1.00  0.00     0.074 A 
ATOM     60  C   UNL A   1      49.008  29.549  26.544  1.00  0.00     0.031 C 
ATOM     61  C   UNL A   1      48.407  27.183  26.110  1.00  0.00     0.031 A 
BRANCH  48  62
ATOM     62  C   UNL A   1      43.790  23.092  26.578  1.00  0.00    -0.014 A 
ATOM     63  C   UNL A   1      44.180  22.325  25.466  1.00  0.00     0.010 A 
ATOM     64  C   UNL A   1      42.987  22.499  27.568  1.00  0.00     0.010 A 
ATOM     65  C   UNL A   1      43.740  21.006  25.326  1.00  0.00     0.020 A 
ATOM     66  C   UNL A   1      42.572  21.169  27.449  1.00  0.00     0.020 A 
ATOM     67  C   UNL A   1      42.937  20.436  26.318  1.00  0.00     0.054 A 
BRANCH  67  68
ATOM     68  S   UNL A   1      42.401  18.715  26.120  1.00  0.00     0.124 S 
ATOM     69  O   UNL A   1      43.287  18.245  25.057  1.00  0.00    -0.237 OA
ATOM     70  O   UNL A   1      42.652  18.149  27.443  1.00  0.00    -0.237 OA
ATOM     71  O   UNL A   1      40.993  18.830  25.751  1.00  0.00    -0.744 OA
ENDBRANCH  67  68
ENDBRANCH  48  62
BRANCH  49  72
ATOM     72  C   UNL A   1      46.532  32.587  28.116  1.00  0.00    -0.014 A 
ATOM     73  C   UNL A   1      46.206  33.607  27.205  1.00  0.00     0.010 A 
ATOM     74  C   UNL A   1      47.258  32.915  29.277  1.00  0.00     0.010 A 
ATOM     75  C   UNL A   1      46.616  34.923  27.438  1.00  0.00     0.020 A 
ATOM     76  C   UNL A   1      47.642  34.234  29.529  1.00  0.00     0.020 A 
ATOM     77  C   UNL A   1      47.329  35.229  28.600  1.00  0.00     0.054 A 
BRANCH  77  78
ATOM     78  S   UNL A   1      47.810  36.953  28.903  1.00  0.00     0.124 S 
ATOM     79  O   UNL A   1      46.629  37.482  29.579  1.00  0.00    -0.237 OA
ATOM     80  O   UNL A   1      49.002  36.805  29.733  1.00  0.00    -0.237 OA
ATOM     81  O   UNL A   1      48.053  37.480  27.561  1.00  0.00    -0.744 OA
ENDBRANCH  77  78
ENDBRANCH  49  72
BRANCH  61  82
ATOM     82  C   UNL A   1      49.793  26.968  25.561  1.00  0.00    -0.014 A 
ATOM     83  C   UNL A   1      50.090  27.193  24.205  1.00  0.00     0.010 A 
ATOM     84  C   UNL A   1      50.829  26.586  26.434  1.00  0.00     0.010 A 
ATOM     85  C   UNL A   1      51.391  27.008  23.728  1.00  0.00     0.020 A 
ATOM     86  C   UNL A   1      52.136  26.432  25.968  1.00  0.00     0.020 A 
ATOM     87  C   UNL A   1      52.406  26.631  24.612  1.00  0.00     0.054 A 
BRANCH  87  88
ATOM     88  S   UNL A   1      54.093  26.444  23.977  1.00  0.00     0.124 S 
ATOM     89  O   UNL A   1      54.527  25.209  24.626  1.00  0.00    -0.237 OA
ATOM     90  O   UNL A   1      53.883  26.353  22.534  1.00  0.00    -0.237 OA
ATOM     91  O   UNL A   1      54.773  27.656  24.427  1.00  0.00    -0.744 OA
ENDBRANCH  87  88
ENDBRANCH  61  82
ENDBRANCH  35  36
ENDBRANCH  27  30
ENDBRANCH  25  26
ENDBRANCH  24  25
ENDBRANCH  23  24
ENDBRANCH   1  23
TORSDOF 19
ENDMDL
MODEL 2
REMARK VINA RESULT:     -11.0      6.608     11.810
REMARK SMILES CC[C@@H]1CCCN1C(=O)N1CC[C@@H](C(=O)NCCCCCCNC(=O)c2ccc(-c3c4nc(c(-c5ccc(S(=O)(=O)[O-])cc5)c5ccc([nH]5)c(-c5ccc(S(=O)(=O)[O-])cc5)c5nc(c(-c6ccc(S(=O)(=O)[O-])cc6)c6ccc3[nH]6)C=C5)C=C4)cc2)[C@@H]1C
REMARK SMILES IDX 19 1 18 2 17 3 16 4 14 5 15 6 13 8 10 9 11 10 86 11 12 12
REMARK SMILES IDX 87 13 8 14 9 15 7 16 3 17 4 18 5 19 6 20 2 21 1 22 20 23
REMARK SMILES IDX 21 24 22 25 23 26 24 27 25 29 26 30 27 31 85 32 28 33 84 34
REMARK SMILES IDX 29 35 30 36 31 37 78 38 32 39 83 40 77 41 79 42 33 43 82 44
REMARK SMILES IDX 76 45 75 46 34 48 64 49 45 50 63 51 46 52 49 53 62 54 80 55
REMARK SMILES IDX 47 56 48 57 61 59 81 60 50 61 35 62 36 63 44 64 37 65 43 66
REMARK SMILES IDX 38 67 39 68 40 69 41 70 42 71 65 72 66 73 74 74 67 75 73 76
REMARK SMILES IDX 68 77 69 78 70 79 71 80 72 81 51 82 52 83 60 84 53 85 59 86
REMARK SMILES IDX 54 87 55 88 56 89 57 90 58 91
REMARK H PARENT 16 7 23 28 79 47 49 58
REMARK Flexibility Score: inf
ROOT
ATOM      1  C   UNL A   1      36.766  23.305  24.897  1.00  0.00     0.002 C 
ENDROOT
BRANCH   1   2
ATOM      2  C   UNL A   1      35.989  22.151  24.249  1.00  0.00     0.021 C 
BRANCH   2   3
ATOM      3  C   UNL A   1      35.261  21.243  25.241  1.00  0.00     0.116 C 
BRANCH   3   4
ATOM      4  N   UNL A   1      33.878  21.039  24.854  1.00  0.00    -0.356 N 
ATOM      5  C   UNL A   1      32.775  21.785  25.114  1.00  0.00     0.225 C 
ATOM      6  O   UNL A   1      31.680  21.353  24.750  1.00  0.00    -0.275 OA
ATOM      7  H   UNL A   1      33.714  20.231  24.317  1.00  0.00     0.163 HD
BRANCH   5   8
ATOM      8  C   UNL A   1      32.922  23.123  25.805  1.00  0.00     0.102 C 
ATOM      9  N   UNL A   1      31.534  25.026  25.619  1.00  0.00    -0.321 N 
ATOM     10  C   UNL A   1      30.828  24.097  26.478  1.00  0.00     0.122 C 
ATOM     11  C   UNL A   1      32.503  24.264  24.844  1.00  0.00     0.096 C 
ATOM     12  C   UNL A   1      31.943  23.210  26.994  1.00  0.00     0.037 C 
ATOM     13  C   UNL A   1      33.676  25.122  24.378  1.00  0.00     0.032 C 
BRANCH   9  14
ATOM     14  C   UNL A   1      30.895  26.127  25.114  1.00  0.00     0.320 C 
ATOM     15  O   UNL A   1      29.951  26.017  24.332  1.00  0.00    -0.248 OA
BRANCH  14  16
ATOM     16  N   UNL A   1      31.373  27.358  25.523  1.00  0.00    -0.322 N 
ATOM     17  C   UNL A   1      31.348  28.658  24.824  1.00  0.00     0.086 C 
ATOM     18  C   UNL A   1      32.246  29.506  25.731  1.00  0.00     0.027 C 
ATOM     19  C   UNL A   1      31.839  29.057  27.126  1.00  0.00     0.024 C 
ATOM     20  C   UNL A   1      31.501  27.581  26.956  1.00  0.00     0.122 C 
BRANCH  17  21
ATOM     21  C   UNL A   1      31.768  28.742  23.359  1.00  0.00     0.022 C 
ATOM     22  C   UNL A   1      33.272  28.726  23.128  1.00  0.00     0.006 C 
ENDBRANCH  17  21
ENDBRANCH  14  16
ENDBRANCH   9  14
ENDBRANCH   5   8
ENDBRANCH   3   4
ENDBRANCH   2   3
ENDBRANCH   1   2
BRANCH   1  23
ATOM     23  C   UNL A   1      37.958  22.885  25.762  1.00  0.00     0.002 C 
BRANCH  23  24
ATOM     24  C   UNL A   1      38.622  24.021  26.541  1.00  0.00     0.021 C 
BRANCH  24  25
ATOM     25  C   UNL A   1      40.098  23.802  26.841  1.00  0.00     0.116 C 
BRANCH  25  26
ATOM     26  N   UNL A   1      40.957  24.446  25.862  1.00  0.00    -0.352 N 
ATOM     27  C   UNL A   1      41.474  25.718  25.868  1.00  0.00     0.251 C 
ATOM     28  H   UNL A   1      41.203  23.894  25.085  1.00  0.00     0.163 HD
ATOM     29  O   UNL A   1      42.015  26.167  24.860  1.00  0.00    -0.269 OA
BRANCH  27  30
ATOM     30  C   UNL A   1      41.356  26.550  27.084  1.00  0.00     0.039 A 
ATOM     31  C   UNL A   1      42.052  27.758  27.151  1.00  0.00     0.014 A 
ATOM     32  C   UNL A   1      40.560  26.137  28.157  1.00  0.00     0.014 A 
ATOM     33  C   UNL A   1      41.906  28.579  28.271  1.00  0.00     0.010 A 
ATOM     34  C   UNL A   1      40.353  26.993  29.235  1.00  0.00     0.010 A 
ATOM     35  C   UNL A   1      41.032  28.218  29.310  1.00  0.00    -0.014 A 
BRANCH  35  36
ATOM     36  C   UNL A   1      40.825  29.100  30.487  1.00  0.00     0.031 A 
ATOM     37  C   UNL A   1      41.675  28.927  31.718  1.00  0.00     0.074 A 
ATOM     38  C   UNL A   1      39.838  30.018  30.471  1.00  0.00     0.049 A 
ATOM     39  N   UNL A   1      41.610  29.561  32.861  1.00  0.00    -0.248 NA
ATOM     40  C   UNL A   1      42.717  27.887  31.668  1.00  0.00     0.031 C 
ATOM     41  C   UNL A   1      38.922  30.260  29.353  1.00  0.00     0.029 A 
ATOM     42  N   UNL A   1      39.435  30.917  31.428  1.00  0.00    -0.354 N 
ATOM     43  C   UNL A   1      42.588  28.989  33.667  1.00  0.00     0.074 A 
ATOM     44  C   UNL A   1      43.193  27.921  32.903  1.00  0.00     0.031 C 
ATOM     45  C   UNL A   1      38.088  31.260  29.677  1.00  0.00     0.029 A 
ATOM     46  C   UNL A   1      38.375  31.700  31.038  1.00  0.00     0.049 A 
ATOM     47  H   UNL A   1      39.866  30.993  32.310  1.00  0.00     0.167 HD
ATOM     48  C   UNL A   1      42.963  29.334  34.922  1.00  0.00     0.031 A 
ATOM     49  C   UNL A   1      37.703  32.661  31.703  1.00  0.00     0.031 A 
ATOM     50  C   UNL A   1      42.363  30.404  35.675  1.00  0.00     0.049 A 
ATOM     51  C   UNL A   1      38.126  33.014  33.104  1.00  0.00     0.074 A 
ATOM     52  C   UNL A   1      42.706  30.866  36.933  1.00  0.00     0.029 A 
ATOM     53  N   UNL A   1      41.294  31.176  35.243  1.00  0.00    -0.354 N 
ATOM     54  N   UNL A   1      39.094  32.504  33.826  1.00  0.00    -0.248 NA
ATOM     55  C   UNL A   1      37.371  34.082  33.774  1.00  0.00     0.031 C 
ATOM     56  C   UNL A   1      41.806  31.876  37.288  1.00  0.00     0.029 A 
ATOM     57  C   UNL A   1      40.948  32.093  36.220  1.00  0.00     0.049 A 
ATOM     58  H   UNL A   1      40.848  31.084  34.370  1.00  0.00     0.167 HD
ATOM     59  C   UNL A   1      39.088  33.213  35.023  1.00  0.00     0.074 A 
ATOM     60  C   UNL A   1      38.028  34.195  34.921  1.00  0.00     0.031 C 
ATOM     61  C   UNL A   1      39.891  33.067  36.106  1.00  0.00     0.031 A 
BRANCH  48  62
ATOM     62  C   UNL A   1      44.071  28.539  35.564  1.00  0.00    -0.014 A 
ATOM     63  C   UNL A   1      45.422  28.878  35.365  1.00  0.00     0.010 A 
ATOM     64  C   UNL A   1      43.757  27.462  36.412  1.00  0.00     0.010 A 
ATOM     65  C   UNL A   1      46.437  28.129  35.965  1.00  0.00     0.020 A 
ATOM     66  C   UNL A   1      44.768  26.730  37.042  1.00  0.00     0.020 A 
ATOM     67  C   UNL A   1      46.103  27.057  36.800  1.00  0.00     0.054 A 
BRANCH  67  68
ATOM     68  S   UNL A   1      47.441  26.118  37.584  1.00  0.00     0.124 S 
ATOM     69  O   UNL A   1      48.179  25.622  36.424  1.00  0.00    -0.237 OA
ATOM     70  O   UNL A   1      48.126  27.137  38.375  1.00  0.00    -0.237 OA
ATOM     71  O   UNL A   1      46.741  25.097  38.359  1.00  0.00    -0.744 OA
ENDBRANCH  67  68
ENDBRANCH  48  62
BRANCH  49  72
ATOM     72  C   UNL A   1      36.567  33.366  31.047  1.00  0.00    -0.014 A 
ATOM     73  C   UNL A   1      35.345  33.538  31.721  1.00  0.00     0.010 A 
ATOM     74  C   UNL A   1      36.704  33.879  29.743  1.00  0.00     0.010 A 
ATOM     75  C   UNL A   1      34.276  34.188  31.097  1.00  0.00     0.020 A 
ATOM     76  C   UNL A   1      35.649  34.557  29.128  1.00  0.00     0.020 A 
ATOM     77  C   UNL A   1      34.436  34.696  29.805  1.00  0.00     0.054 A 
BRANCH  77  78
ATOM     78  S   UNL A   1      33.049  35.577  29.034  1.00  0.00     0.124 S 
ATOM     79  O   UNL A   1      33.730  36.669  28.345  1.00  0.00    -0.237 OA
ATOM     80  O   UNL A   1      32.464  34.551  28.174  1.00  0.00    -0.237 OA
ATOM     81  O   UNL A   1      32.222  35.973  30.172  1.00  0.00    -0.744 OA
ENDBRANCH  77  78
ENDBRANCH  49  72
BRANCH  61  82
ATOM     82  C   UNL A   1      39.688  34.017  37.257  1.00  0.00    -0.014 A 
ATOM     83  C   UNL A   1      39.027  33.618  38.432  1.00  0.00     0.010 A 
ATOM     84  C   UNL A   1      40.221  35.318  37.179  1.00  0.00     0.010 A 
ATOM     85  C   UNL A   1      38.875  34.514  39.494  1.00  0.00     0.020 A 
ATOM     86  C   UNL A   1      40.100  36.205  38.251  1.00  0.00     0.020 A 
ATOM     87  C   UNL A   1      39.414  35.801  39.398  1.00  0.00     0.054 A 
BRANCH  87  88
ATOM     88  S   UNL A   1      39.242  36.928  40.808  1.00  0.00     0.124 S 
ATOM     89  O   UNL A   1      40.629  37.092  41.236  1.00  0.00    -0.237 OA
ATOM     90  O   UNL A   1      38.629  38.107  40.201  1.00  0.00    -0.237 OA
ATOM     91  O   UNL A   1      38.386  36.196  41.738  1.00  0.00    -0.744 OA
ENDBRANCH  87  88
ENDBRANCH  61  82
ENDBRANCH  35  36
ENDBRANCH  27  30
ENDBRANCH  25  26
ENDBRANCH  24  25
ENDBRANCH  23  24
ENDBRANCH   1  23
TORSDOF 19
ENDMDL
MODEL 3
REMARK VINA RESULT:     -11.0      5.263      9.638
REMARK SMILES CC[C@@H]1CCCN1C(=O)N1CC[C@@H](C(=O)NCCCCCCNC(=O)c2ccc(-c3c4nc(c(-c5ccc(S(=O)(=O)[O-])cc5)c5ccc([nH]5)c(-c5ccc(S(=O)(=O)[O-])cc5)c5nc(c(-c6ccc(S(=O)(=O)[O-])cc6)c6ccc3[nH]6)C=C5)C=C4)cc2)[C@@H]1C
REMARK SMILES IDX 19 1 18 2 17 3 16 4 14 5 15 6 13 8 10 9 11 10 86 11 12 12
REMARK SMILES IDX 87 13 8 14 9 15 7 16 3 17 4 18 5 19 6 20 2 21 1 22 20 23
REMARK SMILES IDX 21 24 22 25 23 26 24 27 25 29 26 30 27 31 85 32 28 33 84 34
REMARK SMILES IDX 29 35 30 36 31 37 78 38 32 39 83 40 77 41 79 42 33 43 82 44
REMARK SMILES IDX 76 45 75 46 34 48 64 49 45 50 63 51 46 52 49 53 62 54 80 55
REMARK SMILES IDX 47 56 48 57 61 59 81 60 50 61 35 62 36 63 44 64 37 65 43 66
REMARK SMILES IDX 38 67 39 68 40 69 41 70 42 71 65 72 66 73 74 74 67 75 73 76
REMARK SMILES IDX 68 77 69 78 70 79 71 80 72 81 51 82 52 83 60 84 53 85 59 86
REMARK SMILES IDX 54 87 55 88 56 89 57 90 58 91
REMARK H PARENT 16 7 23 28 79 47 49 58
REMARK Flexibility Score: inf
ROOT
ATOM      1  C   UNL A   1      32.617  28.469  23.305  1.00  0.00     0.002 C 
ENDROOT
BRANCH   1   2
ATOM      2  C   UNL A   1      31.183  27.987  23.050  1.00  0.00     0.021 C 
BRANCH   2   3
ATOM      3  C   UNL A   1      31.085  26.599  22.416  1.00  0.00     0.116 C 
BRANCH   3   4
ATOM      4  N   UNL A   1      32.398  26.056  22.126  1.00  0.00    -0.356 N 
ATOM      5  C   UNL A   1      33.127  25.124  22.790  1.00  0.00     0.225 C 
ATOM      6  O   UNL A   1      34.271  24.890  22.395  1.00  0.00    -0.275 OA
ATOM      7  H   UNL A   1      32.828  26.422  21.320  1.00  0.00     0.163 HD
BRANCH   5   8
ATOM      8  C   UNL A   1      32.513  24.384  23.958  1.00  0.00     0.102 C 
ATOM      9  N   UNL A   1      33.609  23.143  25.643  1.00  0.00    -0.321 N 
ATOM     10  C   UNL A   1      33.801  24.538  25.983  1.00  0.00     0.122 C 
ATOM     11  C   UNL A   1      33.293  23.072  24.223  1.00  0.00     0.096 C 
ATOM     12  C   UNL A   1      32.666  25.219  25.246  1.00  0.00     0.037 C 
ATOM     13  C   UNL A   1      32.503  21.817  23.868  1.00  0.00     0.032 C 
BRANCH   9  14
ATOM     14  C   UNL A   1      34.325  22.167  26.284  1.00  0.00     0.320 C 
ATOM     15  O   UNL A   1      33.916  21.651  27.323  1.00  0.00    -0.248 OA
BRANCH  14  16
ATOM     16  N   UNL A   1      35.528  21.806  25.706  1.00  0.00    -0.322 N 
ATOM     17  C   UNL A   1      36.888  22.317  25.964  1.00  0.00     0.086 C 
ATOM     18  C   UNL A   1      37.678  21.663  24.825  1.00  0.00     0.027 C 
ATOM     19  C   UNL A   1      37.078  20.267  24.756  1.00  0.00     0.024 C 
ATOM     20  C   UNL A   1      35.614  20.474  25.122  1.00  0.00     0.122 C 
BRANCH  17  21
ATOM     21  C   UNL A   1      37.133  23.822  26.042  1.00  0.00     0.022 C 
ATOM     22  C   UNL A   1      38.449  24.216  26.698  1.00  0.00     0.006 C 
ENDBRANCH  17  21
ENDBRANCH  14  16
ENDBRANCH   9  14
ENDBRANCH   5   8
ENDBRANCH   3   4
ENDBRANCH   2   3
ENDBRANCH   1   2
BRANCH   1  23
ATOM     23  C   UNL A   1      32.831  29.212  24.627  1.00  0.00     0.002 C 
BRANCH  23  24
ATOM     24  C   UNL A   1      33.792  28.529  25.603  1.00  0.00     0.021 C 
BRANCH  24  25
ATOM     25  C   UNL A   1      33.630  28.962  27.053  1.00  0.00     0.116 C 
BRANCH  25  26
ATOM     26  N   UNL A   1      33.524  30.406  27.184  1.00  0.00    -0.352 N 
ATOM     27  C   UNL A   1      34.327  31.272  27.884  1.00  0.00     0.251 C 
ATOM     28  H   UNL A   1      32.771  30.820  26.704  1.00  0.00     0.163 HD
ATOM     29  O   UNL A   1      33.974  32.437  28.053  1.00  0.00    -0.269 OA
BRANCH  27  30
ATOM     30  C   UNL A   1      35.605  30.791  28.449  1.00  0.00     0.039 A 
ATOM     31  C   UNL A   1      36.794  31.417  28.071  1.00  0.00     0.014 A 
ATOM     32  C   UNL A   1      35.629  29.724  29.352  1.00  0.00     0.014 A 
ATOM     33  C   UNL A   1      38.002  31.008  28.639  1.00  0.00     0.010 A 
ATOM     34  C   UNL A   1      36.822  29.372  29.977  1.00  0.00     0.010 A 
ATOM     35  C   UNL A   1      38.024  30.003  29.620  1.00  0.00    -0.014 A 
BRANCH  35  36
ATOM     36  C   UNL A   1      39.292  29.587  30.273  1.00  0.00     0.031 A 
ATOM     37  C   UNL A   1      39.795  30.327  31.483  1.00  0.00     0.074 A 
ATOM     38  C   UNL A   1      40.018  28.580  29.745  1.00  0.00     0.049 A 
ATOM     39  N   UNL A   1      40.902  30.149  32.158  1.00  0.00    -0.248 NA
ATOM     40  C   UNL A   1      38.958  31.429  31.987  1.00  0.00     0.031 C 
ATOM     41  C   UNL A   1      39.657  27.807  28.554  1.00  0.00     0.029 A 
ATOM     42  N   UNL A   1      41.215  28.038  30.142  1.00  0.00    -0.354 N 
ATOM     43  C   UNL A   1      40.900  31.122  33.151  1.00  0.00     0.074 A 
ATOM     44  C   UNL A   1      39.712  31.922  32.957  1.00  0.00     0.031 C 
ATOM     45  C   UNL A   1      40.596  26.873  28.336  1.00  0.00     0.029 A 
ATOM     46  C   UNL A   1      41.647  27.008  29.339  1.00  0.00     0.049 A 
ATOM     47  H   UNL A   1      41.717  28.356  30.926  1.00  0.00     0.167 HD
ATOM     48  C   UNL A   1      41.796  31.319  34.148  1.00  0.00     0.031 A 
ATOM     49  C   UNL A   1      42.766  26.259  29.399  1.00  0.00     0.031 A 
ATOM     50  C   UNL A   1      42.973  30.514  34.342  1.00  0.00     0.049 A 
ATOM     51  C   UNL A   1      43.756  26.510  30.504  1.00  0.00     0.074 A 
ATOM     52  C   UNL A   1      43.916  30.600  35.352  1.00  0.00     0.029 A 
ATOM     53  N   UNL A   1      43.372  29.478  33.510  1.00  0.00    -0.354 N 
ATOM     54  N   UNL A   1      43.707  27.394  31.471  1.00  0.00    -0.248 NA
ATOM     55  C   UNL A   1      44.949  25.653  30.533  1.00  0.00     0.031 C 
ATOM     56  C   UNL A   1      44.917  29.658  35.096  1.00  0.00     0.029 A 
ATOM     57  C   UNL A   1      44.561  28.936  33.968  1.00  0.00     0.049 A 
ATOM     58  H   UNL A   1      42.883  29.175  32.712  1.00  0.00     0.167 HD
ATOM     59  C   UNL A   1      44.842  27.176  32.243  1.00  0.00     0.074 A 
ATOM     60  C   UNL A   1      45.553  26.069  31.638  1.00  0.00     0.031 C 
ATOM     61  C   UNL A   1      45.257  27.831  33.356  1.00  0.00     0.031 A 
BRANCH  48  62
ATOM     62  C   UNL A   1      41.541  32.459  35.101  1.00  0.00    -0.014 A 
ATOM     63  C   UNL A   1      40.821  32.264  36.294  1.00  0.00     0.010 A 
ATOM     64  C   UNL A   1      42.064  33.734  34.821  1.00  0.00     0.010 A 
ATOM     65  C   UNL A   1      40.592  33.332  37.166  1.00  0.00     0.020 A 
ATOM     66  C   UNL A   1      41.865  34.798  35.706  1.00  0.00     0.020 A 
ATOM     67  C   UNL A   1      41.114  34.594  36.865  1.00  0.00     0.054 A 
BRANCH  67  68
ATOM     68  S   UNL A   1      40.820  35.955  38.026  1.00  0.00     0.124 S 
ATOM     69  O   UNL A   1      42.142  36.572  38.107  1.00  0.00    -0.237 OA
ATOM     70  O   UNL A   1      39.800  36.744  37.341  1.00  0.00    -0.237 OA
ATOM     71  O   UNL A   1      40.372  35.283  39.243  1.00  0.00    -0.744 OA
ENDBRANCH  67  68
ENDBRANCH  48  62
BRANCH  49  72
ATOM     72  C   UNL A   1      43.004  25.193  28.386  1.00  0.00    -0.014 A 
ATOM     73  C   UNL A   1      43.777  25.452  27.241  1.00  0.00     0.010 A 
ATOM     74  C   UNL A   1      42.464  23.905  28.568  1.00  0.00     0.010 A 
ATOM     75  C   UNL A   1      43.987  24.453  26.286  1.00  0.00     0.020 A 
ATOM     76  C   UNL A   1      42.699  22.896  27.631  1.00  0.00     0.020 A 
ATOM     77  C   UNL A   1      43.449  23.180  26.488  1.00  0.00     0.054 A 
BRANCH  77  78
ATOM     78  S   UNL A   1      43.775  21.887  25.258  1.00  0.00     0.124 S 
ATOM     79  O   UNL A   1      43.630  22.618  24.003  1.00  0.00    -0.237 OA
ATOM     80  O   UNL A   1      45.133  21.468  25.595  1.00  0.00    -0.237 OA
ATOM     81  O   UNL A   1      42.738  20.892  25.526  1.00  0.00    -0.744 OA
ENDBRANCH  77  78
ENDBRANCH  49  72
BRANCH  61  82
ATOM     82  C   UNL A   1      46.517  27.344  34.023  1.00  0.00    -0.014 A 
ATOM     83  C   UNL A   1      47.765  27.931  33.756  1.00  0.00     0.010 A 
ATOM     84  C   UNL A   1      46.436  26.313  34.979  1.00  0.00     0.010 A 
ATOM     85  C   UNL A   1      48.914  27.474  34.408  1.00  0.00     0.020 A 
ATOM     86  C   UNL A   1      47.576  25.876  35.656  1.00  0.00     0.020 A 
ATOM     87  C   UNL A   1      48.813  26.451  35.355  1.00  0.00     0.054 A 
BRANCH  87  88
ATOM     88  S   UNL A   1      50.311  25.909  36.220  1.00  0.00     0.124 S 
ATOM     89  O   UNL A   1      51.209  25.604  35.110  1.00  0.00    -0.237 OA
ATOM     90  O   UNL A   1      50.667  27.084  37.011  1.00  0.00    -0.237 OA
ATOM     91  O   UNL A   1      49.867  24.753  36.996  1.00  0.00    -0.744 OA
ENDBRANCH  87  88
ENDBRANCH  61  82
ENDBRANCH  35  36
ENDBRANCH  27  30
ENDBRANCH  25  26
ENDBRANCH  24  25
ENDBRANCH  23  24
ENDBRANCH   1  23
TORSDOF 19
ENDMDL
