MODEL 1
REMARK VINA RESULT:      -9.7      0.000      0.000
REMARK SMILES O=C(/C=C/c1cccs1)NCC(=O)NCCCCCCNC(=O)c1ccc(-c2c3nc(c(-c4ccc(S(=O)(=O)[O-])cc4)c4ccc([nH]4)c(-c4ccc(S(=O)(=O)[O-])cc4)c4nc(c(-c5ccc(S(=O)(=O)[O-])cc5)c5ccc2[nH]5)C=C4)C=C3)cc1
REMARK SMILES IDX 17 1 16 2 15 3 14 4 12 5 13 6 11 8 10 9 1 10 2 11 3 13 4 14
REMARK SMILES IDX 5 15 6 16 9 17 7 18 8 19 18 20 19 21 20 22 21 23 22 24 23 26
REMARK SMILES IDX 24 27 25 28 83 29 26 30 82 31 27 32 28 33 29 34 76 35 30 36
REMARK SMILES IDX 81 37 75 38 77 39 31 40 80 41 74 42 73 43 32 45 62 46 43 47
REMARK SMILES IDX 61 48 44 49 47 50 60 51 78 52 45 53 46 54 59 56 79 57 48 58
REMARK SMILES IDX 33 59 34 60 42 61 35 62 41 63 36 64 37 65 38 66 39 67 40 68
REMARK SMILES IDX 63 69 64 70 72 71 65 72 71 73 66 74 67 75 68 76 69 77 70 78
REMARK SMILES IDX 49 79 50 80 58 81 51 82 57 83 52 84 53 85 54 86 55 87 56 88
REMARK H PARENT 14 7 10 12 21 25 77 44 47 55
REMARK Flexibility Score: inf
ROOT
ATOM      1  C   UNL A   1      45.049  23.878  24.624  1.00  0.00     0.002 C 
ENDROOT
BRANCH   1   2
ATOM      2  C   UNL A   1      45.864  22.646  25.043  1.00  0.00     0.021 C 
BRANCH   2   3
ATOM      3  C   UNL A   1      45.032  21.571  25.742  1.00  0.00     0.116 C 
BRANCH   3   4
ATOM      4  N   UNL A   1      44.262  22.144  26.830  1.00  0.00    -0.355 N 
ATOM      5  C   UNL A   1      42.945  21.958  27.136  1.00  0.00     0.239 C 
ATOM      6  O   UNL A   1      42.469  22.575  28.090  1.00  0.00    -0.273 OA
ATOM      7  H   UNL A   1      44.756  22.750  27.428  1.00  0.00     0.163 HD
BRANCH   5   8
ATOM      8  C   UNL A   1      42.110  20.955  26.340  1.00  0.00     0.216 C 
BRANCH   8   9
ATOM      9  N   UNL A   1      40.806  21.483  25.964  1.00  0.00    -0.343 N 
ATOM     10  O   UNL A   1      39.855  19.426  25.667  1.00  0.00    -0.270 OA
ATOM     11  C   UNL A   1      39.769  20.650  25.651  1.00  0.00     0.244 C 
ATOM     12  H   UNL A   1      40.670  22.457  25.935  1.00  0.00     0.164 HD
BRANCH  11  13
ATOM     13  C   UNL A   1      38.477  21.270  25.270  1.00  0.00     0.072 C 
ATOM     14  C   UNL A   1      37.276  20.678  25.205  1.00  0.00     0.024 C 
BRANCH  14  15
ATOM     15  C   UNL A   1      36.121  21.413  24.804  1.00  0.00     0.027 A 
ATOM     16  C   UNL A   1      35.988  22.454  23.899  1.00  0.00     0.020 A 
ATOM     17  S   UNL A   1      34.586  21.008  25.476  1.00  0.00    -0.144 S 
ATOM     18  C   UNL A   1      34.649  22.928  23.780  1.00  0.00     0.012 A 
ATOM     19  C   UNL A   1      33.787  22.234  24.597  1.00  0.00     0.065 A 
ENDBRANCH  14  15
ENDBRANCH  11  13
ENDBRANCH   8   9
ENDBRANCH   5   8
ENDBRANCH   3   4
ENDBRANCH   2   3
ENDBRANCH   1   2
BRANCH   1  20
ATOM     20  C   UNL A   1      45.362  25.157  25.410  1.00  0.00     0.002 C 
BRANCH  20  21
ATOM     21  C   UNL A   1      44.215  25.672  26.283  1.00  0.00     0.021 C 
BRANCH  21  22
ATOM     22  C   UNL A   1      43.038  26.246  25.503  1.00  0.00     0.116 C 
BRANCH  22  23
ATOM     23  N   UNL A   1      41.915  25.321  25.456  1.00  0.00    -0.352 N 
ATOM     24  C   UNL A   1      40.873  25.179  26.337  1.00  0.00     0.251 C 
ATOM     25  H   UNL A   1      41.901  24.712  24.683  1.00  0.00     0.163 HD
ATOM     26  O   UNL A   1      40.128  24.205  26.255  1.00  0.00    -0.269 OA
BRANCH  24  27
ATOM     27  C   UNL A   1      40.661  26.190  27.395  1.00  0.00     0.039 A 
ATOM     28  C   UNL A   1      39.833  25.881  28.475  1.00  0.00     0.014 A 
ATOM     29  C   UNL A   1      41.282  27.441  27.318  1.00  0.00     0.014 A 
ATOM     30  C   UNL A   1      39.674  26.804  29.510  1.00  0.00     0.010 A 
ATOM     31  C   UNL A   1      41.184  28.328  28.386  1.00  0.00     0.010 A 
ATOM     32  C   UNL A   1      40.376  28.022  29.492  1.00  0.00    -0.014 A 
BRANCH  32  33
ATOM     33  C   UNL A   1      40.282  28.983  30.621  1.00  0.00     0.031 A 
ATOM     34  C   UNL A   1      41.158  28.816  31.834  1.00  0.00     0.074 A 
ATOM     35  C   UNL A   1      39.366  29.971  30.580  1.00  0.00     0.049 A 
ATOM     36  N   UNL A   1      41.182  29.521  32.935  1.00  0.00    -0.248 NA
ATOM     37  C   UNL A   1      42.115  27.697  31.817  1.00  0.00     0.031 C 
ATOM     38  C   UNL A   1      38.430  30.215  29.478  1.00  0.00     0.029 A 
ATOM     39  N   UNL A   1      39.063  30.951  31.492  1.00  0.00    -0.354 N 
ATOM     40  C   UNL A   1      42.141  28.923  33.747  1.00  0.00     0.074 A 
ATOM     41  C   UNL A   1      42.638  27.769  33.032  1.00  0.00     0.031 C 
ATOM     42  C   UNL A   1      37.681  31.291  29.766  1.00  0.00     0.029 A 
ATOM     43  C   UNL A   1      38.046  31.786  31.090  1.00  0.00     0.049 A 
ATOM     44  H   UNL A   1      39.530  31.049  32.352  1.00  0.00     0.167 HD
ATOM     45  C   UNL A   1      42.579  29.311  34.968  1.00  0.00     0.031 A 
ATOM     46  C   UNL A   1      37.464  32.827  31.718  1.00  0.00     0.031 A 
ATOM     47  C   UNL A   1      42.084  30.465  35.672  1.00  0.00     0.049 A 
ATOM     48  C   UNL A   1      37.956  33.227  33.082  1.00  0.00     0.074 A 
ATOM     49  C   UNL A   1      42.504  30.973  36.889  1.00  0.00     0.029 A 
ATOM     50  N   UNL A   1      41.058  31.286  35.229  1.00  0.00    -0.354 N 
ATOM     51  N   UNL A   1      38.913  32.691  33.803  1.00  0.00    -0.248 NA
ATOM     52  C   UNL A   1      37.300  34.380  33.713  1.00  0.00     0.031 C 
ATOM     53  C   UNL A   1      41.689  32.064  37.211  1.00  0.00     0.029 A 
ATOM     54  C   UNL A   1      40.811  32.280  36.161  1.00  0.00     0.049 A 
ATOM     55  H   UNL A   1      40.578  31.178  34.376  1.00  0.00     0.167 HD
ATOM     56  C   UNL A   1      38.994  33.462  34.958  1.00  0.00     0.074 A 
ATOM     57  C   UNL A   1      38.000  34.508  34.832  1.00  0.00     0.031 C 
ATOM     58  C   UNL A   1      39.820  33.317  36.024  1.00  0.00     0.031 A 
BRANCH  45  59
ATOM     59  C   UNL A   1      43.644  28.473  35.629  1.00  0.00    -0.014 A 
ATOM     60  C   UNL A   1      45.010  28.767  35.467  1.00  0.00     0.010 A 
ATOM     61  C   UNL A   1      43.271  27.403  36.464  1.00  0.00     0.010 A 
ATOM     62  C   UNL A   1      45.983  27.985  36.094  1.00  0.00     0.020 A 
ATOM     63  C   UNL A   1      44.240  26.638  37.120  1.00  0.00     0.020 A 
ATOM     64  C   UNL A   1      45.591  26.924  36.917  1.00  0.00     0.054 A 
BRANCH  64  65
ATOM     65  S   UNL A   1      46.876  25.943  37.740  1.00  0.00     0.124 S 
ATOM     66  O   UNL A   1      47.821  25.710  36.650  1.00  0.00    -0.237 OA
ATOM     67  O   UNL A   1      47.340  26.843  38.791  1.00  0.00    -0.237 OA
ATOM     68  O   UNL A   1      46.162  24.757  38.208  1.00  0.00    -0.744 OA
ENDBRANCH  64  65
ENDBRANCH  45  59
BRANCH  46  69
ATOM     69  C   UNL A   1      36.353  33.568  31.057  1.00  0.00    -0.014 A 
ATOM     70  C   UNL A   1      36.493  34.047  29.744  1.00  0.00     0.010 A 
ATOM     71  C   UNL A   1      35.142  33.789  31.739  1.00  0.00     0.010 A 
ATOM     72  C   UNL A   1      35.452  34.754  29.132  1.00  0.00     0.020 A 
ATOM     73  C   UNL A   1      34.088  34.466  31.119  1.00  0.00     0.020 A 
ATOM     74  C   UNL A   1      34.255  34.956  29.823  1.00  0.00     0.054 A 
BRANCH  74  75
ATOM     75  S   UNL A   1      32.902  35.834  28.992  1.00  0.00     0.124 S 
ATOM     76  O   UNL A   1      32.051  36.212  30.115  1.00  0.00    -0.237 OA
ATOM     77  O   UNL A   1      33.601  36.932  28.329  1.00  0.00    -0.237 OA
ATOM     78  O   UNL A   1      32.343  34.828  28.092  1.00  0.00    -0.744 OA
ENDBRANCH  74  75
ENDBRANCH  46  69
BRANCH  58  79
ATOM     79  C   UNL A   1      39.719  34.339  37.127  1.00  0.00    -0.014 A 
ATOM     80  C   UNL A   1      38.946  34.103  38.277  1.00  0.00     0.010 A 
ATOM     81  C   UNL A   1      40.462  35.530  37.032  1.00  0.00     0.010 A 
ATOM     82  C   UNL A   1      38.894  35.056  39.300  1.00  0.00     0.020 A 
ATOM     83  C   UNL A   1      40.438  36.469  38.067  1.00  0.00     0.020 A 
ATOM     84  C   UNL A   1      39.643  36.232  39.188  1.00  0.00     0.054 A 
BRANCH  84  85
ATOM     85  S   UNL A   1      39.595  37.428  40.551  1.00  0.00     0.124 S 
ATOM     86  O   UNL A   1      40.912  38.050  40.456  1.00  0.00    -0.237 OA
ATOM     87  O   UNL A   1      38.468  38.282  40.186  1.00  0.00    -0.237 OA
ATOM     88  O   UNL A   1      39.382  36.597  41.734  1.00  0.00    -0.744 OA
ENDBRANCH  84  85
ENDBRANCH  58  79
ENDBRANCH  32  33
ENDBRANCH  24  27
ENDBRANCH  22  23
ENDBRANCH  21  22
ENDBRANCH  20  21
ENDBRANCH   1  20
TORSDOF 19
ENDMDL
MODEL 2
REMARK VINA RESULT:      -9.4      2.582      3.885
REMARK SMILES O=C(/C=C/c1cccs1)NCC(=O)NCCCCCCNC(=O)c1ccc(-c2c3nc(c(-c4ccc(S(=O)(=O)[O-])cc4)c4ccc([nH]4)c(-c4ccc(S(=O)(=O)[O-])cc4)c4nc(c(-c5ccc(S(=O)(=O)[O-])cc5)c5ccc2[nH]5)C=C4)C=C3)cc1
REMARK SMILES IDX 17 1 16 2 15 3 14 4 12 5 13 6 11 8 10 9 1 10 2 11 3 13 4 14
REMARK SMILES IDX 5 15 6 16 9 17 7 18 8 19 18 20 19 21 20 22 21 23 22 24 23 26
REMARK SMILES IDX 24 27 25 28 83 29 26 30 82 31 27 32 28 33 29 34 76 35 30 36
REMARK SMILES IDX 81 37 75 38 77 39 31 40 80 41 74 42 73 43 32 45 62 46 43 47
REMARK SMILES IDX 61 48 44 49 47 50 60 51 78 52 45 53 46 54 59 56 79 57 48 58
REMARK SMILES IDX 33 59 34 60 42 61 35 62 41 63 36 64 37 65 38 66 39 67 40 68
REMARK SMILES IDX 63 69 64 70 72 71 65 72 71 73 66 74 67 75 68 76 69 77 70 78
REMARK SMILES IDX 49 79 50 80 58 81 51 82 57 83 52 84 53 85 54 86 55 87 56 88
REMARK H PARENT 14 7 10 12 21 25 77 44 47 55
REMARK Flexibility Score: inf
ROOT
ATOM      1  C   UNL A   1      38.757  23.364  26.489  1.00  0.00     0.002 C 
ENDROOT
BRANCH   1   2
ATOM      2  C   UNL A   1      38.337  22.054  25.806  1.00  0.00     0.021 C 
BRANCH   2   3
ATOM      3  C   UNL A   1      36.882  22.047  25.340  1.00  0.00     0.116 C 
BRANCH   3   4
ATOM      4  N   UNL A   1      35.989  21.772  26.449  1.00  0.00    -0.355 N 
ATOM      5  C   UNL A   1      34.640  21.564  26.430  1.00  0.00     0.239 C 
ATOM      6  O   UNL A   1      34.056  21.382  27.500  1.00  0.00    -0.273 OA
ATOM      7  H   UNL A   1      36.412  21.729  27.336  1.00  0.00     0.163 HD
BRANCH   5   8
ATOM      8  C   UNL A   1      33.895  21.501  25.096  1.00  0.00     0.216 C 
BRANCH   8   9
ATOM      9  N   UNL A   1      33.388  22.798  24.673  1.00  0.00    -0.343 N 
ATOM     10  O   UNL A   1      31.225  22.348  25.257  1.00  0.00    -0.270 OA
ATOM     11  C   UNL A   1      32.064  23.114  24.793  1.00  0.00     0.244 C 
ATOM     12  H   UNL A   1      34.011  23.459  24.295  1.00  0.00     0.164 HD
BRANCH  11  13
ATOM     13  C   UNL A   1      31.630  24.453  24.329  1.00  0.00     0.072 C 
ATOM     14  C   UNL A   1      30.402  24.822  23.937  1.00  0.00     0.024 C 
BRANCH  14  15
ATOM     15  C   UNL A   1      30.145  26.157  23.502  1.00  0.00     0.027 A 
ATOM     16  C   UNL A   1      29.051  26.979  23.725  1.00  0.00     0.020 A 
ATOM     17  S   UNL A   1      31.328  26.982  22.559  1.00  0.00    -0.144 S 
ATOM     18  C   UNL A   1      29.174  28.258  23.109  1.00  0.00     0.012 A 
ATOM     19  C   UNL A   1      30.362  28.384  22.428  1.00  0.00     0.065 A 
ENDBRANCH  14  15
ENDBRANCH  11  13
ENDBRANCH   8   9
ENDBRANCH   5   8
ENDBRANCH   3   4
ENDBRANCH   2   3
ENDBRANCH   1   2
BRANCH   1  20
ATOM     20  C   UNL A   1      39.847  23.214  27.558  1.00  0.00     0.002 C 
BRANCH  20  21
ATOM     21  C   UNL A   1      41.233  22.857  27.017  1.00  0.00     0.021 C 
BRANCH  21  22
ATOM     22  C   UNL A   1      42.289  23.937  27.228  1.00  0.00     0.116 C 
BRANCH  22  23
ATOM     23  N   UNL A   1      42.504  24.727  26.024  1.00  0.00    -0.352 N 
ATOM     24  C   UNL A   1      42.244  26.056  25.803  1.00  0.00     0.251 C 
ATOM     25  H   UNL A   1      42.891  24.239  25.262  1.00  0.00     0.163 HD
ATOM     26  O   UNL A   1      42.289  26.508  24.661  1.00  0.00    -0.269 OA
BRANCH  24  27
ATOM     27  C   UNL A   1      41.891  26.935  26.938  1.00  0.00     0.039 A 
ATOM     28  C   UNL A   1      40.905  26.523  27.836  1.00  0.00     0.014 A 
ATOM     29  C   UNL A   1      42.536  28.164  27.113  1.00  0.00     0.014 A 
ATOM     30  C   UNL A   1      40.607  27.317  28.945  1.00  0.00     0.010 A 
ATOM     31  C   UNL A   1      42.292  28.915  28.259  1.00  0.00     0.010 A 
ATOM     32  C   UNL A   1      41.323  28.503  29.186  1.00  0.00    -0.014 A 
BRANCH  32  33
ATOM     33  C   UNL A   1      41.075  29.320  30.401  1.00  0.00     0.031 A 
ATOM     34  C   UNL A   1      41.907  29.111  31.638  1.00  0.00     0.074 A 
ATOM     35  C   UNL A   1      40.061  30.209  30.412  1.00  0.00     0.049 A 
ATOM     36  N   UNL A   1      41.806  29.689  32.807  1.00  0.00    -0.248 NA
ATOM     37  C   UNL A   1      42.978  28.103  31.560  1.00  0.00     0.031 C 
ATOM     38  C   UNL A   1      39.156  30.475  29.290  1.00  0.00     0.029 A 
ATOM     39  N   UNL A   1      39.614  31.047  31.403  1.00  0.00    -0.354 N 
ATOM     40  C   UNL A   1      42.785  29.107  33.605  1.00  0.00     0.074 A 
ATOM     41  C   UNL A   1      43.435  28.095  32.804  1.00  0.00     0.031 C 
ATOM     42  C   UNL A   1      38.284  31.431  29.645  1.00  0.00     0.029 A 
ATOM     43  C   UNL A   1      38.533  31.814  31.032  1.00  0.00     0.049 A 
ATOM     44  H   UNL A   1      40.029  31.097  32.293  1.00  0.00     0.167 HD
ATOM     45  C   UNL A   1      43.122  29.400  34.883  1.00  0.00     0.031 A 
ATOM     46  C   UNL A   1      37.815  32.714  31.731  1.00  0.00     0.031 A 
ATOM     47  C   UNL A   1      42.475  30.414  35.674  1.00  0.00     0.049 A 
ATOM     48  C   UNL A   1      38.199  33.011  33.155  1.00  0.00     0.074 A 
ATOM     49  C   UNL A   1      42.782  30.826  36.960  1.00  0.00     0.029 A 
ATOM     50  N   UNL A   1      41.389  31.171  35.261  1.00  0.00    -0.354 N 
ATOM     51  N   UNL A   1      39.173  32.499  33.870  1.00  0.00    -0.248 NA
ATOM     52  C   UNL A   1      37.395  34.016  33.864  1.00  0.00     0.031 C 
ATOM     53  C   UNL A   1      41.842  31.787  37.346  1.00  0.00     0.029 A 
ATOM     54  C   UNL A   1      40.995  32.027  36.276  1.00  0.00     0.049 A 
ATOM     55  H   UNL A   1      40.962  31.109  34.376  1.00  0.00     0.167 HD
ATOM     56  C   UNL A   1      39.118  33.143  35.101  1.00  0.00     0.074 A 
ATOM     57  C   UNL A   1      38.026  34.090  35.028  1.00  0.00     0.031 C 
ATOM     58  C   UNL A   1      39.905  32.967  36.191  1.00  0.00     0.031 A 
BRANCH  45  59
ATOM     59  C   UNL A   1      44.240  28.607  35.513  1.00  0.00    -0.014 A 
ATOM     60  C   UNL A   1      43.982  27.423  36.227  1.00  0.00     0.010 A 
ATOM     61  C   UNL A   1      45.572  29.027  35.346  1.00  0.00     0.010 A 
ATOM     62  C   UNL A   1      45.031  26.696  36.797  1.00  0.00     0.020 A 
ATOM     63  C   UNL A   1      46.627  28.286  35.886  1.00  0.00     0.020 A 
ATOM     64  C   UNL A   1      46.348  27.133  36.622  1.00  0.00     0.054 A 
BRANCH  64  65
ATOM     65  S   UNL A   1      47.691  26.155  37.350  1.00  0.00     0.124 S 
ATOM     66  O   UNL A   1      47.047  25.595  38.536  1.00  0.00    -0.237 OA
ATOM     67  O   UNL A   1      47.996  25.196  36.291  1.00  0.00    -0.237 OA
ATOM     68  O   UNL A   1      48.735  27.141  37.616  1.00  0.00    -0.744 OA
ENDBRANCH  64  65
ENDBRANCH  45  59
BRANCH  46  69
ATOM     69  C   UNL A   1      36.662  33.407  31.089  1.00  0.00    -0.014 A 
ATOM     70  C   UNL A   1      36.720  33.794  29.739  1.00  0.00     0.010 A 
ATOM     71  C   UNL A   1      35.494  33.674  31.826  1.00  0.00     0.010 A 
ATOM     72  C   UNL A   1      35.641  34.455  29.144  1.00  0.00     0.020 A 
ATOM     73  C   UNL A   1      34.401  34.306  31.225  1.00  0.00     0.020 A 
ATOM     74  C   UNL A   1      34.487  34.705  29.891  1.00  0.00     0.054 A 
BRANCH  74  75
ATOM     75  S   UNL A   1      33.082  35.522  29.084  1.00  0.00     0.124 S 
ATOM     76  O   UNL A   1      32.251  35.892  30.225  1.00  0.00    -0.237 OA
ATOM     77  O   UNL A   1      33.725  36.630  28.382  1.00  0.00    -0.237 OA
ATOM     78  O   UNL A   1      32.532  34.482  28.218  1.00  0.00    -0.744 OA
ENDBRANCH  74  75
ENDBRANCH  46  69
BRANCH  58  79
ATOM     79  C   UNL A   1      39.646  33.846  37.387  1.00  0.00    -0.014 A 
ATOM     80  C   UNL A   1      38.793  33.438  38.427  1.00  0.00     0.010 A 
ATOM     81  C   UNL A   1      40.318  35.077  37.496  1.00  0.00     0.010 A 
ATOM     82  C   UNL A   1      38.592  34.260  39.540  1.00  0.00     0.020 A 
ATOM     83  C   UNL A   1      40.146  35.887  38.622  1.00  0.00     0.020 A 
ATOM     84  C   UNL A   1      39.273  35.479  39.631  1.00  0.00     0.054 A 
BRANCH  84  85
ATOM     85  S   UNL A   1      39.033  36.503  41.108  1.00  0.00     0.124 S 
ATOM     86  O   UNL A   1      38.584  37.767  40.532  1.00  0.00    -0.237 OA
ATOM     87  O   UNL A   1      38.022  35.757  41.853  1.00  0.00    -0.237 OA
ATOM     88  O   UNL A   1      40.356  36.535  41.727  1.00  0.00    -0.744 OA
ENDBRANCH  84  85
ENDBRANCH  58  79
ENDBRANCH  32  33
ENDBRANCH  24  27
ENDBRANCH  22  23
ENDBRANCH  21  22
ENDBRANCH  20  21
ENDBRANCH   1  20
TORSDOF 19
ENDMDL
MODEL 3
REMARK VINA RESULT:      -9.3      7.391     12.776
REMARK SMILES O=C(/C=C/c1cccs1)NCC(=O)NCCCCCCNC(=O)c1ccc(-c2c3nc(c(-c4ccc(S(=O)(=O)[O-])cc4)c4ccc([nH]4)c(-c4ccc(S(=O)(=O)[O-])cc4)c4nc(c(-c5ccc(S(=O)(=O)[O-])cc5)c5ccc2[nH]5)C=C4)C=C3)cc1
REMARK SMILES IDX 17 1 16 2 15 3 14 4 12 5 13 6 11 8 10 9 1 10 2 11 3 13 4 14
REMARK SMILES IDX 5 15 6 16 9 17 7 18 8 19 18 20 19 21 20 22 21 23 22 24 23 26
REMARK SMILES IDX 24 27 25 28 83 29 26 30 82 31 27 32 28 33 29 34 76 35 30 36
REMARK SMILES IDX 81 37 75 38 77 39 31 40 80 41 74 42 73 43 32 45 62 46 43 47
REMARK SMILES IDX 61 48 44 49 47 50 60 51 78 52 45 53 46 54 59 56 79 57 48 58
REMARK SMILES IDX 33 59 34 60 42 61 35 62 41 63 36 64 37 65 38 66 39 67 40 68
REMARK SMILES IDX 63 69 64 70 72 71 65 72 71 73 66 74 67 75 68 76 69 77 70 78
REMARK SMILES IDX 49 79 50 80 58 81 51 82 57 83 52 84 53 85 54 86 55 87 56 88
REMARK H PARENT 14 7 10 12 21 25 77 44 47 55
REMARK Flexibility Score: inf
ROOT
ATOM      1  C   UNL A   1      35.535  34.292  32.907  1.00  0.00     0.002 C 
ENDROOT
BRANCH   1   2
ATOM      2  C   UNL A   1      34.568  33.365  32.156  1.00  0.00     0.021 C 
BRANCH   2   3
ATOM      3  C   UNL A   1      35.211  32.638  30.975  1.00  0.00     0.116 C 
BRANCH   3   4
ATOM      4  N   UNL A   1      35.186  33.469  29.786  1.00  0.00    -0.355 N 
ATOM      5  C   UNL A   1      35.028  33.093  28.483  1.00  0.00     0.239 C 
ATOM      6  O   UNL A   1      35.076  33.960  27.609  1.00  0.00    -0.273 OA
ATOM      7  H   UNL A   1      35.300  34.434  29.938  1.00  0.00     0.163 HD
BRANCH   5   8
ATOM      8  C   UNL A   1      34.735  31.632  28.140  1.00  0.00     0.216 C 
BRANCH   8   9
ATOM      9  N   UNL A   1      35.907  30.926  27.642  1.00  0.00    -0.343 N 
ATOM     10  O   UNL A   1      36.042  29.511  29.431  1.00  0.00    -0.270 OA
ATOM     11  C   UNL A   1      36.471  29.904  28.351  1.00  0.00     0.244 C 
ATOM     12  H   UNL A   1      36.299  31.191  26.779  1.00  0.00     0.164 HD
BRANCH  11  13
ATOM     13  C   UNL A   1      37.668  29.244  27.777  1.00  0.00     0.072 C 
ATOM     14  C   UNL A   1      38.947  29.414  28.140  1.00  0.00     0.024 C 
BRANCH  14  15
ATOM     15  C   UNL A   1      39.996  28.711  27.476  1.00  0.00     0.027 A 
ATOM     16  C   UNL A   1      40.727  29.047  26.346  1.00  0.00     0.020 A 
ATOM     17  S   UNL A   1      40.534  27.200  28.107  1.00  0.00    -0.144 S 
ATOM     18  C   UNL A   1      41.697  28.064  25.992  1.00  0.00     0.012 A 
ATOM     19  C   UNL A   1      41.685  26.999  26.862  1.00  0.00     0.065 A 
ENDBRANCH  14  15
ENDBRANCH  11  13
ENDBRANCH   8   9
ENDBRANCH   5   8
ENDBRANCH   3   4
ENDBRANCH   2   3
ENDBRANCH   1   2
BRANCH   1  20
ATOM     20  C   UNL A   1      35.978  33.783  34.284  1.00  0.00     0.002 C 
BRANCH  20  21
ATOM     21  C   UNL A   1      37.475  33.494  34.413  1.00  0.00     0.021 C 
BRANCH  21  22
ATOM     22  C   UNL A   1      37.804  32.132  35.015  1.00  0.00     0.116 C 
BRANCH  22  23
ATOM     23  N   UNL A   1      37.143  31.049  34.300  1.00  0.00    -0.352 N 
ATOM     24  C   UNL A   1      37.431  30.524  33.066  1.00  0.00     0.251 C 
ATOM     25  H   UNL A   1      36.383  30.636  34.770  1.00  0.00     0.163 HD
ATOM     26  O   UNL A   1      36.637  29.756  32.526  1.00  0.00    -0.269 OA
BRANCH  24  27
ATOM     27  C   UNL A   1      38.686  30.899  32.382  1.00  0.00     0.039 A 
ATOM     28  C   UNL A   1      38.621  31.630  31.194  1.00  0.00     0.014 A 
ATOM     29  C   UNL A   1      39.925  30.529  32.915  1.00  0.00     0.014 A 
ATOM     30  C   UNL A   1      39.800  32.042  30.572  1.00  0.00     0.010 A 
ATOM     31  C   UNL A   1      41.097  31.006  32.335  1.00  0.00     0.010 A 
ATOM     32  C   UNL A   1      41.049  31.764  31.156  1.00  0.00    -0.014 A 
BRANCH  32  33
ATOM     33  C   UNL A   1      42.311  32.262  30.551  1.00  0.00     0.031 A 
ATOM     34  C   UNL A   1      42.712  33.704  30.711  1.00  0.00     0.074 A 
ATOM     35  C   UNL A   1      43.066  31.430  29.806  1.00  0.00     0.049 A 
ATOM     36  N   UNL A   1      43.746  34.332  30.214  1.00  0.00    -0.248 NA
ATOM     37  C   UNL A   1      41.821  34.559  31.515  1.00  0.00     0.031 C 
ATOM     38  C   UNL A   1      42.765  30.020  29.542  1.00  0.00     0.029 A 
ATOM     39  N   UNL A   1      44.239  31.650  29.127  1.00  0.00    -0.354 N 
ATOM     40  C   UNL A   1      43.623  35.654  30.630  1.00  0.00     0.074 A 
ATOM     41  C   UNL A   1      42.388  35.748  31.376  1.00  0.00     0.031 C 
ATOM     42  C   UNL A   1      43.741  29.496  28.783  1.00  0.00     0.029 A 
ATOM     43  C   UNL A   1      44.712  30.539  28.467  1.00  0.00     0.049 A 
ATOM     44  H   UNL A   1      44.699  32.520  29.114  1.00  0.00     0.167 HD
ATOM     45  C   UNL A   1      44.470  36.690  30.423  1.00  0.00     0.031 A 
ATOM     46  C   UNL A   1      45.799  30.378  27.686  1.00  0.00     0.031 A 
ATOM     47  C   UNL A   1      45.702  36.588  29.685  1.00  0.00     0.049 A 
ATOM     48  C   UNL A   1      46.715  31.549  27.457  1.00  0.00     0.074 A 
ATOM     49  C   UNL A   1      46.657  37.566  29.469  1.00  0.00     0.029 A 
ATOM     50  N   UNL A   1      46.147  35.445  29.038  1.00  0.00    -0.354 N 
ATOM     51  N   UNL A   1      46.618  32.774  27.918  1.00  0.00    -0.248 NA
ATOM     52  C   UNL A   1      47.896  31.314  26.614  1.00  0.00     0.031 C 
ATOM     53  C   UNL A   1      47.647  37.033  28.638  1.00  0.00     0.029 A 
ATOM     54  C   UNL A   1      47.348  35.702  28.397  1.00  0.00     0.049 A 
ATOM     55  H   UNL A   1      45.679  34.579  29.035  1.00  0.00     0.167 HD
ATOM     56  C   UNL A   1      47.741  33.446  27.446  1.00  0.00     0.074 A 
ATOM     57  C   UNL A   1      48.509  32.488  26.678  1.00  0.00     0.031 C 
ATOM     58  C   UNL A   1      48.104  34.739  27.636  1.00  0.00     0.031 A 
BRANCH  45  59
ATOM     59  C   UNL A   1      44.090  38.031  30.998  1.00  0.00    -0.014 A 
ATOM     60  C   UNL A   1      43.569  39.053  30.183  1.00  0.00     0.010 A 
ATOM     61  C   UNL A   1      44.211  38.257  32.381  1.00  0.00     0.010 A 
ATOM     62  C   UNL A   1      43.214  40.287  30.734  1.00  0.00     0.020 A 
ATOM     63  C   UNL A   1      43.827  39.478  32.942  1.00  0.00     0.020 A 
ATOM     64  C   UNL A   1      43.345  40.492  32.112  1.00  0.00     0.054 A 
BRANCH  64  65
ATOM     65  S   UNL A   1      42.851  42.094  32.802  1.00  0.00     0.124 S 
ATOM     66  O   UNL A   1      44.130  42.631  33.262  1.00  0.00    -0.237 OA
ATOM     67  O   UNL A   1      42.266  42.772  31.649  1.00  0.00    -0.237 OA
ATOM     68  O   UNL A   1      41.909  41.742  33.860  1.00  0.00    -0.744 OA
ENDBRANCH  64  65
ENDBRANCH  45  59
BRANCH  46  69
ATOM     69  C   UNL A   1      46.082  29.052  27.069  1.00  0.00    -0.014 A 
ATOM     70  C   UNL A   1      45.533  28.711  25.821  1.00  0.00     0.010 A 
ATOM     71  C   UNL A   1      46.914  28.126  27.725  1.00  0.00     0.010 A 
ATOM     72  C   UNL A   1      45.791  27.461  25.251  1.00  0.00     0.020 A 
ATOM     73  C   UNL A   1      47.201  26.888  27.142  1.00  0.00     0.020 A 
ATOM     74  C   UNL A   1      46.626  26.558  25.914  1.00  0.00     0.054 A 
BRANCH  74  75
ATOM     75  S   UNL A   1      46.984  24.960  25.133  1.00  0.00     0.124 S 
ATOM     76  O   UNL A   1      45.665  24.552  24.660  1.00  0.00    -0.237 OA
ATOM     77  O   UNL A   1      47.945  25.326  24.095  1.00  0.00    -0.237 OA
ATOM     78  O   UNL A   1      47.534  24.160  26.225  1.00  0.00    -0.744 OA
ENDBRANCH  74  75
ENDBRANCH  46  69
BRANCH  58  79
ATOM     79  C   UNL A   1      49.413  35.190  27.040  1.00  0.00    -0.014 A 
ATOM     80  C   UNL A   1      49.489  35.687  25.728  1.00  0.00     0.010 A 
ATOM     81  C   UNL A   1      50.574  35.170  27.834  1.00  0.00     0.010 A 
ATOM     82  C   UNL A   1      50.710  36.128  25.209  1.00  0.00     0.020 A 
ATOM     83  C   UNL A   1      51.790  35.640  27.330  1.00  0.00     0.020 A 
ATOM     84  C   UNL A   1      51.853  36.103  26.016  1.00  0.00     0.054 A 
BRANCH  84  85
ATOM     85  S   UNL A   1      53.414  36.725  25.334  1.00  0.00     0.124 S 
ATOM     86  O   UNL A   1      52.994  37.246  24.037  1.00  0.00    -0.237 OA
ATOM     87  O   UNL A   1      53.812  37.731  26.317  1.00  0.00    -0.237 OA
ATOM     88  O   UNL A   1      54.268  35.540  25.284  1.00  0.00    -0.744 OA
ENDBRANCH  84  85
ENDBRANCH  58  79
ENDBRANCH  32  33
ENDBRANCH  24  27
ENDBRANCH  22  23
ENDBRANCH  21  22
ENDBRANCH  20  21
ENDBRANCH   1  20
TORSDOF 19
ENDMDL
