MODEL 1
REMARK VINA RESULT:      -9.5      0.000      0.000
REMARK SMILES CN(CC(=O)NCC(=O)NCCCCCCNC(=O)c1ccc(-c2c3nc(c(-c4ccc(S(=O)(=O)[O-])cc4)c4ccc([nH]4)c(-c4ccc(S(=O)(=O)[O-])cc4)c4nc(c(-c5ccc(S(=O)(=O)[O-])cc5)c5ccc2[nH]5)C=C4)C=C3)cc1)c1ncccn1
REMARK SMILES IDX 13 1 12 2 11 3 10 4 8 5 9 6 7 8 6 9 4 10 5 11 3 13 2 14 1 15
REMARK SMILES IDX 80 16 81 17 85 18 82 19 84 20 83 21 14 22 15 23 16 24 17 25
REMARK SMILES IDX 18 26 19 28 20 29 21 30 79 31 22 32 78 33 23 34 24 35 25 36
REMARK SMILES IDX 72 37 26 38 77 39 71 40 73 41 27 42 76 43 70 44 69 45 28 47
REMARK SMILES IDX 58 48 39 49 57 50 40 51 43 52 56 53 74 54 41 55 42 56 55 58
REMARK SMILES IDX 75 59 44 60 29 61 30 62 38 63 31 64 37 65 32 66 33 67 34 68
REMARK SMILES IDX 35 69 36 70 59 71 60 72 68 73 61 74 67 75 62 76 63 77 64 78
REMARK SMILES IDX 65 79 66 80 45 81 46 82 54 83 47 84 53 85 48 86 49 87 50 88
REMARK SMILES IDX 51 89 52 90
REMARK H PARENT 10 7 6 12 17 27 73 46 43 57
REMARK Flexibility Score: inf
ROOT
ATOM      1  C   UNL A   1      33.280  23.119  26.945  1.00  0.00     0.002 C 
ENDROOT
BRANCH   1   2
ATOM      2  C   UNL A   1      32.501  24.332  26.427  1.00  0.00     0.021 C 
BRANCH   2   3
ATOM      3  C   UNL A   1      31.176  23.998  25.750  1.00  0.00     0.116 C 
BRANCH   3   4
ATOM      4  N   UNL A   1      31.295  22.913  24.796  1.00  0.00    -0.355 N 
ATOM      5  C   UNL A   1      31.991  22.886  23.622  1.00  0.00     0.239 C 
ATOM      6  O   UNL A   1      32.128  21.797  23.055  1.00  0.00    -0.273 OA
ATOM      7  H   UNL A   1      30.810  22.087  25.025  1.00  0.00     0.163 HD
BRANCH   5   8
ATOM      8  C   UNL A   1      32.721  24.134  23.103  1.00  0.00     0.216 C 
BRANCH   8   9
ATOM      9  N   UNL A   1      32.235  24.646  21.834  1.00  0.00    -0.345 N 
ATOM     10  C   UNL A   1      31.787  25.901  21.522  1.00  0.00     0.240 C 
ATOM     11  O   UNL A   1      31.556  26.136  20.334  1.00  0.00    -0.273 OA
ATOM     12  H   UNL A   1      32.227  23.998  21.093  1.00  0.00     0.164 HD
BRANCH  10  13
ATOM     13  C   UNL A   1      31.681  26.986  22.610  1.00  0.00     0.219 C 
BRANCH  13  14
ATOM     14  N   UNL A   1      30.308  27.343  22.973  1.00  0.00    -0.335 N 
ATOM     15  C   UNL A   1      29.509  26.476  23.812  1.00  0.00     0.147 C 
BRANCH  14  16
ATOM     16  C   UNL A   1      29.918  28.667  22.880  1.00  0.00     0.225 A 
ATOM     17  N   UNL A   1      30.082  29.468  23.941  1.00  0.00    -0.221 NA
ATOM     18  N   UNL A   1      29.411  29.114  21.719  1.00  0.00    -0.221 NA
ATOM     19  C   UNL A   1      29.679  30.751  23.836  1.00  0.00     0.117 A 
ATOM     20  C   UNL A   1      28.994  30.396  21.662  1.00  0.00     0.117 A 
ATOM     21  C   UNL A   1      29.110  31.274  22.706  1.00  0.00     0.040 A 
ENDBRANCH  14  16
ENDBRANCH  13  14
ENDBRANCH  10  13
ENDBRANCH   8   9
ENDBRANCH   5   8
ENDBRANCH   3   4
ENDBRANCH   2   3
ENDBRANCH   1   2
BRANCH   1  22
ATOM     22  C   UNL A   1      34.612  22.826  26.243  1.00  0.00     0.002 C 
BRANCH  22  23
ATOM     23  C   UNL A   1      35.689  23.912  26.349  1.00  0.00     0.021 C 
BRANCH  23  24
ATOM     24  C   UNL A   1      36.780  23.886  25.279  1.00  0.00     0.116 C 
BRANCH  24  25
ATOM     25  N   UNL A   1      37.799  22.892  25.557  1.00  0.00    -0.352 N 
ATOM     26  C   UNL A   1      39.028  23.001  26.157  1.00  0.00     0.251 C 
ATOM     27  H   UNL A   1      37.569  21.981  25.266  1.00  0.00     0.163 HD
ATOM     28  O   UNL A   1      39.780  22.024  26.119  1.00  0.00    -0.269 OA
BRANCH  26  29
ATOM     29  C   UNL A   1      39.487  24.243  26.831  1.00  0.00     0.039 A 
ATOM     30  C   UNL A   1      39.119  24.431  28.168  1.00  0.00     0.014 A 
ATOM     31  C   UNL A   1      40.179  25.263  26.168  1.00  0.00     0.014 A 
ATOM     32  C   UNL A   1      39.460  25.608  28.842  1.00  0.00     0.010 A 
ATOM     33  C   UNL A   1      40.566  26.422  26.858  1.00  0.00     0.010 A 
ATOM     34  C   UNL A   1      40.203  26.612  28.201  1.00  0.00    -0.014 A 
BRANCH  34  35
ATOM     35  C   UNL A   1      40.599  27.838  28.950  1.00  0.00     0.031 A 
ATOM     36  C   UNL A   1      41.966  27.973  29.570  1.00  0.00     0.074 A 
ATOM     37  C   UNL A   1      39.720  28.855  29.066  1.00  0.00     0.049 A 
ATOM     38  N   UNL A   1      42.493  29.005  30.180  1.00  0.00    -0.248 NA
ATOM     39  C   UNL A   1      42.848  26.798  29.511  1.00  0.00     0.031 C 
ATOM     40  C   UNL A   1      38.349  28.849  28.550  1.00  0.00     0.029 A 
ATOM     41  N   UNL A   1      39.853  30.094  29.642  1.00  0.00    -0.354 N 
ATOM     42  C   UNL A   1      43.764  28.607  30.580  1.00  0.00     0.074 A 
ATOM     43  C   UNL A   1      43.911  27.223  30.180  1.00  0.00     0.031 C 
ATOM     44  C   UNL A   1      37.781  30.040  28.803  1.00  0.00     0.029 A 
ATOM     45  C   UNL A   1      38.735  30.884  29.516  1.00  0.00     0.049 A 
ATOM     46  H   UNL A   1      40.672  30.389  30.105  1.00  0.00     0.167 HD
ATOM     47  C   UNL A   1      44.728  29.326  31.206  1.00  0.00     0.031 A 
ATOM     48  C   UNL A   1      38.501  32.151  29.912  1.00  0.00     0.031 A 
ATOM     49  C   UNL A   1      44.595  30.705  31.603  1.00  0.00     0.049 A 
ATOM     50  C   UNL A   1      39.588  32.931  30.596  1.00  0.00     0.074 A 
ATOM     51  C   UNL A   1      45.544  31.529  32.187  1.00  0.00     0.029 A 
ATOM     52  N   UNL A   1      43.444  31.464  31.465  1.00  0.00    -0.354 N 
ATOM     53  N   UNL A   1      40.808  32.556  30.895  1.00  0.00    -0.248 NA
ATOM     54  C   UNL A   1      39.268  34.314  30.981  1.00  0.00     0.031 C 
ATOM     55  C   UNL A   1      44.951  32.772  32.444  1.00  0.00     0.029 A 
ATOM     56  C   UNL A   1      43.650  32.736  31.975  1.00  0.00     0.049 A 
ATOM     57  H   UNL A   1      42.603  31.146  31.063  1.00  0.00     0.167 HD
ATOM     58  C   UNL A   1      41.406  33.662  31.489  1.00  0.00     0.074 A 
ATOM     59  C   UNL A   1      40.422  34.725  31.487  1.00  0.00     0.031 C 
ATOM     60  C   UNL A   1      42.661  33.784  31.991  1.00  0.00     0.031 A 
BRANCH  47  61
ATOM     61  C   UNL A   1      46.029  28.629  31.508  1.00  0.00    -0.014 A 
ATOM     62  C   UNL A   1      47.091  28.648  30.587  1.00  0.00     0.010 A 
ATOM     63  C   UNL A   1      46.210  27.991  32.749  1.00  0.00     0.010 A 
ATOM     64  C   UNL A   1      48.297  28.005  30.883  1.00  0.00     0.020 A 
ATOM     65  C   UNL A   1      47.422  27.367  33.059  1.00  0.00     0.020 A 
ATOM     66  C   UNL A   1      48.452  27.363  32.115  1.00  0.00     0.054 A 
BRANCH  66  67
ATOM     67  S   UNL A   1      50.034  26.553  32.481  1.00  0.00     0.124 S 
ATOM     68  O   UNL A   1      50.012  25.422  31.555  1.00  0.00    -0.237 OA
ATOM     69  O   UNL A   1      51.009  27.593  32.181  1.00  0.00    -0.237 OA
ATOM     70  O   UNL A   1      49.920  26.198  33.897  1.00  0.00    -0.744 OA
ENDBRANCH  66  67
ENDBRANCH  47  61
BRANCH  48  71
ATOM     71  C   UNL A   1      37.176  32.771  29.647  1.00  0.00    -0.014 A 
ATOM     72  C   UNL A   1      36.251  32.950  30.690  1.00  0.00     0.010 A 
ATOM     73  C   UNL A   1      36.844  33.204  28.351  1.00  0.00     0.010 A 
ATOM     74  C   UNL A   1      35.008  33.540  30.439  1.00  0.00     0.020 A 
ATOM     75  C   UNL A   1      35.613  33.816  28.101  1.00  0.00     0.020 A 
ATOM     76  C   UNL A   1      34.698  33.971  29.146  1.00  0.00     0.054 A 
BRANCH  76  77
ATOM     77  S   UNL A   1      33.110  34.796  28.852  1.00  0.00     0.124 S 
ATOM     78  O   UNL A   1      32.543  34.851  30.195  1.00  0.00    -0.237 OA
ATOM     79  O   UNL A   1      33.518  36.078  28.281  1.00  0.00    -0.237 OA
ATOM     80  O   UNL A   1      32.431  33.899  27.918  1.00  0.00    -0.744 OA
ENDBRANCH  76  77
ENDBRANCH  48  71
BRANCH  60  81
ATOM     81  C   UNL A   1      43.038  35.120  32.575  1.00  0.00    -0.014 A 
ATOM     82  C   UNL A   1      42.814  35.406  33.934  1.00  0.00     0.010 A 
ATOM     83  C   UNL A   1      43.636  36.096  31.759  1.00  0.00     0.010 A 
ATOM     84  C   UNL A   1      43.138  36.661  34.455  1.00  0.00     0.020 A 
ATOM     85  C   UNL A   1      43.985  37.345  32.282  1.00  0.00     0.020 A 
ATOM     86  C   UNL A   1      43.713  37.626  33.624  1.00  0.00     0.054 A 
BRANCH  86  87
ATOM     87  S   UNL A   1      44.137  39.247  34.321  1.00  0.00     0.124 S 
ATOM     88  O   UNL A   1      43.099  40.102  33.749  1.00  0.00    -0.237 OA
ATOM     89  O   UNL A   1      44.037  39.017  35.761  1.00  0.00    -0.237 OA
ATOM     90  O   UNL A   1      45.489  39.493  33.828  1.00  0.00    -0.744 OA
ENDBRANCH  86  87
ENDBRANCH  60  81
ENDBRANCH  34  35
ENDBRANCH  26  29
ENDBRANCH  24  25
ENDBRANCH  23  24
ENDBRANCH  22  23
ENDBRANCH   1  22
TORSDOF 20
ENDMDL
MODEL 2
REMARK VINA RESULT:      -9.2      2.634      4.527
REMARK SMILES CN(CC(=O)NCC(=O)NCCCCCCNC(=O)c1ccc(-c2c3nc(c(-c4ccc(S(=O)(=O)[O-])cc4)c4ccc([nH]4)c(-c4ccc(S(=O)(=O)[O-])cc4)c4nc(c(-c5ccc(S(=O)(=O)[O-])cc5)c5ccc2[nH]5)C=C4)C=C3)cc1)c1ncccn1
REMARK SMILES IDX 13 1 12 2 11 3 10 4 8 5 9 6 7 8 6 9 4 10 5 11 3 13 2 14 1 15
REMARK SMILES IDX 80 16 81 17 85 18 82 19 84 20 83 21 14 22 15 23 16 24 17 25
REMARK SMILES IDX 18 26 19 28 20 29 21 30 79 31 22 32 78 33 23 34 24 35 25 36
REMARK SMILES IDX 72 37 26 38 77 39 71 40 73 41 27 42 76 43 70 44 69 45 28 47
REMARK SMILES IDX 58 48 39 49 57 50 40 51 43 52 56 53 74 54 41 55 42 56 55 58
REMARK SMILES IDX 75 59 44 60 29 61 30 62 38 63 31 64 37 65 32 66 33 67 34 68
REMARK SMILES IDX 35 69 36 70 59 71 60 72 68 73 61 74 67 75 62 76 63 77 64 78
REMARK SMILES IDX 65 79 66 80 45 81 46 82 54 83 47 84 53 85 48 86 49 87 50 88
REMARK SMILES IDX 51 89 52 90
REMARK H PARENT 10 7 6 12 17 27 73 46 43 57
REMARK Flexibility Score: inf
ROOT
ATOM      1  C   UNL A   1      33.776  23.215  26.843  1.00  0.00     0.002 C 
ENDROOT
BRANCH   1   2
ATOM      2  C   UNL A   1      32.883  24.459  26.810  1.00  0.00     0.021 C 
BRANCH   2   3
ATOM      3  C   UNL A   1      31.423  24.187  26.467  1.00  0.00     0.116 C 
BRANCH   3   4
ATOM      4  N   UNL A   1      30.818  25.265  25.710  1.00  0.00    -0.355 N 
ATOM      5  C   UNL A   1      30.450  25.277  24.395  1.00  0.00     0.239 C 
ATOM      6  O   UNL A   1      29.767  26.224  23.993  1.00  0.00    -0.273 OA
ATOM      7  H   UNL A   1      30.649  26.097  26.208  1.00  0.00     0.163 HD
BRANCH   5   8
ATOM      8  C   UNL A   1      30.735  24.076  23.480  1.00  0.00     0.216 C 
BRANCH   8   9
ATOM      9  N   UNL A   1      32.108  23.966  23.022  1.00  0.00    -0.345 N 
ATOM     10  C   UNL A   1      32.795  22.857  22.606  1.00  0.00     0.240 C 
ATOM     11  O   UNL A   1      33.918  23.038  22.128  1.00  0.00    -0.273 OA
ATOM     12  H   UNL A   1      32.618  24.808  23.008  1.00  0.00     0.164 HD
BRANCH  10  13
ATOM     13  C   UNL A   1      32.135  21.466  22.649  1.00  0.00     0.219 C 
BRANCH  13  14
ATOM     14  N   UNL A   1      32.439  20.693  23.855  1.00  0.00    -0.335 N 
ATOM     15  C   UNL A   1      31.806  21.002  25.119  1.00  0.00     0.147 C 
BRANCH  14  16
ATOM     16  C   UNL A   1      32.987  19.430  23.715  1.00  0.00     0.225 A 
ATOM     17  N   UNL A   1      32.448  18.583  22.828  1.00  0.00    -0.221 NA
ATOM     18  N   UNL A   1      34.059  19.102  24.455  1.00  0.00    -0.221 NA
ATOM     19  C   UNL A   1      32.984  17.351  22.719  1.00  0.00     0.117 A 
ATOM     20  C   UNL A   1      34.551  17.851  24.337  1.00  0.00     0.117 A 
ATOM     21  C   UNL A   1      34.047  16.921  23.468  1.00  0.00     0.040 A 
ENDBRANCH  14  16
ENDBRANCH  13  14
ENDBRANCH  10  13
ENDBRANCH   8   9
ENDBRANCH   5   8
ENDBRANCH   3   4
ENDBRANCH   2   3
ENDBRANCH   1   2
BRANCH   1  22
ATOM     22  C   UNL A   1      34.789  23.084  25.699  1.00  0.00     0.002 C 
BRANCH  22  23
ATOM     23  C   UNL A   1      36.077  23.903  25.834  1.00  0.00     0.021 C 
BRANCH  23  24
ATOM     24  C   UNL A   1      37.243  23.479  24.942  1.00  0.00     0.116 C 
BRANCH  24  25
ATOM     25  N   UNL A   1      38.033  22.417  25.537  1.00  0.00    -0.352 N 
ATOM     26  C   UNL A   1      39.211  22.450  26.236  1.00  0.00     0.251 C 
ATOM     27  H   UNL A   1      37.657  21.515  25.417  1.00  0.00     0.163 HD
ATOM     28  O   UNL A   1      39.766  21.378  26.489  1.00  0.00    -0.269 OA
BRANCH  26  29
ATOM     29  C   UNL A   1      39.846  23.717  26.684  1.00  0.00     0.039 A 
ATOM     30  C   UNL A   1      40.210  23.821  28.032  1.00  0.00     0.014 A 
ATOM     31  C   UNL A   1      40.004  24.831  25.851  1.00  0.00     0.014 A 
ATOM     32  C   UNL A   1      40.750  25.010  28.533  1.00  0.00     0.010 A 
ATOM     33  C   UNL A   1      40.593  26.007  26.342  1.00  0.00     0.010 A 
ATOM     34  C   UNL A   1      40.964  26.113  27.691  1.00  0.00    -0.014 A 
BRANCH  34  35
ATOM     35  C   UNL A   1      41.585  27.354  28.235  1.00  0.00     0.031 A 
ATOM     36  C   UNL A   1      43.078  27.555  28.223  1.00  0.00     0.074 A 
ATOM     37  C   UNL A   1      40.793  28.325  28.735  1.00  0.00     0.049 A 
ATOM     38  N   UNL A   1      43.768  28.610  28.580  1.00  0.00    -0.248 NA
ATOM     39  C   UNL A   1      43.903  26.427  27.768  1.00  0.00     0.031 C 
ATOM     40  C   UNL A   1      39.334  28.252  28.846  1.00  0.00     0.029 A 
ATOM     41  N   UNL A   1      41.102  29.566  29.233  1.00  0.00    -0.354 N 
ATOM     42  C   UNL A   1      45.105  28.275  28.396  1.00  0.00     0.074 A 
ATOM     43  C   UNL A   1      45.129  26.902  27.937  1.00  0.00     0.031 C 
ATOM     44  C   UNL A   1      38.875  29.412  29.345  1.00  0.00     0.029 A 
ATOM     45  C   UNL A   1      40.003  30.300  29.610  1.00  0.00     0.049 A 
ATOM     46  H   UNL A   1      42.026  29.900  29.314  1.00  0.00     0.167 HD
ATOM     47  C   UNL A   1      46.211  29.040  28.575  1.00  0.00     0.031 A 
ATOM     48  C   UNL A   1      39.902  31.551  30.100  1.00  0.00     0.031 A 
ATOM     49  C   UNL A   1      46.197  30.408  29.026  1.00  0.00     0.049 A 
ATOM     50  C   UNL A   1      41.141  32.383  30.281  1.00  0.00     0.074 A 
ATOM     51  C   UNL A   1      47.267  31.276  29.176  1.00  0.00     0.029 A 
ATOM     52  N   UNL A   1      45.064  31.109  29.405  1.00  0.00    -0.354 N 
ATOM     53  N   UNL A   1      42.388  32.069  30.027  1.00  0.00    -0.248 NA
ATOM     54  C   UNL A   1      40.952  33.746  30.799  1.00  0.00     0.031 C 
ATOM     55  C   UNL A   1      46.784  32.486  29.689  1.00  0.00     0.029 A 
ATOM     56  C   UNL A   1      45.409  32.388  29.813  1.00  0.00     0.049 A 
ATOM     57  H   UNL A   1      44.146  30.750  29.387  1.00  0.00     0.167 HD
ATOM     58  C   UNL A   1      43.132  33.201  30.341  1.00  0.00     0.074 A 
ATOM     59  C   UNL A   1      42.194  34.212  30.782  1.00  0.00     0.031 C 
ATOM     60  C   UNL A   1      44.475  33.384  30.270  1.00  0.00     0.031 A 
BRANCH  47  61
ATOM     61  C   UNL A   1      47.547  28.407  28.283  1.00  0.00    -0.014 A 
ATOM     62  C   UNL A   1      48.257  27.724  29.286  1.00  0.00     0.010 A 
ATOM     63  C   UNL A   1      48.075  28.454  26.980  1.00  0.00     0.010 A 
ATOM     64  C   UNL A   1      49.492  27.132  29.001  1.00  0.00     0.020 A 
ATOM     65  C   UNL A   1      49.297  27.844  26.685  1.00  0.00     0.020 A 
ATOM     66  C   UNL A   1      50.007  27.202  27.703  1.00  0.00     0.054 A 
BRANCH  66  67
ATOM     67  S   UNL A   1      51.603  26.411  27.357  1.00  0.00     0.124 S 
ATOM     68  O   UNL A   1      52.056  27.153  26.182  1.00  0.00    -0.237 OA
ATOM     69  O   UNL A   1      52.356  26.650  28.581  1.00  0.00    -0.237 OA
ATOM     70  O   UNL A   1      51.248  25.012  27.109  1.00  0.00    -0.744 OA
ENDBRANCH  66  67
ENDBRANCH  47  61
BRANCH  48  71
ATOM     71  C   UNL A   1      38.564  32.105  30.433  1.00  0.00    -0.014 A 
ATOM     72  C   UNL A   1      38.009  31.910  31.710  1.00  0.00     0.010 A 
ATOM     73  C   UNL A   1      37.847  32.849  29.479  1.00  0.00     0.010 A 
ATOM     74  C   UNL A   1      36.753  32.437  32.023  1.00  0.00     0.020 A 
ATOM     75  C   UNL A   1      36.602  33.398  29.796  1.00  0.00     0.020 A 
ATOM     76  C   UNL A   1      36.058  33.180  31.064  1.00  0.00     0.054 A 
BRANCH  76  77
ATOM     77  S   UNL A   1      34.461  33.915  31.510  1.00  0.00     0.124 S 
ATOM     78  O   UNL A   1      33.876  32.881  32.355  1.00  0.00    -0.237 OA
ATOM     79  O   UNL A   1      34.856  35.146  32.193  1.00  0.00    -0.237 OA
ATOM     80  O   UNL A   1      33.808  34.115  30.217  1.00  0.00    -0.744 OA
ENDBRANCH  76  77
ENDBRANCH  48  71
BRANCH  60  81
ATOM     81  C   UNL A   1      45.004  34.734  30.674  1.00  0.00    -0.014 A 
ATOM     82  C   UNL A   1      45.394  34.993  32.000  1.00  0.00     0.010 A 
ATOM     83  C   UNL A   1      45.126  35.754  29.713  1.00  0.00     0.010 A 
ATOM     84  C   UNL A   1      45.852  36.261  32.369  1.00  0.00     0.020 A 
ATOM     85  C   UNL A   1      45.607  37.016  30.072  1.00  0.00     0.020 A 
ATOM     86  C   UNL A   1      45.947  37.267  31.404  1.00  0.00     0.054 A 
BRANCH  86  87
ATOM     87  S   UNL A   1      46.554  38.904  31.899  1.00  0.00     0.124 S 
ATOM     88  O   UNL A   1      47.972  38.818  31.555  1.00  0.00    -0.237 OA
ATOM     89  O   UNL A   1      45.761  39.809  31.069  1.00  0.00    -0.237 OA
ATOM     90  O   UNL A   1      46.262  38.963  33.329  1.00  0.00    -0.744 OA
ENDBRANCH  86  87
ENDBRANCH  60  81
ENDBRANCH  34  35
ENDBRANCH  26  29
ENDBRANCH  24  25
ENDBRANCH  23  24
ENDBRANCH  22  23
ENDBRANCH   1  22
TORSDOF 20
ENDMDL
MODEL 3
REMARK VINA RESULT:      -9.2      4.305     10.443
REMARK SMILES CN(CC(=O)NCC(=O)NCCCCCCNC(=O)c1ccc(-c2c3nc(c(-c4ccc(S(=O)(=O)[O-])cc4)c4ccc([nH]4)c(-c4ccc(S(=O)(=O)[O-])cc4)c4nc(c(-c5ccc(S(=O)(=O)[O-])cc5)c5ccc2[nH]5)C=C4)C=C3)cc1)c1ncccn1
REMARK SMILES IDX 13 1 12 2 11 3 10 4 8 5 9 6 7 8 6 9 4 10 5 11 3 13 2 14 1 15
REMARK SMILES IDX 80 16 81 17 85 18 82 19 84 20 83 21 14 22 15 23 16 24 17 25
REMARK SMILES IDX 18 26 19 28 20 29 21 30 79 31 22 32 78 33 23 34 24 35 25 36
REMARK SMILES IDX 72 37 26 38 77 39 71 40 73 41 27 42 76 43 70 44 69 45 28 47
REMARK SMILES IDX 58 48 39 49 57 50 40 51 43 52 56 53 74 54 41 55 42 56 55 58
REMARK SMILES IDX 75 59 44 60 29 61 30 62 38 63 31 64 37 65 32 66 33 67 34 68
REMARK SMILES IDX 35 69 36 70 59 71 60 72 68 73 61 74 67 75 62 76 63 77 64 78
REMARK SMILES IDX 65 79 66 80 45 81 46 82 54 83 47 84 53 85 48 86 49 87 50 88
REMARK SMILES IDX 51 89 52 90
REMARK H PARENT 10 7 6 12 17 27 73 46 43 57
REMARK Flexibility Score: inf
ROOT
ATOM      1  C   UNL A   1      32.741  29.446  26.747  1.00  0.00     0.002 C 
ENDROOT
BRANCH   1   2
ATOM      2  C   UNL A   1      32.358  29.342  25.267  1.00  0.00     0.021 C 
BRANCH   2   3
ATOM      3  C   UNL A   1      31.799  27.987  24.846  1.00  0.00     0.116 C 
BRANCH   3   4
ATOM      4  N   UNL A   1      31.688  27.061  25.955  1.00  0.00    -0.355 N 
ATOM      5  C   UNL A   1      31.618  25.697  25.920  1.00  0.00     0.239 C 
ATOM      6  O   UNL A   1      31.729  25.084  26.986  1.00  0.00    -0.273 OA
ATOM      7  H   UNL A   1      31.658  27.467  26.851  1.00  0.00     0.163 HD
BRANCH   5   8
ATOM      8  C   UNL A   1      31.566  24.940  24.585  1.00  0.00     0.216 C 
BRANCH   8   9
ATOM      9  N   UNL A   1      32.813  24.924  23.840  1.00  0.00    -0.345 N 
ATOM     10  C   UNL A   1      33.997  24.310  24.148  1.00  0.00     0.240 C 
ATOM     11  O   UNL A   1      34.878  24.324  23.285  1.00  0.00    -0.273 OA
ATOM     12  H   UNL A   1      32.805  25.426  22.993  1.00  0.00     0.164 HD
BRANCH  10  13
ATOM     13  C   UNL A   1      34.162  23.553  25.479  1.00  0.00     0.219 C 
BRANCH  13  14
ATOM     14  N   UNL A   1      35.098  22.428  25.420  1.00  0.00    -0.335 N 
ATOM     15  C   UNL A   1      34.784  21.236  24.662  1.00  0.00     0.147 C 
BRANCH  14  16
ATOM     16  C   UNL A   1      36.430  22.655  25.717  1.00  0.00     0.225 A 
ATOM     17  N   UNL A   1      37.315  21.666  25.532  1.00  0.00    -0.221 NA
ATOM     18  N   UNL A   1      36.798  23.870  26.157  1.00  0.00    -0.221 NA
ATOM     19  C   UNL A   1      38.605  21.901  25.845  1.00  0.00     0.117 A 
ATOM     20  C   UNL A   1      38.094  24.058  26.485  1.00  0.00     0.117 A 
ATOM     21  C   UNL A   1      39.056  23.095  26.343  1.00  0.00     0.040 A 
ENDBRANCH  14  16
ENDBRANCH  13  14
ENDBRANCH  10  13
ENDBRANCH   8   9
ENDBRANCH   5   8
ENDBRANCH   3   4
ENDBRANCH   2   3
ENDBRANCH   1   2
BRANCH   1  22
ATOM     22  C   UNL A   1      32.999  30.861  27.276  1.00  0.00     0.002 C 
BRANCH  22  23
ATOM     23  C   UNL A   1      34.465  31.243  27.509  1.00  0.00     0.021 C 
BRANCH  23  24
ATOM     24  C   UNL A   1      35.300  30.252  28.320  1.00  0.00     0.116 C 
BRANCH  24  25
ATOM     25  N   UNL A   1      35.417  30.641  29.712  1.00  0.00    -0.352 N 
ATOM     26  C   UNL A   1      36.474  30.573  30.584  1.00  0.00     0.251 C 
ATOM     27  H   UNL A   1      34.596  31.021  30.099  1.00  0.00     0.163 HD
ATOM     28  O   UNL A   1      36.260  30.816  31.774  1.00  0.00    -0.269 OA
BRANCH  26  29
ATOM     29  C   UNL A   1      37.849  30.208  30.155  1.00  0.00     0.039 A 
ATOM     30  C   UNL A   1      38.071  30.009  28.787  1.00  0.00     0.014 A 
ATOM     31  C   UNL A   1      38.892  29.961  31.055  1.00  0.00     0.014 A 
ATOM     32  C   UNL A   1      39.325  29.597  28.323  1.00  0.00     0.010 A 
ATOM     33  C   UNL A   1      40.164  29.598  30.585  1.00  0.00     0.010 A 
ATOM     34  C   UNL A   1      40.392  29.403  29.213  1.00  0.00    -0.014 A 
BRANCH  34  35
ATOM     35  C   UNL A   1      41.733  29.012  28.694  1.00  0.00     0.031 A 
ATOM     36  C   UNL A   1      42.866  30.002  28.619  1.00  0.00     0.074 A 
ATOM     37  C   UNL A   1      41.942  27.740  28.294  1.00  0.00     0.049 A 
ATOM     38  N   UNL A   1      44.113  29.799  28.271  1.00  0.00    -0.248 NA
ATOM     39  C   UNL A   1      42.560  31.398  28.963  1.00  0.00     0.031 C 
ATOM     40  C   UNL A   1      40.928  26.683  28.274  1.00  0.00     0.029 A 
ATOM     41  N   UNL A   1      43.078  27.118  27.840  1.00  0.00    -0.354 N 
ATOM     42  C   UNL A   1      44.740  31.037  28.352  1.00  0.00     0.074 A 
ATOM     43  C   UNL A   1      43.724  31.993  28.739  1.00  0.00     0.031 C 
ATOM     44  C   UNL A   1      41.497  25.537  27.864  1.00  0.00     0.029 A 
ATOM     45  C   UNL A   1      42.906  25.780  27.572  1.00  0.00     0.049 A 
ATOM     46  H   UNL A   1      43.937  27.586  27.716  1.00  0.00     0.167 HD
ATOM     47  C   UNL A   1      46.042  31.352  28.140  1.00  0.00     0.031 A 
ATOM     48  C   UNL A   1      43.781  24.845  27.152  1.00  0.00     0.031 A 
ATOM     49  C   UNL A   1      47.063  30.408  27.760  1.00  0.00     0.049 A 
ATOM     50  C   UNL A   1      45.221  25.215  26.934  1.00  0.00     0.074 A 
ATOM     51  C   UNL A   1      48.419  30.630  27.584  1.00  0.00     0.029 A 
ATOM     52  N   UNL A   1      46.843  29.067  27.490  1.00  0.00    -0.354 N 
ATOM     53  N   UNL A   1      45.805  26.378  27.090  1.00  0.00    -0.248 NA
ATOM     54  C   UNL A   1      46.121  24.138  26.497  1.00  0.00     0.031 C 
ATOM     55  C   UNL A   1      49.011  29.432  27.164  1.00  0.00     0.029 A 
ATOM     56  C   UNL A   1      48.032  28.455  27.125  1.00  0.00     0.049 A 
ATOM     57  H   UNL A   1      45.970  28.614  27.549  1.00  0.00     0.167 HD
ATOM     58  C   UNL A   1      47.146  26.169  26.785  1.00  0.00     0.074 A 
ATOM     59  C   UNL A   1      47.289  24.766  26.458  1.00  0.00     0.031 C 
ATOM     60  C   UNL A   1      48.166  27.063  26.779  1.00  0.00     0.031 A 
BRANCH  47  61
ATOM     61  C   UNL A   1      46.446  32.793  28.313  1.00  0.00    -0.014 A 
ATOM     62  C   UNL A   1      46.142  33.752  27.330  1.00  0.00     0.010 A 
ATOM     63  C   UNL A   1      47.090  33.204  29.494  1.00  0.00     0.010 A 
ATOM     64  C   UNL A   1      46.513  35.088  27.506  1.00  0.00     0.020 A 
ATOM     65  C   UNL A   1      47.442  34.543  29.684  1.00  0.00     0.020 A 
ATOM     66  C   UNL A   1      47.167  35.474  28.680  1.00  0.00     0.054 A 
BRANCH  66  67
ATOM     67  S   UNL A   1      47.620  37.218  28.890  1.00  0.00     0.124 S 
ATOM     68  O   UNL A   1      47.188  37.477  30.262  1.00  0.00    -0.237 OA
ATOM     69  O   UNL A   1      49.062  37.207  28.678  1.00  0.00    -0.237 OA
ATOM     70  O   UNL A   1      46.846  37.904  27.855  1.00  0.00    -0.744 OA
ENDBRANCH  66  67
ENDBRANCH  47  61
BRANCH  48  71
ATOM     71  C   UNL A   1      43.317  23.450  26.934  1.00  0.00    -0.014 A 
ATOM     72  C   UNL A   1      43.071  22.975  25.634  1.00  0.00     0.010 A 
ATOM     73  C   UNL A   1      43.137  22.583  28.027  1.00  0.00     0.010 A 
ATOM     74  C   UNL A   1      42.641  21.661  25.430  1.00  0.00     0.020 A 
ATOM     75  C   UNL A   1      42.731  21.262  27.826  1.00  0.00     0.020 A 
ATOM     76  C   UNL A   1      42.476  20.812  26.528  1.00  0.00     0.054 A 
BRANCH  76  77
ATOM     77  S   UNL A   1      41.983  19.089  26.241  1.00  0.00     0.124 S 
ATOM     78  O   UNL A   1      42.871  18.697  25.152  1.00  0.00    -0.237 OA
ATOM     79  O   UNL A   1      42.249  18.463  27.535  1.00  0.00    -0.237 OA
ATOM     80  O   UNL A   1      40.568  19.196  25.892  1.00  0.00    -0.744 OA
ENDBRANCH  76  77
ENDBRANCH  48  71
BRANCH  60  81
ATOM     81  C   UNL A   1      49.530  26.543  26.410  1.00  0.00    -0.014 A 
ATOM     82  C   UNL A   1      50.358  25.933  27.370  1.00  0.00     0.010 A 
ATOM     83  C   UNL A   1      49.986  26.653  25.084  1.00  0.00     0.010 A 
ATOM     84  C   UNL A   1      51.635  25.485  27.022  1.00  0.00     0.020 A 
ATOM     85  C   UNL A   1      51.253  26.183  24.726  1.00  0.00     0.020 A 
ATOM     86  C   UNL A   1      52.078  25.621  25.703  1.00  0.00     0.054 A 
BRANCH  86  87
ATOM     87  S   UNL A   1      53.735  25.024  25.268  1.00  0.00     0.124 S 
ATOM     88  O   UNL A   1      54.000  25.746  24.026  1.00  0.00    -0.237 OA
ATOM     89  O   UNL A   1      54.540  25.434  26.417  1.00  0.00    -0.237 OA
ATOM     90  O   UNL A   1      53.556  23.582  25.124  1.00  0.00    -0.744 OA
ENDBRANCH  86  87
ENDBRANCH  60  81
ENDBRANCH  34  35
ENDBRANCH  26  29
ENDBRANCH  24  25
ENDBRANCH  23  24
ENDBRANCH  22  23
ENDBRANCH   1  22
TORSDOF 20
ENDMDL
