MODEL 1
REMARK VINA RESULT:     -11.2      0.000      0.000
REMARK SMILES COc1ccccc1[C@@H]1C[N@@H+](Cc2cc3c(cc2C)OCO3)C[C@H]1C(=O)NCCCCCCNC(=O)c1ccc(-c2c3nc(c(-c4ccc(S(=O)(=O)[O-])cc4)c4ccc([nH]4)c(-c4ccc(S(=O)(=O)[O-])cc4)c4nc(c(-c5ccc(S(=O)(=O)[O-])cc5)c5ccc2[nH]5)C=C4)C=C3)cc1
REMARK SMILES IDX 31 1 30 2 29 3 28 4 27 5 25 6 26 7 24 9 9 10 10 11 11 12
REMARK SMILES IDX 23 13 8 15 3 16 4 17 5 18 7 19 6 20 2 21 1 22 12 23 13 24
REMARK SMILES IDX 14 25 18 26 15 27 17 28 19 29 16 30 22 31 20 32 21 33 32 34
REMARK SMILES IDX 33 35 34 36 35 37 36 39 37 40 38 41 96 42 39 43 95 44 40 45
REMARK SMILES IDX 41 46 42 47 89 48 43 49 94 50 88 51 90 52 44 53 93 54 87 55
REMARK SMILES IDX 86 56 45 58 75 59 56 60 74 61 57 62 60 63 73 64 91 65 58 66
REMARK SMILES IDX 59 67 72 69 92 70 61 71 46 72 47 73 55 74 48 75 54 76 49 77
REMARK SMILES IDX 50 78 51 79 52 80 53 81 76 82 77 83 85 84 78 85 84 86 79 87
REMARK SMILES IDX 80 88 81 89 82 90 83 91 62 92 63 93 71 94 64 95 70 96 65 97
REMARK SMILES IDX 66 98 67 99 68 100 69 101
REMARK H PARENT 27 8 11 14 34 38 90 57 60 68
REMARK Flexibility Score: inf
ROOT
ATOM      1  C   UNL A   1      40.949  21.435  27.881  1.00  0.00     0.002 C 
ENDROOT
BRANCH   1   2
ATOM      2  C   UNL A   1      40.692  22.549  26.855  1.00  0.00     0.002 C 
BRANCH   2   3
ATOM      3  C   UNL A   1      39.242  22.859  26.467  1.00  0.00     0.021 C 
BRANCH   3   4
ATOM      4  C   UNL A   1      38.375  21.995  25.484  1.00  0.00     0.116 C 
BRANCH   4   5
ATOM      5  N   UNL A   1      37.233  22.694  24.653  1.00  0.00    -0.356 N 
ATOM      6  C   UNL A   1      36.015  23.294  24.484  1.00  0.00     0.229 C 
ATOM      7  O   UNL A   1      35.973  23.703  23.293  1.00  0.00    -0.275 OA
ATOM      8  H   UNL A   1      37.607  22.705  23.742  1.00  0.00     0.163 HD
BRANCH   6   9
ATOM      9  C   UNL A   1      34.624  23.620  25.280  1.00  0.00     0.146 C 
ATOM     10  C   UNL A   1      33.445  24.389  24.578  1.00  0.00     0.096 C 
ATOM     11  C   UNL A   1      32.176  24.098  25.413  1.00  0.00     0.272 C 
ATOM     12  N   UNL A   1      32.383  22.798  26.052  1.00  0.00    -0.330 N 
ATOM     13  C   UNL A   1      33.851  22.728  26.296  1.00  0.00     0.276 C 
ATOM     14  H   UNL A   1      31.947  22.674  26.966  1.00  0.00     0.348 HD
BRANCH  10  15
ATOM     15  C   UNL A   1      33.450  25.843  24.108  1.00  0.00     0.004 A 
ATOM     16  C   UNL A   1      33.516  26.343  22.794  1.00  0.00     0.122 A 
ATOM     17  C   UNL A   1      33.721  27.721  22.568  1.00  0.00     0.047 A 
ATOM     18  C   UNL A   1      33.924  28.616  23.616  1.00  0.00     0.004 A 
ATOM     19  C   UNL A   1      33.670  26.789  25.150  1.00  0.00     0.008 A 
ATOM     20  C   UNL A   1      33.923  28.141  24.914  1.00  0.00     0.001 A 
BRANCH  16  21
ATOM     21  O   UNL A   1      33.660  25.619  21.640  1.00  0.00    -0.496 OA
ATOM     22  C   UNL A   1      32.557  25.591  20.755  1.00  0.00     0.278 C 
ENDBRANCH  16  21
ENDBRANCH  10  15
BRANCH  12  23
ATOM     23  C   UNL A   1      31.628  21.681  25.400  1.00  0.00     0.299 C 
BRANCH  23  24
ATOM     24  C   UNL A   1      32.472  20.637  24.687  1.00  0.00     0.013 A 
ATOM     25  C   UNL A   1      33.188  19.583  25.304  1.00  0.00     0.060 A 
ATOM     26  C   UNL A   1      32.337  20.605  23.315  1.00  0.00    -0.038 A 
ATOM     27  C   UNL A   1      33.457  18.447  24.554  1.00  0.00     0.166 A 
ATOM     28  C   UNL A   1      32.195  19.334  22.782  1.00  0.00     0.054 A 
ATOM     29  C   UNL A   1      32.343  21.884  22.527  1.00  0.00     0.045 C 
ATOM     30  C   UNL A   1      32.839  18.289  23.358  1.00  0.00     0.166 A 
ATOM     31  O   UNL A   1      34.200  17.345  24.842  1.00  0.00    -0.454 OA
ATOM     32  O   UNL A   1      32.995  17.072  22.786  1.00  0.00    -0.454 OA
ATOM     33  C   UNL A   1      34.086  16.607  23.592  1.00  0.00     0.468 C 
ENDBRANCH  23  24
ENDBRANCH  12  23
ENDBRANCH   6   9
ENDBRANCH   4   5
ENDBRANCH   3   4
ENDBRANCH   2   3
ENDBRANCH   1   2
BRANCH   1  34
ATOM     34  C   UNL A   1      41.389  20.033  27.403  1.00  0.00     0.021 C 
BRANCH  34  35
ATOM     35  C   UNL A   1      41.332  19.717  25.905  1.00  0.00     0.116 C 
BRANCH  35  36
ATOM     36  N   UNL A   1      42.603  19.255  25.365  1.00  0.00    -0.352 N 
ATOM     37  C   UNL A   1      43.743  19.950  25.054  1.00  0.00     0.251 C 
ATOM     38  H   UNL A   1      42.652  18.286  25.197  1.00  0.00     0.163 HD
ATOM     39  O   UNL A   1      44.639  19.400  24.406  1.00  0.00    -0.269 OA
BRANCH  37  40
ATOM     40  C   UNL A   1      43.909  21.353  25.479  1.00  0.00     0.039 A 
ATOM     41  C   UNL A   1      44.402  21.625  26.758  1.00  0.00     0.014 A 
ATOM     42  C   UNL A   1      43.549  22.400  24.626  1.00  0.00     0.014 A 
ATOM     43  C   UNL A   1      44.612  22.949  27.151  1.00  0.00     0.010 A 
ATOM     44  C   UNL A   1      43.807  23.718  25.001  1.00  0.00     0.010 A 
ATOM     45  C   UNL A   1      44.356  24.006  26.261  1.00  0.00    -0.014 A 
BRANCH  45  46
ATOM     46  C   UNL A   1      44.707  25.406  26.615  1.00  0.00     0.031 A 
ATOM     47  C   UNL A   1      46.100  25.927  26.388  1.00  0.00     0.074 A 
ATOM     48  C   UNL A   1      43.776  26.186  27.205  1.00  0.00     0.049 A 
ATOM     49  N   UNL A   1      46.592  27.105  26.675  1.00  0.00    -0.248 NA
ATOM     50  C   UNL A   1      47.073  25.004  25.781  1.00  0.00     0.031 C 
ATOM     51  C   UNL A   1      42.404  25.775  27.519  1.00  0.00     0.029 A 
ATOM     52  N   UNL A   1      43.840  27.481  27.655  1.00  0.00    -0.354 N 
ATOM     53  C   UNL A   1      47.931  27.060  26.302  1.00  0.00     0.074 A 
ATOM     54  C   UNL A   1      48.184  25.728  25.798  1.00  0.00     0.031 C 
ATOM     55  C   UNL A   1      41.754  26.803  28.088  1.00  0.00     0.029 A 
ATOM     56  C   UNL A   1      42.670  27.929  28.224  1.00  0.00     0.049 A 
ATOM     57  H   UNL A   1      44.649  28.039  27.578  1.00  0.00     0.167 HD
ATOM     58  C   UNL A   1      48.858  28.044  26.365  1.00  0.00     0.031 A 
ATOM     59  C   UNL A   1      42.372  29.108  28.806  1.00  0.00     0.031 A 
ATOM     60  C   UNL A   1      48.592  29.372  26.851  1.00  0.00     0.049 A 
ATOM     61  C   UNL A   1      43.431  30.176  28.873  1.00  0.00     0.074 A 
ATOM     62  C   UNL A   1      49.445  30.462  26.874  1.00  0.00     0.029 A 
ATOM     63  N   UNL A   1      47.394  29.789  27.410  1.00  0.00    -0.354 N 
ATOM     64  N   UNL A   1      44.659  30.146  28.411  1.00  0.00    -0.248 NA
ATOM     65  C   UNL A   1      43.066  31.437  29.532  1.00  0.00     0.031 C 
ATOM     66  C   UNL A   1      48.786  31.517  27.513  1.00  0.00     0.029 A 
ATOM     67  C   UNL A   1      47.500  31.106  27.824  1.00  0.00     0.049 A 
ATOM     68  H   UNL A   1      46.588  29.232  27.499  1.00  0.00     0.167 HD
ATOM     69  C   UNL A   1      45.203  31.392  28.704  1.00  0.00     0.074 A 
ATOM     70  C   UNL A   1      44.162  32.160  29.356  1.00  0.00     0.031 C 
ATOM     71  C   UNL A   1      46.453  31.857  28.467  1.00  0.00     0.031 A 
BRANCH  58  72
ATOM     72  C   UNL A   1      50.261  27.737  25.907  1.00  0.00    -0.014 A 
ATOM     73  C   UNL A   1      50.642  27.904  24.564  1.00  0.00     0.010 A 
ATOM     74  C   UNL A   1      51.238  27.390  26.859  1.00  0.00     0.010 A 
ATOM     75  C   UNL A   1      51.974  27.721  24.180  1.00  0.00     0.020 A 
ATOM     76  C   UNL A   1      52.575  27.233  26.483  1.00  0.00     0.020 A 
ATOM     77  C   UNL A   1      52.933  27.397  25.143  1.00  0.00     0.054 A 
BRANCH  77  78
ATOM     78  S   UNL A   1      54.667  27.252  24.628  1.00  0.00     0.124 S 
ATOM     79  O   UNL A   1      54.823  25.805  24.496  1.00  0.00    -0.237 OA
ATOM     80  O   UNL A   1      54.689  28.003  23.375  1.00  0.00    -0.237 OA
ATOM     81  O   UNL A   1      55.410  27.860  25.729  1.00  0.00    -0.744 OA
ENDBRANCH  77  78
ENDBRANCH  58  72
BRANCH  59  82
ATOM     82  C   UNL A   1      41.024  29.341  29.401  1.00  0.00    -0.014 A 
ATOM     83  C   UNL A   1      39.959  29.815  28.614  1.00  0.00     0.010 A 
ATOM     84  C   UNL A   1      40.812  29.132  30.777  1.00  0.00     0.010 A 
ATOM     85  C   UNL A   1      38.725  30.120  29.197  1.00  0.00     0.020 A 
ATOM     86  C   UNL A   1      39.569  29.401  31.357  1.00  0.00     0.020 A 
ATOM     87  C   UNL A   1      38.540  29.916  30.568  1.00  0.00     0.054 A 
BRANCH  87  88
ATOM     88  S   UNL A   1      36.934  30.319  31.307  1.00  0.00     0.124 S 
ATOM     89  O   UNL A   1      37.166  31.667  31.817  1.00  0.00    -0.237 OA
ATOM     90  O   UNL A   1      36.027  30.220  30.165  1.00  0.00    -0.237 OA
ATOM     91  O   UNL A   1      36.757  29.286  32.324  1.00  0.00    -0.744 OA
ENDBRANCH  87  88
ENDBRANCH  59  82
BRANCH  71  92
ATOM     92  C   UNL A   1      46.761  33.269  28.889  1.00  0.00    -0.014 A 
ATOM     93  C   UNL A   1      46.513  34.353  28.029  1.00  0.00     0.010 A 
ATOM     94  C   UNL A   1      47.247  33.518  30.186  1.00  0.00     0.010 A 
ATOM     95  C   UNL A   1      46.774  35.660  28.448  1.00  0.00     0.020 A 
ATOM     96  C   UNL A   1      47.477  34.825  30.620  1.00  0.00     0.020 A 
ATOM     97  C   UNL A   1      47.252  35.887  29.743  1.00  0.00     0.054 A 
BRANCH  97  98
ATOM     98  S   UNL A   1      47.533  37.597  30.278  1.00  0.00     0.124 S 
ATOM     99  O   UNL A   1      46.233  38.213  30.029  1.00  0.00    -0.237 OA
ATOM    100  O   UNL A   1      47.894  37.436  31.684  1.00  0.00    -0.237 OA
ATOM    101  O   UNL A   1      48.616  38.058  29.411  1.00  0.00    -0.744 OA
ENDBRANCH  97  98
ENDBRANCH  71  92
ENDBRANCH  45  46
ENDBRANCH  37  40
ENDBRANCH  35  36
ENDBRANCH  34  35
ENDBRANCH   1  34
TORSDOF 20
ENDMDL
MODEL 2
REMARK VINA RESULT:     -11.1      0.724      7.784
REMARK SMILES COc1ccccc1[C@@H]1C[N@@H+](Cc2cc3c(cc2C)OCO3)C[C@H]1C(=O)NCCCCCCNC(=O)c1ccc(-c2c3nc(c(-c4ccc(S(=O)(=O)[O-])cc4)c4ccc([nH]4)c(-c4ccc(S(=O)(=O)[O-])cc4)c4nc(c(-c5ccc(S(=O)(=O)[O-])cc5)c5ccc2[nH]5)C=C4)C=C3)cc1
REMARK SMILES IDX 31 1 30 2 29 3 28 4 27 5 25 6 26 7 24 9 9 10 10 11 11 12
REMARK SMILES IDX 23 13 8 15 3 16 4 17 5 18 7 19 6 20 2 21 1 22 12 23 13 24
REMARK SMILES IDX 14 25 18 26 15 27 17 28 19 29 16 30 22 31 20 32 21 33 32 34
REMARK SMILES IDX 33 35 34 36 35 37 36 39 37 40 38 41 96 42 39 43 95 44 40 45
REMARK SMILES IDX 41 46 42 47 89 48 43 49 94 50 88 51 90 52 44 53 93 54 87 55
REMARK SMILES IDX 86 56 45 58 75 59 56 60 74 61 57 62 60 63 73 64 91 65 58 66
REMARK SMILES IDX 59 67 72 69 92 70 61 71 46 72 47 73 55 74 48 75 54 76 49 77
REMARK SMILES IDX 50 78 51 79 52 80 53 81 76 82 77 83 85 84 78 85 84 86 79 87
REMARK SMILES IDX 80 88 81 89 82 90 83 91 62 92 63 93 71 94 64 95 70 96 65 97
REMARK SMILES IDX 66 98 67 99 68 100 69 101
REMARK H PARENT 27 8 11 14 34 38 90 57 60 68
REMARK Flexibility Score: inf
ROOT
ATOM      1  C   UNL A   1      41.503  22.064  27.898  1.00  0.00     0.002 C 
ENDROOT
BRANCH   1   2
ATOM      2  C   UNL A   1      40.800  23.006  26.907  1.00  0.00     0.002 C 
BRANCH   2   3
ATOM      3  C   UNL A   1      39.343  23.392  27.181  1.00  0.00     0.021 C 
BRANCH   3   4
ATOM      4  C   UNL A   1      38.419  24.168  26.177  1.00  0.00     0.116 C 
BRANCH   4   5
ATOM      5  N   UNL A   1      37.205  23.415  25.514  1.00  0.00    -0.356 N 
ATOM      6  C   UNL A   1      35.881  23.120  25.330  1.00  0.00     0.229 C 
ATOM      7  O   UNL A   1      35.816  22.339  24.345  1.00  0.00    -0.275 OA
ATOM      8  H   UNL A   1      37.650  22.821  24.866  1.00  0.00     0.163 HD
BRANCH   6   9
ATOM      9  C   UNL A   1      34.402  23.413  25.963  1.00  0.00     0.146 C 
ATOM     10  C   UNL A   1      33.328  24.244  25.171  1.00  0.00     0.096 C 
ATOM     11  C   UNL A   1      31.961  23.917  25.816  1.00  0.00     0.272 C 
ATOM     12  N   UNL A   1      32.077  22.574  26.387  1.00  0.00    -0.330 N 
ATOM     13  C   UNL A   1      33.500  22.467  26.811  1.00  0.00     0.276 C 
ATOM     14  H   UNL A   1      31.526  22.396  27.228  1.00  0.00     0.348 HD
BRANCH  10  15
ATOM     15  C   UNL A   1      33.400  25.726  24.805  1.00  0.00     0.004 A 
ATOM     16  C   UNL A   1      33.542  26.312  23.533  1.00  0.00     0.122 A 
ATOM     17  C   UNL A   1      33.802  27.695  23.414  1.00  0.00     0.047 A 
ATOM     18  C   UNL A   1      33.987  28.507  24.530  1.00  0.00     0.004 A 
ATOM     19  C   UNL A   1      33.605  26.589  25.920  1.00  0.00     0.008 A 
ATOM     20  C   UNL A   1      33.912  27.945  25.790  1.00  0.00     0.001 A 
BRANCH  16  21
ATOM     21  O   UNL A   1      33.713  25.665  22.339  1.00  0.00    -0.496 OA
ATOM     22  C   UNL A   1      32.832  26.009  21.287  1.00  0.00     0.278 C 
ENDBRANCH  16  21
ENDBRANCH  10  15
BRANCH  12  23
ATOM     23  C   UNL A   1      31.404  21.514  25.570  1.00  0.00     0.299 C 
BRANCH  23  24
ATOM     24  C   UNL A   1      32.327  20.536  24.862  1.00  0.00     0.013 A 
ATOM     25  C   UNL A   1      32.988  19.435  25.457  1.00  0.00     0.060 A 
ATOM     26  C   UNL A   1      32.335  20.622  23.486  1.00  0.00    -0.038 A 
ATOM     27  C   UNL A   1      33.345  18.368  24.645  1.00  0.00     0.166 A 
ATOM     28  C   UNL A   1      32.262  19.402  22.834  1.00  0.00     0.054 A 
ATOM     29  C   UNL A   1      32.409  21.964  22.815  1.00  0.00     0.045 C 
ATOM     30  C   UNL A   1      32.854  18.312  23.382  1.00  0.00     0.166 A 
ATOM     31  O   UNL A   1      34.065  17.247  24.913  1.00  0.00    -0.454 OA
ATOM     32  O   UNL A   1      33.081  17.150  22.728  1.00  0.00    -0.454 OA
ATOM     33  C   UNL A   1      34.089  16.618  23.600  1.00  0.00     0.468 C 
ENDBRANCH  23  24
ENDBRANCH  12  23
ENDBRANCH   6   9
ENDBRANCH   4   5
ENDBRANCH   3   4
ENDBRANCH   2   3
ENDBRANCH   1   2
BRANCH   1  34
ATOM     34  C   UNL A   1      41.737  20.584  27.522  1.00  0.00     0.021 C 
BRANCH  34  35
ATOM     35  C   UNL A   1      41.400  20.127  26.098  1.00  0.00     0.116 C 
BRANCH  35  36
ATOM     36  N   UNL A   1      42.500  19.434  25.442  1.00  0.00    -0.352 N 
ATOM     37  C   UNL A   1      43.698  19.909  24.973  1.00  0.00     0.251 C 
ATOM     38  H   UNL A   1      42.361  18.467  25.314  1.00  0.00     0.163 HD
ATOM     39  O   UNL A   1      44.403  19.193  24.255  1.00  0.00    -0.269 OA
BRANCH  37  40
ATOM     40  C   UNL A   1      44.152  21.271  25.311  1.00  0.00     0.039 A 
ATOM     41  C   UNL A   1      43.770  22.339  24.494  1.00  0.00     0.014 A 
ATOM     42  C   UNL A   1      44.979  21.490  26.416  1.00  0.00     0.014 A 
ATOM     43  C   UNL A   1      44.149  23.640  24.835  1.00  0.00     0.010 A 
ATOM     44  C   UNL A   1      45.313  22.793  26.782  1.00  0.00     0.010 A 
ATOM     45  C   UNL A   1      44.890  23.882  26.005  1.00  0.00    -0.014 A 
BRANCH  45  46
ATOM     46  C   UNL A   1      45.179  25.270  26.451  1.00  0.00     0.031 A 
ATOM     47  C   UNL A   1      44.083  26.142  27.001  1.00  0.00     0.074 A 
ATOM     48  C   UNL A   1      46.427  25.762  26.297  1.00  0.00     0.049 A 
ATOM     49  N   UNL A   1      44.146  27.387  27.399  1.00  0.00    -0.248 NA
ATOM     50  C   UNL A   1      42.738  25.551  27.098  1.00  0.00     0.031 C 
ATOM     51  C   UNL A   1      47.562  25.026  25.732  1.00  0.00     0.029 A 
ATOM     52  N   UNL A   1      46.951  26.996  26.590  1.00  0.00    -0.354 N 
ATOM     53  C   UNL A   1      42.853  27.733  27.776  1.00  0.00     0.074 A 
ATOM     54  C   UNL A   1      42.018  26.579  27.529  1.00  0.00     0.031 C 
ATOM     55  C   UNL A   1      48.649  25.815  25.741  1.00  0.00     0.029 A 
ATOM     56  C   UNL A   1      48.283  27.124  26.267  1.00  0.00     0.049 A 
ATOM     57  H   UNL A   1      46.424  27.723  26.996  1.00  0.00     0.167 HD
ATOM     58  C   UNL A   1      42.409  28.904  28.290  1.00  0.00     0.031 A 
ATOM     59  C   UNL A   1      49.112  28.182  26.365  1.00  0.00     0.031 A 
ATOM     60  C   UNL A   1      43.250  30.042  28.550  1.00  0.00     0.049 A 
ATOM     61  C   UNL A   1      48.581  29.474  26.928  1.00  0.00     0.074 A 
ATOM     62  C   UNL A   1      42.908  31.241  29.148  1.00  0.00     0.029 A 
ATOM     63  N   UNL A   1      44.594  30.129  28.216  1.00  0.00    -0.354 N 
ATOM     64  N   UNL A   1      47.379  29.741  27.381  1.00  0.00    -0.248 NA
ATOM     65  C   UNL A   1      49.517  30.604  26.999  1.00  0.00     0.031 C 
ATOM     66  C   UNL A   1      44.025  32.081  29.112  1.00  0.00     0.029 A 
ATOM     67  C   UNL A   1      45.082  31.380  28.554  1.00  0.00     0.049 A 
ATOM     68  H   UNL A   1      45.121  29.409  27.802  1.00  0.00     0.167 HD
ATOM     69  C   UNL A   1      47.424  31.063  27.812  1.00  0.00     0.074 A 
ATOM     70  C   UNL A   1      48.777  31.530  27.592  1.00  0.00     0.031 C 
ATOM     71  C   UNL A   1      46.433  31.827  28.332  1.00  0.00     0.031 A 
BRANCH  58  72
ATOM     72  C   UNL A   1      40.941  29.036  28.606  1.00  0.00    -0.014 A 
ATOM     73  C   UNL A   1      40.476  29.000  29.933  1.00  0.00     0.010 A 
ATOM     74  C   UNL A   1      40.033  29.317  27.569  1.00  0.00     0.010 A 
ATOM     75  C   UNL A   1      39.127  29.236  30.214  1.00  0.00     0.020 A 
ATOM     76  C   UNL A   1      38.689  29.579  27.849  1.00  0.00     0.020 A 
ATOM     77  C   UNL A   1      38.244  29.534  29.172  1.00  0.00     0.054 A 
BRANCH  77  78
ATOM     78  S   UNL A   1      36.519  29.920  29.579  1.00  0.00     0.124 S 
ATOM     79  O   UNL A   1      36.361  29.268  30.877  1.00  0.00    -0.237 OA
ATOM     80  O   UNL A   1      36.517  31.380  29.605  1.00  0.00    -0.237 OA
ATOM     81  O   UNL A   1      35.760  29.318  28.486  1.00  0.00    -0.744 OA
ENDBRANCH  77  78
ENDBRANCH  58  72
BRANCH  59  82
ATOM     82  C   UNL A   1      50.525  28.085  25.897  1.00  0.00    -0.014 A 
ATOM     83  C   UNL A   1      50.849  28.253  24.538  1.00  0.00     0.010 A 
ATOM     84  C   UNL A   1      51.553  27.777  26.808  1.00  0.00     0.010 A 
ATOM     85  C   UNL A   1      52.162  28.069  24.093  1.00  0.00     0.020 A 
ATOM     86  C   UNL A   1      52.873  27.628  26.372  1.00  0.00     0.020 A 
ATOM     87  C   UNL A   1      53.165  27.752  25.013  1.00  0.00     0.054 A 
BRANCH  87  88
ATOM     88  S   UNL A   1      54.861  27.514  24.416  1.00  0.00     0.124 S 
ATOM     89  O   UNL A   1      54.715  26.351  23.546  1.00  0.00    -0.237 OA
ATOM     90  O   UNL A   1      55.139  28.780  23.742  1.00  0.00    -0.237 OA
ATOM     91  O   UNL A   1      55.625  27.289  25.641  1.00  0.00    -0.744 OA
ENDBRANCH  87  88
ENDBRANCH  59  82
BRANCH  71  92
ATOM     92  C   UNL A   1      46.777  33.238  28.725  1.00  0.00    -0.014 A 
ATOM     93  C   UNL A   1      47.305  33.530  29.995  1.00  0.00     0.010 A 
ATOM     94  C   UNL A   1      46.629  34.278  27.789  1.00  0.00     0.010 A 
ATOM     95  C   UNL A   1      47.649  34.841  30.332  1.00  0.00     0.020 A 
ATOM     96  C   UNL A   1      47.004  35.584  28.110  1.00  0.00     0.020 A 
ATOM     97  C   UNL A   1      47.500  35.859  29.386  1.00  0.00     0.054 A 
BRANCH  97  98
ATOM     98  S   UNL A   1      48.003  37.543  29.833  1.00  0.00     0.124 S 
ATOM     99  O   UNL A   1      46.925  38.345  29.262  1.00  0.00    -0.237 OA
ATOM    100  O   UNL A   1      48.040  37.488  31.293  1.00  0.00    -0.237 OA
ATOM    101  O   UNL A   1      49.304  37.700  29.187  1.00  0.00    -0.744 OA
ENDBRANCH  97  98
ENDBRANCH  71  92
ENDBRANCH  45  46
ENDBRANCH  37  40
ENDBRANCH  35  36
ENDBRANCH  34  35
ENDBRANCH   1  34
TORSDOF 20
ENDMDL
MODEL 3
REMARK VINA RESULT:     -10.5      5.006     10.537
REMARK SMILES COc1ccccc1[C@@H]1C[N@@H+](Cc2cc3c(cc2C)OCO3)C[C@H]1C(=O)NCCCCCCNC(=O)c1ccc(-c2c3nc(c(-c4ccc(S(=O)(=O)[O-])cc4)c4ccc([nH]4)c(-c4ccc(S(=O)(=O)[O-])cc4)c4nc(c(-c5ccc(S(=O)(=O)[O-])cc5)c5ccc2[nH]5)C=C4)C=C3)cc1
REMARK SMILES IDX 31 1 30 2 29 3 28 4 27 5 25 6 26 7 24 9 9 10 10 11 11 12
REMARK SMILES IDX 23 13 8 15 3 16 4 17 5 18 7 19 6 20 2 21 1 22 12 23 13 24
REMARK SMILES IDX 14 25 18 26 15 27 17 28 19 29 16 30 22 31 20 32 21 33 32 34
REMARK SMILES IDX 33 35 34 36 35 37 36 39 37 40 38 41 96 42 39 43 95 44 40 45
REMARK SMILES IDX 41 46 42 47 89 48 43 49 94 50 88 51 90 52 44 53 93 54 87 55
REMARK SMILES IDX 86 56 45 58 75 59 56 60 74 61 57 62 60 63 73 64 91 65 58 66
REMARK SMILES IDX 59 67 72 69 92 70 61 71 46 72 47 73 55 74 48 75 54 76 49 77
REMARK SMILES IDX 50 78 51 79 52 80 53 81 76 82 77 83 85 84 78 85 84 86 79 87
REMARK SMILES IDX 80 88 81 89 82 90 83 91 62 92 63 93 71 94 64 95 70 96 65 97
REMARK SMILES IDX 66 98 67 99 68 100 69 101
REMARK H PARENT 27 8 11 14 34 38 90 57 60 68
REMARK Flexibility Score: inf
ROOT
ATOM      1  C   UNL A   1      31.930  28.382  26.158  1.00  0.00     0.002 C 
ENDROOT
BRANCH   1   2
ATOM      2  C   UNL A   1      31.330  28.465  24.745  1.00  0.00     0.002 C 
BRANCH   2   3
ATOM      3  C   UNL A   1      31.527  27.274  23.801  1.00  0.00     0.021 C 
BRANCH   3   4
ATOM      4  C   UNL A   1      32.789  27.049  22.896  1.00  0.00     0.116 C 
BRANCH   4   5
ATOM      5  N   UNL A   1      33.385  25.597  22.759  1.00  0.00    -0.356 N 
ATOM      6  C   UNL A   1      33.931  24.433  23.227  1.00  0.00     0.229 C 
ATOM      7  O   UNL A   1      34.003  23.645  22.248  1.00  0.00    -0.275 OA
ATOM      8  H   UNL A   1      33.338  25.438  21.788  1.00  0.00     0.163 HD
BRANCH   6   9
ATOM      9  C   UNL A   1      34.529  23.754  24.589  1.00  0.00     0.146 C 
ATOM     10  C   UNL A   1      35.048  22.270  24.599  1.00  0.00     0.096 C 
ATOM     11  C   UNL A   1      35.951  22.131  25.846  1.00  0.00     0.272 C 
ATOM     12  N   UNL A   1      36.494  23.462  26.122  1.00  0.00    -0.330 N 
ATOM     13  C   UNL A   1      35.423  24.402  25.689  1.00  0.00     0.276 C 
ATOM     14  H   UNL A   1      36.669  23.680  27.104  1.00  0.00     0.348 HD
BRANCH  10  15
ATOM     15  C   UNL A   1      34.213  21.005  24.406  1.00  0.00     0.004 A 
ATOM     16  C   UNL A   1      32.817  20.884  24.272  1.00  0.00     0.122 A 
ATOM     17  C   UNL A   1      32.207  19.611  24.313  1.00  0.00     0.047 A 
ATOM     18  C   UNL A   1      32.942  18.451  24.544  1.00  0.00     0.004 A 
ATOM     19  C   UNL A   1      34.926  19.796  24.649  1.00  0.00     0.008 A 
ATOM     20  C   UNL A   1      34.307  18.548  24.738  1.00  0.00     0.001 A 
BRANCH  16  21
ATOM     21  O   UNL A   1      31.888  21.887  24.354  1.00  0.00    -0.496 OA
ATOM     22  C   UNL A   1      31.394  22.204  25.641  1.00  0.00     0.278 C 
ENDBRANCH  16  21
ENDBRANCH  10  15
BRANCH  12  23
ATOM     23  C   UNL A   1      37.921  23.628  25.700  1.00  0.00     0.299 C 
BRANCH  23  24
ATOM     24  C   UNL A   1      38.896  22.590  26.231  1.00  0.00     0.013 A 
ATOM     25  C   UNL A   1      38.919  21.217  25.888  1.00  0.00     0.060 A 
ATOM     26  C   UNL A   1      39.968  23.094  26.937  1.00  0.00    -0.038 A 
ATOM     27  C   UNL A   1      40.119  20.531  26.013  1.00  0.00     0.166 A 
ATOM     28  C   UNL A   1      41.191  22.538  26.596  1.00  0.00     0.054 A 
ATOM     29  C   UNL A   1      39.756  24.164  27.969  1.00  0.00     0.045 C 
ATOM     30  C   UNL A   1      41.257  21.234  26.232  1.00  0.00     0.166 A 
ATOM     31  O   UNL A   1      40.410  19.211  25.860  1.00  0.00    -0.454 OA
ATOM     32  O   UNL A   1      42.401  20.518  26.140  1.00  0.00    -0.454 OA
ATOM     33  C   UNL A   1      41.826  19.205  26.197  1.00  0.00     0.468 C 
ENDBRANCH  23  24
ENDBRANCH  12  23
ENDBRANCH   6   9
ENDBRANCH   4   5
ENDBRANCH   3   4
ENDBRANCH   2   3
ENDBRANCH   1   2
BRANCH   1  34
ATOM     34  C   UNL A   1      33.326  27.755  26.368  1.00  0.00     0.021 C 
BRANCH  34  35
ATOM     35  C   UNL A   1      34.517  28.685  26.621  1.00  0.00     0.116 C 
BRANCH  35  36
ATOM     36  N   UNL A   1      34.131  30.078  26.802  1.00  0.00    -0.352 N 
ATOM     37  C   UNL A   1      34.590  31.022  27.684  1.00  0.00     0.251 C 
ATOM     38  H   UNL A   1      33.425  30.393  26.191  1.00  0.00     0.163 HD
ATOM     39  O   UNL A   1      33.978  32.086  27.817  1.00  0.00    -0.269 OA
BRANCH  37  40
ATOM     40  C   UNL A   1      35.805  30.776  28.485  1.00  0.00     0.039 A 
ATOM     41  C   UNL A   1      35.805  29.740  29.423  1.00  0.00     0.014 A 
ATOM     42  C   UNL A   1      36.932  31.587  28.330  1.00  0.00     0.014 A 
ATOM     43  C   UNL A   1      36.967  29.464  30.148  1.00  0.00     0.010 A 
ATOM     44  C   UNL A   1      38.105  31.278  29.017  1.00  0.00     0.010 A 
ATOM     45  C   UNL A   1      38.140  30.205  29.921  1.00  0.00    -0.014 A 
BRANCH  45  46
ATOM     46  C   UNL A   1      39.418  29.832  30.582  1.00  0.00     0.031 A 
ATOM     47  C   UNL A   1      39.839  30.496  31.866  1.00  0.00     0.074 A 
ATOM     48  C   UNL A   1      40.230  28.935  29.983  1.00  0.00     0.049 A 
ATOM     49  N   UNL A   1      40.936  30.325  32.557  1.00  0.00    -0.248 NA
ATOM     50  C   UNL A   1      38.922  31.497  32.437  1.00  0.00     0.031 C 
ATOM     51  C   UNL A   1      39.950  28.258  28.712  1.00  0.00     0.029 A 
ATOM     52  N   UNL A   1      41.456  28.442  30.352  1.00  0.00    -0.354 N 
ATOM     53  C   UNL A   1      40.852  31.204  33.631  1.00  0.00     0.074 A 
ATOM     54  C   UNL A   1      39.611  31.932  33.483  1.00  0.00     0.031 C 
ATOM     55  C   UNL A   1      40.964  27.427  28.422  1.00  0.00     0.029 A 
ATOM     56  C   UNL A   1      41.985  27.541  29.456  1.00  0.00     0.049 A 
ATOM     57  H   UNL A   1      41.916  28.709  31.182  1.00  0.00     0.167 HD
ATOM     58  C   UNL A   1      41.725  31.378  34.650  1.00  0.00     0.031 A 
ATOM     59  C   UNL A   1      43.167  26.893  29.456  1.00  0.00     0.031 A 
ATOM     60  C   UNL A   1      42.949  30.635  34.798  1.00  0.00     0.049 A 
ATOM     61  C   UNL A   1      44.122  27.121  30.598  1.00  0.00     0.074 A 
ATOM     62  C   UNL A   1      43.857  30.680  35.842  1.00  0.00     0.029 A 
ATOM     63  N   UNL A   1      43.444  29.727  33.875  1.00  0.00    -0.354 N 
ATOM     64  N   UNL A   1      43.969  27.876  31.660  1.00  0.00    -0.248 NA
ATOM     65  C   UNL A   1      45.405  26.407  30.546  1.00  0.00     0.031 C 
ATOM     66  C   UNL A   1      44.936  29.853  35.517  1.00  0.00     0.029 A 
ATOM     67  C   UNL A   1      44.668  29.241  34.304  1.00  0.00     0.049 A 
ATOM     68  H   UNL A   1      42.993  29.466  33.040  1.00  0.00     0.167 HD
ATOM     69  C   UNL A   1      45.126  27.708  32.412  1.00  0.00     0.074 A 
ATOM     70  C   UNL A   1      45.955  26.759  31.699  1.00  0.00     0.031 C 
ATOM     71  C   UNL A   1      45.478  28.293  33.583  1.00  0.00     0.031 A 
BRANCH  58  72
ATOM     72  C   UNL A   1      41.409  32.417  35.695  1.00  0.00    -0.014 A 
ATOM     73  C   UNL A   1      42.090  33.647  35.729  1.00  0.00     0.010 A 
ATOM     74  C   UNL A   1      40.335  32.204  36.579  1.00  0.00     0.010 A 
ATOM     75  C   UNL A   1      41.707  34.641  36.634  1.00  0.00     0.020 A 
ATOM     76  C   UNL A   1      39.933  33.205  37.467  1.00  0.00     0.020 A 
ATOM     77  C   UNL A   1      40.624  34.417  37.490  1.00  0.00     0.054 A 
BRANCH  77  78
ATOM     78  S   UNL A   1      40.098  35.759  38.592  1.00  0.00     0.124 S 
ATOM     79  O   UNL A   1      41.333  36.061  39.312  1.00  0.00    -0.237 OA
ATOM     80  O   UNL A   1      39.652  36.786  37.652  1.00  0.00    -0.237 OA
ATOM     81  O   UNL A   1      39.040  35.154  39.398  1.00  0.00    -0.744 OA
ENDBRANCH  77  78
ENDBRANCH  58  72
BRANCH  59  82
ATOM     82  C   UNL A   1      43.536  25.988  28.330  1.00  0.00    -0.014 A 
ATOM     83  C   UNL A   1      43.493  24.590  28.482  1.00  0.00     0.010 A 
ATOM     84  C   UNL A   1      43.980  26.525  27.106  1.00  0.00     0.010 A 
ATOM     85  C   UNL A   1      43.929  23.750  27.453  1.00  0.00     0.020 A 
ATOM     86  C   UNL A   1      44.383  25.688  26.063  1.00  0.00     0.020 A 
ATOM     87  C   UNL A   1      44.378  24.305  26.251  1.00  0.00     0.054 A 
BRANCH  87  88
ATOM     88  S   UNL A   1      44.942  23.199  24.930  1.00  0.00     0.124 S 
ATOM     89  O   UNL A   1      45.521  22.093  25.687  1.00  0.00    -0.237 OA
ATOM     90  O   UNL A   1      43.703  22.900  24.217  1.00  0.00    -0.237 OA
ATOM     91  O   UNL A   1      45.897  24.016  24.185  1.00  0.00    -0.744 OA
ENDBRANCH  87  88
ENDBRANCH  59  82
BRANCH  71  92
ATOM     92  C   UNL A   1      46.805  27.908  34.181  1.00  0.00    -0.014 A 
ATOM     93  C   UNL A   1      47.970  28.642  33.895  1.00  0.00     0.010 A 
ATOM     94  C   UNL A   1      46.875  26.835  35.088  1.00  0.00     0.010 A 
ATOM     95  C   UNL A   1      49.187  28.290  34.483  1.00  0.00     0.020 A 
ATOM     96  C   UNL A   1      48.083  26.502  35.704  1.00  0.00     0.020 A 
ATOM     97  C   UNL A   1      49.235  27.224  35.387  1.00  0.00     0.054 A 
BRANCH  97  98
ATOM     98  S   UNL A   1      50.818  26.822  36.175  1.00  0.00     0.124 S 
ATOM     99  O   UNL A   1      51.777  27.185  35.134  1.00  0.00    -0.237 OA
ATOM    100  O   UNL A   1      50.815  27.683  37.355  1.00  0.00    -0.237 OA
ATOM    101  O   UNL A   1      50.714  25.392  36.453  1.00  0.00    -0.744 OA
ENDBRANCH  97  98
ENDBRANCH  71  92
ENDBRANCH  45  46
ENDBRANCH  37  40
ENDBRANCH  35  36
ENDBRANCH  34  35
ENDBRANCH   1  34
TORSDOF 20
ENDMDL
