MODEL 1
REMARK VINA RESULT:     -10.6      0.000      0.000
REMARK SMILES C[C@@H](C(=O)NCCCCCCNC(=O)c1ccc(-c2c3nc(c(-c4ccc(S(=O)(=O)[O-])cc4)c4ccc([nH]4)c(-c4ccc(S(=O)(=O)[O-])cc4)c4nc(c(-c5ccc(S(=O)(=O)[O-])cc5)c5ccc2[nH]5)C=C4)C=C3)cc1)c1ccc(-c2ccccc2)c(F)c1
REMARK SMILES IDX 9 1 8 2 7 3 6 4 5 5 3 6 4 7 2 9 1 10 75 11 76 12 87 13 77 14
REMARK SMILES IDX 85 15 78 16 86 17 79 18 80 19 84 20 81 21 83 22 82 23 10 24
REMARK SMILES IDX 11 25 12 26 13 27 14 29 15 30 16 31 74 32 17 33 73 34 18 35
REMARK SMILES IDX 19 36 20 37 67 38 21 39 72 40 66 41 68 42 22 43 71 44 65 45
REMARK SMILES IDX 64 46 23 48 53 49 34 50 52 51 35 52 38 53 51 54 69 55 36 56
REMARK SMILES IDX 37 57 50 59 70 60 39 61 24 62 25 63 33 64 26 65 32 66 27 67
REMARK SMILES IDX 28 68 29 69 30 70 31 71 54 72 55 73 63 74 56 75 62 76 57 77
REMARK SMILES IDX 58 78 59 79 60 80 61 81 40 82 41 83 49 84 42 85 48 86 43 87
REMARK SMILES IDX 44 88 45 89 46 90 47 91
REMARK H PARENT 5 8 12 28 68 47 38 58
REMARK Flexibility Score: inf
ROOT
ATOM      1  C   UNL A   1      33.974  28.884  25.012  1.00  0.00     0.002 C 
ENDROOT
BRANCH   1   2
ATOM      2  C   UNL A   1      33.743  28.422  23.571  1.00  0.00     0.002 C 
BRANCH   2   3
ATOM      3  C   UNL A   1      32.568  29.098  22.851  1.00  0.00     0.021 C 
BRANCH   3   4
ATOM      4  C   UNL A   1      31.355  28.184  22.633  1.00  0.00     0.116 C 
BRANCH   4   5
ATOM      5  N   UNL A   1      30.910  27.641  23.901  1.00  0.00    -0.356 N 
ATOM      6  C   UNL A   1      30.637  26.351  24.257  1.00  0.00     0.227 C 
ATOM      7  O   UNL A   1      30.003  26.190  25.302  1.00  0.00    -0.274 OA
ATOM      8  H   UNL A   1      30.784  28.304  24.617  1.00  0.00     0.163 HD
BRANCH   6   9
ATOM      9  C   UNL A   1      31.162  25.182  23.398  1.00  0.00     0.105 C 
ATOM     10  C   UNL A   1      30.130  24.045  23.371  1.00  0.00     0.023 C 
BRANCH   9  11
ATOM     11  C   UNL A   1      32.556  24.719  23.846  1.00  0.00    -0.033 A 
ATOM     12  C   UNL A   1      33.658  24.685  22.979  1.00  0.00     0.005 A 
ATOM     13  C   UNL A   1      32.765  24.304  25.174  1.00  0.00     0.044 A 
ATOM     14  C   UNL A   1      34.902  24.208  23.403  1.00  0.00     0.012 A 
ATOM     15  C   UNL A   1      34.007  23.809  25.586  1.00  0.00     0.131 A 
ATOM     16  C   UNL A   1      35.096  23.744  24.711  1.00  0.00     0.017 A 
ATOM     17  F   UNL A   1      34.131  23.386  26.854  1.00  0.00    -0.206 F 
BRANCH  16  18
ATOM     18  C   UNL A   1      36.397  23.182  25.102  1.00  0.00    -0.015 A 
ATOM     19  C   UNL A   1      36.725  21.850  24.798  1.00  0.00     0.009 A 
ATOM     20  C   UNL A   1      37.316  23.938  25.846  1.00  0.00     0.009 A 
ATOM     21  C   UNL A   1      37.924  21.288  25.238  1.00  0.00     0.001 A 
ATOM     22  C   UNL A   1      38.514  23.374  26.291  1.00  0.00     0.001 A 
ATOM     23  C   UNL A   1      38.816  22.048  25.990  1.00  0.00     0.000 A 
ENDBRANCH  16  18
ENDBRANCH   9  11
ENDBRANCH   6   9
ENDBRANCH   4   5
ENDBRANCH   3   4
ENDBRANCH   2   3
ENDBRANCH   1   2
BRANCH   1  24
ATOM     24  C   UNL A   1      33.597  27.861  26.085  1.00  0.00     0.021 C 
BRANCH  24  25
ATOM     25  C   UNL A   1      33.543  28.421  27.502  1.00  0.00     0.116 C 
BRANCH  25  26
ATOM     26  N   UNL A   1      33.554  29.875  27.516  1.00  0.00    -0.352 N 
ATOM     27  C   UNL A   1      34.562  30.717  27.926  1.00  0.00     0.251 C 
ATOM     28  H   UNL A   1      32.736  30.314  27.188  1.00  0.00     0.163 HD
ATOM     29  O   UNL A   1      34.358  31.919  28.052  1.00  0.00    -0.269 OA
BRANCH  27  30
ATOM     30  C   UNL A   1      35.889  30.145  28.234  1.00  0.00     0.039 A 
ATOM     31  C   UNL A   1      36.870  30.114  27.239  1.00  0.00     0.014 A 
ATOM     32  C   UNL A   1      36.165  29.671  29.519  1.00  0.00     0.014 A 
ATOM     33  C   UNL A   1      38.154  29.663  27.551  1.00  0.00     0.010 A 
ATOM     34  C   UNL A   1      37.459  29.282  29.843  1.00  0.00     0.010 A 
ATOM     35  C   UNL A   1      38.466  29.273  28.863  1.00  0.00    -0.014 A 
BRANCH  35  36
ATOM     36  C   UNL A   1      39.829  28.834  29.252  1.00  0.00     0.031 A 
ATOM     37  C   UNL A   1      40.775  29.821  29.877  1.00  0.00     0.074 A 
ATOM     38  C   UNL A   1      40.255  27.597  28.933  1.00  0.00     0.049 A 
ATOM     39  N   UNL A   1      42.052  29.700  30.123  1.00  0.00    -0.248 NA
ATOM     40  C   UNL A   1      40.210  31.133  30.235  1.00  0.00     0.031 C 
ATOM     41  C   UNL A   1      39.446  26.560  28.292  1.00  0.00     0.029 A 
ATOM     42  N   UNL A   1      41.491  27.016  29.076  1.00  0.00    -0.354 N 
ATOM     43  C   UNL A   1      42.456  30.930  30.627  1.00  0.00     0.074 A 
ATOM     44  C   UNL A   1      41.293  31.793  30.619  1.00  0.00     0.031 C 
ATOM     45  C   UNL A   1      40.206  25.471  28.092  1.00  0.00     0.029 A 
ATOM     46  C   UNL A   1      41.565  25.747  28.550  1.00  0.00     0.049 A 
ATOM     47  H   UNL A   1      42.251  27.464  29.512  1.00  0.00     0.167 HD
ATOM     48  C   UNL A   1      43.682  31.307  31.062  1.00  0.00     0.031 A 
ATOM     49  C   UNL A   1      42.612  24.909  28.426  1.00  0.00     0.031 A 
ATOM     50  C   UNL A   1      44.829  30.441  31.083  1.00  0.00     0.049 A 
ATOM     51  C   UNL A   1      43.961  25.333  28.933  1.00  0.00     0.074 A 
ATOM     52  C   UNL A   1      46.098  30.704  31.564  1.00  0.00     0.029 A 
ATOM     53  N   UNL A   1      44.844  29.141  30.596  1.00  0.00    -0.354 N 
ATOM     54  N   UNL A   1      44.314  26.480  29.463  1.00  0.00    -0.248 NA
ATOM     55  C   UNL A   1      45.051  24.352  28.839  1.00  0.00     0.031 C 
ATOM     56  C   UNL A   1      46.894  29.577  31.333  1.00  0.00     0.029 A 
ATOM     57  C   UNL A   1      46.106  28.595  30.752  1.00  0.00     0.049 A 
ATOM     58  H   UNL A   1      44.072  28.677  30.201  1.00  0.00     0.167 HD
ATOM     59  C   UNL A   1      45.659  26.350  29.789  1.00  0.00     0.074 A 
ATOM     60  C   UNL A   1      46.057  25.014  29.398  1.00  0.00     0.031 C 
ATOM     61  C   UNL A   1      46.484  27.258  30.366  1.00  0.00     0.031 A 
BRANCH  48  62
ATOM     62  C   UNL A   1      43.838  32.733  31.519  1.00  0.00    -0.014 A 
ATOM     63  C   UNL A   1      43.668  33.090  32.870  1.00  0.00     0.010 A 
ATOM     64  C   UNL A   1      44.140  33.735  30.580  1.00  0.00     0.010 A 
ATOM     65  C   UNL A   1      43.725  34.430  33.260  1.00  0.00     0.020 A 
ATOM     66  C   UNL A   1      44.228  35.074  30.971  1.00  0.00     0.020 A 
ATOM     67  C   UNL A   1      43.989  35.415  32.304  1.00  0.00     0.054 A 
BRANCH  67  68
ATOM     68  S   UNL A   1      44.020  37.153  32.825  1.00  0.00     0.124 S 
ATOM     69  O   UNL A   1      45.321  37.242  33.484  1.00  0.00    -0.237 OA
ATOM     70  O   UNL A   1      43.909  37.872  31.558  1.00  0.00    -0.237 OA
ATOM     71  O   UNL A   1      42.864  37.269  33.709  1.00  0.00    -0.744 OA
ENDBRANCH  67  68
ENDBRANCH  48  62
BRANCH  49  72
ATOM     72  C   UNL A   1      42.404  23.579  27.794  1.00  0.00    -0.014 A 
ATOM     73  C   UNL A   1      42.787  23.356  26.460  1.00  0.00     0.010 A 
ATOM     74  C   UNL A   1      41.899  22.504  28.551  1.00  0.00     0.010 A 
ATOM     75  C   UNL A   1      42.680  22.081  25.898  1.00  0.00     0.020 A 
ATOM     76  C   UNL A   1      41.810  21.223  27.998  1.00  0.00     0.020 A 
ATOM     77  C   UNL A   1      42.201  21.021  26.674  1.00  0.00     0.054 A 
BRANCH  77  78
ATOM     78  S   UNL A   1      42.175  19.354  25.957  1.00  0.00     0.124 S 
ATOM     79  O   UNL A   1      42.752  18.551  27.030  1.00  0.00    -0.237 OA
ATOM     80  O   UNL A   1      40.752  19.142  25.701  1.00  0.00    -0.237 OA
ATOM     81  O   UNL A   1      43.000  19.486  24.757  1.00  0.00    -0.744 OA
ENDBRANCH  77  78
ENDBRANCH  49  72
BRANCH  61  82
ATOM     82  C   UNL A   1      47.898  26.837  30.656  1.00  0.00    -0.014 A 
ATOM     83  C   UNL A   1      48.903  26.943  29.679  1.00  0.00     0.010 A 
ATOM     84  C   UNL A   1      48.245  26.443  31.962  1.00  0.00     0.010 A 
ATOM     85  C   UNL A   1      50.234  26.662  30.004  1.00  0.00     0.020 A 
ATOM     86  C   UNL A   1      49.576  26.182  32.296  1.00  0.00     0.020 A 
ATOM     87  C   UNL A   1      50.563  26.292  31.313  1.00  0.00     0.054 A 
BRANCH  87  88
ATOM     88  S   UNL A   1      52.307  26.029  31.735  1.00  0.00     0.124 S 
ATOM     89  O   UNL A   1      52.983  26.433  30.507  1.00  0.00    -0.237 OA
ATOM     90  O   UNL A   1      52.498  26.917  32.879  1.00  0.00    -0.237 OA
ATOM     91  O   UNL A   1      52.377  24.602  32.046  1.00  0.00    -0.744 OA
ENDBRANCH  87  88
ENDBRANCH  61  82
ENDBRANCH  35  36
ENDBRANCH  27  30
ENDBRANCH  25  26
ENDBRANCH  24  25
ENDBRANCH   1  24
TORSDOF 18
ENDMDL
MODEL 2
REMARK VINA RESULT:     -10.6      2.046      2.600
REMARK SMILES C[C@@H](C(=O)NCCCCCCNC(=O)c1ccc(-c2c3nc(c(-c4ccc(S(=O)(=O)[O-])cc4)c4ccc([nH]4)c(-c4ccc(S(=O)(=O)[O-])cc4)c4nc(c(-c5ccc(S(=O)(=O)[O-])cc5)c5ccc2[nH]5)C=C4)C=C3)cc1)c1ccc(-c2ccccc2)c(F)c1
REMARK SMILES IDX 9 1 8 2 7 3 6 4 5 5 3 6 4 7 2 9 1 10 75 11 76 12 87 13 77 14
REMARK SMILES IDX 85 15 78 16 86 17 79 18 80 19 84 20 81 21 83 22 82 23 10 24
REMARK SMILES IDX 11 25 12 26 13 27 14 29 15 30 16 31 74 32 17 33 73 34 18 35
REMARK SMILES IDX 19 36 20 37 67 38 21 39 72 40 66 41 68 42 22 43 71 44 65 45
REMARK SMILES IDX 64 46 23 48 53 49 34 50 52 51 35 52 38 53 51 54 69 55 36 56
REMARK SMILES IDX 37 57 50 59 70 60 39 61 24 62 25 63 33 64 26 65 32 66 27 67
REMARK SMILES IDX 28 68 29 69 30 70 31 71 54 72 55 73 63 74 56 75 62 76 57 77
REMARK SMILES IDX 58 78 59 79 60 80 61 81 40 82 41 83 49 84 42 85 48 86 43 87
REMARK SMILES IDX 44 88 45 89 46 90 47 91
REMARK H PARENT 5 8 12 28 68 47 38 58
REMARK Flexibility Score: inf
ROOT
ATOM      1  C   UNL A   1      31.807  28.399  25.537  1.00  0.00     0.002 C 
ENDROOT
BRANCH   1   2
ATOM      2  C   UNL A   1      30.827  27.462  24.823  1.00  0.00     0.002 C 
BRANCH   2   3
ATOM      3  C   UNL A   1      31.058  27.306  23.314  1.00  0.00     0.021 C 
BRANCH   3   4
ATOM      4  C   UNL A   1      30.869  25.875  22.795  1.00  0.00     0.116 C 
BRANCH   4   5
ATOM      5  N   UNL A   1      32.123  25.365  22.277  1.00  0.00    -0.356 N 
ATOM      6  C   UNL A   1      33.202  24.851  22.937  1.00  0.00     0.227 C 
ATOM      7  O   UNL A   1      34.248  24.755  22.293  1.00  0.00    -0.274 OA
ATOM      8  H   UNL A   1      32.210  25.392  21.298  1.00  0.00     0.163 HD
BRANCH   6   9
ATOM      9  C   UNL A   1      33.063  24.374  24.399  1.00  0.00     0.105 C 
ATOM     10  C   UNL A   1      34.139  25.035  25.272  1.00  0.00     0.023 C 
BRANCH   9  11
ATOM     11  C   UNL A   1      33.056  22.842  24.506  1.00  0.00    -0.033 A 
ATOM     12  C   UNL A   1      33.684  22.153  25.554  1.00  0.00     0.005 A 
ATOM     13  C   UNL A   1      32.404  22.073  23.525  1.00  0.00     0.044 A 
ATOM     14  C   UNL A   1      33.705  20.755  25.594  1.00  0.00     0.012 A 
ATOM     15  C   UNL A   1      32.446  20.675  23.561  1.00  0.00     0.131 A 
ATOM     16  C   UNL A   1      33.102  19.989  24.588  1.00  0.00     0.017 A 
ATOM     17  F   UNL A   1      31.843  19.997  22.571  1.00  0.00    -0.206 F 
BRANCH  16  18
ATOM     18  C   UNL A   1      33.206  18.524  24.624  1.00  0.00    -0.015 A 
ATOM     19  C   UNL A   1      32.604  17.785  25.657  1.00  0.00     0.009 A 
ATOM     20  C   UNL A   1      33.966  17.830  23.670  1.00  0.00     0.009 A 
ATOM     21  C   UNL A   1      32.770  16.402  25.742  1.00  0.00     0.001 A 
ATOM     22  C   UNL A   1      34.136  16.446  23.757  1.00  0.00     0.001 A 
ATOM     23  C   UNL A   1      33.541  15.733  24.795  1.00  0.00     0.000 A 
ENDBRANCH  16  18
ENDBRANCH   9  11
ENDBRANCH   6   9
ENDBRANCH   4   5
ENDBRANCH   3   4
ENDBRANCH   2   3
ENDBRANCH   1   2
BRANCH   1  24
ATOM     24  C   UNL A   1      32.314  27.890  26.887  1.00  0.00     0.021 C 
BRANCH  24  25
ATOM     25  C   UNL A   1      33.666  28.457  27.308  1.00  0.00     0.116 C 
BRANCH  25  26
ATOM     26  N   UNL A   1      33.598  29.881  27.591  1.00  0.00    -0.352 N 
ATOM     27  C   UNL A   1      34.552  30.682  28.175  1.00  0.00     0.251 C 
ATOM     28  H   UNL A   1      32.763  30.331  27.330  1.00  0.00     0.163 HD
ATOM     29  O   UNL A   1      34.281  31.828  28.516  1.00  0.00    -0.269 OA
BRANCH  27  30
ATOM     30  C   UNL A   1      35.903  30.131  28.405  1.00  0.00     0.039 A 
ATOM     31  C   UNL A   1      36.841  30.162  27.371  1.00  0.00     0.014 A 
ATOM     32  C   UNL A   1      36.244  29.616  29.659  1.00  0.00     0.014 A 
ATOM     33  C   UNL A   1      38.148  29.731  27.612  1.00  0.00     0.010 A 
ATOM     34  C   UNL A   1      37.559  29.246  29.914  1.00  0.00     0.010 A 
ATOM     35  C   UNL A   1      38.523  29.299  28.894  1.00  0.00    -0.014 A 
BRANCH  35  36
ATOM     36  C   UNL A   1      39.911  28.878  29.209  1.00  0.00     0.031 A 
ATOM     37  C   UNL A   1      40.882  29.884  29.760  1.00  0.00     0.074 A 
ATOM     38  C   UNL A   1      40.330  27.640  28.886  1.00  0.00     0.049 A 
ATOM     39  N   UNL A   1      42.173  29.778  29.933  1.00  0.00    -0.248 NA
ATOM     40  C   UNL A   1      40.327  31.196  30.130  1.00  0.00     0.031 C 
ATOM     41  C   UNL A   1      39.494  26.585  28.311  1.00  0.00     0.029 A 
ATOM     42  N   UNL A   1      41.578  27.072  28.965  1.00  0.00    -0.354 N 
ATOM     43  C   UNL A   1      42.593  31.020  30.392  1.00  0.00     0.074 A 
ATOM     44  C   UNL A   1      41.424  31.873  30.438  1.00  0.00     0.031 C 
ATOM     45  C   UNL A   1      40.252  25.500  28.084  1.00  0.00     0.029 A 
ATOM     46  C   UNL A   1      41.633  25.795  28.457  1.00  0.00     0.049 A 
ATOM     47  H   UNL A   1      42.357  27.534  29.348  1.00  0.00     0.167 HD
ATOM     48  C   UNL A   1      43.839  31.416  30.747  1.00  0.00     0.031 A 
ATOM     49  C   UNL A   1      42.679  24.964  28.285  1.00  0.00     0.031 A 
ATOM     50  C   UNL A   1      44.994  30.560  30.715  1.00  0.00     0.049 A 
ATOM     51  C   UNL A   1      44.051  25.409  28.705  1.00  0.00     0.074 A 
ATOM     52  C   UNL A   1      46.286  30.842  31.117  1.00  0.00     0.029 A 
ATOM     53  N   UNL A   1      44.993  29.252  30.250  1.00  0.00    -0.354 N 
ATOM     54  N   UNL A   1      44.423  26.568  29.194  1.00  0.00    -0.248 NA
ATOM     55  C   UNL A   1      45.143  24.436  28.563  1.00  0.00     0.031 C 
ATOM     56  C   UNL A   1      47.078  29.718  30.857  1.00  0.00     0.029 A 
ATOM     57  C   UNL A   1      46.267  28.719  30.340  1.00  0.00     0.049 A 
ATOM     58  H   UNL A   1      44.204  28.774  29.908  1.00  0.00     0.167 HD
ATOM     59  C   UNL A   1      45.786  26.455  29.442  1.00  0.00     0.074 A 
ATOM     60  C   UNL A   1      46.174  25.115  29.051  1.00  0.00     0.031 C 
ATOM     61  C   UNL A   1      46.634  27.379  29.955  1.00  0.00     0.031 A 
BRANCH  48  62
ATOM     62  C   UNL A   1      44.008  32.850  31.171  1.00  0.00    -0.014 A 
ATOM     63  C   UNL A   1      43.783  33.251  32.501  1.00  0.00     0.010 A 
ATOM     64  C   UNL A   1      44.380  33.817  30.220  1.00  0.00     0.010 A 
ATOM     65  C   UNL A   1      43.853  34.600  32.855  1.00  0.00     0.020 A 
ATOM     66  C   UNL A   1      44.481  35.164  30.576  1.00  0.00     0.020 A 
ATOM     67  C   UNL A   1      44.187  35.550  31.886  1.00  0.00     0.054 A 
BRANCH  67  68
ATOM     68  S   UNL A   1      44.236  37.301  32.358  1.00  0.00     0.124 S 
ATOM     69  O   UNL A   1      43.273  37.341  33.457  1.00  0.00    -0.237 OA
ATOM     70  O   UNL A   1      45.632  37.494  32.741  1.00  0.00    -0.237 OA
ATOM     71  O   UNL A   1      43.824  37.998  31.143  1.00  0.00    -0.744 OA
ENDBRANCH  67  68
ENDBRANCH  48  62
BRANCH  49  72
ATOM     72  C   UNL A   1      42.447  23.622  27.689  1.00  0.00    -0.014 A 
ATOM     73  C   UNL A   1      42.889  23.335  26.386  1.00  0.00     0.010 A 
ATOM     74  C   UNL A   1      41.858  22.597  28.454  1.00  0.00     0.010 A 
ATOM     75  C   UNL A   1      42.756  22.046  25.862  1.00  0.00     0.020 A 
ATOM     76  C   UNL A   1      41.743  21.301  27.941  1.00  0.00     0.020 A 
ATOM     77  C   UNL A   1      42.193  21.035  26.647  1.00  0.00     0.054 A 
BRANCH  77  78
ATOM     78  S   UNL A   1      42.132  19.346  25.987  1.00  0.00     0.124 S 
ATOM     79  O   UNL A   1      42.939  19.462  24.777  1.00  0.00    -0.237 OA
ATOM     80  O   UNL A   1      42.722  18.561  27.069  1.00  0.00    -0.237 OA
ATOM     81  O   UNL A   1      40.705  19.116  25.771  1.00  0.00    -0.744 OA
ENDBRANCH  77  78
ENDBRANCH  49  72
BRANCH  61  82
ATOM     82  C   UNL A   1      48.068  26.976  30.167  1.00  0.00    -0.014 A 
ATOM     83  C   UNL A   1      49.068  27.332  29.247  1.00  0.00     0.010 A 
ATOM     84  C   UNL A   1      48.431  26.335  31.367  1.00  0.00     0.010 A 
ATOM     85  C   UNL A   1      50.411  27.054  29.523  1.00  0.00     0.020 A 
ATOM     86  C   UNL A   1      49.773  26.074  31.655  1.00  0.00     0.020 A 
ATOM     87  C   UNL A   1      50.755  26.434  30.729  1.00  0.00     0.054 A 
BRANCH  87  88
ATOM     88  S   UNL A   1      52.510  26.174  31.108  1.00  0.00     0.124 S 
ATOM     89  O   UNL A   1      52.844  27.383  31.854  1.00  0.00    -0.237 OA
ATOM     90  O   UNL A   1      52.489  24.939  31.889  1.00  0.00    -0.237 OA
ATOM     91  O   UNL A   1      53.135  26.059  29.792  1.00  0.00    -0.744 OA
ENDBRANCH  87  88
ENDBRANCH  61  82
ENDBRANCH  35  36
ENDBRANCH  27  30
ENDBRANCH  25  26
ENDBRANCH  24  25
ENDBRANCH   1  24
TORSDOF 18
ENDMDL
MODEL 3
REMARK VINA RESULT:     -10.1      4.312     11.150
REMARK SMILES C[C@@H](C(=O)NCCCCCCNC(=O)c1ccc(-c2c3nc(c(-c4ccc(S(=O)(=O)[O-])cc4)c4ccc([nH]4)c(-c4ccc(S(=O)(=O)[O-])cc4)c4nc(c(-c5ccc(S(=O)(=O)[O-])cc5)c5ccc2[nH]5)C=C4)C=C3)cc1)c1ccc(-c2ccccc2)c(F)c1
REMARK SMILES IDX 9 1 8 2 7 3 6 4 5 5 3 6 4 7 2 9 1 10 75 11 76 12 87 13 77 14
REMARK SMILES IDX 85 15 78 16 86 17 79 18 80 19 84 20 81 21 83 22 82 23 10 24
REMARK SMILES IDX 11 25 12 26 13 27 14 29 15 30 16 31 74 32 17 33 73 34 18 35
REMARK SMILES IDX 19 36 20 37 67 38 21 39 72 40 66 41 68 42 22 43 71 44 65 45
REMARK SMILES IDX 64 46 23 48 53 49 34 50 52 51 35 52 38 53 51 54 69 55 36 56
REMARK SMILES IDX 37 57 50 59 70 60 39 61 24 62 25 63 33 64 26 65 32 66 27 67
REMARK SMILES IDX 28 68 29 69 30 70 31 71 54 72 55 73 63 74 56 75 62 76 57 77
REMARK SMILES IDX 58 78 59 79 60 80 61 81 40 82 41 83 49 84 42 85 48 86 43 87
REMARK SMILES IDX 44 88 45 89 46 90 47 91
REMARK H PARENT 5 8 12 28 68 47 38 58
REMARK Flexibility Score: inf
ROOT
ATOM      1  C   UNL A   1      42.471  22.643  25.863  1.00  0.00     0.002 C 
ENDROOT
BRANCH   1   2
ATOM      2  C   UNL A   1      43.476  23.076  26.934  1.00  0.00     0.002 C 
BRANCH   2   3
ATOM      3  C   UNL A   1      44.129  24.445  26.698  1.00  0.00     0.021 C 
BRANCH   3   4
ATOM      4  C   UNL A   1      43.787  25.079  25.345  1.00  0.00     0.116 C 
BRANCH   4   5
ATOM      5  N   UNL A   1      44.727  26.141  25.042  1.00  0.00    -0.356 N 
ATOM      6  C   UNL A   1      44.633  27.485  25.260  1.00  0.00     0.227 C 
ATOM      7  O   UNL A   1      45.437  28.199  24.655  1.00  0.00    -0.274 OA
ATOM      8  H   UNL A   1      45.562  25.847  24.614  1.00  0.00     0.163 HD
BRANCH   6   9
ATOM      9  C   UNL A   1      43.599  28.039  26.262  1.00  0.00     0.105 C 
ATOM     10  C   UNL A   1      42.375  28.580  25.509  1.00  0.00     0.023 C 
BRANCH   9  11
ATOM     11  C   UNL A   1      44.220  29.066  27.221  1.00  0.00    -0.033 A 
ATOM     12  C   UNL A   1      45.455  28.861  27.855  1.00  0.00     0.005 A 
ATOM     13  C   UNL A   1      43.543  30.268  27.496  1.00  0.00     0.044 A 
ATOM     14  C   UNL A   1      45.967  29.792  28.764  1.00  0.00     0.012 A 
ATOM     15  C   UNL A   1      44.052  31.185  28.421  1.00  0.00     0.131 A 
ATOM     16  C   UNL A   1      45.267  30.964  29.079  1.00  0.00     0.017 A 
ATOM     17  F   UNL A   1      43.337  32.293  28.675  1.00  0.00    -0.206 F 
BRANCH  16  18
ATOM     18  C   UNL A   1      45.801  31.883  30.092  1.00  0.00    -0.015 A 
ATOM     19  C   UNL A   1      45.159  33.103  30.367  1.00  0.00     0.009 A 
ATOM     20  C   UNL A   1      47.002  31.602  30.762  1.00  0.00     0.009 A 
ATOM     21  C   UNL A   1      45.707  34.016  31.269  1.00  0.00     0.001 A 
ATOM     22  C   UNL A   1      47.554  32.517  31.662  1.00  0.00     0.001 A 
ATOM     23  C   UNL A   1      46.908  33.726  31.911  1.00  0.00     0.000 A 
ENDBRANCH  16  18
ENDBRANCH   9  11
ENDBRANCH   6   9
ENDBRANCH   4   5
ENDBRANCH   3   4
ENDBRANCH   2   3
ENDBRANCH   1   2
BRANCH   1  24
ATOM     24  C   UNL A   1      41.728  21.341  26.168  1.00  0.00     0.021 C 
BRANCH  24  25
ATOM     25  C   UNL A   1      40.407  21.526  26.907  1.00  0.00     0.116 C 
BRANCH  25  26
ATOM     26  N   UNL A   1      39.332  21.930  26.015  1.00  0.00    -0.352 N 
ATOM     27  C   UNL A   1      38.695  23.147  25.943  1.00  0.00     0.251 C 
ATOM     28  H   UNL A   1      39.021  21.245  25.380  1.00  0.00     0.163 HD
ATOM     29  O   UNL A   1      37.683  23.282  25.264  1.00  0.00    -0.269 OA
BRANCH  27  30
ATOM     30  C   UNL A   1      39.239  24.284  26.714  1.00  0.00     0.039 A 
ATOM     31  C   UNL A   1      40.079  25.203  26.080  1.00  0.00     0.014 A 
ATOM     32  C   UNL A   1      38.885  24.452  28.055  1.00  0.00     0.014 A 
ATOM     33  C   UNL A   1      40.518  26.331  26.777  1.00  0.00     0.010 A 
ATOM     34  C   UNL A   1      39.271  25.606  28.726  1.00  0.00     0.010 A 
ATOM     35  C   UNL A   1      40.092  26.556  28.095  1.00  0.00    -0.014 A 
BRANCH  35  36
ATOM     36  C   UNL A   1      40.492  27.764  28.857  1.00  0.00     0.031 A 
ATOM     37  C   UNL A   1      41.765  27.747  29.657  1.00  0.00     0.074 A 
ATOM     38  C   UNL A   1      39.661  28.820  28.932  1.00  0.00     0.049 A 
ATOM     39  N   UNL A   1      42.206  28.616  30.527  1.00  0.00    -0.248 NA
ATOM     40  C   UNL A   1      42.636  26.574  29.477  1.00  0.00     0.031 C 
ATOM     41  C   UNL A   1      38.381  28.943  28.233  1.00  0.00     0.029 A 
ATOM     42  N   UNL A   1      39.756  29.980  29.662  1.00  0.00    -0.354 N 
ATOM     43  C   UNL A   1      43.384  28.078  31.030  1.00  0.00     0.074 A 
ATOM     44  C   UNL A   1      43.570  26.793  30.392  1.00  0.00     0.031 C 
ATOM     45  C   UNL A   1      37.807  30.109  28.571  1.00  0.00     0.029 A 
ATOM     46  C   UNL A   1      38.655  30.796  29.541  1.00  0.00     0.049 A 
ATOM     47  H   UNL A   1      40.536  30.205  30.218  1.00  0.00     0.167 HD
ATOM     48  C   UNL A   1      44.238  28.608  31.939  1.00  0.00     0.031 A 
ATOM     49  C   UNL A   1      38.350  31.953  30.159  1.00  0.00     0.031 A 
ATOM     50  C   UNL A   1      44.057  29.893  32.558  1.00  0.00     0.049 A 
ATOM     51  C   UNL A   1      39.317  32.539  31.147  1.00  0.00     0.074 A 
ATOM     52  C   UNL A   1      44.895  30.549  33.440  1.00  0.00     0.029 A 
ATOM     53  N   UNL A   1      42.957  30.715  32.360  1.00  0.00    -0.354 N 
ATOM     54  N   UNL A   1      40.457  32.047  31.569  1.00  0.00    -0.248 NA
ATOM     55  C   UNL A   1      38.966  33.839  31.737  1.00  0.00     0.031 C 
ATOM     56  C   UNL A   1      44.284  31.753  33.808  1.00  0.00     0.029 A 
ATOM     57  C   UNL A   1      43.087  31.867  33.117  1.00  0.00     0.049 A 
ATOM     58  H   UNL A   1      42.197  30.510  31.770  1.00  0.00     0.167 HD
ATOM     59  C   UNL A   1      40.973  32.987  32.453  1.00  0.00     0.074 A 
ATOM     60  C   UNL A   1      40.022  34.079  32.505  1.00  0.00     0.031 C 
ATOM     61  C   UNL A   1      42.135  32.949  33.150  1.00  0.00     0.031 A 
BRANCH  48  62
ATOM     62  C   UNL A   1      45.426  27.772  32.332  1.00  0.00    -0.014 A 
ATOM     63  C   UNL A   1      45.403  26.964  33.485  1.00  0.00     0.010 A 
ATOM     64  C   UNL A   1      46.591  27.807  31.546  1.00  0.00     0.010 A 
ATOM     65  C   UNL A   1      46.547  26.269  33.884  1.00  0.00     0.020 A 
ATOM     66  C   UNL A   1      47.729  27.089  31.924  1.00  0.00     0.020 A 
ATOM     67  C   UNL A   1      47.708  26.348  33.108  1.00  0.00     0.054 A 
BRANCH  67  68
ATOM     68  S   UNL A   1      49.192  25.467  33.664  1.00  0.00     0.124 S 
ATOM     69  O   UNL A   1      50.148  25.797  32.609  1.00  0.00    -0.237 OA
ATOM     70  O   UNL A   1      49.461  26.073  34.965  1.00  0.00    -0.237 OA
ATOM     71  O   UNL A   1      48.769  24.070  33.706  1.00  0.00    -0.744 OA
ENDBRANCH  67  68
ENDBRANCH  48  62
BRANCH  49  72
ATOM     72  C   UNL A   1      37.062  32.626  29.840  1.00  0.00    -0.014 A 
ATOM     73  C   UNL A   1      35.914  32.368  30.609  1.00  0.00     0.010 A 
ATOM     74  C   UNL A   1      37.000  33.594  28.819  1.00  0.00     0.010 A 
ATOM     75  C   UNL A   1      34.731  33.071  30.370  1.00  0.00     0.020 A 
ATOM     76  C   UNL A   1      35.824  34.314  28.591  1.00  0.00     0.020 A 
ATOM     77  C   UNL A   1      34.696  34.047  29.369  1.00  0.00     0.054 A 
BRANCH  77  78
ATOM     78  S   UNL A   1      33.182  35.024  29.151  1.00  0.00     0.124 S 
ATOM     79  O   UNL A   1      33.709  36.305  28.693  1.00  0.00    -0.237 OA
ATOM     80  O   UNL A   1      32.446  34.248  28.155  1.00  0.00    -0.237 OA
ATOM     81  O   UNL A   1      32.586  35.031  30.486  1.00  0.00    -0.744 OA
ENDBRANCH  77  78
ENDBRANCH  49  72
BRANCH  61  82
ATOM     82  C   UNL A   1      42.479  34.135  34.008  1.00  0.00    -0.014 A 
ATOM     83  C   UNL A   1      42.227  34.131  35.391  1.00  0.00     0.010 A 
ATOM     84  C   UNL A   1      43.173  35.219  33.438  1.00  0.00     0.010 A 
ATOM     85  C   UNL A   1      42.665  35.192  36.190  1.00  0.00     0.020 A 
ATOM     86  C   UNL A   1      43.629  36.271  34.235  1.00  0.00     0.020 A 
ATOM     87  C   UNL A   1      43.370  36.251  35.608  1.00  0.00     0.054 A 
BRANCH  87  88
ATOM     88  S   UNL A   1      44.014  37.566  36.679  1.00  0.00     0.124 S 
ATOM     89  O   UNL A   1      42.996  37.635  37.723  1.00  0.00    -0.237 OA
ATOM     90  O   UNL A   1      45.308  37.036  37.098  1.00  0.00    -0.237 OA
ATOM     91  O   UNL A   1      44.082  38.729  35.796  1.00  0.00    -0.744 OA
ENDBRANCH  87  88
ENDBRANCH  61  82
ENDBRANCH  35  36
ENDBRANCH  27  30
ENDBRANCH  25  26
ENDBRANCH  24  25
ENDBRANCH   1  24
TORSDOF 18
ENDMDL
