MODEL 1
REMARK VINA RESULT:     -10.6      0.000      0.000
REMARK SMILES CC(C)Cc1noc(C[NH+]2CCC(CC(=O)NCCCCCCNC(=O)c3ccc(-c4c5nc(c(-c6ccc(S(=O)(=O)[O-])cc6)c6ccc([nH]6)c(-c6ccc(S(=O)(=O)[O-])cc6)c6nc(c(-c7ccc(S(=O)(=O)[O-])cc7)c7ccc4[nH]7)C=C6)C=C5)cc3)CC2)n1
REMARK SMILES IDX 19 1 18 2 17 3 15 4 16 5 14 7 13 8 10 9 11 10 88 11 12 13
REMARK SMILES IDX 87 14 9 15 8 16 5 17 6 18 89 19 7 20 4 21 2 22 1 23 3 24
REMARK SMILES IDX 20 25 21 26 22 27 23 28 24 29 25 30 26 32 27 33 28 34 86 35
REMARK SMILES IDX 29 36 85 37 30 38 31 39 32 40 79 41 33 42 84 43 78 44 80 45
REMARK SMILES IDX 34 46 83 47 77 48 76 49 35 51 65 52 46 53 64 54 47 55 50 56
REMARK SMILES IDX 63 57 81 58 48 59 49 60 62 62 82 63 51 64 36 65 37 66 45 67
REMARK SMILES IDX 38 68 44 69 39 70 40 71 41 72 42 73 43 74 66 75 67 76 75 77
REMARK SMILES IDX 68 78 74 79 69 80 70 81 71 82 72 83 73 84 52 85 53 86 61 87
REMARK SMILES IDX 54 88 60 89 55 90 56 91 57 92 58 93 59 94
REMARK H PARENT 17 6 10 12 24 31 80 50 50 61
REMARK Flexibility Score: inf
ROOT
ATOM      1  C   UNL A   1      41.938  21.747  27.031  1.00  0.00     0.021 C 
ENDROOT
BRANCH   1   2
ATOM      2  C   UNL A   1      40.701  21.752  26.118  1.00  0.00     0.116 C 
BRANCH   2   3
ATOM      3  N   UNL A   1      39.768  22.799  26.512  1.00  0.00    -0.356 N 
ATOM      4  C   UNL A   1      38.486  23.059  26.125  1.00  0.00     0.220 C 
ATOM      5  O   UNL A   1      37.951  24.081  26.562  1.00  0.00    -0.275 OA
ATOM      6  H   UNL A   1      40.126  23.431  27.176  1.00  0.00     0.163 HD
BRANCH   4   7
ATOM      7  C   UNL A   1      37.721  22.123  25.194  1.00  0.00     0.104 C 
BRANCH   7   8
ATOM      8  C   UNL A   1      36.307  21.759  25.687  1.00  0.00     0.009 C 
ATOM      9  N   UNL A   1      33.425  21.647  25.051  1.00  0.00    -0.327 N 
ATOM     10  C   UNL A   1      33.943  22.708  25.915  1.00  0.00     0.262 C 
ATOM     11  C   UNL A   1      34.198  20.409  25.214  1.00  0.00     0.262 C 
ATOM     12  H   UNL A   1      33.539  21.915  24.074  1.00  0.00     0.348 HD
ATOM     13  C   UNL A   1      35.397  22.977  25.616  1.00  0.00     0.066 C 
ATOM     14  C   UNL A   1      35.682  20.619  24.868  1.00  0.00     0.066 C 
BRANCH   9  15
ATOM     15  C   UNL A   1      31.966  21.473  25.279  1.00  0.00     0.364 C 
BRANCH  15  16
ATOM     16  C   UNL A   1      31.221  22.726  25.612  1.00  0.00     0.281 A 
ATOM     17  C   UNL A   1      30.547  24.683  25.886  1.00  0.00     0.172 A 
ATOM     18  N   UNL A   1      30.320  24.110  27.074  1.00  0.00    -0.062 NA
ATOM     19  N   UNL A   1      31.136  23.866  24.955  1.00  0.00    -0.191 NA
ATOM     20  O   UNL A   1      30.697  22.794  26.870  1.00  0.00    -0.333 OA
BRANCH  17  21
ATOM     21  C   UNL A   1      30.153  26.087  25.610  1.00  0.00     0.084 C 
BRANCH  21  22
ATOM     22  C   UNL A   1      30.671  26.587  24.245  1.00  0.00    -0.010 C 
ATOM     23  C   UNL A   1      29.654  27.472  23.513  1.00  0.00     0.008 C 
ATOM     24  C   UNL A   1      31.971  27.368  24.430  1.00  0.00     0.008 C 
ENDBRANCH  21  22
ENDBRANCH  17  21
ENDBRANCH  15  16
ENDBRANCH   9  15
ENDBRANCH   7   8
ENDBRANCH   4   7
ENDBRANCH   2   3
ENDBRANCH   1   2
BRANCH   1  25
ATOM     25  C   UNL A   1      41.782  22.512  28.341  1.00  0.00     0.002 C 
BRANCH  25  26
ATOM     26  C   UNL A   1      43.005  23.326  28.756  1.00  0.00     0.002 C 
BRANCH  26  27
ATOM     27  C   UNL A   1      44.029  23.585  27.646  1.00  0.00     0.021 C 
BRANCH  27  28
ATOM     28  C   UNL A   1      43.986  24.986  27.042  1.00  0.00     0.116 C 
BRANCH  28  29
ATOM     29  N   UNL A   1      43.009  25.083  25.967  1.00  0.00    -0.352 N 
ATOM     30  C   UNL A   1      41.780  25.697  25.963  1.00  0.00     0.251 C 
ATOM     31  H   UNL A   1      43.265  24.646  25.124  1.00  0.00     0.163 HD
ATOM     32  O   UNL A   1      40.977  25.466  25.065  1.00  0.00    -0.269 OA
BRANCH  30  33
ATOM     33  C   UNL A   1      41.432  26.630  27.054  1.00  0.00     0.039 A 
ATOM     34  C   UNL A   1      40.598  26.193  28.086  1.00  0.00     0.014 A 
ATOM     35  C   UNL A   1      41.938  27.932  27.055  1.00  0.00     0.014 A 
ATOM     36  C   UNL A   1      40.331  27.046  29.161  1.00  0.00     0.010 A 
ATOM     37  C   UNL A   1      41.730  28.752  28.159  1.00  0.00     0.010 A 
ATOM     38  C   UNL A   1      40.927  28.317  29.224  1.00  0.00    -0.014 A 
BRANCH  38  39
ATOM     39  C   UNL A   1      40.742  29.202  30.402  1.00  0.00     0.031 A 
ATOM     40  C   UNL A   1      41.610  29.032  31.619  1.00  0.00     0.074 A 
ATOM     41  C   UNL A   1      39.745  30.108  30.403  1.00  0.00     0.049 A 
ATOM     42  N   UNL A   1      41.552  29.658  32.766  1.00  0.00    -0.248 NA
ATOM     43  C   UNL A   1      42.666  28.011  31.543  1.00  0.00     0.031 C 
ATOM     44  C   UNL A   1      38.820  30.351  29.293  1.00  0.00     0.029 A 
ATOM     45  N   UNL A   1      39.338  30.991  31.372  1.00  0.00    -0.354 N 
ATOM     46  C   UNL A   1      42.555  29.102  33.551  1.00  0.00     0.074 A 
ATOM     47  C   UNL A   1      43.166  28.049  32.770  1.00  0.00     0.031 C 
ATOM     48  C   UNL A   1      37.978  31.341  29.630  1.00  0.00     0.029 A 
ATOM     49  C   UNL A   1      38.268  31.768  30.996  1.00  0.00     0.049 A 
ATOM     50  H   UNL A   1      39.773  31.062  32.252  1.00  0.00     0.167 HD
ATOM     51  C   UNL A   1      42.947  29.448  34.802  1.00  0.00     0.031 A 
ATOM     52  C   UNL A   1      37.589  32.713  31.675  1.00  0.00     0.031 A 
ATOM     53  C   UNL A   1      42.327  30.489  35.579  1.00  0.00     0.049 A 
ATOM     54  C   UNL A   1      38.004  33.041  33.083  1.00  0.00     0.074 A 
ATOM     55  C   UNL A   1      42.669  30.941  36.842  1.00  0.00     0.029 A 
ATOM     56  N   UNL A   1      41.230  31.236  35.171  1.00  0.00    -0.354 N 
ATOM     57  N   UNL A   1      38.990  32.542  33.789  1.00  0.00    -0.248 NA
ATOM     58  C   UNL A   1      37.216  34.064  33.785  1.00  0.00     0.031 C 
ATOM     59  C   UNL A   1      41.744  31.919  37.220  1.00  0.00     0.029 A 
ATOM     60  C   UNL A   1      40.865  32.124  36.168  1.00  0.00     0.049 A 
ATOM     61  H   UNL A   1      40.779  31.147  34.301  1.00  0.00     0.167 HD
ATOM     62  C   UNL A   1      38.960  33.212  35.007  1.00  0.00     0.074 A 
ATOM     63  C   UNL A   1      37.866  34.159  34.936  1.00  0.00     0.031 C 
ATOM     64  C   UNL A   1      39.769  33.059  36.084  1.00  0.00     0.031 A 
BRANCH  51  65
ATOM     65  C   UNL A   1      44.092  28.677  35.406  1.00  0.00    -0.014 A 
ATOM     66  C   UNL A   1      43.865  27.508  36.158  1.00  0.00     0.010 A 
ATOM     67  C   UNL A   1      45.414  29.116  35.213  1.00  0.00     0.010 A 
ATOM     68  C   UNL A   1      44.932  26.829  36.752  1.00  0.00     0.020 A 
ATOM     69  C   UNL A   1      46.487  28.420  35.778  1.00  0.00     0.020 A 
ATOM     70  C   UNL A   1      46.236  27.294  36.564  1.00  0.00     0.054 A 
BRANCH  70  71
ATOM     71  S   UNL A   1      47.599  26.396  37.355  1.00  0.00     0.124 S 
ATOM     72  O   UNL A   1      46.911  25.700  38.440  1.00  0.00    -0.237 OA
ATOM     73  O   UNL A   1      48.091  25.544  36.275  1.00  0.00    -0.237 OA
ATOM     74  O   UNL A   1      48.514  27.455  37.777  1.00  0.00    -0.744 OA
ENDBRANCH  70  71
ENDBRANCH  51  65
BRANCH  52  75
ATOM     75  C   UNL A   1      36.461  33.431  31.023  1.00  0.00    -0.014 A 
ATOM     76  C   UNL A   1      35.378  33.897  31.790  1.00  0.00     0.010 A 
ATOM     77  C   UNL A   1      36.469  33.675  29.637  1.00  0.00     0.010 A 
ATOM     78  C   UNL A   1      34.320  34.580  31.184  1.00  0.00     0.020 A 
ATOM     79  C   UNL A   1      35.427  34.383  29.031  1.00  0.00     0.020 A 
ATOM     80  C   UNL A   1      34.354  34.823  29.808  1.00  0.00     0.054 A 
BRANCH  80  81
ATOM     81  S   UNL A   1      32.997  35.762  29.054  1.00  0.00     0.124 S 
ATOM     82  O   UNL A   1      32.436  34.791  28.121  1.00  0.00    -0.237 OA
ATOM     83  O   UNL A   1      32.162  36.088  30.208  1.00  0.00    -0.237 OA
ATOM     84  O   UNL A   1      33.671  36.905  28.441  1.00  0.00    -0.744 OA
ENDBRANCH  80  81
ENDBRANCH  52  75
BRANCH  64  85
ATOM     85  C   UNL A   1      39.527  33.958  37.270  1.00  0.00    -0.014 A 
ATOM     86  C   UNL A   1      38.749  33.532  38.362  1.00  0.00     0.010 A 
ATOM     87  C   UNL A   1      40.140  35.224  37.317  1.00  0.00     0.010 A 
ATOM     88  C   UNL A   1      38.573  34.365  39.470  1.00  0.00     0.020 A 
ATOM     89  C   UNL A   1      39.990  36.047  38.435  1.00  0.00     0.020 A 
ATOM     90  C   UNL A   1      39.198  35.617  39.501  1.00  0.00     0.054 A 
BRANCH  90  91
ATOM     91  S   UNL A   1      39.002  36.651  40.977  1.00  0.00     0.124 S 
ATOM     92  O   UNL A   1      40.369  36.724  41.483  1.00  0.00    -0.237 OA
ATOM     93  O   UNL A   1      38.467  37.894  40.428  1.00  0.00    -0.237 OA
ATOM     94  O   UNL A   1      38.069  35.894  41.811  1.00  0.00    -0.744 OA
ENDBRANCH  90  91
ENDBRANCH  64  85
ENDBRANCH  38  39
ENDBRANCH  30  33
ENDBRANCH  28  29
ENDBRANCH  27  28
ENDBRANCH  26  27
ENDBRANCH  25  26
ENDBRANCH   1  25
TORSDOF 21
ENDMDL
MODEL 2
REMARK VINA RESULT:     -10.5      6.185     11.160
REMARK SMILES CC(C)Cc1noc(C[NH+]2CCC(CC(=O)NCCCCCCNC(=O)c3ccc(-c4c5nc(c(-c6ccc(S(=O)(=O)[O-])cc6)c6ccc([nH]6)c(-c6ccc(S(=O)(=O)[O-])cc6)c6nc(c(-c7ccc(S(=O)(=O)[O-])cc7)c7ccc4[nH]7)C=C6)C=C5)cc3)CC2)n1
REMARK SMILES IDX 19 1 18 2 17 3 15 4 16 5 14 7 13 8 10 9 11 10 88 11 12 13
REMARK SMILES IDX 87 14 9 15 8 16 5 17 6 18 89 19 7 20 4 21 2 22 1 23 3 24
REMARK SMILES IDX 20 25 21 26 22 27 23 28 24 29 25 30 26 32 27 33 28 34 86 35
REMARK SMILES IDX 29 36 85 37 30 38 31 39 32 40 79 41 33 42 84 43 78 44 80 45
REMARK SMILES IDX 34 46 83 47 77 48 76 49 35 51 65 52 46 53 64 54 47 55 50 56
REMARK SMILES IDX 63 57 81 58 48 59 49 60 62 62 82 63 51 64 36 65 37 66 45 67
REMARK SMILES IDX 38 68 44 69 39 70 40 71 41 72 42 73 43 74 66 75 67 76 75 77
REMARK SMILES IDX 68 78 74 79 69 80 70 81 71 82 72 83 73 84 52 85 53 86 61 87
REMARK SMILES IDX 54 88 60 89 55 90 56 91 57 92 58 93 59 94
REMARK H PARENT 17 6 10 12 24 31 80 50 50 61
REMARK Flexibility Score: inf
ROOT
ATOM      1  C   UNL A   1      36.055  21.424  25.756  1.00  0.00     0.021 C 
ENDROOT
BRANCH   1   2
ATOM      2  C   UNL A   1      35.737  20.194  24.891  1.00  0.00     0.116 C 
BRANCH   2   3
ATOM      3  N   UNL A   1      34.398  19.693  25.171  1.00  0.00    -0.356 N 
ATOM      4  C   UNL A   1      33.167  20.160  24.814  1.00  0.00     0.220 C 
ATOM      5  O   UNL A   1      32.179  19.577  25.269  1.00  0.00    -0.275 OA
ATOM      6  H   UNL A   1      34.378  18.871  25.713  1.00  0.00     0.163 HD
BRANCH   4   7
ATOM      7  C   UNL A   1      32.998  21.352  23.877  1.00  0.00     0.104 C 
BRANCH   7   8
ATOM      8  C   UNL A   1      32.377  22.595  24.543  1.00  0.00     0.009 C 
ATOM      9  N   UNL A   1      32.134  25.539  24.533  1.00  0.00    -0.327 N 
ATOM     10  C   UNL A   1      32.987  24.878  25.520  1.00  0.00     0.262 C 
ATOM     11  C   UNL A   1      30.982  24.697  24.183  1.00  0.00     0.262 C 
ATOM     12  H   UNL A   1      32.653  25.667  23.664  1.00  0.00     0.348 HD
ATOM     13  C   UNL A   1      33.471  23.547  25.003  1.00  0.00     0.066 C 
ATOM     14  C   UNL A   1      31.425  23.345  23.599  1.00  0.00     0.066 C 
BRANCH   9  15
ATOM     15  C   UNL A   1      31.758  26.896  25.010  1.00  0.00     0.364 C 
BRANCH  15  16
ATOM     16  C   UNL A   1      30.998  27.728  24.026  1.00  0.00     0.281 A 
ATOM     17  C   UNL A   1      29.572  28.668  22.826  1.00  0.00     0.172 A 
ATOM     18  N   UNL A   1      30.531  28.329  21.956  1.00  0.00    -0.062 NA
ATOM     19  N   UNL A   1      29.808  28.285  24.122  1.00  0.00    -0.191 NA
ATOM     20  O   UNL A   1      31.509  27.773  22.761  1.00  0.00    -0.333 OA
BRANCH  17  21
ATOM     21  C   UNL A   1      28.370  29.428  22.405  1.00  0.00     0.084 C 
BRANCH  21  22
ATOM     22  C   UNL A   1      28.587  30.955  22.462  1.00  0.00    -0.010 C 
ATOM     23  C   UNL A   1      28.363  31.637  21.107  1.00  0.00     0.008 C 
ATOM     24  C   UNL A   1      27.653  31.580  23.497  1.00  0.00     0.008 C 
ENDBRANCH  21  22
ENDBRANCH  17  21
ENDBRANCH  15  16
ENDBRANCH   9  15
ENDBRANCH   7   8
ENDBRANCH   4   7
ENDBRANCH   2   3
ENDBRANCH   1   2
BRANCH   1  25
ATOM     25  C   UNL A   1      37.147  22.339  25.209  1.00  0.00     0.002 C 
BRANCH  25  26
ATOM     26  C   UNL A   1      38.370  22.487  26.112  1.00  0.00     0.002 C 
BRANCH  26  27
ATOM     27  C   UNL A   1      39.565  21.601  25.746  1.00  0.00     0.021 C 
BRANCH  27  28
ATOM     28  C   UNL A   1      39.919  20.536  26.781  1.00  0.00     0.116 C 
BRANCH  28  29
ATOM     29  N   UNL A   1      40.882  19.575  26.261  1.00  0.00    -0.352 N 
ATOM     30  C   UNL A   1      42.158  19.788  25.797  1.00  0.00     0.251 C 
ATOM     31  H   UNL A   1      40.575  18.641  26.238  1.00  0.00     0.163 HD
ATOM     32  O   UNL A   1      42.736  18.916  25.159  1.00  0.00    -0.269 OA
BRANCH  30  33
ATOM     33  C   UNL A   1      42.821  21.080  26.067  1.00  0.00     0.039 A 
ATOM     34  C   UNL A   1      43.138  21.922  24.999  1.00  0.00     0.014 A 
ATOM     35  C   UNL A   1      43.121  21.456  27.379  1.00  0.00     0.014 A 
ATOM     36  C   UNL A   1      43.693  23.179  25.256  1.00  0.00     0.010 A 
ATOM     37  C   UNL A   1      43.605  22.734  27.637  1.00  0.00     0.010 A 
ATOM     38  C   UNL A   1      43.893  23.610  26.579  1.00  0.00    -0.014 A 
BRANCH  38  39
ATOM     39  C   UNL A   1      44.385  24.977  26.882  1.00  0.00     0.031 A 
ATOM     40  C   UNL A   1      43.426  26.041  27.344  1.00  0.00     0.074 A 
ATOM     41  C   UNL A   1      45.681  25.280  26.671  1.00  0.00     0.049 A 
ATOM     42  N   UNL A   1      43.653  27.305  27.587  1.00  0.00    -0.248 NA
ATOM     43  C   UNL A   1      42.025  25.633  27.535  1.00  0.00     0.031 C 
ATOM     44  C   UNL A   1      46.704  24.343  26.201  1.00  0.00     0.029 A 
ATOM     45  N   UNL A   1      46.359  26.464  26.819  1.00  0.00    -0.354 N 
ATOM     46  C   UNL A   1      42.426  27.846  27.951  1.00  0.00     0.074 A 
ATOM     47  C   UNL A   1      41.448  26.786  27.840  1.00  0.00     0.031 C 
ATOM     48  C   UNL A   1      47.885  24.979  26.133  1.00  0.00     0.029 A 
ATOM     49  C   UNL A   1      47.695  26.378  26.504  1.00  0.00     0.049 A 
ATOM     50  H   UNL A   1      45.930  27.296  27.123  1.00  0.00     0.167 HD
ATOM     51  C   UNL A   1      42.139  29.106  28.361  1.00  0.00     0.031 A 
ATOM     52  C   UNL A   1      48.658  27.319  26.504  1.00  0.00     0.031 A 
ATOM     53  C   UNL A   1      43.114  30.161  28.459  1.00  0.00     0.049 A 
ATOM     54  C   UNL A   1      48.306  28.725  26.907  1.00  0.00     0.074 A 
ATOM     55  C   UNL A   1      42.935  31.462  28.895  1.00  0.00     0.029 A 
ATOM     56  N   UNL A   1      44.451  30.038  28.107  1.00  0.00    -0.354 N 
ATOM     57  N   UNL A   1      47.151  29.205  27.301  1.00  0.00    -0.248 NA
ATOM     58  C   UNL A   1      49.390  29.716  26.870  1.00  0.00     0.031 C 
ATOM     59  C   UNL A   1      44.148  32.141  28.751  1.00  0.00     0.029 A 
ATOM     60  C   UNL A   1      45.101  31.247  28.288  1.00  0.00     0.049 A 
ATOM     61  H   UNL A   1      44.875  29.213  27.778  1.00  0.00     0.167 HD
ATOM     62  C   UNL A   1      47.376  30.547  27.587  1.00  0.00     0.074 A 
ATOM     63  C   UNL A   1      48.780  30.799  27.332  1.00  0.00     0.031 C 
ATOM     64  C   UNL A   1      46.500  31.484  28.027  1.00  0.00     0.031 A 
BRANCH  51  65
ATOM     65  C   UNL A   1      40.706  29.409  28.718  1.00  0.00    -0.014 A 
ATOM     66  C   UNL A   1      40.313  29.587  30.058  1.00  0.00     0.010 A 
ATOM     67  C   UNL A   1      39.740  29.528  27.703  1.00  0.00     0.010 A 
ATOM     68  C   UNL A   1      38.973  29.819  30.379  1.00  0.00     0.020 A 
ATOM     69  C   UNL A   1      38.404  29.794  28.018  1.00  0.00     0.020 A 
ATOM     70  C   UNL A   1      38.025  29.913  29.356  1.00  0.00     0.054 A 
BRANCH  70  71
ATOM     71  S   UNL A   1      36.293  30.208  29.805  1.00  0.00     0.124 S 
ATOM     72  O   UNL A   1      36.241  31.668  29.860  1.00  0.00    -0.237 OA
ATOM     73  O   UNL A   1      35.565  29.596  28.696  1.00  0.00    -0.237 OA
ATOM     74  O   UNL A   1      36.148  29.532  31.092  1.00  0.00    -0.744 OA
ENDBRANCH  70  71
ENDBRANCH  51  65
BRANCH  52  75
ATOM     75  C   UNL A   1      50.053  26.956  26.132  1.00  0.00    -0.014 A 
ATOM     76  C   UNL A   1      50.938  26.455  27.103  1.00  0.00     0.010 A 
ATOM     77  C   UNL A   1      50.500  27.088  24.805  1.00  0.00     0.010 A 
ATOM     78  C   UNL A   1      52.246  26.104  26.758  1.00  0.00     0.020 A 
ATOM     79  C   UNL A   1      51.799  26.712  24.450  1.00  0.00     0.020 A 
ATOM     80  C   UNL A   1      52.667  26.230  25.432  1.00  0.00     0.054 A 
BRANCH  80  81
ATOM     81  S   UNL A   1      54.351  25.715  24.998  1.00  0.00     0.124 S 
ATOM     82  O   UNL A   1      54.528  26.327  23.686  1.00  0.00    -0.237 OA
ATOM     83  O   UNL A   1      55.144  26.292  26.080  1.00  0.00    -0.237 OA
ATOM     84  O   UNL A   1      54.274  24.255  25.003  1.00  0.00    -0.744 OA
ENDBRANCH  80  81
ENDBRANCH  52  75
BRANCH  64  85
ATOM     85  C   UNL A   1      47.036  32.867  28.293  1.00  0.00    -0.014 A 
ATOM     86  C   UNL A   1      47.026  33.859  27.295  1.00  0.00     0.010 A 
ATOM     87  C   UNL A   1      47.498  33.195  29.581  1.00  0.00     0.010 A 
ATOM     88  C   UNL A   1      47.488  35.147  27.577  1.00  0.00     0.020 A 
ATOM     89  C   UNL A   1      47.932  34.490  29.874  1.00  0.00     0.020 A 
ATOM     90  C   UNL A   1      47.935  35.455  28.867  1.00  0.00     0.054 A 
BRANCH  90  91
ATOM     91  S   UNL A   1      48.471  37.151  29.219  1.00  0.00     0.124 S 
ATOM     92  O   UNL A   1      49.736  36.933  29.915  1.00  0.00    -0.237 OA
ATOM     93  O   UNL A   1      48.579  37.737  27.886  1.00  0.00    -0.237 OA
ATOM     94  O   UNL A   1      47.392  37.692  30.045  1.00  0.00    -0.744 OA
ENDBRANCH  90  91
ENDBRANCH  64  85
ENDBRANCH  38  39
ENDBRANCH  30  33
ENDBRANCH  28  29
ENDBRANCH  27  28
ENDBRANCH  26  27
ENDBRANCH  25  26
ENDBRANCH   1  25
TORSDOF 21
ENDMDL
MODEL 3
REMARK VINA RESULT:     -10.1      0.867      8.117
REMARK SMILES CC(C)Cc1noc(C[NH+]2CCC(CC(=O)NCCCCCCNC(=O)c3ccc(-c4c5nc(c(-c6ccc(S(=O)(=O)[O-])cc6)c6ccc([nH]6)c(-c6ccc(S(=O)(=O)[O-])cc6)c6nc(c(-c7ccc(S(=O)(=O)[O-])cc7)c7ccc4[nH]7)C=C6)C=C5)cc3)CC2)n1
REMARK SMILES IDX 19 1 18 2 17 3 15 4 16 5 14 7 13 8 10 9 11 10 88 11 12 13
REMARK SMILES IDX 87 14 9 15 8 16 5 17 6 18 89 19 7 20 4 21 2 22 1 23 3 24
REMARK SMILES IDX 20 25 21 26 22 27 23 28 24 29 25 30 26 32 27 33 28 34 86 35
REMARK SMILES IDX 29 36 85 37 30 38 31 39 32 40 79 41 33 42 84 43 78 44 80 45
REMARK SMILES IDX 34 46 83 47 77 48 76 49 35 51 65 52 46 53 64 54 47 55 50 56
REMARK SMILES IDX 63 57 81 58 48 59 49 60 62 62 82 63 51 64 36 65 37 66 45 67
REMARK SMILES IDX 38 68 44 69 39 70 40 71 41 72 42 73 43 74 66 75 67 76 75 77
REMARK SMILES IDX 68 78 74 79 69 80 70 81 71 82 72 83 73 84 52 85 53 86 61 87
REMARK SMILES IDX 54 88 60 89 55 90 56 91 57 92 58 93 59 94
REMARK H PARENT 17 6 10 12 24 31 80 50 50 61
REMARK Flexibility Score: inf
ROOT
ATOM      1  C   UNL A   1      41.535  20.887  26.263  1.00  0.00     0.021 C 
ENDROOT
BRANCH   1   2
ATOM      2  C   UNL A   1      40.002  20.931  26.368  1.00  0.00     0.116 C 
BRANCH   2   3
ATOM      3  N   UNL A   1      39.539  22.281  26.656  1.00  0.00    -0.356 N 
ATOM      4  C   UNL A   1      38.481  22.995  26.174  1.00  0.00     0.220 C 
ATOM      5  O   UNL A   1      38.371  24.170  26.532  1.00  0.00    -0.275 OA
ATOM      6  H   UNL A   1      40.086  22.765  27.317  1.00  0.00     0.163 HD
BRANCH   4   7
ATOM      7  C   UNL A   1      37.453  22.375  25.232  1.00  0.00     0.104 C 
BRANCH   7   8
ATOM      8  C   UNL A   1      36.080  22.113  25.881  1.00  0.00     0.009 C 
ATOM      9  N   UNL A   1      33.147  22.353  25.630  1.00  0.00    -0.327 N 
ATOM     10  C   UNL A   1      33.885  23.273  26.496  1.00  0.00     0.262 C 
ATOM     11  C   UNL A   1      33.790  21.033  25.593  1.00  0.00     0.262 C 
ATOM     12  H   UNL A   1      33.167  22.697  24.670  1.00  0.00     0.348 HD
ATOM     13  C   UNL A   1      35.311  23.419  26.027  1.00  0.00     0.066 C 
ATOM     14  C   UNL A   1      35.233  21.122  25.068  1.00  0.00     0.066 C 
BRANCH   9  15
ATOM     15  C   UNL A   1      31.717  22.309  26.037  1.00  0.00     0.364 C 
BRANCH  15  16
ATOM     16  C   UNL A   1      30.939  23.556  25.760  1.00  0.00     0.281 A 
ATOM     17  C   UNL A   1      30.243  25.433  25.168  1.00  0.00     0.172 A 
ATOM     18  N   UNL A   1      29.850  25.348  26.444  1.00  0.00    -0.062 NA
ATOM     19  N   UNL A   1      30.952  24.352  24.709  1.00  0.00    -0.191 NA
ATOM     20  O   UNL A   1      30.245  24.074  26.814  1.00  0.00    -0.333 OA
BRANCH  17  21
ATOM     21  C   UNL A   1      29.898  26.602  24.322  1.00  0.00     0.084 C 
BRANCH  21  22
ATOM     22  C   UNL A   1      31.140  27.247  23.672  1.00  0.00    -0.010 C 
ATOM     23  C   UNL A   1      30.780  28.361  22.681  1.00  0.00     0.008 C 
ATOM     24  C   UNL A   1      32.063  27.814  24.750  1.00  0.00     0.008 C 
ENDBRANCH  21  22
ENDBRANCH  17  21
ENDBRANCH  15  16
ENDBRANCH   9  15
ENDBRANCH   7   8
ENDBRANCH   4   7
ENDBRANCH   2   3
ENDBRANCH   1   2
BRANCH   1  25
ATOM     25  C   UNL A   1      42.274  21.931  27.096  1.00  0.00     0.002 C 
BRANCH  25  26
ATOM     26  C   UNL A   1      43.479  22.564  26.405  1.00  0.00     0.002 C 
BRANCH  26  27
ATOM     27  C   UNL A   1      44.208  23.641  27.215  1.00  0.00     0.021 C 
BRANCH  27  28
ATOM     28  C   UNL A   1      44.436  24.959  26.478  1.00  0.00     0.116 C 
BRANCH  28  29
ATOM     29  N   UNL A   1      43.310  25.304  25.624  1.00  0.00    -0.352 N 
ATOM     30  C   UNL A   1      42.142  25.954  25.945  1.00  0.00     0.251 C 
ATOM     31  H   UNL A   1      43.396  25.033  24.682  1.00  0.00     0.163 HD
ATOM     32  O   UNL A   1      41.193  25.936  25.170  1.00  0.00    -0.269 OA
BRANCH  30  33
ATOM     33  C   UNL A   1      42.040  26.665  27.235  1.00  0.00     0.039 A 
ATOM     34  C   UNL A   1      42.705  27.882  27.400  1.00  0.00     0.014 A 
ATOM     35  C   UNL A   1      41.281  26.126  28.277  1.00  0.00     0.014 A 
ATOM     36  C   UNL A   1      42.547  28.596  28.591  1.00  0.00     0.010 A 
ATOM     37  C   UNL A   1      41.067  26.871  29.432  1.00  0.00     0.010 A 
ATOM     38  C   UNL A   1      41.695  28.115  29.599  1.00  0.00    -0.014 A 
BRANCH  38  39
ATOM     39  C   UNL A   1      41.429  28.902  30.830  1.00  0.00     0.031 A 
ATOM     40  C   UNL A   1      40.308  29.905  30.859  1.00  0.00     0.074 A 
ATOM     41  C   UNL A   1      42.243  28.765  31.896  1.00  0.00     0.049 A 
ATOM     42  N   UNL A   1      39.969  30.734  31.813  1.00  0.00    -0.248 NA
ATOM     43  C   UNL A   1      39.476  30.004  29.650  1.00  0.00     0.031 C 
ATOM     44  C   UNL A   1      43.379  27.844  31.981  1.00  0.00     0.029 A 
ATOM     45  N   UNL A   1      42.243  29.405  33.110  1.00  0.00    -0.354 N 
ATOM     46  C   UNL A   1      38.891  31.458  31.318  1.00  0.00     0.074 A 
ATOM     47  C   UNL A   1      38.672  31.011  29.959  1.00  0.00     0.031 C 
ATOM     48  C   UNL A   1      43.944  27.953  33.195  1.00  0.00     0.029 A 
ATOM     49  C   UNL A   1      43.245  28.986  33.953  1.00  0.00     0.049 A 
ATOM     50  H   UNL A   1      41.588  30.098  33.354  1.00  0.00     0.167 HD
ATOM     51  C   UNL A   1      38.138  32.396  31.942  1.00  0.00     0.031 A 
ATOM     52  C   UNL A   1      43.572  29.392  35.196  1.00  0.00     0.031 A 
ATOM     53  C   UNL A   1      38.368  32.845  33.290  1.00  0.00     0.049 A 
ATOM     54  C   UNL A   1      42.758  30.476  35.848  1.00  0.00     0.074 A 
ATOM     55  C   UNL A   1      37.643  33.765  34.027  1.00  0.00     0.029 A 
ATOM     56  N   UNL A   1      39.408  32.413  34.102  1.00  0.00    -0.354 N 
ATOM     57  N   UNL A   1      41.708  31.111  35.385  1.00  0.00    -0.248 NA
ATOM     58  C   UNL A   1      43.171  30.895  37.195  1.00  0.00     0.031 C 
ATOM     59  C   UNL A   1      38.278  33.933  35.261  1.00  0.00     0.029 A 
ATOM     60  C   UNL A   1      39.361  33.069  35.320  1.00  0.00     0.049 A 
ATOM     61  H   UNL A   1      40.079  31.740  33.849  1.00  0.00     0.167 HD
ATOM     62  C   UNL A   1      41.316  31.983  36.394  1.00  0.00     0.074 A 
ATOM     63  C   UNL A   1      42.236  31.785  37.497  1.00  0.00     0.031 C 
ATOM     64  C   UNL A   1      40.286  32.864  36.408  1.00  0.00     0.031 A 
BRANCH  51  65
ATOM     65  C   UNL A   1      37.004  33.007  31.158  1.00  0.00    -0.014 A 
ATOM     66  C   UNL A   1      35.680  32.951  31.633  1.00  0.00     0.010 A 
ATOM     67  C   UNL A   1      37.263  33.655  29.937  1.00  0.00     0.010 A 
ATOM     68  C   UNL A   1      34.632  33.478  30.874  1.00  0.00     0.020 A 
ATOM     69  C   UNL A   1      36.221  34.214  29.191  1.00  0.00     0.020 A 
ATOM     70  C   UNL A   1      34.909  34.100  29.654  1.00  0.00     0.054 A 
BRANCH  70  71
ATOM     71  S   UNL A   1      33.527  34.769  28.688  1.00  0.00     0.124 S 
ATOM     72  O   UNL A   1      34.121  35.972  28.108  1.00  0.00    -0.237 OA
ATOM     73  O   UNL A   1      33.244  33.691  27.744  1.00  0.00    -0.237 OA
ATOM     74  O   UNL A   1      32.489  35.008  29.688  1.00  0.00    -0.744 OA
ENDBRANCH  70  71
ENDBRANCH  51  65
BRANCH  52  75
ATOM     75  C   UNL A   1      44.710  28.754  35.911  1.00  0.00    -0.014 A 
ATOM     76  C   UNL A   1      46.020  29.235  35.733  1.00  0.00     0.010 A 
ATOM     77  C   UNL A   1      44.493  27.678  36.791  1.00  0.00     0.010 A 
ATOM     78  C   UNL A   1      47.091  28.644  36.409  1.00  0.00     0.020 A 
ATOM     79  C   UNL A   1      45.558  27.103  37.491  1.00  0.00     0.020 A 
ATOM     80  C   UNL A   1      46.852  27.585  37.288  1.00  0.00     0.054 A 
BRANCH  80  81
ATOM     81  S   UNL A   1      48.251  26.873  38.198  1.00  0.00     0.124 S 
ATOM     82  O   UNL A   1      47.707  26.750  39.545  1.00  0.00    -0.237 OA
ATOM     83  O   UNL A   1      48.480  25.617  37.488  1.00  0.00    -0.237 OA
ATOM     84  O   UNL A   1      49.307  27.871  38.037  1.00  0.00    -0.744 OA
ENDBRANCH  80  81
ENDBRANCH  52  75
BRANCH  64  85
ATOM     85  C   UNL A   1      40.071  33.664  37.667  1.00  0.00    -0.014 A 
ATOM     86  C   UNL A   1      40.780  34.855  37.905  1.00  0.00     0.010 A 
ATOM     87  C   UNL A   1      39.098  33.248  38.595  1.00  0.00     0.010 A 
ATOM     88  C   UNL A   1      40.534  35.604  39.059  1.00  0.00     0.020 A 
ATOM     89  C   UNL A   1      38.828  34.009  39.734  1.00  0.00     0.020 A 
ATOM     90  C   UNL A   1      39.556  35.177  39.965  1.00  0.00     0.054 A 
BRANCH  90  91
ATOM     91  S   UNL A   1      39.215  36.201  41.423  1.00  0.00     0.124 S 
ATOM     92  O   UNL A   1      38.771  37.454  40.819  1.00  0.00    -0.237 OA
ATOM     93  O   UNL A   1      38.183  35.436  42.117  1.00  0.00    -0.237 OA
ATOM     94  O   UNL A   1      40.504  36.265  42.111  1.00  0.00    -0.744 OA
ENDBRANCH  90  91
ENDBRANCH  64  85
ENDBRANCH  38  39
ENDBRANCH  30  33
ENDBRANCH  28  29
ENDBRANCH  27  28
ENDBRANCH  26  27
ENDBRANCH  25  26
ENDBRANCH   1  25
TORSDOF 21
ENDMDL
