MODEL 1
REMARK VINA RESULT:     -12.4      0.000      0.000
REMARK SMILES Cc1ccc(S(=O)(=O)n2cc(C(=O)C(=O)N[C@H](Cc3c[nH]c4ccccc34)C(=O)NCC(=O)NCCCCCCNC(=O)c3ccc(-c4c5nc(c(-c6ccc(S(=O)(=O)[O-])cc6)c6ccc([nH]6)c(-c6ccc(S(=O)(=O)[O-])cc6)c6nc(c(-c7ccc(S(=O)(=O)[O-])cc7)c7ccc4[nH]7)C=C6)C=C5)cc3)c3ccccc32)cc1
REMARK SMILES IDX 35 1 34 2 32 3 33 4 31 6 30 7 28 8 29 9 17 11 16 12 14 13
REMARK SMILES IDX 15 14 12 16 13 17 11 18 9 19 10 20 109 21 104 22 108 23
REMARK SMILES IDX 105 24 107 25 106 26 6 27 7 28 8 29 5 30 1 31 2 32 3 33
REMARK SMILES IDX 111 34 4 35 110 36 18 37 19 38 20 39 27 40 21 41 22 42 26 43
REMARK SMILES IDX 23 45 25 46 24 47 36 48 37 49 38 50 39 51 40 52 41 53 42 54
REMARK SMILES IDX 43 56 44 57 45 58 103 59 46 60 102 61 47 62 48 63 49 64
REMARK SMILES IDX 96 65 50 66 101 67 95 68 97 69 51 70 100 71 94 72 93 73
REMARK SMILES IDX 52 75 82 76 63 77 81 78 64 79 67 80 80 81 98 82 65 83 66 84
REMARK SMILES IDX 79 86 99 87 68 88 53 89 54 90 62 91 55 92 61 93 56 94 57 95
REMARK SMILES IDX 58 96 59 97 60 98 83 99 84 100 92 101 85 102 91 103 86 104
REMARK SMILES IDX 87 105 88 106 89 107 90 108 69 109 70 110 78 111 71 112
REMARK SMILES IDX 77 113 72 114 73 115 74 116 75 117 76 118
REMARK H PARENT 34 5 30 10 16 15 21 44 41 55 97 74 67 85
REMARK Flexibility Score: inf
ROOT
ATOM      1  C   UNL A   1      38.895  24.460  27.587  1.00  0.00     0.116 C 
ENDROOT
BRANCH   1   2
ATOM      2  N   UNL A   1      39.025  23.183  26.895  1.00  0.00    -0.355 N 
ATOM      3  C   UNL A   1      38.155  22.539  26.058  1.00  0.00     0.239 C 
ATOM      4  O   UNL A   1      38.603  21.596  25.394  1.00  0.00    -0.273 OA
ATOM      5  H   UNL A   1      39.873  22.710  27.055  1.00  0.00     0.163 HD
BRANCH   3   6
ATOM      6  C   UNL A   1      36.723  23.034  25.787  1.00  0.00     0.216 C 
BRANCH   6   7
ATOM      7  N   UNL A   1      36.270  22.997  24.418  1.00  0.00    -0.345 N 
ATOM      8  C   UNL A   1      35.057  22.905  23.835  1.00  0.00     0.243 C 
ATOM      9  O   UNL A   1      35.059  23.197  22.629  1.00  0.00    -0.273 OA
ATOM     10  H   UNL A   1      37.008  23.051  23.768  1.00  0.00     0.164 HD
BRANCH   8  11
ATOM     11  C   UNL A   1      33.723  22.425  24.491  1.00  0.00     0.176 C 
BRANCH  11  12
ATOM     12  N   UNL A   1      33.412  22.679  25.940  1.00  0.00    -0.337 N 
ATOM     13  C   UNL A   1      32.406  23.330  26.644  1.00  0.00     0.293 C 
ATOM     14  O   UNL A   1      32.504  23.456  27.862  1.00  0.00    -0.265 OA
ATOM     15  H   UNL A   1      34.089  22.290  26.538  1.00  0.00     0.164 HD
BRANCH  13  16
ATOM     16  C   UNL A   1      31.166  23.865  25.933  1.00  0.00     0.252 C 
ATOM     17  O   UNL A   1      30.289  23.023  25.729  1.00  0.00    -0.283 OA
BRANCH  16  18
ATOM     18  C   UNL A   1      30.941  25.250  25.469  1.00  0.00     0.054 A 
ATOM     19  N   UNL A   1      30.256  27.311  24.815  1.00  0.00    -0.240 N 
ATOM     20  C   UNL A   1      29.937  25.932  24.769  1.00  0.00     0.117 A 
ATOM     21  C   UNL A   1      31.200  27.441  25.844  1.00  0.00     0.065 A 
ATOM     22  C   UNL A   1      31.914  26.260  25.719  1.00  0.00     0.012 A 
ATOM     23  C   UNL A   1      31.729  28.558  26.508  1.00  0.00     0.028 A 
ATOM     24  C   UNL A   1      33.296  26.287  25.928  1.00  0.00     0.011 A 
ATOM     25  C   UNL A   1      33.108  28.536  26.762  1.00  0.00     0.002 A 
ATOM     26  C   UNL A   1      33.894  27.449  26.399  1.00  0.00     0.001 A 
BRANCH  19  27
ATOM     27  S   UNL A   1      30.784  28.205  23.354  1.00  0.00     0.268 S 
ATOM     28  O   UNL A   1      30.561  27.291  22.251  1.00  0.00    -0.201 OA
ATOM     29  O   UNL A   1      32.119  28.669  23.701  1.00  0.00    -0.201 OA
BRANCH  27  30
ATOM     30  C   UNL A   1      29.954  29.712  22.959  1.00  0.00     0.088 A 
ATOM     31  C   UNL A   1      27.713  33.041  21.375  1.00  0.00     0.044 C 
ATOM     32  C   UNL A   1      28.465  31.882  21.960  1.00  0.00    -0.051 A 
ATOM     33  C   UNL A   1      28.862  30.866  21.098  1.00  0.00     0.005 A 
ATOM     34  C   UNL A   1      28.818  31.799  23.323  1.00  0.00     0.005 A 
ATOM     35  C   UNL A   1      29.583  29.794  21.596  1.00  0.00     0.022 A 
ATOM     36  C   UNL A   1      29.564  30.713  23.835  1.00  0.00     0.022 A 
ENDBRANCH  27  30
ENDBRANCH  19  27
ENDBRANCH  16  18
ENDBRANCH  13  16
ENDBRANCH  11  12
BRANCH  11  37
ATOM     37  C   UNL A   1      33.058  21.155  23.871  1.00  0.00     0.072 C 
BRANCH  37  38
ATOM     38  C   UNL A   1      33.005  19.903  24.705  1.00  0.00    -0.020 A 
ATOM     39  C   UNL A   1      32.630  19.864  26.034  1.00  0.00     0.087 A 
ATOM     40  C   UNL A   1      33.283  18.539  24.330  1.00  0.00     0.003 A 
ATOM     41  N   UNL A   1      32.784  18.587  26.493  1.00  0.00    -0.361 N 
ATOM     42  C   UNL A   1      33.211  17.763  25.487  1.00  0.00     0.046 A 
ATOM     43  C   UNL A   1      33.634  17.881  23.132  1.00  0.00     0.010 A 
ATOM     44  H   UNL A   1      32.613  18.300  27.418  1.00  0.00     0.166 HD
ATOM     45  C   UNL A   1      33.542  16.405  25.528  1.00  0.00     0.026 A 
ATOM     46  C   UNL A   1      33.939  16.510  23.150  1.00  0.00     0.001 A 
ATOM     47  C   UNL A   1      33.913  15.787  24.338  1.00  0.00     0.002 A 
ENDBRANCH  37  38
ENDBRANCH  11  37
ENDBRANCH   8  11
ENDBRANCH   6   7
ENDBRANCH   3   6
ENDBRANCH   1   2
BRANCH   1  48
ATOM     48  C   UNL A   1      40.206  25.242  27.678  1.00  0.00     0.021 C 
BRANCH  48  49
ATOM     49  C   UNL A   1      40.746  25.887  26.392  1.00  0.00     0.002 C 
BRANCH  49  50
ATOM     50  C   UNL A   1      41.698  25.111  25.464  1.00  0.00     0.002 C 
BRANCH  50  51
ATOM     51  C   UNL A   1      42.252  23.728  25.840  1.00  0.00     0.021 C 
BRANCH  51  52
ATOM     52  C   UNL A   1      43.732  23.467  25.566  1.00  0.00     0.116 C 
BRANCH  52  53
ATOM     53  N   UNL A   1      44.480  23.076  26.758  1.00  0.00    -0.352 N 
ATOM     54  C   UNL A   1      44.895  23.871  27.824  1.00  0.00     0.251 C 
ATOM     55  H   UNL A   1      44.723  22.123  26.816  1.00  0.00     0.163 HD
ATOM     56  O   UNL A   1      45.711  23.517  28.633  1.00  0.00    -0.269 OA
BRANCH  54  57
ATOM     57  C   UNL A   1      44.171  25.152  27.996  1.00  0.00     0.039 A 
ATOM     58  C   UNL A   1      44.493  26.197  27.122  1.00  0.00     0.014 A 
ATOM     59  C   UNL A   1      43.428  25.375  29.147  1.00  0.00     0.014 A 
ATOM     60  C   UNL A   1      44.234  27.512  27.503  1.00  0.00     0.010 A 
ATOM     61  C   UNL A   1      43.270  26.679  29.566  1.00  0.00     0.010 A 
ATOM     62  C   UNL A   1      43.711  27.746  28.770  1.00  0.00    -0.014 A 
BRANCH  62  63
ATOM     63  C   UNL A   1      43.592  29.057  29.396  1.00  0.00     0.031 A 
ATOM     64  C   UNL A   1      42.269  29.723  29.436  1.00  0.00     0.074 A 
ATOM     65  C   UNL A   1      44.636  29.584  30.077  1.00  0.00     0.049 A 
ATOM     66  N   UNL A   1      42.089  30.970  29.709  1.00  0.00    -0.248 NA
ATOM     67  C   UNL A   1      41.024  29.024  29.126  1.00  0.00     0.031 C 
ATOM     68  C   UNL A   1      44.586  30.684  31.039  1.00  0.00     0.029 A 
ATOM     69  N   UNL A   1      46.004  29.374  29.892  1.00  0.00    -0.354 N 
ATOM     70  C   UNL A   1      40.743  31.165  29.911  1.00  0.00     0.074 A 
ATOM     71  C   UNL A   1      40.115  29.947  29.455  1.00  0.00     0.031 C 
ATOM     72  C   UNL A   1      45.803  31.246  31.108  1.00  0.00     0.029 A 
ATOM     73  C   UNL A   1      46.607  30.636  30.064  1.00  0.00     0.049 A 
ATOM     74  H   UNL A   1      46.454  28.523  29.685  1.00  0.00     0.167 HD
ATOM     75  C   UNL A   1      40.318  32.290  30.555  1.00  0.00     0.031 A 
ATOM     76  C   UNL A   1      47.232  31.318  29.056  1.00  0.00     0.031 A 
ATOM     77  C   UNL A   1      41.423  33.209  30.830  1.00  0.00     0.049 A 
ATOM     78  C   UNL A   1      46.631  32.689  28.769  1.00  0.00     0.074 A 
ATOM     79  C   UNL A   1      42.149  33.555  31.956  1.00  0.00     0.029 A 
ATOM     80  N   UNL A   1      42.114  33.736  29.754  1.00  0.00    -0.354 N 
ATOM     81  N   UNL A   1      45.582  33.177  29.374  1.00  0.00    -0.248 NA
ATOM     82  C   UNL A   1      47.105  33.577  27.704  1.00  0.00     0.031 C 
ATOM     83  C   UNL A   1      43.291  34.300  31.536  1.00  0.00     0.029 A 
ATOM     84  C   UNL A   1      43.243  34.417  30.160  1.00  0.00     0.049 A 
ATOM     85  H   UNL A   1      41.835  33.640  28.815  1.00  0.00     0.167 HD
ATOM     86  C   UNL A   1      45.207  34.353  28.783  1.00  0.00     0.074 A 
ATOM     87  C   UNL A   1      46.202  34.575  27.751  1.00  0.00     0.031 C 
ATOM     88  C   UNL A   1      44.079  35.032  29.144  1.00  0.00     0.031 A 
BRANCH  75  89
ATOM     89  C   UNL A   1      38.927  32.482  31.118  1.00  0.00    -0.014 A 
ATOM     90  C   UNL A   1      38.054  33.408  30.507  1.00  0.00     0.010 A 
ATOM     91  C   UNL A   1      38.427  31.817  32.253  1.00  0.00     0.010 A 
ATOM     92  C   UNL A   1      36.798  33.720  31.050  1.00  0.00     0.020 A 
ATOM     93  C   UNL A   1      37.186  32.141  32.826  1.00  0.00     0.020 A 
ATOM     94  C   UNL A   1      36.383  33.103  32.227  1.00  0.00     0.054 A 
BRANCH  94  95
ATOM     95  S   UNL A   1      34.794  33.571  32.958  1.00  0.00     0.124 S 
ATOM     96  O   UNL A   1      35.003  33.285  34.375  1.00  0.00    -0.237 OA
ATOM     97  O   UNL A   1      34.689  34.984  32.608  1.00  0.00    -0.237 OA
ATOM     98  O   UNL A   1      33.833  32.695  32.289  1.00  0.00    -0.744 OA
ENDBRANCH  94  95
ENDBRANCH  75  89
BRANCH  76  99
ATOM     99  C   UNL A   1      47.861  30.429  28.036  1.00  0.00    -0.014 A 
ATOM    100  C   UNL A   1      49.165  29.956  28.306  1.00  0.00     0.010 A 
ATOM    101  C   UNL A   1      47.060  29.730  27.116  1.00  0.00     0.010 A 
ATOM    102  C   UNL A   1      49.579  28.711  27.829  1.00  0.00     0.020 A 
ATOM    103  C   UNL A   1      47.484  28.487  26.623  1.00  0.00     0.020 A 
ATOM    104  C   UNL A   1      48.705  27.955  27.048  1.00  0.00     0.054 A 
BRANCH 104 105
ATOM    105  S   UNL A   1      49.102  26.200  26.778  1.00  0.00     0.124 S 
ATOM    106  O   UNL A   1      49.350  26.151  25.341  1.00  0.00    -0.237 OA
ATOM    107  O   UNL A   1      50.280  26.023  27.626  1.00  0.00    -0.237 OA
ATOM    108  O   UNL A   1      47.899  25.510  27.234  1.00  0.00    -0.744 OA
ENDBRANCH 104 105
ENDBRANCH  76  99
BRANCH  88 109
ATOM    109  C   UNL A   1      43.626  36.327  28.520  1.00  0.00    -0.014 A 
ATOM    110  C   UNL A   1      43.535  37.525  29.246  1.00  0.00     0.010 A 
ATOM    111  C   UNL A   1      43.148  36.339  27.189  1.00  0.00     0.010 A 
ATOM    112  C   UNL A   1      43.048  38.697  28.645  1.00  0.00     0.020 A 
ATOM    113  C   UNL A   1      42.645  37.494  26.588  1.00  0.00     0.020 A 
ATOM    114  C   UNL A   1      42.616  38.675  27.316  1.00  0.00     0.054 A 
BRANCH 114 115
ATOM    115  S   UNL A   1      41.973  40.192  26.565  1.00  0.00     0.124 S 
ATOM    116  O   UNL A   1      40.717  39.746  25.967  1.00  0.00    -0.237 OA
ATOM    117  O   UNL A   1      41.840  41.069  27.726  1.00  0.00    -0.237 OA
ATOM    118  O   UNL A   1      43.009  40.577  25.609  1.00  0.00    -0.744 OA
ENDBRANCH 114 115
ENDBRANCH  88 109
ENDBRANCH  62  63
ENDBRANCH  54  57
ENDBRANCH  52  53
ENDBRANCH  51  52
ENDBRANCH  50  51
ENDBRANCH  49  50
ENDBRANCH  48  49
ENDBRANCH   1  48
TORSDOF 25
ENDMDL
MODEL 2
REMARK VINA RESULT:     -10.3      4.790     14.073
REMARK SMILES Cc1ccc(S(=O)(=O)n2cc(C(=O)C(=O)N[C@H](Cc3c[nH]c4ccccc34)C(=O)NCC(=O)NCCCCCCNC(=O)c3ccc(-c4c5nc(c(-c6ccc(S(=O)(=O)[O-])cc6)c6ccc([nH]6)c(-c6ccc(S(=O)(=O)[O-])cc6)c6nc(c(-c7ccc(S(=O)(=O)[O-])cc7)c7ccc4[nH]7)C=C6)C=C5)cc3)c3ccccc32)cc1
REMARK SMILES IDX 35 1 34 2 32 3 33 4 31 6 30 7 28 8 29 9 17 11 16 12 14 13
REMARK SMILES IDX 15 14 12 16 13 17 11 18 9 19 10 20 109 21 104 22 108 23
REMARK SMILES IDX 105 24 107 25 106 26 6 27 7 28 8 29 5 30 1 31 2 32 3 33
REMARK SMILES IDX 111 34 4 35 110 36 18 37 19 38 20 39 27 40 21 41 22 42 26 43
REMARK SMILES IDX 23 45 25 46 24 47 36 48 37 49 38 50 39 51 40 52 41 53 42 54
REMARK SMILES IDX 43 56 44 57 45 58 103 59 46 60 102 61 47 62 48 63 49 64
REMARK SMILES IDX 96 65 50 66 101 67 95 68 97 69 51 70 100 71 94 72 93 73
REMARK SMILES IDX 52 75 82 76 63 77 81 78 64 79 67 80 80 81 98 82 65 83 66 84
REMARK SMILES IDX 79 86 99 87 68 88 53 89 54 90 62 91 55 92 61 93 56 94 57 95
REMARK SMILES IDX 58 96 59 97 60 98 83 99 84 100 92 101 85 102 91 103 86 104
REMARK SMILES IDX 87 105 88 106 89 107 90 108 69 109 70 110 78 111 71 112
REMARK SMILES IDX 77 113 72 114 73 115 74 116 75 117 76 118
REMARK H PARENT 34 5 30 10 16 15 21 44 41 55 97 74 67 85
REMARK Flexibility Score: inf
ROOT
ATOM      1  C   UNL A   1      48.595  30.875  30.672  1.00  0.00     0.116 C 
ENDROOT
BRANCH   1   2
ATOM      2  N   UNL A   1      47.620  31.919  30.963  1.00  0.00    -0.355 N 
ATOM      3  C   UNL A   1      46.297  32.012  30.626  1.00  0.00     0.239 C 
ATOM      4  O   UNL A   1      45.623  32.867  31.213  1.00  0.00    -0.273 OA
ATOM      5  H   UNL A   1      47.969  32.678  31.484  1.00  0.00     0.163 HD
BRANCH   3   6
ATOM      6  C   UNL A   1      45.591  31.007  29.697  1.00  0.00     0.216 C 
BRANCH   6   7
ATOM      7  N   UNL A   1      45.802  31.173  28.281  1.00  0.00    -0.345 N 
ATOM      8  C   UNL A   1      45.851  32.242  27.460  1.00  0.00     0.243 C 
ATOM      9  O   UNL A   1      46.342  31.997  26.348  1.00  0.00    -0.273 OA
ATOM     10  H   UNL A   1      45.940  30.319  27.810  1.00  0.00     0.164 HD
BRANCH   8  11
ATOM     11  C   UNL A   1      45.311  33.681  27.743  1.00  0.00     0.176 C 
BRANCH  11  12
ATOM     12  N   UNL A   1      43.926  33.921  28.276  1.00  0.00    -0.337 N 
ATOM     13  C   UNL A   1      43.056  35.003  28.340  1.00  0.00     0.293 C 
ATOM     14  O   UNL A   1      42.000  34.895  28.958  1.00  0.00    -0.265 OA
ATOM     15  H   UNL A   1      43.539  33.112  28.681  1.00  0.00     0.164 HD
BRANCH  13  16
ATOM     16  C   UNL A   1      43.377  36.315  27.629  1.00  0.00     0.252 C 
ATOM     17  O   UNL A   1      43.191  36.296  26.410  1.00  0.00    -0.283 OA
BRANCH  16  18
ATOM     18  C   UNL A   1      43.890  37.554  28.249  1.00  0.00     0.054 A 
ATOM     19  N   UNL A   1      44.613  39.297  29.507  1.00  0.00    -0.240 N 
ATOM     20  C   UNL A   1      43.623  38.288  29.412  1.00  0.00     0.117 A 
ATOM     21  C   UNL A   1      45.636  38.900  28.635  1.00  0.00     0.065 A 
ATOM     22  C   UNL A   1      44.915  38.308  27.610  1.00  0.00     0.012 A 
ATOM     23  C   UNL A   1      46.951  39.352  28.450  1.00  0.00     0.028 A 
ATOM     24  C   UNL A   1      45.352  38.488  26.294  1.00  0.00     0.011 A 
ATOM     25  C   UNL A   1      47.389  39.466  27.123  1.00  0.00     0.002 A 
ATOM     26  C   UNL A   1      46.568  39.118  26.057  1.00  0.00     0.001 A 
BRANCH  19  27
ATOM     27  S   UNL A   1      44.217  41.030  29.272  1.00  0.00     0.268 S 
ATOM     28  O   UNL A   1      45.345  41.754  29.824  1.00  0.00    -0.201 OA
ATOM     29  O   UNL A   1      42.881  41.154  29.838  1.00  0.00    -0.201 OA
BRANCH  27  30
ATOM     30  C   UNL A   1      43.981  41.610  27.622  1.00  0.00     0.088 A 
ATOM     31  C   UNL A   1      44.111  43.261  23.638  1.00  0.00     0.044 C 
ATOM     32  C   UNL A   1      44.059  42.647  25.007  1.00  0.00    -0.051 A 
ATOM     33  C   UNL A   1      45.004  43.061  25.938  1.00  0.00     0.005 A 
ATOM     34  C   UNL A   1      43.079  41.710  25.396  1.00  0.00     0.005 A 
ATOM     35  C   UNL A   1      44.970  42.538  27.220  1.00  0.00     0.022 A 
ATOM     36  C   UNL A   1      43.033  41.182  26.706  1.00  0.00     0.022 A 
ENDBRANCH  27  30
ENDBRANCH  19  27
ENDBRANCH  16  18
ENDBRANCH  13  16
ENDBRANCH  11  12
BRANCH  11  37
ATOM     37  C   UNL A   1      45.909  34.834  26.875  1.00  0.00     0.072 C 
BRANCH  37  38
ATOM     38  C   UNL A   1      47.223  35.434  27.300  1.00  0.00    -0.020 A 
ATOM     39  C   UNL A   1      47.599  35.644  28.612  1.00  0.00     0.087 A 
ATOM     40  C   UNL A   1      48.335  35.870  26.493  1.00  0.00     0.003 A 
ATOM     41  N   UNL A   1      48.805  36.282  28.623  1.00  0.00    -0.361 N 
ATOM     42  C   UNL A   1      49.265  36.463  27.347  1.00  0.00     0.046 A 
ATOM     43  C   UNL A   1      48.635  35.865  25.114  1.00  0.00     0.010 A 
ATOM     44  H   UNL A   1      49.279  36.572  29.436  1.00  0.00     0.166 HD
ATOM     45  C   UNL A   1      50.422  37.110  26.900  1.00  0.00     0.026 A 
ATOM     46  C   UNL A   1      49.808  36.484  24.651  1.00  0.00     0.001 A 
ATOM     47  C   UNL A   1      50.678  37.117  25.532  1.00  0.00     0.002 A 
ENDBRANCH  37  38
ENDBRANCH  11  37
ENDBRANCH   8  11
ENDBRANCH   6   7
ENDBRANCH   3   6
ENDBRANCH   1   2
BRANCH   1  48
ATOM     48  C   UNL A   1      49.165  30.205  31.924  1.00  0.00     0.021 C 
BRANCH  48  49
ATOM     49  C   UNL A   1      48.219  29.333  32.763  1.00  0.00     0.002 C 
BRANCH  49  50
ATOM     50  C   UNL A   1      48.536  29.025  34.238  1.00  0.00     0.002 C 
BRANCH  50  51
ATOM     51  C   UNL A   1      48.005  29.900  35.383  1.00  0.00     0.021 C 
BRANCH  51  52
ATOM     52  C   UNL A   1      46.499  29.886  35.637  1.00  0.00     0.116 C 
BRANCH  52  53
ATOM     53  N   UNL A   1      46.135  29.293  36.922  1.00  0.00    -0.352 N 
ATOM     54  C   UNL A   1      44.870  28.952  37.395  1.00  0.00     0.251 C 
ATOM     55  H   UNL A   1      46.884  29.111  37.535  1.00  0.00     0.163 HD
ATOM     56  O   UNL A   1      44.642  28.702  38.550  1.00  0.00    -0.269 OA
BRANCH  54  57
ATOM     57  C   UNL A   1      43.820  28.777  36.366  1.00  0.00     0.039 A 
ATOM     58  C   UNL A   1      43.507  27.468  35.980  1.00  0.00     0.014 A 
ATOM     59  C   UNL A   1      43.386  29.870  35.629  1.00  0.00     0.014 A 
ATOM     60  C   UNL A   1      42.918  27.243  34.737  1.00  0.00     0.010 A 
ATOM     61  C   UNL A   1      42.902  29.637  34.359  1.00  0.00     0.010 A 
ATOM     62  C   UNL A   1      42.710  28.329  33.894  1.00  0.00    -0.014 A 
BRANCH  62  63
ATOM     63  C   UNL A   1      42.314  28.236  32.494  1.00  0.00     0.031 A 
ATOM     64  C   UNL A   1      40.901  28.485  32.123  1.00  0.00     0.074 A 
ATOM     65  C   UNL A   1      43.252  28.091  31.530  1.00  0.00     0.049 A 
ATOM     66  N   UNL A   1      40.382  28.174  30.985  1.00  0.00    -0.248 NA
ATOM     67  C   UNL A   1      39.937  29.084  33.044  1.00  0.00     0.031 C 
ATOM     68  C   UNL A   1      43.078  28.333  30.098  1.00  0.00     0.029 A 
ATOM     69  N   UNL A   1      44.511  27.493  31.608  1.00  0.00    -0.354 N 
ATOM     70  C   UNL A   1      39.151  28.783  30.905  1.00  0.00     0.074 A 
ATOM     71  C   UNL A   1      38.885  29.266  32.240  1.00  0.00     0.031 C 
ATOM     72  C   UNL A   1      44.001  27.624  29.430  1.00  0.00     0.029 A 
ATOM     73  C   UNL A   1      44.666  26.778  30.405  1.00  0.00     0.049 A 
ATOM     74  H   UNL A   1      45.156  27.557  32.350  1.00  0.00     0.167 HD
ATOM     75  C   UNL A   1      38.548  28.917  29.689  1.00  0.00     0.031 A 
ATOM     76  C   UNL A   1      44.736  25.413  30.341  1.00  0.00     0.031 A 
ATOM     77  C   UNL A   1      39.301  28.244  28.632  1.00  0.00     0.049 A 
ATOM     78  C   UNL A   1      43.647  24.776  29.483  1.00  0.00     0.074 A 
ATOM     79  C   UNL A   1      40.130  28.661  27.604  1.00  0.00     0.029 A 
ATOM     80  N   UNL A   1      39.465  26.873  28.722  1.00  0.00    -0.354 N 
ATOM     81  N   UNL A   1      42.690  25.439  28.893  1.00  0.00    -0.248 NA
ATOM     82  C   UNL A   1      43.495  23.329  29.307  1.00  0.00     0.031 C 
ATOM     83  C   UNL A   1      40.796  27.514  27.079  1.00  0.00     0.029 A 
ATOM     84  C   UNL A   1      40.356  26.406  27.778  1.00  0.00     0.049 A 
ATOM     85  H   UNL A   1      39.003  26.302  29.377  1.00  0.00     0.167 HD
ATOM     86  C   UNL A   1      41.794  24.567  28.335  1.00  0.00     0.074 A 
ATOM     87  C   UNL A   1      42.349  23.254  28.603  1.00  0.00     0.031 C 
ATOM     88  C   UNL A   1      40.636  24.980  27.742  1.00  0.00     0.031 A 
BRANCH  75  89
ATOM     89  C   UNL A   1      37.372  29.828  29.412  1.00  0.00    -0.014 A 
ATOM     90  C   UNL A   1      36.676  29.708  28.191  1.00  0.00     0.010 A 
ATOM     91  C   UNL A   1      36.922  30.838  30.283  1.00  0.00     0.010 A 
ATOM     92  C   UNL A   1      35.656  30.599  27.821  1.00  0.00     0.020 A 
ATOM     93  C   UNL A   1      35.925  31.756  29.916  1.00  0.00     0.020 A 
ATOM     94  C   UNL A   1      35.306  31.639  28.678  1.00  0.00     0.054 A 
BRANCH  94  95
ATOM     95  S   UNL A   1      34.042  32.827  28.156  1.00  0.00     0.124 S 
ATOM     96  O   UNL A   1      33.120  31.991  27.392  1.00  0.00    -0.237 OA
ATOM     97  O   UNL A   1      33.534  33.326  29.430  1.00  0.00    -0.237 OA
ATOM     98  O   UNL A   1      34.789  33.802  27.362  1.00  0.00    -0.744 OA
ENDBRANCH  94  95
ENDBRANCH  75  89
BRANCH  76  99
ATOM     99  C   UNL A   1      45.345  24.789  31.551  1.00  0.00    -0.014 A 
ATOM    100  C   UNL A   1      46.634  25.228  31.926  1.00  0.00     0.010 A 
ATOM    101  C   UNL A   1      44.529  24.171  32.516  1.00  0.00     0.010 A 
ATOM    102  C   UNL A   1      47.016  25.237  33.269  1.00  0.00     0.020 A 
ATOM    103  C   UNL A   1      44.921  24.164  33.862  1.00  0.00     0.020 A 
ATOM    104  C   UNL A   1      46.126  24.768  34.234  1.00  0.00     0.054 A 
BRANCH 104 105
ATOM    105  S   UNL A   1      46.477  25.152  35.978  1.00  0.00     0.124 S 
ATOM    106  O   UNL A   1      45.222  24.803  36.636  1.00  0.00    -0.237 OA
ATOM    107  O   UNL A   1      47.604  24.265  36.262  1.00  0.00    -0.237 OA
ATOM    108  O   UNL A   1      46.798  26.576  35.950  1.00  0.00    -0.744 OA
ENDBRANCH 104 105
ENDBRANCH  76  99
BRANCH  88 109
ATOM    109  C   UNL A   1      39.621  24.059  27.117  1.00  0.00    -0.014 A 
ATOM    110  C   UNL A   1      39.920  22.735  26.760  1.00  0.00     0.010 A 
ATOM    111  C   UNL A   1      38.348  24.557  26.751  1.00  0.00     0.010 A 
ATOM    112  C   UNL A   1      38.965  21.927  26.122  1.00  0.00     0.020 A 
ATOM    113  C   UNL A   1      37.398  23.768  26.101  1.00  0.00     0.020 A 
ATOM    114  C   UNL A   1      37.705  22.447  25.807  1.00  0.00     0.054 A 
BRANCH 114 115
ATOM    115  S   UNL A   1      36.494  21.394  24.967  1.00  0.00     0.124 S 
ATOM    116  O   UNL A   1      36.096  22.213  23.824  1.00  0.00    -0.237 OA
ATOM    117  O   UNL A   1      37.293  20.214  24.646  1.00  0.00    -0.237 OA
ATOM    118  O   UNL A   1      35.453  21.188  25.972  1.00  0.00    -0.744 OA
ENDBRANCH 114 115
ENDBRANCH  88 109
ENDBRANCH  62  63
ENDBRANCH  54  57
ENDBRANCH  52  53
ENDBRANCH  51  52
ENDBRANCH  50  51
ENDBRANCH  49  50
ENDBRANCH  48  49
ENDBRANCH   1  48
TORSDOF 25
ENDMDL
MODEL 3
REMARK VINA RESULT:     -10.3      6.072     10.276
REMARK SMILES Cc1ccc(S(=O)(=O)n2cc(C(=O)C(=O)N[C@H](Cc3c[nH]c4ccccc34)C(=O)NCC(=O)NCCCCCCNC(=O)c3ccc(-c4c5nc(c(-c6ccc(S(=O)(=O)[O-])cc6)c6ccc([nH]6)c(-c6ccc(S(=O)(=O)[O-])cc6)c6nc(c(-c7ccc(S(=O)(=O)[O-])cc7)c7ccc4[nH]7)C=C6)C=C5)cc3)c3ccccc32)cc1
REMARK SMILES IDX 35 1 34 2 32 3 33 4 31 6 30 7 28 8 29 9 17 11 16 12 14 13
REMARK SMILES IDX 15 14 12 16 13 17 11 18 9 19 10 20 109 21 104 22 108 23
REMARK SMILES IDX 105 24 107 25 106 26 6 27 7 28 8 29 5 30 1 31 2 32 3 33
REMARK SMILES IDX 111 34 4 35 110 36 18 37 19 38 20 39 27 40 21 41 22 42 26 43
REMARK SMILES IDX 23 45 25 46 24 47 36 48 37 49 38 50 39 51 40 52 41 53 42 54
REMARK SMILES IDX 43 56 44 57 45 58 103 59 46 60 102 61 47 62 48 63 49 64
REMARK SMILES IDX 96 65 50 66 101 67 95 68 97 69 51 70 100 71 94 72 93 73
REMARK SMILES IDX 52 75 82 76 63 77 81 78 64 79 67 80 80 81 98 82 65 83 66 84
REMARK SMILES IDX 79 86 99 87 68 88 53 89 54 90 62 91 55 92 61 93 56 94 57 95
REMARK SMILES IDX 58 96 59 97 60 98 83 99 84 100 92 101 85 102 91 103 86 104
REMARK SMILES IDX 87 105 88 106 89 107 90 108 69 109 70 110 78 111 71 112
REMARK SMILES IDX 77 113 72 114 73 115 74 116 75 117 76 118
REMARK H PARENT 34 5 30 10 16 15 21 44 41 55 97 74 67 85
REMARK Flexibility Score: inf
ROOT
ATOM      1  C   UNL A   1      42.874  23.467  29.035  1.00  0.00     0.116 C 
ENDROOT
BRANCH   1   2
ATOM      2  N   UNL A   1      42.615  22.476  27.997  1.00  0.00    -0.355 N 
ATOM      3  C   UNL A   1      41.652  22.445  27.027  1.00  0.00     0.239 C 
ATOM      4  O   UNL A   1      41.803  21.632  26.106  1.00  0.00    -0.273 OA
ATOM      5  H   UNL A   1      43.230  21.708  27.996  1.00  0.00     0.163 HD
BRANCH   3   6
ATOM      6  C   UNL A   1      40.507  23.471  26.940  1.00  0.00     0.216 C 
BRANCH   6   7
ATOM      7  N   UNL A   1      40.739  24.637  26.124  1.00  0.00    -0.345 N 
ATOM      8  C   UNL A   1      41.009  25.931  26.394  1.00  0.00     0.243 C 
ATOM      9  O   UNL A   1      41.430  26.569  25.418  1.00  0.00    -0.273 OA
ATOM     10  H   UNL A   1      40.691  24.447  25.159  1.00  0.00     0.164 HD
BRANCH   8  11
ATOM     11  C   UNL A   1      40.789  26.684  27.746  1.00  0.00     0.176 C 
BRANCH  11  12
ATOM     12  N   UNL A   1      41.860  26.756  28.800  1.00  0.00    -0.337 N 
ATOM     13  C   UNL A   1      43.137  27.296  28.887  1.00  0.00     0.293 C 
ATOM     14  O   UNL A   1      43.818  27.081  29.886  1.00  0.00    -0.265 OA
ATOM     15  H   UNL A   1      41.590  26.308  29.634  1.00  0.00     0.164 HD
BRANCH  13  16
ATOM     16  C   UNL A   1      43.698  28.178  27.774  1.00  0.00     0.252 C 
ATOM     17  O   UNL A   1      42.991  29.146  27.483  1.00  0.00    -0.283 OA
BRANCH  16  18
ATOM     18  C   UNL A   1      44.957  27.969  27.030  1.00  0.00     0.054 A 
ATOM     19  N   UNL A   1      46.979  27.968  26.003  1.00  0.00    -0.240 N 
ATOM     20  C   UNL A   1      45.859  28.775  26.323  1.00  0.00     0.117 A 
ATOM     21  C   UNL A   1      46.886  26.850  26.843  1.00  0.00     0.065 A 
ATOM     22  C   UNL A   1      45.514  26.664  26.909  1.00  0.00     0.012 A 
ATOM     23  C   UNL A   1      47.788  25.821  27.153  1.00  0.00     0.028 A 
ATOM     24  C   UNL A   1      45.015  25.358  26.929  1.00  0.00     0.011 A 
ATOM     25  C   UNL A   1      47.254  24.527  27.228  1.00  0.00     0.002 A 
ATOM     26  C   UNL A   1      45.898  24.290  27.033  1.00  0.00     0.001 A 
BRANCH  19  27
ATOM     27  S   UNL A   1      47.328  27.467  24.317  1.00  0.00     0.268 S 
ATOM     28  O   UNL A   1      46.790  28.528  23.488  1.00  0.00    -0.201 OA
ATOM     29  O   UNL A   1      46.806  26.110  24.250  1.00  0.00    -0.201 OA
BRANCH  27  30
ATOM     30  C   UNL A   1      49.016  27.245  23.850  1.00  0.00     0.088 A 
ATOM     31  C   UNL A   1      52.920  26.939  22.039  1.00  0.00     0.044 C 
ATOM     32  C   UNL A   1      51.577  27.076  22.696  1.00  0.00    -0.051 A 
ATOM     33  C   UNL A   1      50.456  27.124  21.876  1.00  0.00     0.005 A 
ATOM     34  C   UNL A   1      51.403  27.115  24.096  1.00  0.00     0.005 A 
ATOM     35  C   UNL A   1      49.198  27.221  22.448  1.00  0.00     0.022 A 
ATOM     36  C   UNL A   1      50.121  27.202  24.684  1.00  0.00     0.022 A 
ENDBRANCH  27  30
ENDBRANCH  19  27
ENDBRANCH  16  18
ENDBRANCH  13  16
ENDBRANCH  11  12
BRANCH  11  37
ATOM     37  C   UNL A   1      39.320  26.762  28.271  1.00  0.00     0.072 C 
BRANCH  37  38
ATOM     38  C   UNL A   1      38.879  28.026  28.958  1.00  0.00    -0.020 A 
ATOM     39  C   UNL A   1      38.175  29.045  28.346  1.00  0.00     0.087 A 
ATOM     40  C   UNL A   1      39.047  28.429  30.333  1.00  0.00     0.003 A 
ATOM     41  N   UNL A   1      38.024  30.067  29.238  1.00  0.00    -0.361 N 
ATOM     42  C   UNL A   1      38.573  29.735  30.447  1.00  0.00     0.046 A 
ATOM     43  C   UNL A   1      39.596  27.836  31.490  1.00  0.00     0.010 A 
ATOM     44  H   UNL A   1      37.583  30.924  29.039  1.00  0.00     0.166 HD
ATOM     45  C   UNL A   1      38.686  30.499  31.614  1.00  0.00     0.026 A 
ATOM     46  C   UNL A   1      39.689  28.579  32.679  1.00  0.00     0.001 A 
ATOM     47  C   UNL A   1      39.258  29.900  32.732  1.00  0.00     0.002 A 
ENDBRANCH  37  38
ENDBRANCH  11  37
ENDBRANCH   8  11
ENDBRANCH   6   7
ENDBRANCH   3   6
ENDBRANCH   1   2
BRANCH   1  48
ATOM     48  C   UNL A   1      43.989  23.062  30.002  1.00  0.00     0.021 C 
BRANCH  48  49
ATOM     49  C   UNL A   1      44.096  23.826  31.331  1.00  0.00     0.002 C 
BRANCH  49  50
ATOM     50  C   UNL A   1      44.288  23.069  32.658  1.00  0.00     0.002 C 
BRANCH  50  51
ATOM     51  C   UNL A   1      43.239  23.117  33.780  1.00  0.00     0.021 C 
BRANCH  51  52
ATOM     52  C   UNL A   1      43.676  23.697  35.124  1.00  0.00     0.116 C 
BRANCH  52  53
ATOM     53  N   UNL A   1      44.510  22.785  35.903  1.00  0.00    -0.352 N 
ATOM     54  C   UNL A   1      45.899  22.753  36.008  1.00  0.00     0.251 C 
ATOM     55  H   UNL A   1      44.026  22.103  36.422  1.00  0.00     0.163 HD
ATOM     56  O   UNL A   1      46.504  21.823  36.471  1.00  0.00    -0.269 OA
BRANCH  54  57
ATOM     57  C   UNL A   1      46.605  24.001  35.637  1.00  0.00     0.039 A 
ATOM     58  C   UNL A   1      46.804  24.953  36.645  1.00  0.00     0.014 A 
ATOM     59  C   UNL A   1      46.794  24.317  34.299  1.00  0.00     0.014 A 
ATOM     60  C   UNL A   1      47.008  26.287  36.297  1.00  0.00     0.010 A 
ATOM     61  C   UNL A   1      46.889  25.650  33.961  1.00  0.00     0.010 A 
ATOM     62  C   UNL A   1      46.950  26.639  34.953  1.00  0.00    -0.014 A 
BRANCH  62  63
ATOM     63  C   UNL A   1      46.921  28.005  34.448  1.00  0.00     0.031 A 
ATOM     64  C   UNL A   1      45.623  28.715  34.348  1.00  0.00     0.074 A 
ATOM     65  C   UNL A   1      48.077  28.675  34.232  1.00  0.00     0.049 A 
ATOM     66  N   UNL A   1      45.437  29.799  33.678  1.00  0.00    -0.248 NA
ATOM     67  C   UNL A   1      44.404  28.219  34.982  1.00  0.00     0.031 C 
ATOM     68  C   UNL A   1      48.234  30.121  34.075  1.00  0.00     0.029 A 
ATOM     69  N   UNL A   1      49.337  28.173  33.898  1.00  0.00    -0.354 N 
ATOM     70  C   UNL A   1      44.204  30.300  34.026  1.00  0.00     0.074 A 
ATOM     71  C   UNL A   1      43.567  29.241  34.773  1.00  0.00     0.031 C 
ATOM     72  C   UNL A   1      49.365  30.356  33.393  1.00  0.00     0.029 A 
ATOM     73  C   UNL A   1      49.860  29.067  32.944  1.00  0.00     0.049 A 
ATOM     74  H   UNL A   1      49.769  27.364  34.256  1.00  0.00     0.167 HD
ATOM     75  C   UNL A   1      43.906  31.601  33.747  1.00  0.00     0.031 A 
ATOM     76  C   UNL A   1      50.094  28.727  31.639  1.00  0.00     0.031 A 
ATOM     77  C   UNL A   1      44.965  32.247  32.972  1.00  0.00     0.049 A 
ATOM     78  C   UNL A   1      49.326  29.575  30.631  1.00  0.00     0.074 A 
ATOM     79  C   UNL A   1      45.969  33.157  33.256  1.00  0.00     0.029 A 
ATOM     80  N   UNL A   1      45.253  31.742  31.716  1.00  0.00    -0.354 N 
ATOM     81  N   UNL A   1      48.475  30.512  30.950  1.00  0.00    -0.248 NA
ATOM     82  C   UNL A   1      49.382  29.363  29.182  1.00  0.00     0.031 C 
ATOM     83  C   UNL A   1      46.866  33.188  32.147  1.00  0.00     0.029 A 
ATOM     84  C   UNL A   1      46.393  32.311  31.189  1.00  0.00     0.049 A 
ATOM     85  H   UNL A   1      44.710  31.062  31.255  1.00  0.00     0.167 HD
ATOM     86  C   UNL A   1      47.846  30.973  29.825  1.00  0.00     0.074 A 
ATOM     87  C   UNL A   1      48.459  30.237  28.737  1.00  0.00     0.031 C 
ATOM     88  C   UNL A   1      46.830  31.884  29.871  1.00  0.00     0.031 A 
BRANCH  75  89
ATOM     89  C   UNL A   1      42.740  32.360  34.343  1.00  0.00    -0.014 A 
ATOM     90  C   UNL A   1      41.644  32.702  33.522  1.00  0.00     0.010 A 
ATOM     91  C   UNL A   1      42.670  32.795  35.679  1.00  0.00     0.010 A 
ATOM     92  C   UNL A   1      40.590  33.507  33.980  1.00  0.00     0.020 A 
ATOM     93  C   UNL A   1      41.639  33.627  36.144  1.00  0.00     0.020 A 
ATOM     94  C   UNL A   1      40.609  33.990  35.286  1.00  0.00     0.054 A 
BRANCH  94  95
ATOM     95  S   UNL A   1      39.282  35.090  35.841  1.00  0.00     0.124 S 
ATOM     96  O   UNL A   1      38.931  34.527  37.142  1.00  0.00    -0.237 OA
ATOM     97  O   UNL A   1      39.944  36.391  35.875  1.00  0.00    -0.237 OA
ATOM     98  O   UNL A   1      38.255  34.944  34.810  1.00  0.00    -0.744 OA
ENDBRANCH  94  95
ENDBRANCH  75  89
BRANCH  76  99
ATOM     99  C   UNL A   1      50.453  27.291  31.452  1.00  0.00    -0.014 A 
ATOM    100  C   UNL A   1      51.805  26.932  31.648  1.00  0.00     0.010 A 
ATOM    101  C   UNL A   1      49.463  26.297  31.545  1.00  0.00     0.010 A 
ATOM    102  C   UNL A   1      52.138  25.662  32.124  1.00  0.00     0.020 A 
ATOM    103  C   UNL A   1      49.801  25.016  32.006  1.00  0.00     0.020 A 
ATOM    104  C   UNL A   1      51.123  24.737  32.366  1.00  0.00     0.054 A 
BRANCH 104 105
ATOM    105  S   UNL A   1      51.530  23.260  33.347  1.00  0.00     0.124 S 
ATOM    106  O   UNL A   1      51.396  23.743  34.717  1.00  0.00    -0.237 OA
ATOM    107  O   UNL A   1      50.502  22.315  32.910  1.00  0.00    -0.237 OA
ATOM    108  O   UNL A   1      52.889  22.939  32.921  1.00  0.00    -0.744 OA
ENDBRANCH 104 105
ENDBRANCH  76  99
BRANCH  88 109
ATOM    109  C   UNL A   1      46.107  32.418  28.662  1.00  0.00    -0.014 A 
ATOM    110  C   UNL A   1      44.820  31.991  28.300  1.00  0.00     0.010 A 
ATOM    111  C   UNL A   1      46.774  33.288  27.768  1.00  0.00     0.010 A 
ATOM    112  C   UNL A   1      44.204  32.465  27.131  1.00  0.00     0.020 A 
ATOM    113  C   UNL A   1      46.179  33.752  26.594  1.00  0.00     0.020 A 
ATOM    114  C   UNL A   1      44.885  33.352  26.291  1.00  0.00     0.054 A 
BRANCH 114 115
ATOM    115  S   UNL A   1      44.081  33.937  24.777  1.00  0.00     0.124 S 
ATOM    116  O   UNL A   1      43.570  32.702  24.188  1.00  0.00    -0.237 OA
ATOM    117  O   UNL A   1      43.068  34.846  25.308  1.00  0.00    -0.237 OA
ATOM    118  O   UNL A   1      45.162  34.576  24.031  1.00  0.00    -0.744 OA
ENDBRANCH 114 115
ENDBRANCH  88 109
ENDBRANCH  62  63
ENDBRANCH  54  57
ENDBRANCH  52  53
ENDBRANCH  51  52
ENDBRANCH  50  51
ENDBRANCH  49  50
ENDBRANCH  48  49
ENDBRANCH   1  48
TORSDOF 25
ENDMDL
