MODEL 1
REMARK VINA RESULT:     -11.3      0.000      0.000
REMARK SMILES Cc1ccc(C(C)C)c(OCC(=O)Nc2nc(CC(=O)NCCCCCCNC(=O)c3ccc(-c4c5nc(c(-c6ccc(S(=O)(=O)[O-])cc6)c6ccc([nH]6)c(-c6ccc(S(=O)(=O)[O-])cc6)c6nc(c(-c7ccc(S(=O)(=O)[O-])cc7)c7ccc4[nH]7)C=C6)C=C5)cc3)cs2)c1
REMARK SMILES IDX 23 1 22 2 21 3 19 4 20 5 18 7 17 8 15 9 16 10 92 11 91 12
REMARK SMILES IDX 14 13 12 14 13 15 11 17 10 18 9 19 1 20 2 21 3 22 93 23 4 24
REMARK SMILES IDX 5 25 6 26 7 27 8 28 24 29 25 30 26 31 27 32 28 33 29 34
REMARK SMILES IDX 30 36 31 37 32 38 90 39 33 40 89 41 34 42 35 43 36 44 83 45
REMARK SMILES IDX 37 46 88 47 82 48 84 49 38 50 87 51 81 52 80 53 39 55 69 56
REMARK SMILES IDX 50 57 68 58 51 59 54 60 67 61 85 62 52 63 53 64 66 66 86 67
REMARK SMILES IDX 55 68 40 69 41 70 49 71 42 72 48 73 43 74 44 75 45 76 46 77
REMARK SMILES IDX 47 78 70 79 71 80 79 81 72 82 78 83 73 84 74 85 75 86 76 87
REMARK SMILES IDX 77 88 56 89 57 90 65 91 58 92 64 93 59 94 60 95 61 96 62 97
REMARK SMILES IDX 63 98
REMARK H PARENT 21 6 14 16 28 35 84 54 54 65
REMARK Flexibility Score: inf
ROOT
ATOM      1  C   UNL A   1      37.221  23.169  25.375  1.00  0.00     0.021 C 
ENDROOT
BRANCH   1   2
ATOM      2  C   UNL A   1      36.372  21.935  25.676  1.00  0.00     0.116 C 
BRANCH   2   3
ATOM      3  N   UNL A   1      35.406  22.150  26.737  1.00  0.00    -0.356 N 
ATOM      4  C   UNL A   1      34.138  21.652  26.857  1.00  0.00     0.226 C 
ATOM      5  O   UNL A   1      33.514  21.870  27.899  1.00  0.00    -0.275 OA
ATOM      6  H   UNL A   1      35.703  22.734  27.471  1.00  0.00     0.163 HD
BRANCH   4   7
ATOM      7  C   UNL A   1      33.525  20.821  25.742  1.00  0.00     0.157 C 
BRANCH   7   8
ATOM      8  C   UNL A   1      32.710  21.636  24.791  1.00  0.00     0.063 A 
ATOM      9  C   UNL A   1      32.537  22.947  23.031  1.00  0.00     0.189 A 
ATOM     10  N   UNL A   1      33.321  22.091  23.628  1.00  0.00    -0.224 NA
ATOM     11  S   UNL A   1      30.989  23.163  23.711  1.00  0.00    -0.105 S 
ATOM     12  C   UNL A   1      31.397  22.044  24.946  1.00  0.00     0.093 A 
BRANCH   9  13
ATOM     13  N   UNL A   1      32.780  23.726  21.943  1.00  0.00    -0.299 N 
ATOM     14  C   UNL A   1      33.192  25.021  21.940  1.00  0.00     0.264 C 
ATOM     15  O   UNL A   1      33.278  25.596  20.847  1.00  0.00    -0.271 OA
ATOM     16  H   UNL A   1      32.642  23.307  21.063  1.00  0.00     0.172 HD
BRANCH  14  17
ATOM     17  C   UNL A   1      33.656  25.734  23.221  1.00  0.00     0.329 C 
BRANCH  17  18
ATOM     18  O   UNL A   1      32.748  25.952  24.281  1.00  0.00    -0.483 OA
BRANCH  18  19
ATOM     19  C   UNL A   1      32.676  27.174  24.891  1.00  0.00     0.123 A 
ATOM     20  C   UNL A   1      34.605  29.551  27.165  1.00  0.00     0.044 C 
ATOM     21  C   UNL A   1      33.532  28.982  26.284  1.00  0.00    -0.047 A 
ATOM     22  C   UNL A   1      32.418  29.755  25.959  1.00  0.00     0.004 A 
ATOM     23  C   UNL A   1      33.646  27.688  25.758  1.00  0.00     0.050 A 
ATOM     24  C   UNL A   1      31.424  29.239  25.130  1.00  0.00     0.008 A 
ATOM     25  C   UNL A   1      31.538  27.949  24.579  1.00  0.00    -0.003 A 
BRANCH  25  26
ATOM     26  C   UNL A   1      30.444  27.418  23.660  1.00  0.00     0.017 C 
ATOM     27  C   UNL A   1      29.411  26.601  24.439  1.00  0.00     0.012 C 
ATOM     28  C   UNL A   1      29.754  28.545  22.887  1.00  0.00     0.012 C 
ENDBRANCH  25  26
ENDBRANCH  18  19
ENDBRANCH  17  18
ENDBRANCH  14  17
ENDBRANCH   9  13
ENDBRANCH   7   8
ENDBRANCH   4   7
ENDBRANCH   2   3
ENDBRANCH   1   2
BRANCH   1  29
ATOM     29  C   UNL A   1      38.200  23.571  26.487  1.00  0.00     0.002 C 
BRANCH  29  30
ATOM     30  C   UNL A   1      39.592  22.915  26.459  1.00  0.00     0.002 C 
BRANCH  30  31
ATOM     31  C   UNL A   1      40.370  22.906  27.777  1.00  0.00     0.021 C 
BRANCH  31  32
ATOM     32  C   UNL A   1      41.201  24.161  28.013  1.00  0.00     0.116 C 
BRANCH  32  33
ATOM     33  N   UNL A   1      41.737  24.752  26.796  1.00  0.00    -0.352 N 
ATOM     34  C   UNL A   1      41.273  25.883  26.142  1.00  0.00     0.251 C 
ATOM     35  H   UNL A   1      42.514  24.301  26.394  1.00  0.00     0.163 HD
ATOM     36  O   UNL A   1      41.606  26.172  25.006  1.00  0.00    -0.269 OA
BRANCH  34  37
ATOM     37  C   UNL A   1      40.448  26.811  26.942  1.00  0.00     0.039 A 
ATOM     38  C   UNL A   1      40.734  28.176  26.822  1.00  0.00     0.014 A 
ATOM     39  C   UNL A   1      39.647  26.330  27.974  1.00  0.00     0.014 A 
ATOM     40  C   UNL A   1      40.355  29.046  27.841  1.00  0.00     0.010 A 
ATOM     41  C   UNL A   1      39.354  27.176  29.027  1.00  0.00     0.010 A 
ATOM     42  C   UNL A   1      39.749  28.522  28.983  1.00  0.00    -0.014 A 
BRANCH  42  43
ATOM     43  C   UNL A   1      39.550  29.287  30.210  1.00  0.00     0.031 A 
ATOM     44  C   UNL A   1      38.902  30.617  30.151  1.00  0.00     0.074 A 
ATOM     45  C   UNL A   1      39.899  28.768  31.409  1.00  0.00     0.049 A 
ATOM     46  N   UNL A   1      39.018  31.535  31.054  1.00  0.00    -0.248 NA
ATOM     47  C   UNL A   1      38.117  31.045  28.999  1.00  0.00     0.031 C 
ATOM     48  C   UNL A   1      39.494  29.263  32.723  1.00  0.00     0.029 A 
ATOM     49  N   UNL A   1      40.884  27.820  31.696  1.00  0.00    -0.354 N 
ATOM     50  C   UNL A   1      38.099  32.520  30.763  1.00  0.00     0.074 A 
ATOM     51  C   UNL A   1      37.650  32.222  29.425  1.00  0.00     0.031 C 
ATOM     52  C   UNL A   1      40.406  28.871  33.626  1.00  0.00     0.029 A 
ATOM     53  C   UNL A   1      41.488  28.234  32.895  1.00  0.00     0.049 A 
ATOM     54  H   UNL A   1      41.109  27.023  31.164  1.00  0.00     0.167 HD
ATOM     55  C   UNL A   1      37.706  33.388  31.740  1.00  0.00     0.031 A 
ATOM     56  C   UNL A   1      42.812  28.534  33.029  1.00  0.00     0.031 A 
ATOM     57  C   UNL A   1      38.511  33.241  32.954  1.00  0.00     0.049 A 
ATOM     58  C   UNL A   1      43.056  29.933  33.551  1.00  0.00     0.074 A 
ATOM     59  C   UNL A   1      38.280  32.632  34.176  1.00  0.00     0.029 A 
ATOM     60  N   UNL A   1      39.870  33.534  32.909  1.00  0.00    -0.354 N 
ATOM     61  N   UNL A   1      42.141  30.863  33.593  1.00  0.00    -0.248 NA
ATOM     62  C   UNL A   1      44.354  30.414  34.019  1.00  0.00     0.031 C 
ATOM     63  C   UNL A   1      39.532  32.479  34.831  1.00  0.00     0.029 A 
ATOM     64  C   UNL A   1      40.512  33.024  34.022  1.00  0.00     0.049 A 
ATOM     65  H   UNL A   1      40.313  34.034  32.187  1.00  0.00     0.167 HD
ATOM     66  C   UNL A   1      42.687  32.029  34.058  1.00  0.00     0.074 A 
ATOM     67  C   UNL A   1      44.074  31.694  34.326  1.00  0.00     0.031 C 
ATOM     68  C   UNL A   1      41.954  33.176  34.173  1.00  0.00     0.031 A 
BRANCH  55  69
ATOM     69  C   UNL A   1      36.399  34.163  31.697  1.00  0.00    -0.014 A 
ATOM     70  C   UNL A   1      36.088  35.069  32.735  1.00  0.00     0.010 A 
ATOM     71  C   UNL A   1      35.396  33.987  30.725  1.00  0.00     0.010 A 
ATOM     72  C   UNL A   1      34.823  35.671  32.852  1.00  0.00     0.020 A 
ATOM     73  C   UNL A   1      34.119  34.555  30.841  1.00  0.00     0.020 A 
ATOM     74  C   UNL A   1      33.832  35.383  31.918  1.00  0.00     0.054 A 
BRANCH  74  75
ATOM     75  S   UNL A   1      32.174  36.082  32.124  1.00  0.00     0.124 S 
ATOM     76  O   UNL A   1      32.414  37.194  33.041  1.00  0.00    -0.237 OA
ATOM     77  O   UNL A   1      31.817  36.455  30.760  1.00  0.00    -0.237 OA
ATOM     78  O   UNL A   1      31.399  34.978  32.687  1.00  0.00    -0.744 OA
ENDBRANCH  74  75
ENDBRANCH  55  69
BRANCH  56  79
ATOM     79  C   UNL A   1      43.708  27.805  32.090  1.00  0.00    -0.014 A 
ATOM     80  C   UNL A   1      44.135  28.498  30.938  1.00  0.00     0.010 A 
ATOM     81  C   UNL A   1      44.445  26.694  32.532  1.00  0.00     0.010 A 
ATOM     82  C   UNL A   1      45.370  28.205  30.353  1.00  0.00     0.020 A 
ATOM     83  C   UNL A   1      45.682  26.396  31.942  1.00  0.00     0.020 A 
ATOM     84  C   UNL A   1      46.164  27.200  30.905  1.00  0.00     0.054 A 
BRANCH  84  85
ATOM     85  S   UNL A   1      47.899  27.097  30.373  1.00  0.00     0.124 S 
ATOM     86  O   UNL A   1      48.398  25.966  31.149  1.00  0.00    -0.237 OA
ATOM     87  O   UNL A   1      47.760  26.860  28.936  1.00  0.00    -0.237 OA
ATOM     88  O   UNL A   1      48.440  28.401  30.741  1.00  0.00    -0.744 OA
ENDBRANCH  84  85
ENDBRANCH  56  79
BRANCH  68  89
ATOM     89  C   UNL A   1      42.500  34.541  34.512  1.00  0.00    -0.014 A 
ATOM     90  C   UNL A   1      42.096  35.297  35.623  1.00  0.00     0.010 A 
ATOM     91  C   UNL A   1      43.577  35.051  33.745  1.00  0.00     0.010 A 
ATOM     92  C   UNL A   1      42.692  36.533  35.919  1.00  0.00     0.020 A 
ATOM     93  C   UNL A   1      44.204  36.260  34.056  1.00  0.00     0.020 A 
ATOM     94  C   UNL A   1      43.740  37.010  35.130  1.00  0.00     0.054 A 
BRANCH  94  95
ATOM     95  S   UNL A   1      44.549  38.574  35.553  1.00  0.00     0.124 S 
ATOM     96  O   UNL A   1      45.892  38.373  35.015  1.00  0.00    -0.237 OA
ATOM     97  O   UNL A   1      43.736  39.567  34.853  1.00  0.00    -0.237 OA
ATOM     98  O   UNL A   1      44.456  38.621  37.010  1.00  0.00    -0.744 OA
ENDBRANCH  94  95
ENDBRANCH  68  89
ENDBRANCH  42  43
ENDBRANCH  34  37
ENDBRANCH  32  33
ENDBRANCH  31  32
ENDBRANCH  30  31
ENDBRANCH  29  30
ENDBRANCH   1  29
TORSDOF 22
ENDMDL
MODEL 2
REMARK VINA RESULT:     -11.1      3.947     10.441
REMARK SMILES Cc1ccc(C(C)C)c(OCC(=O)Nc2nc(CC(=O)NCCCCCCNC(=O)c3ccc(-c4c5nc(c(-c6ccc(S(=O)(=O)[O-])cc6)c6ccc([nH]6)c(-c6ccc(S(=O)(=O)[O-])cc6)c6nc(c(-c7ccc(S(=O)(=O)[O-])cc7)c7ccc4[nH]7)C=C6)C=C5)cc3)cs2)c1
REMARK SMILES IDX 23 1 22 2 21 3 19 4 20 5 18 7 17 8 15 9 16 10 92 11 91 12
REMARK SMILES IDX 14 13 12 14 13 15 11 17 10 18 9 19 1 20 2 21 3 22 93 23 4 24
REMARK SMILES IDX 5 25 6 26 7 27 8 28 24 29 25 30 26 31 27 32 28 33 29 34
REMARK SMILES IDX 30 36 31 37 32 38 90 39 33 40 89 41 34 42 35 43 36 44 83 45
REMARK SMILES IDX 37 46 88 47 82 48 84 49 38 50 87 51 81 52 80 53 39 55 69 56
REMARK SMILES IDX 50 57 68 58 51 59 54 60 67 61 85 62 52 63 53 64 66 66 86 67
REMARK SMILES IDX 55 68 40 69 41 70 49 71 42 72 48 73 43 74 44 75 45 76 46 77
REMARK SMILES IDX 47 78 70 79 71 80 79 81 72 82 78 83 73 84 74 85 75 86 76 87
REMARK SMILES IDX 77 88 56 89 57 90 65 91 58 92 64 93 59 94 60 95 61 96 62 97
REMARK SMILES IDX 63 98
REMARK H PARENT 21 6 14 16 28 35 84 54 54 65
REMARK Flexibility Score: inf
ROOT
ATOM      1  C   UNL A   1      33.987  31.210  27.483  1.00  0.00     0.021 C 
ENDROOT
BRANCH   1   2
ATOM      2  C   UNL A   1      33.083  30.015  27.182  1.00  0.00     0.116 C 
BRANCH   2   3
ATOM      3  N   UNL A   1      32.554  30.024  25.830  1.00  0.00    -0.356 N 
ATOM      4  C   UNL A   1      32.591  29.034  24.888  1.00  0.00     0.226 C 
ATOM      5  O   UNL A   1      31.984  29.205  23.828  1.00  0.00    -0.275 OA
ATOM      6  H   UNL A   1      32.109  30.857  25.553  1.00  0.00     0.163 HD
BRANCH   4   7
ATOM      7  C   UNL A   1      33.339  27.738  25.157  1.00  0.00     0.157 C 
BRANCH   7   8
ATOM      8  C   UNL A   1      32.654  26.542  24.582  1.00  0.00     0.063 A 
ATOM      9  C   UNL A   1      31.293  24.821  24.769  1.00  0.00     0.189 A 
ATOM     10  N   UNL A   1      31.626  25.959  25.315  1.00  0.00    -0.224 NA
ATOM     11  S   UNL A   1      32.057  24.433  23.294  1.00  0.00    -0.105 S 
ATOM     12  C   UNL A   1      32.951  25.893  23.396  1.00  0.00     0.093 A 
BRANCH   9  13
ATOM     13  N   UNL A   1      30.433  23.869  25.217  1.00  0.00    -0.299 N 
ATOM     14  C   UNL A   1      30.638  22.997  26.239  1.00  0.00     0.264 C 
ATOM     15  O   UNL A   1      29.770  22.139  26.449  1.00  0.00    -0.271 OA
ATOM     16  H   UNL A   1      29.568  23.803  24.751  1.00  0.00     0.172 HD
BRANCH  14  17
ATOM     17  C   UNL A   1      31.839  23.123  27.192  1.00  0.00     0.329 C 
BRANCH  17  18
ATOM     18  O   UNL A   1      32.842  22.129  27.205  1.00  0.00    -0.483 OA
BRANCH  18  19
ATOM     19  C   UNL A   1      33.920  22.222  26.368  1.00  0.00     0.123 A 
ATOM     20  C   UNL A   1      37.334  23.880  25.989  1.00  0.00     0.044 C 
ATOM     21  C   UNL A   1      36.125  23.033  25.717  1.00  0.00    -0.047 A 
ATOM     22  C   UNL A   1      36.100  22.197  24.602  1.00  0.00     0.004 A 
ATOM     23  C   UNL A   1      35.026  23.051  26.587  1.00  0.00     0.050 A 
ATOM     24  C   UNL A   1      34.986  21.397  24.351  1.00  0.00     0.008 A 
ATOM     25  C   UNL A   1      33.886  21.391  25.228  1.00  0.00    -0.003 A 
BRANCH  25  26
ATOM     26  C   UNL A   1      32.690  20.492  24.938  1.00  0.00     0.017 C 
ATOM     27  C   UNL A   1      32.411  20.403  23.436  1.00  0.00     0.012 C 
ATOM     28  C   UNL A   1      32.875  19.091  25.526  1.00  0.00     0.012 C 
ENDBRANCH  25  26
ENDBRANCH  18  19
ENDBRANCH  17  18
ENDBRANCH  14  17
ENDBRANCH   9  13
ENDBRANCH   7   8
ENDBRANCH   4   7
ENDBRANCH   2   3
ENDBRANCH   1   2
BRANCH   1  29
ATOM     29  C   UNL A   1      35.304  30.863  28.192  1.00  0.00     0.002 C 
BRANCH  29  30
ATOM     30  C   UNL A   1      35.974  31.986  29.005  1.00  0.00     0.002 C 
BRANCH  30  31
ATOM     31  C   UNL A   1      37.479  32.174  28.802  1.00  0.00     0.021 C 
BRANCH  31  32
ATOM     32  C   UNL A   1      38.324  31.712  29.983  1.00  0.00     0.116 C 
BRANCH  32  33
ATOM     33  N   UNL A   1      37.556  31.088  31.051  1.00  0.00    -0.352 N 
ATOM     34  C   UNL A   1      37.393  29.732  31.280  1.00  0.00     0.251 C 
ATOM     35  H   UNL A   1      37.105  31.697  31.679  1.00  0.00     0.163 HD
ATOM     36  O   UNL A   1      36.543  29.286  32.030  1.00  0.00    -0.269 OA
BRANCH  34  37
ATOM     37  C   UNL A   1      38.399  28.838  30.669  1.00  0.00     0.039 A 
ATOM     38  C   UNL A   1      39.584  28.635  31.386  1.00  0.00     0.014 A 
ATOM     39  C   UNL A   1      38.294  28.472  29.330  1.00  0.00     0.014 A 
ATOM     40  C   UNL A   1      40.728  28.218  30.711  1.00  0.00     0.010 A 
ATOM     41  C   UNL A   1      39.451  28.149  28.646  1.00  0.00     0.010 A 
ATOM     42  C   UNL A   1      40.676  28.069  29.325  1.00  0.00    -0.014 A 
BRANCH  42  43
ATOM     43  C   UNL A   1      41.860  27.895  28.490  1.00  0.00     0.031 A 
ATOM     44  C   UNL A   1      42.469  26.554  28.346  1.00  0.00     0.074 A 
ATOM     45  C   UNL A   1      42.375  28.938  27.800  1.00  0.00     0.049 A 
ATOM     46  N   UNL A   1      43.691  26.333  27.984  1.00  0.00    -0.248 NA
ATOM     47  C   UNL A   1      41.743  25.334  28.683  1.00  0.00     0.031 C 
ATOM     48  C   UNL A   1      43.344  28.867  26.708  1.00  0.00     0.029 A 
ATOM     49  N   UNL A   1      42.302  30.301  28.096  1.00  0.00    -0.354 N 
ATOM     50  C   UNL A   1      43.813  24.981  27.744  1.00  0.00     0.074 A 
ATOM     51  C   UNL A   1      42.615  24.398  28.298  1.00  0.00     0.031 C 
ATOM     52  C   UNL A   1      43.994  30.038  26.638  1.00  0.00     0.029 A 
ATOM     53  C   UNL A   1      43.557  30.840  27.768  1.00  0.00     0.049 A 
ATOM     54  H   UNL A   1      41.527  30.786  28.462  1.00  0.00     0.167 HD
ATOM     55  C   UNL A   1      44.837  24.521  26.968  1.00  0.00     0.031 A 
ATOM     56  C   UNL A   1      44.384  31.468  28.654  1.00  0.00     0.031 A 
ATOM     57  C   UNL A   1      45.800  25.580  26.657  1.00  0.00     0.049 A 
ATOM     58  C   UNL A   1      45.756  30.834  28.740  1.00  0.00     0.074 A 
ATOM     59  C   UNL A   1      46.030  26.352  25.530  1.00  0.00     0.029 A 
ATOM     60  N   UNL A   1      46.528  26.163  27.690  1.00  0.00    -0.354 N 
ATOM     61  N   UNL A   1      46.043  29.655  28.261  1.00  0.00    -0.248 NA
ATOM     62  C   UNL A   1      46.897  31.450  29.414  1.00  0.00     0.031 C 
ATOM     63  C   UNL A   1      46.833  27.458  25.916  1.00  0.00     0.029 A 
ATOM     64  C   UNL A   1      47.115  27.339  27.264  1.00  0.00     0.049 A 
ATOM     65  H   UNL A   1      46.613  25.790  28.596  1.00  0.00     0.167 HD
ATOM     66  C   UNL A   1      47.344  29.343  28.551  1.00  0.00     0.074 A 
ATOM     67  C   UNL A   1      47.843  30.506  29.261  1.00  0.00     0.031 C 
ATOM     68  C   UNL A   1      47.898  28.147  28.191  1.00  0.00     0.031 A 
BRANCH  55  69
ATOM     69  C   UNL A   1      44.807  23.185  26.244  1.00  0.00    -0.014 A 
ATOM     70  C   UNL A   1      43.620  22.420  26.235  1.00  0.00     0.010 A 
ATOM     71  C   UNL A   1      45.922  22.582  25.633  1.00  0.00     0.010 A 
ATOM     72  C   UNL A   1      43.581  21.102  25.749  1.00  0.00     0.020 A 
ATOM     73  C   UNL A   1      45.910  21.257  25.170  1.00  0.00     0.020 A 
ATOM     74  C   UNL A   1      44.739  20.515  25.247  1.00  0.00     0.054 A 
BRANCH  74  75
ATOM     75  S   UNL A   1      44.710  18.785  24.712  1.00  0.00     0.124 S 
ATOM     76  O   UNL A   1      45.705  18.169  25.586  1.00  0.00    -0.237 OA
ATOM     77  O   UNL A   1      43.325  18.402  24.962  1.00  0.00    -0.237 OA
ATOM     78  O   UNL A   1      45.088  18.852  23.301  1.00  0.00    -0.744 OA
ENDBRANCH  74  75
ENDBRANCH  55  69
BRANCH  56  79
ATOM     79  C   UNL A   1      43.682  32.142  29.781  1.00  0.00    -0.014 A 
ATOM     80  C   UNL A   1      43.682  31.482  31.027  1.00  0.00     0.010 A 
ATOM     81  C   UNL A   1      43.443  33.526  29.740  1.00  0.00     0.010 A 
ATOM     82  C   UNL A   1      43.631  32.214  32.216  1.00  0.00     0.020 A 
ATOM     83  C   UNL A   1      43.386  34.261  30.933  1.00  0.00     0.020 A 
ATOM     84  C   UNL A   1      43.553  33.605  32.157  1.00  0.00     0.054 A 
BRANCH  84  85
ATOM     85  S   UNL A   1      43.868  34.543  33.682  1.00  0.00     0.124 S 
ATOM     86  O   UNL A   1      42.921  35.648  33.573  1.00  0.00    -0.237 OA
ATOM     87  O   UNL A   1      43.561  33.551  34.714  1.00  0.00    -0.237 OA
ATOM     88  O   UNL A   1      45.277  34.906  33.566  1.00  0.00    -0.744 OA
ENDBRANCH  84  85
ENDBRANCH  56  79
BRANCH  68  89
ATOM     89  C   UNL A   1      49.259  27.645  28.607  1.00  0.00    -0.014 A 
ATOM     90  C   UNL A   1      50.291  27.333  27.709  1.00  0.00     0.010 A 
ATOM     91  C   UNL A   1      49.573  27.601  29.987  1.00  0.00     0.010 A 
ATOM     92  C   UNL A   1      51.557  26.934  28.165  1.00  0.00     0.020 A 
ATOM     93  C   UNL A   1      50.842  27.244  30.451  1.00  0.00     0.020 A 
ATOM     94  C   UNL A   1      51.824  26.886  29.534  1.00  0.00     0.054 A 
BRANCH  94  95
ATOM     95  S   UNL A   1      53.477  26.433  30.117  1.00  0.00     0.124 S 
ATOM     96  O   UNL A   1      54.118  25.985  28.884  1.00  0.00    -0.237 OA
ATOM     97  O   UNL A   1      53.989  27.687  30.669  1.00  0.00    -0.237 OA
ATOM     98  O   UNL A   1      53.215  25.389  31.105  1.00  0.00    -0.744 OA
ENDBRANCH  94  95
ENDBRANCH  68  89
ENDBRANCH  42  43
ENDBRANCH  34  37
ENDBRANCH  32  33
ENDBRANCH  31  32
ENDBRANCH  30  31
ENDBRANCH  29  30
ENDBRANCH   1  29
TORSDOF 22
ENDMDL
MODEL 3
REMARK VINA RESULT:     -10.6      5.349      9.168
REMARK SMILES Cc1ccc(C(C)C)c(OCC(=O)Nc2nc(CC(=O)NCCCCCCNC(=O)c3ccc(-c4c5nc(c(-c6ccc(S(=O)(=O)[O-])cc6)c6ccc([nH]6)c(-c6ccc(S(=O)(=O)[O-])cc6)c6nc(c(-c7ccc(S(=O)(=O)[O-])cc7)c7ccc4[nH]7)C=C6)C=C5)cc3)cs2)c1
REMARK SMILES IDX 23 1 22 2 21 3 19 4 20 5 18 7 17 8 15 9 16 10 92 11 91 12
REMARK SMILES IDX 14 13 12 14 13 15 11 17 10 18 9 19 1 20 2 21 3 22 93 23 4 24
REMARK SMILES IDX 5 25 6 26 7 27 8 28 24 29 25 30 26 31 27 32 28 33 29 34
REMARK SMILES IDX 30 36 31 37 32 38 90 39 33 40 89 41 34 42 35 43 36 44 83 45
REMARK SMILES IDX 37 46 88 47 82 48 84 49 38 50 87 51 81 52 80 53 39 55 69 56
REMARK SMILES IDX 50 57 68 58 51 59 54 60 67 61 85 62 52 63 53 64 66 66 86 67
REMARK SMILES IDX 55 68 40 69 41 70 49 71 42 72 48 73 43 74 44 75 45 76 46 77
REMARK SMILES IDX 47 78 70 79 71 80 79 81 72 82 78 83 73 84 74 85 75 86 76 87
REMARK SMILES IDX 77 88 56 89 57 90 65 91 58 92 64 93 59 94 60 95 61 96 62 97
REMARK SMILES IDX 63 98
REMARK H PARENT 21 6 14 16 28 35 84 54 54 65
REMARK Flexibility Score: inf
ROOT
ATOM      1  C   UNL A   1      41.437  27.610  28.128  1.00  0.00     0.021 C 
ENDROOT
BRANCH   1   2
ATOM      2  C   UNL A   1      40.860  29.001  27.869  1.00  0.00     0.116 C 
BRANCH   2   3
ATOM      3  N   UNL A   1      39.425  28.994  27.649  1.00  0.00    -0.356 N 
ATOM      4  C   UNL A   1      38.416  29.000  28.572  1.00  0.00     0.226 C 
ATOM      5  O   UNL A   1      37.253  29.102  28.173  1.00  0.00    -0.275 OA
ATOM      6  H   UNL A   1      39.139  28.982  26.708  1.00  0.00     0.163 HD
BRANCH   4   7
ATOM      7  C   UNL A   1      38.726  28.915  30.057  1.00  0.00     0.157 C 
BRANCH   7   8
ATOM      8  C   UNL A   1      38.607  30.232  30.752  1.00  0.00     0.063 A 
ATOM      9  C   UNL A   1      37.677  31.544  32.257  1.00  0.00     0.189 A 
ATOM     10  N   UNL A   1      37.840  30.295  31.911  1.00  0.00    -0.224 NA
ATOM     11  S   UNL A   1      38.523  32.704  31.338  1.00  0.00    -0.105 S 
ATOM     12  C   UNL A   1      39.143  31.444  30.353  1.00  0.00     0.093 A 
BRANCH   9  13
ATOM     13  N   UNL A   1      36.902  32.071  33.241  1.00  0.00    -0.299 N 
ATOM     14  C   UNL A   1      35.629  32.532  33.121  1.00  0.00     0.264 C 
ATOM     15  O   UNL A   1      35.110  33.059  34.114  1.00  0.00    -0.271 OA
ATOM     16  H   UNL A   1      37.306  32.126  34.137  1.00  0.00     0.172 HD
BRANCH  14  17
ATOM     17  C   UNL A   1      34.797  32.313  31.846  1.00  0.00     0.329 C 
BRANCH  17  18
ATOM     18  O   UNL A   1      35.082  33.052  30.677  1.00  0.00    -0.483 OA
BRANCH  18  19
ATOM     19  C   UNL A   1      34.418  34.220  30.417  1.00  0.00     0.123 A 
ATOM     20  C   UNL A   1      33.010  37.348  32.082  1.00  0.00     0.044 C 
ATOM     21  C   UNL A   1      33.395  36.344  31.036  1.00  0.00    -0.047 A 
ATOM     22  C   UNL A   1      33.171  36.625  29.688  1.00  0.00     0.004 A 
ATOM     23  C   UNL A   1      34.006  35.134  31.392  1.00  0.00     0.050 A 
ATOM     24  C   UNL A   1      33.540  35.703  28.710  1.00  0.00     0.008 A 
ATOM     25  C   UNL A   1      34.172  34.495  29.054  1.00  0.00    -0.003 A 
BRANCH  25  26
ATOM     26  C   UNL A   1      34.580  33.514  27.961  1.00  0.00     0.017 C 
ATOM     27  C   UNL A   1      36.065  33.160  28.057  1.00  0.00     0.012 C 
ATOM     28  C   UNL A   1      33.728  32.242  27.992  1.00  0.00     0.012 C 
ENDBRANCH  25  26
ENDBRANCH  18  19
ENDBRANCH  17  18
ENDBRANCH  14  17
ENDBRANCH   9  13
ENDBRANCH   7   8
ENDBRANCH   4   7
ENDBRANCH   2   3
ENDBRANCH   1   2
BRANCH   1  29
ATOM     29  C   UNL A   1      42.655  27.576  29.061  1.00  0.00     0.002 C 
BRANCH  29  30
ATOM     30  C   UNL A   1      43.615  28.778  28.997  1.00  0.00     0.002 C 
BRANCH  30  31
ATOM     31  C   UNL A   1      44.670  28.754  27.889  1.00  0.00     0.021 C 
BRANCH  31  32
ATOM     32  C   UNL A   1      46.087  28.499  28.389  1.00  0.00     0.116 C 
BRANCH  32  33
ATOM     33  N   UNL A   1      46.867  27.619  27.531  1.00  0.00    -0.352 N 
ATOM     34  C   UNL A   1      47.479  26.430  27.891  1.00  0.00     0.251 C 
ATOM     35  H   UNL A   1      46.969  27.899  26.593  1.00  0.00     0.163 HD
ATOM     36  O   UNL A   1      48.315  25.880  27.196  1.00  0.00    -0.269 OA
BRANCH  34  37
ATOM     37  C   UNL A   1      46.968  25.773  29.113  1.00  0.00     0.039 A 
ATOM     38  C   UNL A   1      45.694  25.198  29.036  1.00  0.00     0.014 A 
ATOM     39  C   UNL A   1      47.593  25.984  30.338  1.00  0.00     0.014 A 
ATOM     40  C   UNL A   1      44.968  24.990  30.206  1.00  0.00     0.010 A 
ATOM     41  C   UNL A   1      46.836  25.864  31.489  1.00  0.00     0.010 A 
ATOM     42  C   UNL A   1      45.510  25.413  31.419  1.00  0.00    -0.014 A 
BRANCH  42  43
ATOM     43  C   UNL A   1      44.743  25.488  32.659  1.00  0.00     0.031 A 
ATOM     44  C   UNL A   1      44.333  26.806  33.194  1.00  0.00     0.074 A 
ATOM     45  C   UNL A   1      44.352  24.360  33.296  1.00  0.00     0.049 A 
ATOM     46  N   UNL A   1      44.017  27.037  34.425  1.00  0.00    -0.248 NA
ATOM     47  C   UNL A   1      44.325  28.008  32.366  1.00  0.00     0.031 C 
ATOM     48  C   UNL A   1      43.345  24.260  34.350  1.00  0.00     0.029 A 
ATOM     49  N   UNL A   1      44.952  23.099  33.282  1.00  0.00    -0.354 N 
ATOM     50  C   UNL A   1      43.478  28.304  34.484  1.00  0.00     0.074 A 
ATOM     51  C   UNL A   1      43.796  28.900  33.208  1.00  0.00     0.031 C 
ATOM     52  C   UNL A   1      43.595  23.161  35.076  1.00  0.00     0.029 A 
ATOM     53  C   UNL A   1      44.847  22.603  34.593  1.00  0.00     0.049 A 
ATOM     54  H   UNL A   1      45.365  22.649  32.510  1.00  0.00     0.167 HD
ATOM     55  C   UNL A   1      42.690  28.657  35.541  1.00  0.00     0.031 A 
ATOM     56  C   UNL A   1      45.911  22.262  35.376  1.00  0.00     0.031 A 
ATOM     57  C   UNL A   1      42.703  27.637  36.591  1.00  0.00     0.049 A 
ATOM     58  C   UNL A   1      45.944  23.007  36.693  1.00  0.00     0.074 A 
ATOM     59  C   UNL A   1      41.806  26.651  36.966  1.00  0.00     0.029 A 
ATOM     60  N   UNL A   1      43.892  27.365  37.261  1.00  0.00    -0.354 N 
ATOM     61  N   UNL A   1      45.225  24.066  36.947  1.00  0.00    -0.248 NA
ATOM     62  C   UNL A   1      46.820  22.654  37.808  1.00  0.00     0.031 C 
ATOM     63  C   UNL A   1      42.494  25.729  37.800  1.00  0.00     0.029 A 
ATOM     64  C   UNL A   1      43.794  26.174  37.956  1.00  0.00     0.049 A 
ATOM     65  H   UNL A   1      44.690  27.939  37.243  1.00  0.00     0.167 HD
ATOM     66  C   UNL A   1      45.525  24.540  38.197  1.00  0.00     0.074 A 
ATOM     67  C   UNL A   1      46.519  23.612  38.703  1.00  0.00     0.031 C 
ATOM     68  C   UNL A   1      44.936  25.663  38.704  1.00  0.00     0.031 A 
BRANCH  55  69
ATOM     69  C   UNL A   1      41.675  29.787  35.491  1.00  0.00    -0.014 A 
ATOM     70  C   UNL A   1      42.082  31.107  35.784  1.00  0.00     0.010 A 
ATOM     71  C   UNL A   1      40.298  29.616  35.254  1.00  0.00     0.010 A 
ATOM     72  C   UNL A   1      41.162  32.159  35.938  1.00  0.00     0.020 A 
ATOM     73  C   UNL A   1      39.363  30.646  35.433  1.00  0.00     0.020 A 
ATOM     74  C   UNL A   1      39.800  31.913  35.793  1.00  0.00     0.054 A 
BRANCH  74  75
ATOM     75  S   UNL A   1      38.611  33.247  36.088  1.00  0.00     0.124 S 
ATOM     76  O   UNL A   1      39.204  33.952  37.222  1.00  0.00    -0.237 OA
ATOM     77  O   UNL A   1      38.625  33.968  34.820  1.00  0.00    -0.237 OA
ATOM     78  O   UNL A   1      37.365  32.542  36.386  1.00  0.00    -0.744 OA
ENDBRANCH  74  75
ENDBRANCH  55  69
BRANCH  56  79
ATOM     79  C   UNL A   1      47.111  21.806  34.623  1.00  0.00    -0.014 A 
ATOM     80  C   UNL A   1      48.207  22.692  34.561  1.00  0.00     0.010 A 
ATOM     81  C   UNL A   1      47.324  20.437  34.389  1.00  0.00     0.010 A 
ATOM     82  C   UNL A   1      49.510  22.199  34.454  1.00  0.00     0.020 A 
ATOM     83  C   UNL A   1      48.632  19.943  34.277  1.00  0.00     0.020 A 
ATOM     84  C   UNL A   1      49.714  20.821  34.382  1.00  0.00     0.054 A 
BRANCH  84  85
ATOM     85  S   UNL A   1      51.403  20.195  34.626  1.00  0.00     0.124 S 
ATOM     86  O   UNL A   1      51.944  21.126  35.612  1.00  0.00    -0.237 OA
ATOM     87  O   UNL A   1      51.154  18.838  35.112  1.00  0.00    -0.237 OA
ATOM     88  O   UNL A   1      51.987  20.282  33.291  1.00  0.00    -0.744 OA
ENDBRANCH  84  85
ENDBRANCH  56  79
BRANCH  68  89
ATOM     89  C   UNL A   1      45.318  26.354  39.990  1.00  0.00    -0.014 A 
ATOM     90  C   UNL A   1      46.583  26.910  40.239  1.00  0.00     0.010 A 
ATOM     91  C   UNL A   1      44.315  26.576  40.964  1.00  0.00     0.010 A 
ATOM     92  C   UNL A   1      46.853  27.598  41.433  1.00  0.00     0.020 A 
ATOM     93  C   UNL A   1      44.563  27.295  42.137  1.00  0.00     0.020 A 
ATOM     94  C   UNL A   1      45.842  27.782  42.377  1.00  0.00     0.054 A 
BRANCH  94  95
ATOM     95  S   UNL A   1      46.177  28.726  43.886  1.00  0.00     0.124 S 
ATOM     96  O   UNL A   1      45.439  27.964  44.888  1.00  0.00    -0.237 OA
ATOM     97  O   UNL A   1      47.634  28.662  43.999  1.00  0.00    -0.237 OA
ATOM     98  O   UNL A   1      45.643  30.052  43.583  1.00  0.00    -0.744 OA
ENDBRANCH  94  95
ENDBRANCH  68  89
ENDBRANCH  42  43
ENDBRANCH  34  37
ENDBRANCH  32  33
ENDBRANCH  31  32
ENDBRANCH  30  31
ENDBRANCH  29  30
ENDBRANCH   1  29
TORSDOF 22
ENDMDL
