MODEL 1
REMARK VINA RESULT:     -10.3      0.000      0.000
REMARK SMILES O=C(NCCCCCCNC(=O)c1c(F)cccc1NC(=O)C1CCCCC1)c1ccc(-c2c3nc(c(-c4ccc(S(=O)(=O)[O-])cc4)c4ccc([nH]4)c(-c4ccc(S(=O)(=O)[O-])cc4)c4nc(c(-c5ccc(S(=O)(=O)[O-])cc5)c5ccc2[nH]5)C=C4)C=C3)cc1
REMARK SMILES IDX 6 1 5 2 4 3 3 4 1 5 2 6 29 8 30 9 88 10 31 11 87 12 32 13
REMARK SMILES IDX 33 14 34 15 81 16 35 17 86 18 80 19 82 20 36 21 85 22 79 23
REMARK SMILES IDX 78 24 37 26 67 27 48 28 66 29 49 30 52 31 65 32 83 33 50 34
REMARK SMILES IDX 51 35 64 37 84 38 53 39 38 40 39 41 47 42 40 43 46 44 41 45
REMARK SMILES IDX 42 46 43 47 44 48 45 49 68 50 69 51 77 52 70 53 76 54 71 55
REMARK SMILES IDX 72 56 73 57 74 58 75 59 54 60 55 61 63 62 56 63 62 64 57 65
REMARK SMILES IDX 58 66 59 67 60 68 61 69 7 70 8 71 9 72 10 73 11 74 12 76
REMARK SMILES IDX 13 77 14 78 19 79 15 80 16 81 18 82 17 83 20 84 21 85 22 87
REMARK SMILES IDX 23 88 24 89 28 90 25 91 27 92 26 93
REMARK H PARENT 3 7 82 25 52 36 10 75 20 86
REMARK Flexibility Score: inf
ROOT
ATOM      1  C   UNL A   1      33.816  24.522  25.672  1.00  0.00     0.002 C 
ENDROOT
BRANCH   1   2
ATOM      2  C   UNL A   1      35.114  23.869  25.200  1.00  0.00     0.021 C 
BRANCH   2   3
ATOM      3  C   UNL A   1      36.307  24.051  26.127  1.00  0.00     0.116 C 
BRANCH   3   4
ATOM      4  N   UNL A   1      37.330  23.033  25.949  1.00  0.00    -0.352 N 
ATOM      5  O   UNL A   1      39.424  22.192  25.923  1.00  0.00    -0.269 OA
ATOM      6  C   UNL A   1      38.672  23.098  26.254  1.00  0.00     0.251 C 
ATOM      7  H   UNL A   1      37.022  22.183  25.559  1.00  0.00     0.163 HD
BRANCH   6   8
ATOM      8  C   UNL A   1      39.200  24.289  26.961  1.00  0.00     0.039 A 
ATOM      9  C   UNL A   1      38.928  24.489  28.315  1.00  0.00     0.014 A 
ATOM     10  C   UNL A   1      39.966  25.222  26.255  1.00  0.00     0.014 A 
ATOM     11  C   UNL A   1      39.295  25.682  28.923  1.00  0.00     0.010 A 
ATOM     12  C   UNL A   1      40.415  26.382  26.896  1.00  0.00     0.010 A 
ATOM     13  C   UNL A   1      40.062  26.635  28.230  1.00  0.00    -0.014 A 
BRANCH  13  14
ATOM     14  C   UNL A   1      40.541  27.835  28.963  1.00  0.00     0.031 A 
ATOM     15  C   UNL A   1      41.943  27.929  29.500  1.00  0.00     0.074 A 
ATOM     16  C   UNL A   1      39.697  28.879  29.088  1.00  0.00     0.049 A 
ATOM     17  N   UNL A   1      42.525  28.939  30.095  1.00  0.00    -0.248 NA
ATOM     18  C   UNL A   1      42.802  26.742  29.359  1.00  0.00     0.031 C 
ATOM     19  C   UNL A   1      38.305  28.897  28.622  1.00  0.00     0.029 A 
ATOM     20  N   UNL A   1      39.886  30.134  29.605  1.00  0.00    -0.354 N 
ATOM     21  C   UNL A   1      43.811  28.514  30.408  1.00  0.00     0.074 A 
ATOM     22  C   UNL A   1      43.917  27.141  29.959  1.00  0.00     0.031 C 
ATOM     23  C   UNL A   1      37.790  30.118  28.818  1.00  0.00     0.029 A 
ATOM     24  C   UNL A   1      38.787  30.951  29.478  1.00  0.00     0.049 A 
ATOM     25  H   UNL A   1      40.728  30.423  30.026  1.00  0.00     0.167 HD
ATOM     26  C   UNL A   1      44.810  29.206  31.007  1.00  0.00     0.031 A 
ATOM     27  C   UNL A   1      38.592  32.227  29.860  1.00  0.00     0.031 A 
ATOM     28  C   UNL A   1      44.697  30.572  31.455  1.00  0.00     0.049 A 
ATOM     29  C   UNL A   1      39.715  32.962  30.531  1.00  0.00     0.074 A 
ATOM     30  C   UNL A   1      45.657  31.361  32.065  1.00  0.00     0.029 A 
ATOM     31  N   UNL A   1      43.556  31.352  31.341  1.00  0.00    -0.354 N 
ATOM     32  N   UNL A   1      40.928  32.543  30.797  1.00  0.00    -0.248 NA
ATOM     33  C   UNL A   1      39.441  34.341  30.952  1.00  0.00     0.031 C 
ATOM     34  C   UNL A   1      45.085  32.603  32.357  1.00  0.00     0.029 A 
ATOM     35  C   UNL A   1      43.784  32.607  31.883  1.00  0.00     0.049 A 
ATOM     36  H   UNL A   1      42.709  31.058  30.936  1.00  0.00     0.167 HD
ATOM     37  C   UNL A   1      41.565  33.610  31.417  1.00  0.00     0.074 A 
ATOM     38  C   UNL A   1      40.614  34.703  31.451  1.00  0.00     0.031 C 
ATOM     39  C   UNL A   1      42.821  33.676  31.923  1.00  0.00     0.031 A 
BRANCH  26  40
ATOM     40  C   UNL A   1      46.123  28.501  31.227  1.00  0.00    -0.014 A 
ATOM     41  C   UNL A   1      46.346  27.732  32.384  1.00  0.00     0.010 A 
ATOM     42  C   UNL A   1      47.116  28.537  30.230  1.00  0.00     0.010 A 
ATOM     43  C   UNL A   1      47.542  27.028  32.547  1.00  0.00     0.020 A 
ATOM     44  C   UNL A   1      48.305  27.816  30.380  1.00  0.00     0.020 A 
ATOM     45  C   UNL A   1      48.515  27.073  31.543  1.00  0.00     0.054 A 
BRANCH  45  46
ATOM     46  S   UNL A   1      50.037  26.110  31.763  1.00  0.00     0.124 S 
ATOM     47  O   UNL A   1      49.821  24.993  30.846  1.00  0.00    -0.237 OA
ATOM     48  O   UNL A   1      51.075  27.056  31.364  1.00  0.00    -0.237 OA
ATOM     49  O   UNL A   1      50.026  25.762  33.181  1.00  0.00    -0.744 OA
ENDBRANCH  45  46
ENDBRANCH  26  40
BRANCH  27  50
ATOM     50  C   UNL A   1      37.270  32.871  29.641  1.00  0.00    -0.014 A 
ATOM     51  C   UNL A   1      36.938  33.434  28.397  1.00  0.00     0.010 A 
ATOM     52  C   UNL A   1      36.329  32.916  30.687  1.00  0.00     0.010 A 
ATOM     53  C   UNL A   1      35.698  34.052  28.211  1.00  0.00     0.020 A 
ATOM     54  C   UNL A   1      35.079  33.505  30.495  1.00  0.00     0.020 A 
ATOM     55  C   UNL A   1      34.777  34.085  29.262  1.00  0.00     0.054 A 
BRANCH  55  56
ATOM     56  S   UNL A   1      33.159  34.860  28.995  1.00  0.00     0.124 S 
ATOM     57  O   UNL A   1      33.535  36.179  28.500  1.00  0.00    -0.237 OA
ATOM     58  O   UNL A   1      32.537  33.968  28.018  1.00  0.00    -0.237 OA
ATOM     59  O   UNL A   1      32.549  34.837  30.323  1.00  0.00    -0.744 OA
ENDBRANCH  55  56
ENDBRANCH  27  50
BRANCH  39  60
ATOM     60  C   UNL A   1      43.229  34.983  32.547  1.00  0.00    -0.014 A 
ATOM     61  C   UNL A   1      43.014  35.230  33.915  1.00  0.00     0.010 A 
ATOM     62  C   UNL A   1      43.838  35.973  31.756  1.00  0.00     0.010 A 
ATOM     63  C   UNL A   1      43.354  36.466  34.470  1.00  0.00     0.020 A 
ATOM     64  C   UNL A   1      44.204  37.200  32.315  1.00  0.00     0.020 A 
ATOM     65  C   UNL A   1      43.941  37.446  33.664  1.00  0.00     0.054 A 
BRANCH  65  66
ATOM     66  S   UNL A   1      44.381  39.040  34.406  1.00  0.00     0.124 S 
ATOM     67  O   UNL A   1      43.295  39.901  33.944  1.00  0.00    -0.237 OA
ATOM     68  O   UNL A   1      44.380  38.743  35.837  1.00  0.00    -0.237 OA
ATOM     69  O   UNL A   1      45.695  39.334  33.839  1.00  0.00    -0.744 OA
ENDBRANCH  65  66
ENDBRANCH  39  60
ENDBRANCH  13  14
ENDBRANCH   6   8
ENDBRANCH   3   4
ENDBRANCH   2   3
ENDBRANCH   1   2
BRANCH   1  70
ATOM     70  C   UNL A   1      32.864  23.614  26.456  1.00  0.00     0.002 C 
BRANCH  70  71
ATOM     71  C   UNL A   1      31.366  23.892  26.278  1.00  0.00     0.021 C 
BRANCH  71  72
ATOM     72  C   UNL A   1      30.965  25.367  26.296  1.00  0.00     0.116 C 
BRANCH  72  73
ATOM     73  N   UNL A   1      29.858  25.637  25.397  1.00  0.00    -0.352 N 
ATOM     74  C   UNL A   1      29.879  26.108  24.111  1.00  0.00     0.256 C 
ATOM     75  H   UNL A   1      28.963  25.455  25.763  1.00  0.00     0.163 HD
ATOM     76  O   UNL A   1      28.824  26.423  23.563  1.00  0.00    -0.269 OA
BRANCH  74  77
ATOM     77  C   UNL A   1      31.144  26.312  23.380  1.00  0.00     0.099 A 
ATOM     78  C   UNL A   1      31.818  25.205  22.856  1.00  0.00     0.138 A 
ATOM     79  C   UNL A   1      31.638  27.619  23.160  1.00  0.00     0.057 A 
ATOM     80  F   UNL A   1      31.347  23.962  23.028  1.00  0.00    -0.206 F 
ATOM     81  C   UNL A   1      32.996  25.358  22.136  1.00  0.00     0.040 A 
ATOM     82  C   UNL A   1      32.782  27.753  22.363  1.00  0.00     0.027 A 
ATOM     83  C   UNL A   1      33.472  26.636  21.877  1.00  0.00     0.005 A 
BRANCH  79  84
ATOM     84  N   UNL A   1      30.959  28.716  23.753  1.00  0.00    -0.325 N 
ATOM     85  C   UNL A   1      31.273  29.646  24.707  1.00  0.00     0.227 C 
ATOM     86  H   UNL A   1      30.051  28.837  23.392  1.00  0.00     0.169 HD
ATOM     87  O   UNL A   1      30.429  30.513  24.956  1.00  0.00    -0.274 OA
BRANCH  85  88
ATOM     88  C   UNL A   1      32.595  29.615  25.462  1.00  0.00     0.079 C 
ATOM     89  C   UNL A   1      32.646  30.610  26.636  1.00  0.00     0.013 C 
ATOM     90  C   UNL A   1      32.929  28.223  26.016  1.00  0.00     0.013 C 
ATOM     91  C   UNL A   1      34.051  30.639  27.246  1.00  0.00     0.001 C 
ATOM     92  C   UNL A   1      34.362  28.211  26.542  1.00  0.00     0.001 C 
ATOM     93  C   UNL A   1      34.551  29.250  27.646  1.00  0.00     0.000 C 
ENDBRANCH  85  88
ENDBRANCH  79  84
ENDBRANCH  74  77
ENDBRANCH  72  73
ENDBRANCH  71  72
ENDBRANCH  70  71
ENDBRANCH   1  70
TORSDOF 18
ENDMDL
MODEL 2
REMARK VINA RESULT:     -10.3      4.044      5.469
REMARK SMILES O=C(NCCCCCCNC(=O)c1c(F)cccc1NC(=O)C1CCCCC1)c1ccc(-c2c3nc(c(-c4ccc(S(=O)(=O)[O-])cc4)c4ccc([nH]4)c(-c4ccc(S(=O)(=O)[O-])cc4)c4nc(c(-c5ccc(S(=O)(=O)[O-])cc5)c5ccc2[nH]5)C=C4)C=C3)cc1
REMARK SMILES IDX 6 1 5 2 4 3 3 4 1 5 2 6 29 8 30 9 88 10 31 11 87 12 32 13
REMARK SMILES IDX 33 14 34 15 81 16 35 17 86 18 80 19 82 20 36 21 85 22 79 23
REMARK SMILES IDX 78 24 37 26 67 27 48 28 66 29 49 30 52 31 65 32 83 33 50 34
REMARK SMILES IDX 51 35 64 37 84 38 53 39 38 40 39 41 47 42 40 43 46 44 41 45
REMARK SMILES IDX 42 46 43 47 44 48 45 49 68 50 69 51 77 52 70 53 76 54 71 55
REMARK SMILES IDX 72 56 73 57 74 58 75 59 54 60 55 61 63 62 56 63 62 64 57 65
REMARK SMILES IDX 58 66 59 67 60 68 61 69 7 70 8 71 9 72 10 73 11 74 12 76
REMARK SMILES IDX 13 77 14 78 19 79 15 80 16 81 18 82 17 83 20 84 21 85 22 87
REMARK SMILES IDX 23 88 24 89 28 90 25 91 27 92 26 93
REMARK H PARENT 3 7 82 25 52 36 10 75 20 86
REMARK Flexibility Score: inf
ROOT
ATOM      1  C   UNL A   1      36.950  20.924  25.182  1.00  0.00     0.002 C 
ENDROOT
BRANCH   1   2
ATOM      2  C   UNL A   1      38.247  20.141  24.984  1.00  0.00     0.021 C 
BRANCH   2   3
ATOM      3  C   UNL A   1      39.276  20.297  26.094  1.00  0.00     0.116 C 
BRANCH   3   4
ATOM      4  N   UNL A   1      40.347  19.316  26.023  1.00  0.00    -0.352 N 
ATOM      5  O   UNL A   1      42.481  18.594  25.902  1.00  0.00    -0.269 OA
ATOM      6  C   UNL A   1      41.707  19.517  26.108  1.00  0.00     0.251 C 
ATOM      7  H   UNL A   1      40.060  18.382  25.900  1.00  0.00     0.163 HD
BRANCH   6   8
ATOM      8  C   UNL A   1      42.223  20.872  26.420  1.00  0.00     0.039 A 
ATOM      9  C   UNL A   1      42.463  21.792  25.398  1.00  0.00     0.014 A 
ATOM     10  C   UNL A   1      42.478  21.219  27.750  1.00  0.00     0.014 A 
ATOM     11  C   UNL A   1      43.091  22.996  25.689  1.00  0.00     0.010 A 
ATOM     12  C   UNL A   1      43.026  22.472  28.050  1.00  0.00     0.010 A 
ATOM     13  C   UNL A   1      43.361  23.361  27.019  1.00  0.00    -0.014 A 
BRANCH  13  14
ATOM     14  C   UNL A   1      43.914  24.714  27.289  1.00  0.00     0.031 A 
ATOM     15  C   UNL A   1      45.358  25.047  27.031  1.00  0.00     0.074 A 
ATOM     16  C   UNL A   1      43.065  25.670  27.721  1.00  0.00     0.049 A 
ATOM     17  N   UNL A   1      45.965  26.201  27.147  1.00  0.00    -0.248 NA
ATOM     18  C   UNL A   1      46.236  23.951  26.590  1.00  0.00     0.031 C 
ATOM     19  C   UNL A   1      41.645  25.459  28.025  1.00  0.00     0.029 A 
ATOM     20  N   UNL A   1      43.255  27.008  27.947  1.00  0.00    -0.354 N 
ATOM     21  C   UNL A   1      47.293  25.974  26.806  1.00  0.00     0.074 A 
ATOM     22  C   UNL A   1      47.411  24.564  26.501  1.00  0.00     0.031 C 
ATOM     23  C   UNL A   1      41.082  26.635  28.335  1.00  0.00     0.029 A 
ATOM     24  C   UNL A   1      42.107  27.670  28.315  1.00  0.00     0.049 A 
ATOM     25  H   UNL A   1      44.129  27.452  27.854  1.00  0.00     0.167 HD
ATOM     26  C   UNL A   1      48.316  26.861  26.746  1.00  0.00     0.031 A 
ATOM     27  C   UNL A   1      41.899  28.965  28.617  1.00  0.00     0.031 A 
ATOM     28  C   UNL A   1      48.194  28.264  27.055  1.00  0.00     0.049 A 
ATOM     29  C   UNL A   1      43.055  29.919  28.552  1.00  0.00     0.074 A 
ATOM     30  C   UNL A   1      49.171  29.243  27.015  1.00  0.00     0.029 A 
ATOM     31  N   UNL A   1      47.023  28.888  27.460  1.00  0.00    -0.354 N 
ATOM     32  N   UNL A   1      44.297  29.683  28.207  1.00  0.00    -0.248 NA
ATOM     33  C   UNL A   1      42.779  31.314  28.918  1.00  0.00     0.031 C 
ATOM     34  C   UNL A   1      48.602  30.450  27.435  1.00  0.00     0.029 A 
ATOM     35  C   UNL A   1      47.257  30.235  27.687  1.00  0.00     0.049 A 
ATOM     36  H   UNL A   1      46.154  28.441  27.569  1.00  0.00     0.167 HD
ATOM     37  C   UNL A   1      44.953  30.902  28.312  1.00  0.00     0.074 A 
ATOM     38  C   UNL A   1      43.961  31.879  28.716  1.00  0.00     0.031 C 
ATOM     39  C   UNL A   1      46.262  31.187  28.105  1.00  0.00     0.031 A 
BRANCH  26  40
ATOM     40  C   UNL A   1      49.673  26.347  26.339  1.00  0.00    -0.014 A 
ATOM     41  C   UNL A   1      50.104  26.423  25.003  1.00  0.00     0.010 A 
ATOM     42  C   UNL A   1      50.561  25.858  27.317  1.00  0.00     0.010 A 
ATOM     43  C   UNL A   1      51.389  26.003  24.648  1.00  0.00     0.020 A 
ATOM     44  C   UNL A   1      51.855  25.458  26.969  1.00  0.00     0.020 A 
ATOM     45  C   UNL A   1      52.258  25.524  25.634  1.00  0.00     0.054 A 
BRANCH  45  46
ATOM     46  S   UNL A   1      53.937  25.033  25.150  1.00  0.00     0.124 S 
ATOM     47  O   UNL A   1      53.782  23.595  24.946  1.00  0.00    -0.237 OA
ATOM     48  O   UNL A   1      54.164  25.818  23.940  1.00  0.00    -0.237 OA
ATOM     49  O   UNL A   1      54.754  25.414  26.299  1.00  0.00    -0.744 OA
ENDBRANCH  45  46
ENDBRANCH  26  40
BRANCH  27  50
ATOM     50  C   UNL A   1      40.547  29.419  29.036  1.00  0.00    -0.014 A 
ATOM     51  C   UNL A   1      39.521  29.601  28.092  1.00  0.00     0.010 A 
ATOM     52  C   UNL A   1      40.278  29.664  30.396  1.00  0.00     0.010 A 
ATOM     53  C   UNL A   1      38.260  30.046  28.498  1.00  0.00     0.020 A 
ATOM     54  C   UNL A   1      39.010  30.077  30.808  1.00  0.00     0.020 A 
ATOM     55  C   UNL A   1      38.013  30.282  29.854  1.00  0.00     0.054 A 
BRANCH  55  56
ATOM     56  S   UNL A   1      36.361  30.824  30.370  1.00  0.00     0.124 S 
ATOM     57  O   UNL A   1      36.615  32.195  30.799  1.00  0.00    -0.237 OA
ATOM     58  O   UNL A   1      35.580  30.677  29.143  1.00  0.00    -0.237 OA
ATOM     59  O   UNL A   1      36.013  29.885  31.435  1.00  0.00    -0.744 OA
ENDBRANCH  55  56
ENDBRANCH  27  50
BRANCH  39  60
ATOM     60  C   UNL A   1      46.682  32.618  28.305  1.00  0.00    -0.014 A 
ATOM     61  C   UNL A   1      46.659  33.535  27.238  1.00  0.00     0.010 A 
ATOM     62  C   UNL A   1      47.101  33.051  29.576  1.00  0.00     0.010 A 
ATOM     63  C   UNL A   1      47.097  34.848  27.428  1.00  0.00     0.020 A 
ATOM     64  C   UNL A   1      47.514  34.370  29.774  1.00  0.00     0.020 A 
ATOM     65  C   UNL A   1      47.529  35.255  28.694  1.00  0.00     0.054 A 
BRANCH  65  66
ATOM     66  S   UNL A   1      48.087  36.965  28.919  1.00  0.00     0.124 S 
ATOM     67  O   UNL A   1      47.130  37.706  28.101  1.00  0.00    -0.237 OA
ATOM     68  O   UNL A   1      47.962  37.159  30.362  1.00  0.00    -0.237 OA
ATOM     69  O   UNL A   1      49.458  36.950  28.415  1.00  0.00    -0.744 OA
ENDBRANCH  65  66
ENDBRANCH  39  60
ENDBRANCH  13  14
ENDBRANCH   6   8
ENDBRANCH   3   4
ENDBRANCH   2   3
ENDBRANCH   1   2
BRANCH   1  70
ATOM     70  C   UNL A   1      37.043  22.433  24.939  1.00  0.00     0.002 C 
BRANCH  70  71
ATOM     71  C   UNL A   1      36.169  23.316  25.839  1.00  0.00     0.021 C 
BRANCH  71  72
ATOM     72  C   UNL A   1      35.433  24.453  25.131  1.00  0.00     0.116 C 
BRANCH  72  73
ATOM     73  N   UNL A   1      35.115  24.117  23.755  1.00  0.00    -0.352 N 
ATOM     74  C   UNL A   1      33.989  23.529  23.243  1.00  0.00     0.256 C 
ATOM     75  H   UNL A   1      35.808  24.343  23.095  1.00  0.00     0.163 HD
ATOM     76  O   UNL A   1      33.969  23.180  22.064  1.00  0.00    -0.269 OA
BRANCH  74  77
ATOM     77  C   UNL A   1      32.812  23.242  24.085  1.00  0.00     0.099 A 
ATOM     78  C   UNL A   1      32.762  22.044  24.806  1.00  0.00     0.138 A 
ATOM     79  C   UNL A   1      31.773  24.194  24.207  1.00  0.00     0.057 A 
ATOM     80  F   UNL A   1      33.753  21.146  24.725  1.00  0.00    -0.206 F 
ATOM     81  C   UNL A   1      31.684  21.750  25.632  1.00  0.00     0.040 A 
ATOM     82  C   UNL A   1      30.739  23.910  25.108  1.00  0.00     0.027 A 
ATOM     83  C   UNL A   1      30.677  22.691  25.794  1.00  0.00     0.005 A 
BRANCH  79  84
ATOM     84  N   UNL A   1      31.828  25.372  23.419  1.00  0.00    -0.325 N 
ATOM     85  C   UNL A   1      32.190  26.673  23.648  1.00  0.00     0.227 C 
ATOM     86  H   UNL A   1      31.542  25.219  22.490  1.00  0.00     0.169 HD
ATOM     87  O   UNL A   1      32.154  27.451  22.690  1.00  0.00    -0.274 OA
BRANCH  85  88
ATOM     88  C   UNL A   1      32.597  27.167  25.031  1.00  0.00     0.079 C 
ATOM     89  C   UNL A   1      33.702  28.237  24.990  1.00  0.00     0.013 C 
ATOM     90  C   UNL A   1      31.417  27.744  25.826  1.00  0.00     0.013 C 
ATOM     91  C   UNL A   1      34.172  28.568  26.410  1.00  0.00     0.001 C 
ATOM     92  C   UNL A   1      31.845  27.990  27.270  1.00  0.00     0.001 C 
ATOM     93  C   UNL A   1      33.021  28.963  27.337  1.00  0.00     0.000 C 
ENDBRANCH  85  88
ENDBRANCH  79  84
ENDBRANCH  74  77
ENDBRANCH  72  73
ENDBRANCH  71  72
ENDBRANCH  70  71
ENDBRANCH   1  70
TORSDOF 18
ENDMDL
MODEL 3
REMARK VINA RESULT:     -10.2      3.237      8.625
REMARK SMILES O=C(NCCCCCCNC(=O)c1c(F)cccc1NC(=O)C1CCCCC1)c1ccc(-c2c3nc(c(-c4ccc(S(=O)(=O)[O-])cc4)c4ccc([nH]4)c(-c4ccc(S(=O)(=O)[O-])cc4)c4nc(c(-c5ccc(S(=O)(=O)[O-])cc5)c5ccc2[nH]5)C=C4)C=C3)cc1
REMARK SMILES IDX 6 1 5 2 4 3 3 4 1 5 2 6 29 8 30 9 88 10 31 11 87 12 32 13
REMARK SMILES IDX 33 14 34 15 81 16 35 17 86 18 80 19 82 20 36 21 85 22 79 23
REMARK SMILES IDX 78 24 37 26 67 27 48 28 66 29 49 30 52 31 65 32 83 33 50 34
REMARK SMILES IDX 51 35 64 37 84 38 53 39 38 40 39 41 47 42 40 43 46 44 41 45
REMARK SMILES IDX 42 46 43 47 44 48 45 49 68 50 69 51 77 52 70 53 76 54 71 55
REMARK SMILES IDX 72 56 73 57 74 58 75 59 54 60 55 61 63 62 56 63 62 64 57 65
REMARK SMILES IDX 58 66 59 67 60 68 61 69 7 70 8 71 9 72 10 73 11 74 12 76
REMARK SMILES IDX 13 77 14 78 19 79 15 80 16 81 18 82 17 83 20 84 21 85 22 87
REMARK SMILES IDX 23 88 24 89 28 90 25 91 27 92 26 93
REMARK H PARENT 3 7 82 25 52 36 10 75 20 86
REMARK Flexibility Score: inf
ROOT
ATOM      1  C   UNL A   1      33.407  26.865  24.784  1.00  0.00     0.002 C 
ENDROOT
BRANCH   1   2
ATOM      2  C   UNL A   1      33.949  28.206  25.277  1.00  0.00     0.021 C 
BRANCH   2   3
ATOM      3  C   UNL A   1      34.158  28.309  26.781  1.00  0.00     0.116 C 
BRANCH   3   4
ATOM      4  N   UNL A   1      33.783  29.605  27.323  1.00  0.00    -0.352 N 
ATOM      5  O   UNL A   1      34.016  31.460  28.586  1.00  0.00    -0.269 OA
ATOM      6  C   UNL A   1      34.527  30.458  28.108  1.00  0.00     0.251 C 
ATOM      7  H   UNL A   1      32.877  29.916  27.096  1.00  0.00     0.163 HD
BRANCH   6   8
ATOM      8  C   UNL A   1      35.945  30.132  28.394  1.00  0.00     0.039 A 
ATOM      9  C   UNL A   1      36.926  30.317  27.419  1.00  0.00     0.014 A 
ATOM     10  C   UNL A   1      36.293  29.625  29.650  1.00  0.00     0.014 A 
ATOM     11  C   UNL A   1      38.218  29.863  27.645  1.00  0.00     0.010 A 
ATOM     12  C   UNL A   1      37.617  29.253  29.909  1.00  0.00     0.010 A 
ATOM     13  C   UNL A   1      38.587  29.345  28.900  1.00  0.00    -0.014 A 
BRANCH  13  14
ATOM     14  C   UNL A   1      40.011  28.994  29.135  1.00  0.00     0.031 A 
ATOM     15  C   UNL A   1      40.573  27.654  28.747  1.00  0.00     0.074 A 
ATOM     16  C   UNL A   1      40.817  29.940  29.660  1.00  0.00     0.049 A 
ATOM     17  N   UNL A   1      41.810  27.232  28.822  1.00  0.00    -0.248 NA
ATOM     18  C   UNL A   1      39.633  26.657  28.209  1.00  0.00     0.031 C 
ATOM     19  C   UNL A   1      40.380  31.272  30.094  1.00  0.00     0.029 A 
ATOM     20  N   UNL A   1      42.169  29.947  29.886  1.00  0.00    -0.354 N 
ATOM     21  C   UNL A   1      41.800  25.924  28.353  1.00  0.00     0.074 A 
ATOM     22  C   UNL A   1      40.427  25.610  28.018  1.00  0.00     0.031 C 
ATOM     23  C   UNL A   1      41.450  31.985  30.472  1.00  0.00     0.029 A 
ATOM     24  C   UNL A   1      42.637  31.146  30.371  1.00  0.00     0.049 A 
ATOM     25  H   UNL A   1      42.749  29.170  29.717  1.00  0.00     0.167 HD
ATOM     26  C   UNL A   1      42.841  25.068  28.210  1.00  0.00     0.031 A 
ATOM     27  C   UNL A   1      43.881  31.531  30.710  1.00  0.00     0.031 A 
ATOM     28  C   UNL A   1      44.206  25.384  28.550  1.00  0.00     0.049 A 
ATOM     29  C   UNL A   1      45.010  30.555  30.550  1.00  0.00     0.074 A 
ATOM     30  C   UNL A   1      45.331  24.586  28.432  1.00  0.00     0.029 A 
ATOM     31  N   UNL A   1      44.633  26.596  29.072  1.00  0.00    -0.354 N 
ATOM     32  N   UNL A   1      44.978  29.330  30.085  1.00  0.00    -0.248 NA
ATOM     33  C   UNL A   1      46.342  31.016  30.961  1.00  0.00     0.031 C 
ATOM     34  C   UNL A   1      46.430  25.299  28.921  1.00  0.00     0.029 A 
ATOM     35  C   UNL A   1      46.001  26.561  29.296  1.00  0.00     0.049 A 
ATOM     36  H   UNL A   1      44.051  27.367  29.257  1.00  0.00     0.167 HD
ATOM     37  C   UNL A   1      46.287  28.872  30.146  1.00  0.00     0.074 A 
ATOM     38  C   UNL A   1      47.091  29.965  30.656  1.00  0.00     0.031 C 
ATOM     39  C   UNL A   1      46.780  27.652  29.820  1.00  0.00     0.031 A 
BRANCH  26  40
ATOM     40  C   UNL A   1      42.553  23.691  27.669  1.00  0.00    -0.014 A 
ATOM     41  C   UNL A   1      42.604  23.432  26.287  1.00  0.00     0.010 A 
ATOM     42  C   UNL A   1      42.309  22.625  28.556  1.00  0.00     0.010 A 
ATOM     43  C   UNL A   1      42.400  22.137  25.802  1.00  0.00     0.020 A 
ATOM     44  C   UNL A   1      42.126  21.324  28.075  1.00  0.00     0.020 A 
ATOM     45  C   UNL A   1      42.163  21.091  26.699  1.00  0.00     0.054 A 
BRANCH  45  46
ATOM     46  S   UNL A   1      41.950  19.412  26.041  1.00  0.00     0.124 S 
ATOM     47  O   UNL A   1      42.793  19.448  24.849  1.00  0.00    -0.237 OA
ATOM     48  O   UNL A   1      42.442  18.576  27.132  1.00  0.00    -0.237 OA
ATOM     49  O   UNL A   1      40.515  19.319  25.787  1.00  0.00    -0.744 OA
ENDBRANCH  45  46
ENDBRANCH  26  40
BRANCH  27  50
ATOM     50  C   UNL A   1      44.111  32.892  31.262  1.00  0.00    -0.014 A 
ATOM     51  C   UNL A   1      44.457  33.964  30.420  1.00  0.00     0.010 A 
ATOM     52  C   UNL A   1      43.974  33.122  32.644  1.00  0.00     0.010 A 
ATOM     53  C   UNL A   1      44.688  35.234  30.955  1.00  0.00     0.020 A 
ATOM     54  C   UNL A   1      44.173  34.397  33.177  1.00  0.00     0.020 A 
ATOM     55  C   UNL A   1      44.545  35.442  32.330  1.00  0.00     0.054 A 
BRANCH  55  56
ATOM     56  S   UNL A   1      44.813  37.104  33.005  1.00  0.00     0.124 S 
ATOM     57  O   UNL A   1      46.251  37.101  33.251  1.00  0.00    -0.237 OA
ATOM     58  O   UNL A   1      44.357  37.966  31.916  1.00  0.00    -0.237 OA
ATOM     59  O   UNL A   1      43.970  37.125  34.199  1.00  0.00    -0.744 OA
ENDBRANCH  55  56
ENDBRANCH  27  50
BRANCH  39  60
ATOM     60  C   UNL A   1      48.260  27.451  30.000  1.00  0.00    -0.014 A 
ATOM     61  C   UNL A   1      49.167  27.803  28.984  1.00  0.00     0.010 A 
ATOM     62  C   UNL A   1      48.749  26.907  31.202  1.00  0.00     0.010 A 
ATOM     63  C   UNL A   1      50.534  27.566  29.147  1.00  0.00     0.020 A 
ATOM     64  C   UNL A   1      50.118  26.694  31.377  1.00  0.00     0.020 A 
ATOM     65  C   UNL A   1      51.000  27.006  30.340  1.00  0.00     0.054 A 
BRANCH  65  66
ATOM     66  S   UNL A   1      52.778  26.713  30.533  1.00  0.00     0.124 S 
ATOM     67  O   UNL A   1      53.163  26.288  29.190  1.00  0.00    -0.237 OA
ATOM     68  O   UNL A   1      53.279  28.023  30.944  1.00  0.00    -0.237 OA
ATOM     69  O   UNL A   1      52.848  25.677  31.560  1.00  0.00    -0.744 OA
ENDBRANCH  65  66
ENDBRANCH  39  60
ENDBRANCH  13  14
ENDBRANCH   6   8
ENDBRANCH   3   4
ENDBRANCH   2   3
ENDBRANCH   1   2
BRANCH   1  70
ATOM     70  C   UNL A   1      32.370  26.942  23.660  1.00  0.00     0.002 C 
BRANCH  70  71
ATOM     71  C   UNL A   1      31.048  26.206  23.911  1.00  0.00     0.021 C 
BRANCH  71  72
ATOM     72  C   UNL A   1      30.970  24.785  23.355  1.00  0.00     0.116 C 
BRANCH  72  73
ATOM     73  N   UNL A   1      30.498  23.840  24.350  1.00  0.00    -0.352 N 
ATOM     74  C   UNL A   1      31.213  22.971  25.131  1.00  0.00     0.256 C 
ATOM     75  H   UNL A   1      29.523  23.820  24.483  1.00  0.00     0.163 HD
ATOM     76  O   UNL A   1      30.618  22.134  25.808  1.00  0.00    -0.269 OA
BRANCH  74  77
ATOM     77  C   UNL A   1      32.688  22.967  25.138  1.00  0.00     0.099 A 
ATOM     78  C   UNL A   1      33.370  23.655  26.146  1.00  0.00     0.138 A 
ATOM     79  C   UNL A   1      33.403  22.225  24.168  1.00  0.00     0.057 A 
ATOM     80  F   UNL A   1      32.706  24.337  27.090  1.00  0.00    -0.206 F 
ATOM     81  C   UNL A   1      34.758  23.651  26.203  1.00  0.00     0.040 A 
ATOM     82  C   UNL A   1      34.797  22.170  24.296  1.00  0.00     0.027 A 
ATOM     83  C   UNL A   1      35.473  22.895  25.284  1.00  0.00     0.005 A 
BRANCH  79  84
ATOM     84  N   UNL A   1      32.682  21.585  23.128  1.00  0.00    -0.325 N 
ATOM     85  C   UNL A   1      32.391  20.286  22.810  1.00  0.00     0.227 C 
ATOM     86  H   UNL A   1      32.300  22.225  22.484  1.00  0.00     0.169 HD
ATOM     87  O   UNL A   1      31.678  20.087  21.821  1.00  0.00    -0.274 OA
BRANCH  85  88
ATOM     88  C   UNL A   1      32.937  19.115  23.617  1.00  0.00     0.079 C 
ATOM     89  C   UNL A   1      32.193  18.897  24.947  1.00  0.00     0.013 C 
ATOM     90  C   UNL A   1      32.903  17.791  22.840  1.00  0.00     0.013 C 
ATOM     91  C   UNL A   1      32.893  17.814  25.774  1.00  0.00     0.001 C 
ATOM     92  C   UNL A   1      33.680  16.726  23.610  1.00  0.00     0.001 C 
ATOM     93  C   UNL A   1      33.085  16.509  25.000  1.00  0.00     0.000 C 
ENDBRANCH  85  88
ENDBRANCH  79  84
ENDBRANCH  74  77
ENDBRANCH  72  73
ENDBRANCH  71  72
ENDBRANCH  70  71
ENDBRANCH   1  70
TORSDOF 18
ENDMDL
