MODEL 1
REMARK VINA RESULT:     -11.2      0.000      0.000
REMARK SMILES C=CCN1C(=O)/C(=C\c2cccn2-c2ccc(C(=O)NCCCCCCNC(=O)c3ccc(-c4c5nc(c(-c6ccc(S(=O)(=O)[O-])cc6)c6ccc([nH]6)c(-c6ccc(S(=O)(=O)[O-])cc6)c6nc(c(-c7ccc(S(=O)(=O)[O-])cc7)c7ccc4[nH]7)C=C6)C=C5)cc3)cc2)C(O)=NC1=S
REMARK SMILES IDX 23 1 22 2 21 3 20 4 18 5 19 6 17 8 14 9 15 10 91 11 16 12
REMARK SMILES IDX 90 13 13 14 9 15 10 16 11 17 12 18 8 19 4 20 5 21 95 22 6 23
REMARK SMILES IDX 7 24 94 25 96 26 92 27 3 28 2 29 1 30 93 31 24 33 25 34
REMARK SMILES IDX 26 35 27 36 28 37 29 39 30 40 31 41 89 42 32 43 88 44 33 45
REMARK SMILES IDX 34 46 35 47 82 48 36 49 87 50 81 51 83 52 37 53 86 54 80 55
REMARK SMILES IDX 79 56 38 58 68 59 49 60 67 61 50 62 53 63 66 64 84 65 51 66
REMARK SMILES IDX 52 67 65 69 85 70 54 71 39 72 40 73 48 74 41 75 47 76 42 77
REMARK SMILES IDX 43 78 44 79 45 80 46 81 69 82 70 83 78 84 71 85 77 86 72 87
REMARK SMILES IDX 73 88 74 89 75 90 76 91 55 92 56 93 64 94 57 95 63 96 58 97
REMARK SMILES IDX 59 98 60 99 61 100 62 101
REMARK H PARENT 20 7 93 32 27 38 83 57 53 68
REMARK Flexibility Score: inf
ROOT
ATOM      1  C   UNL A   1      42.191  39.332  29.005  1.00  0.00     0.002 C 
ENDROOT
BRANCH   1   2
ATOM      2  C   UNL A   1      42.132  39.481  27.478  1.00  0.00     0.021 C 
BRANCH   2   3
ATOM      3  C   UNL A   1      43.031  38.481  26.751  1.00  0.00     0.116 C 
BRANCH   3   4
ATOM      4  N   UNL A   1      44.317  38.399  27.414  1.00  0.00    -0.352 N 
ATOM      5  C   UNL A   1      45.452  39.163  27.354  1.00  0.00     0.251 C 
ATOM      6  O   UNL A   1      46.404  38.806  28.051  1.00  0.00    -0.269 OA
ATOM      7  H   UNL A   1      44.388  37.639  28.035  1.00  0.00     0.163 HD
BRANCH   5   8
ATOM      8  C   UNL A   1      45.559  40.430  26.575  1.00  0.00     0.039 A 
ATOM      9  C   UNL A   1      46.024  42.725  25.042  1.00  0.00     0.046 A 
ATOM     10  C   UNL A   1      46.426  41.485  24.551  1.00  0.00     0.027 A 
ATOM     11  C   UNL A   1      45.324  42.827  26.245  1.00  0.00     0.027 A 
ATOM     12  C   UNL A   1      46.221  40.349  25.335  1.00  0.00     0.016 A 
ATOM     13  C   UNL A   1      45.044  41.667  26.974  1.00  0.00     0.016 A 
BRANCH   9  14
ATOM     14  N   UNL A   1      46.228  43.888  24.269  1.00  0.00    -0.317 N 
ATOM     15  C   UNL A   1      45.351  44.468  23.360  1.00  0.00     0.047 A 
ATOM     16  C   UNL A   1      46.046  45.468  22.699  1.00  0.00     0.028 A 
ATOM     17  C   UNL A   1      47.343  45.539  23.253  1.00  0.00     0.020 A 
ATOM     18  C   UNL A   1      47.410  44.597  24.254  1.00  0.00     0.092 A 
BRANCH  15  19
ATOM     19  C   UNL A   1      43.979  44.093  23.307  1.00  0.00     0.046 C 
ATOM     20  N   UNL A   1      43.251  43.713  19.760  1.00  0.00    -0.279 N 
ATOM     21  C   UNL A   1      44.038  43.495  20.890  1.00  0.00     0.265 C 
ATOM     22  C   UNL A   1      41.849  43.729  19.802  1.00  0.00     0.206 C 
ATOM     23  O   UNL A   1      45.198  43.093  20.854  1.00  0.00    -0.268 OA
ATOM     24  C   UNL A   1      43.342  43.719  22.180  1.00  0.00     0.104 C 
ATOM     25  N   UNL A   1      41.216  43.564  21.011  1.00  0.00    -0.184 NA
ATOM     26  S   UNL A   1      40.861  43.927  18.437  1.00  0.00    -0.038 S 
ATOM     27  C   UNL A   1      41.889  43.575  22.101  1.00  0.00     0.226 C 
BRANCH  20  28
ATOM     28  C   UNL A   1      44.012  43.848  18.512  1.00  0.00     0.155 C 
BRANCH  28  29
ATOM     29  C   UNL A   1      44.348  45.309  18.328  1.00  0.00    -0.013 C 
ATOM     30  C   UNL A   1      44.870  45.820  17.204  1.00  0.00     0.006 C 
ENDBRANCH  28  29
ENDBRANCH  20  28
BRANCH  27  31
ATOM     31  O   UNL A   1      41.194  43.431  23.243  1.00  0.00    -0.493 OA
ATOM     32  H   UNL A   1      41.339  42.682  23.787  1.00  0.00     0.295 HD
ENDBRANCH  27  31
ENDBRANCH  15  19
ENDBRANCH   9  14
ENDBRANCH   5   8
ENDBRANCH   3   4
ENDBRANCH   2   3
ENDBRANCH   1   2
BRANCH   1  33
ATOM     33  C   UNL A   1      42.823  40.523  29.741  1.00  0.00     0.002 C 
BRANCH  33  34
ATOM     34  C   UNL A   1      43.999  40.163  30.661  1.00  0.00     0.021 C 
BRANCH  34  35
ATOM     35  C   UNL A   1      43.981  38.701  31.108  1.00  0.00     0.116 C 
BRANCH  35  36
ATOM     36  N   UNL A   1      45.300  38.119  30.931  1.00  0.00    -0.352 N 
ATOM     37  C   UNL A   1      45.714  36.816  30.902  1.00  0.00     0.251 C 
ATOM     38  H   UNL A   1      46.023  38.778  30.813  1.00  0.00     0.163 HD
ATOM     39  O   UNL A   1      46.895  36.579  31.126  1.00  0.00    -0.269 OA
BRANCH  37  40
ATOM     40  C   UNL A   1      44.788  35.698  30.614  1.00  0.00     0.039 A 
ATOM     41  C   UNL A   1      44.631  34.726  31.611  1.00  0.00     0.014 A 
ATOM     42  C   UNL A   1      44.176  35.525  29.367  1.00  0.00     0.014 A 
ATOM     43  C   UNL A   1      43.829  33.614  31.379  1.00  0.00     0.010 A 
ATOM     44  C   UNL A   1      43.356  34.421  29.136  1.00  0.00     0.010 A 
ATOM     45  C   UNL A   1      43.172  33.475  30.149  1.00  0.00    -0.014 A 
BRANCH  45  46
ATOM     46  C   UNL A   1      42.119  32.440  30.032  1.00  0.00     0.031 A 
ATOM     47  C   UNL A   1      42.634  31.238  29.208  1.00  0.00     0.074 A 
ATOM     48  C   UNL A   1      40.894  32.718  30.580  1.00  0.00     0.049 A 
ATOM     49  N   UNL A   1      41.989  30.440  28.418  1.00  0.00    -0.248 NA
ATOM     50  C   UNL A   1      44.095  30.935  29.179  1.00  0.00     0.031 C 
ATOM     51  C   UNL A   1      40.584  33.916  31.399  1.00  0.00     0.029 A 
ATOM     52  N   UNL A   1      39.666  32.081  30.576  1.00  0.00    -0.354 N 
ATOM     53  C   UNL A   1      42.896  29.458  27.950  1.00  0.00     0.074 A 
ATOM     54  C   UNL A   1      44.197  29.879  28.366  1.00  0.00     0.031 C 
ATOM     55  C   UNL A   1      39.272  33.957  31.732  1.00  0.00     0.029 A 
ATOM     56  C   UNL A   1      38.594  32.799  31.181  1.00  0.00     0.049 A 
ATOM     57  H   UNL A   1      39.541  31.188  30.182  1.00  0.00     0.167 HD
ATOM     58  C   UNL A   1      42.493  28.289  27.366  1.00  0.00     0.031 A 
ATOM     59  C   UNL A   1      37.252  32.508  31.193  1.00  0.00     0.031 A 
ATOM     60  C   UNL A   1      41.074  28.275  27.266  1.00  0.00     0.049 A 
ATOM     61  C   UNL A   1      37.143  31.177  30.580  1.00  0.00     0.074 A 
ATOM     62  C   UNL A   1      40.191  28.990  26.500  1.00  0.00     0.029 A 
ATOM     63  N   UNL A   1      40.411  27.720  28.335  1.00  0.00    -0.354 N 
ATOM     64  N   UNL A   1      37.477  30.062  31.151  1.00  0.00    -0.248 NA
ATOM     65  C   UNL A   1      36.666  31.080  29.193  1.00  0.00     0.031 C 
ATOM     66  C   UNL A   1      39.161  29.286  27.415  1.00  0.00     0.029 A 
ATOM     67  C   UNL A   1      39.336  28.529  28.582  1.00  0.00     0.049 A 
ATOM     68  H   UNL A   1      40.661  26.903  28.825  1.00  0.00     0.167 HD
ATOM     69  C   UNL A   1      37.631  29.228  30.074  1.00  0.00     0.074 A 
ATOM     70  C   UNL A   1      36.815  29.771  29.007  1.00  0.00     0.031 C 
ATOM     71  C   UNL A   1      38.800  28.557  29.920  1.00  0.00     0.031 A 
BRANCH  58  72
ATOM     72  C   UNL A   1      43.194  26.981  27.102  1.00  0.00    -0.014 A 
ATOM     73  C   UNL A   1      43.084  26.456  25.784  1.00  0.00     0.010 A 
ATOM     74  C   UNL A   1      43.617  26.106  28.110  1.00  0.00     0.010 A 
ATOM     75  C   UNL A   1      43.232  25.096  25.516  1.00  0.00     0.020 A 
ATOM     76  C   UNL A   1      43.811  24.738  27.837  1.00  0.00     0.020 A 
ATOM     77  C   UNL A   1      43.562  24.236  26.556  1.00  0.00     0.054 A 
BRANCH  77  78
ATOM     78  S   UNL A   1      43.585  22.455  26.215  1.00  0.00     0.124 S 
ATOM     79  O   UNL A   1      42.842  22.371  24.962  1.00  0.00    -0.237 OA
ATOM     80  O   UNL A   1      45.016  22.172  26.112  1.00  0.00    -0.237 OA
ATOM     81  O   UNL A   1      42.925  21.873  27.381  1.00  0.00    -0.744 OA
ENDBRANCH  77  78
ENDBRANCH  58  72
BRANCH  59  82
ATOM     82  C   UNL A   1      35.920  33.158  31.527  1.00  0.00    -0.014 A 
ATOM     83  C   UNL A   1      35.314  33.251  32.784  1.00  0.00     0.010 A 
ATOM     84  C   UNL A   1      35.252  33.866  30.481  1.00  0.00     0.010 A 
ATOM     85  C   UNL A   1      34.215  34.127  33.003  1.00  0.00     0.020 A 
ATOM     86  C   UNL A   1      34.212  34.774  30.690  1.00  0.00     0.020 A 
ATOM     87  C   UNL A   1      33.713  34.927  31.967  1.00  0.00     0.054 A 
BRANCH  87  88
ATOM     88  S   UNL A   1      32.530  36.269  32.288  1.00  0.00     0.124 S 
ATOM     89  O   UNL A   1      32.567  37.030  31.044  1.00  0.00    -0.237 OA
ATOM     90  O   UNL A   1      31.287  35.547  32.553  1.00  0.00    -0.237 OA
ATOM     91  O   UNL A   1      33.095  36.951  33.453  1.00  0.00    -0.744 OA
ENDBRANCH  87  88
ENDBRANCH  59  82
BRANCH  71  92
ATOM     92  C   UNL A   1      39.580  28.276  31.199  1.00  0.00    -0.014 A 
ATOM     93  C   UNL A   1      38.944  27.603  32.258  1.00  0.00     0.010 A 
ATOM     94  C   UNL A   1      40.899  28.723  31.423  1.00  0.00     0.010 A 
ATOM     95  C   UNL A   1      39.588  27.379  33.485  1.00  0.00     0.020 A 
ATOM     96  C   UNL A   1      41.556  28.505  32.652  1.00  0.00     0.020 A 
ATOM     97  C   UNL A   1      40.894  27.827  33.675  1.00  0.00     0.054 A 
BRANCH  97  98
ATOM     98  S   UNL A   1      41.700  27.507  35.276  1.00  0.00     0.124 S 
ATOM     99  O   UNL A   1      41.369  26.107  35.532  1.00  0.00    -0.237 OA
ATOM    100  O   UNL A   1      43.105  27.770  34.981  1.00  0.00    -0.237 OA
ATOM    101  O   UNL A   1      41.068  28.463  36.186  1.00  0.00    -0.744 OA
ENDBRANCH  97  98
ENDBRANCH  71  92
ENDBRANCH  45  46
ENDBRANCH  37  40
ENDBRANCH  35  36
ENDBRANCH  34  35
ENDBRANCH  33  34
ENDBRANCH   1  33
TORSDOF 21
ENDMDL
MODEL 2
REMARK VINA RESULT:     -11.2      7.391     15.633
REMARK SMILES C=CCN1C(=O)/C(=C\c2cccn2-c2ccc(C(=O)NCCCCCCNC(=O)c3ccc(-c4c5nc(c(-c6ccc(S(=O)(=O)[O-])cc6)c6ccc([nH]6)c(-c6ccc(S(=O)(=O)[O-])cc6)c6nc(c(-c7ccc(S(=O)(=O)[O-])cc7)c7ccc4[nH]7)C=C6)C=C5)cc3)cc2)C(O)=NC1=S
REMARK SMILES IDX 23 1 22 2 21 3 20 4 18 5 19 6 17 8 14 9 15 10 91 11 16 12
REMARK SMILES IDX 90 13 13 14 9 15 10 16 11 17 12 18 8 19 4 20 5 21 95 22 6 23
REMARK SMILES IDX 7 24 94 25 96 26 92 27 3 28 2 29 1 30 93 31 24 33 25 34
REMARK SMILES IDX 26 35 27 36 28 37 29 39 30 40 31 41 89 42 32 43 88 44 33 45
REMARK SMILES IDX 34 46 35 47 82 48 36 49 87 50 81 51 83 52 37 53 86 54 80 55
REMARK SMILES IDX 79 56 38 58 68 59 49 60 67 61 50 62 53 63 66 64 84 65 51 66
REMARK SMILES IDX 52 67 65 69 85 70 54 71 39 72 40 73 48 74 41 75 47 76 42 77
REMARK SMILES IDX 43 78 44 79 45 80 46 81 69 82 70 83 78 84 71 85 77 86 72 87
REMARK SMILES IDX 73 88 74 89 75 90 76 91 55 92 56 93 64 94 57 95 63 96 58 97
REMARK SMILES IDX 59 98 60 99 61 100 62 101
REMARK H PARENT 20 7 93 32 27 38 83 57 53 68
REMARK Flexibility Score: inf
ROOT
ATOM      1  C   UNL A   1      41.866  19.793  26.041  1.00  0.00     0.002 C 
ENDROOT
BRANCH   1   2
ATOM      2  C   UNL A   1      41.707  20.907  27.085  1.00  0.00     0.021 C 
BRANCH   2   3
ATOM      3  C   UNL A   1      40.262  21.386  27.225  1.00  0.00     0.116 C 
BRANCH   3   4
ATOM      4  N   UNL A   1      40.191  22.815  27.000  1.00  0.00    -0.352 N 
ATOM      5  C   UNL A   1      39.252  23.627  26.422  1.00  0.00     0.251 C 
ATOM      6  O   UNL A   1      39.507  24.831  26.371  1.00  0.00    -0.269 OA
ATOM      7  H   UNL A   1      40.980  23.303  27.331  1.00  0.00     0.163 HD
BRANCH   5   8
ATOM      8  C   UNL A   1      37.923  23.147  25.944  1.00  0.00     0.039 A 
ATOM      9  C   UNL A   1      35.327  22.316  25.306  1.00  0.00     0.046 A 
ATOM     10  C   UNL A   1      35.509  23.511  25.999  1.00  0.00     0.027 A 
ATOM     11  C   UNL A   1      36.421  21.575  24.857  1.00  0.00     0.027 A 
ATOM     12  C   UNL A   1      36.804  23.902  26.344  1.00  0.00     0.016 A 
ATOM     13  C   UNL A   1      37.715  22.030  25.129  1.00  0.00     0.016 A 
BRANCH   9  14
ATOM     14  N   UNL A   1      34.026  21.898  24.954  1.00  0.00    -0.317 N 
ATOM     15  C   UNL A   1      33.095  22.581  24.180  1.00  0.00     0.047 A 
ATOM     16  C   UNL A   1      31.900  21.885  24.265  1.00  0.00     0.028 A 
ATOM     17  C   UNL A   1      32.120  20.732  25.052  1.00  0.00     0.020 A 
ATOM     18  C   UNL A   1      33.448  20.735  25.414  1.00  0.00     0.092 A 
BRANCH  15  19
ATOM     19  C   UNL A   1      33.465  23.707  23.391  1.00  0.00     0.046 C 
ATOM     20  N   UNL A   1      31.630  26.501  24.835  1.00  0.00    -0.279 N 
ATOM     21  C   UNL A   1      32.435  25.367  24.936  1.00  0.00     0.265 C 
ATOM     22  C   UNL A   1      31.755  27.432  23.793  1.00  0.00     0.206 C 
ATOM     23  O   UNL A   1      32.635  24.756  25.982  1.00  0.00    -0.268 OA
ATOM     24  C   UNL A   1      33.112  24.976  23.676  1.00  0.00     0.104 C 
ATOM     25  N   UNL A   1      32.681  27.203  22.803  1.00  0.00    -0.184 NA
ATOM     26  S   UNL A   1      30.836  28.852  23.675  1.00  0.00    -0.038 S 
ATOM     27  C   UNL A   1      33.292  26.079  22.734  1.00  0.00     0.226 C 
BRANCH  20  28
ATOM     28  C   UNL A   1      30.693  26.676  25.951  1.00  0.00     0.155 C 
BRANCH  28  29
ATOM     29  C   UNL A   1      31.452  27.286  27.105  1.00  0.00    -0.013 C 
ATOM     30  C   UNL A   1      31.676  28.601  27.241  1.00  0.00     0.006 C 
ENDBRANCH  28  29
ENDBRANCH  20  28
BRANCH  27  31
ATOM     31  O   UNL A   1      34.165  25.926  21.723  1.00  0.00    -0.493 OA
ATOM     32  H   UNL A   1      35.056  26.196  21.829  1.00  0.00     0.295 HD
ENDBRANCH  27  31
ENDBRANCH  15  19
ENDBRANCH   9  14
ENDBRANCH   5   8
ENDBRANCH   3   4
ENDBRANCH   2   3
ENDBRANCH   1   2
BRANCH   1  33
ATOM     33  C   UNL A   1      43.174  18.995  26.149  1.00  0.00     0.002 C 
BRANCH  33  34
ATOM     34  C   UNL A   1      43.899  18.761  24.815  1.00  0.00     0.021 C 
BRANCH  34  35
ATOM     35  C   UNL A   1      45.177  19.588  24.677  1.00  0.00     0.116 C 
BRANCH  35  36
ATOM     36  N   UNL A   1      45.040  20.518  23.570  1.00  0.00    -0.352 N 
ATOM     37  C   UNL A   1      44.576  21.804  23.527  1.00  0.00     0.251 C 
ATOM     38  H   UNL A   1      45.329  20.160  22.699  1.00  0.00     0.163 HD
ATOM     39  O   UNL A   1      44.196  22.246  22.449  1.00  0.00    -0.269 OA
BRANCH  37  40
ATOM     40  C   UNL A   1      44.518  22.665  24.729  1.00  0.00     0.039 A 
ATOM     41  C   UNL A   1      45.657  22.703  25.544  1.00  0.00     0.014 A 
ATOM     42  C   UNL A   1      43.351  23.328  25.128  1.00  0.00     0.014 A 
ATOM     43  C   UNL A   1      45.646  23.437  26.724  1.00  0.00     0.010 A 
ATOM     44  C   UNL A   1      43.340  24.081  26.302  1.00  0.00     0.010 A 
ATOM     45  C   UNL A   1      44.493  24.146  27.090  1.00  0.00    -0.014 A 
BRANCH  45  46
ATOM     46  C   UNL A   1      44.599  25.130  28.192  1.00  0.00     0.031 A 
ATOM     47  C   UNL A   1      44.959  26.526  27.634  1.00  0.00     0.074 A 
ATOM     48  C   UNL A   1      44.440  24.667  29.472  1.00  0.00     0.049 A 
ATOM     49  N   UNL A   1      45.660  27.475  28.170  1.00  0.00    -0.248 NA
ATOM     50  C   UNL A   1      44.567  26.888  26.240  1.00  0.00     0.031 C 
ATOM     51  C   UNL A   1      44.035  23.286  29.830  1.00  0.00     0.029 A 
ATOM     52  N   UNL A   1      44.578  25.232  30.728  1.00  0.00    -0.354 N 
ATOM     53  C   UNL A   1      45.646  28.583  27.286  1.00  0.00     0.074 A 
ATOM     54  C   UNL A   1      45.051  28.122  26.071  1.00  0.00     0.031 C 
ATOM     55  C   UNL A   1      44.042  23.104  31.172  1.00  0.00     0.029 A 
ATOM     56  C   UNL A   1      44.438  24.336  31.827  1.00  0.00     0.049 A 
ATOM     57  H   UNL A   1      44.761  26.191  30.854  1.00  0.00     0.167 HD
ATOM     58  C   UNL A   1      46.005  29.845  27.670  1.00  0.00     0.031 A 
ATOM     59  C   UNL A   1      44.672  24.558  33.162  1.00  0.00     0.031 A 
ATOM     60  C   UNL A   1      46.430  29.825  29.027  1.00  0.00     0.049 A 
ATOM     61  C   UNL A   1      44.949  25.997  33.270  1.00  0.00     0.074 A 
ATOM     62  C   UNL A   1      47.533  29.298  29.645  1.00  0.00     0.029 A 
ATOM     63  N   UNL A   1      45.445  30.053  29.958  1.00  0.00    -0.354 N 
ATOM     64  N   UNL A   1      44.061  26.937  33.182  1.00  0.00    -0.248 NA
ATOM     65  C   UNL A   1      46.343  26.432  33.441  1.00  0.00     0.031 C 
ATOM     66  C   UNL A   1      46.988  28.731  30.814  1.00  0.00     0.029 A 
ATOM     67  C   UNL A   1      45.664  29.163  30.974  1.00  0.00     0.049 A 
ATOM     68  H   UNL A   1      44.727  30.724  29.905  1.00  0.00     0.167 HD
ATOM     69  C   UNL A   1      44.834  28.029  32.883  1.00  0.00     0.074 A 
ATOM     70  C   UNL A   1      46.162  27.749  33.389  1.00  0.00     0.031 C 
ATOM     71  C   UNL A   1      44.539  28.766  31.782  1.00  0.00     0.031 A 
BRANCH  58  72
ATOM     72  C   UNL A   1      45.768  31.205  27.063  1.00  0.00    -0.014 A 
ATOM     73  C   UNL A   1      46.874  32.100  27.059  1.00  0.00     0.010 A 
ATOM     74  C   UNL A   1      44.497  31.752  26.848  1.00  0.00     0.010 A 
ATOM     75  C   UNL A   1      46.706  33.483  27.005  1.00  0.00     0.020 A 
ATOM     76  C   UNL A   1      44.325  33.146  26.748  1.00  0.00     0.020 A 
ATOM     77  C   UNL A   1      45.422  34.001  26.884  1.00  0.00     0.054 A 
BRANCH  77  78
ATOM     78  S   UNL A   1      45.217  35.800  26.982  1.00  0.00     0.124 S 
ATOM     79  O   UNL A   1      45.360  36.049  28.413  1.00  0.00    -0.237 OA
ATOM     80  O   UNL A   1      46.315  36.289  26.150  1.00  0.00    -0.237 OA
ATOM     81  O   UNL A   1      43.882  36.024  26.432  1.00  0.00    -0.744 OA
ENDBRANCH  77  78
ENDBRANCH  58  72
BRANCH  59  82
ATOM     82  C   UNL A   1      44.831  23.787  34.463  1.00  0.00    -0.014 A 
ATOM     83  C   UNL A   1      45.466  22.555  34.645  1.00  0.00     0.010 A 
ATOM     84  C   UNL A   1      44.400  24.428  35.665  1.00  0.00     0.010 A 
ATOM     85  C   UNL A   1      45.792  22.086  35.948  1.00  0.00     0.020 A 
ATOM     86  C   UNL A   1      44.763  24.012  36.947  1.00  0.00     0.020 A 
ATOM     87  C   UNL A   1      45.491  22.849  37.085  1.00  0.00     0.054 A 
BRANCH  87  88
ATOM     88  S   UNL A   1      46.167  22.429  38.720  1.00  0.00     0.124 S 
ATOM     89  O   UNL A   1      45.370  23.259  39.615  1.00  0.00    -0.237 OA
ATOM     90  O   UNL A   1      45.927  20.990  38.807  1.00  0.00    -0.237 OA
ATOM     91  O   UNL A   1      47.577  22.803  38.613  1.00  0.00    -0.744 OA
ENDBRANCH  87  88
ENDBRANCH  59  82
BRANCH  71  92
ATOM     92  C   UNL A   1      43.084  28.735  31.331  1.00  0.00    -0.014 A 
ATOM     93  C   UNL A   1      42.753  28.103  30.119  1.00  0.00     0.010 A 
ATOM     94  C   UNL A   1      42.037  29.378  32.026  1.00  0.00     0.010 A 
ATOM     95  C   UNL A   1      41.441  28.105  29.618  1.00  0.00     0.020 A 
ATOM     96  C   UNL A   1      40.717  29.388  31.531  1.00  0.00     0.020 A 
ATOM     97  C   UNL A   1      40.427  28.744  30.329  1.00  0.00     0.054 A 
BRANCH  97  98
ATOM     98  S   UNL A   1      38.738  28.713  29.653  1.00  0.00     0.124 S 
ATOM     99  O   UNL A   1      37.910  28.605  30.852  1.00  0.00    -0.237 OA
ATOM    100  O   UNL A   1      38.655  29.990  28.952  1.00  0.00    -0.237 OA
ATOM    101  O   UNL A   1      38.725  27.530  28.790  1.00  0.00    -0.744 OA
ENDBRANCH  97  98
ENDBRANCH  71  92
ENDBRANCH  45  46
ENDBRANCH  37  40
ENDBRANCH  35  36
ENDBRANCH  34  35
ENDBRANCH  33  34
ENDBRANCH   1  33
TORSDOF 21
ENDMDL
MODEL 3
REMARK VINA RESULT:     -10.3      6.790     11.675
REMARK SMILES C=CCN1C(=O)/C(=C\c2cccn2-c2ccc(C(=O)NCCCCCCNC(=O)c3ccc(-c4c5nc(c(-c6ccc(S(=O)(=O)[O-])cc6)c6ccc([nH]6)c(-c6ccc(S(=O)(=O)[O-])cc6)c6nc(c(-c7ccc(S(=O)(=O)[O-])cc7)c7ccc4[nH]7)C=C6)C=C5)cc3)cc2)C(O)=NC1=S
REMARK SMILES IDX 23 1 22 2 21 3 20 4 18 5 19 6 17 8 14 9 15 10 91 11 16 12
REMARK SMILES IDX 90 13 13 14 9 15 10 16 11 17 12 18 8 19 4 20 5 21 95 22 6 23
REMARK SMILES IDX 7 24 94 25 96 26 92 27 3 28 2 29 1 30 93 31 24 33 25 34
REMARK SMILES IDX 26 35 27 36 28 37 29 39 30 40 31 41 89 42 32 43 88 44 33 45
REMARK SMILES IDX 34 46 35 47 82 48 36 49 87 50 81 51 83 52 37 53 86 54 80 55
REMARK SMILES IDX 79 56 38 58 68 59 49 60 67 61 50 62 53 63 66 64 84 65 51 66
REMARK SMILES IDX 52 67 65 69 85 70 54 71 39 72 40 73 48 74 41 75 47 76 42 77
REMARK SMILES IDX 43 78 44 79 45 80 46 81 69 82 70 83 78 84 71 85 77 86 72 87
REMARK SMILES IDX 73 88 74 89 75 90 76 91 55 92 56 93 64 94 57 95 63 96 58 97
REMARK SMILES IDX 59 98 60 99 61 100 62 101
REMARK H PARENT 20 7 93 32 27 38 83 57 53 68
REMARK Flexibility Score: inf
ROOT
ATOM      1  C   UNL A   1      47.769  28.030  28.828  1.00  0.00     0.002 C 
ENDROOT
BRANCH   1   2
ATOM      2  C   UNL A   1      48.229  27.458  30.177  1.00  0.00     0.021 C 
BRANCH   2   3
ATOM      3  C   UNL A   1      47.977  25.955  30.299  1.00  0.00     0.116 C 
BRANCH   3   4
ATOM      4  N   UNL A   1      47.176  25.683  31.475  1.00  0.00    -0.352 N 
ATOM      5  C   UNL A   1      45.842  25.820  31.752  1.00  0.00     0.251 C 
ATOM      6  O   UNL A   1      45.469  25.506  32.884  1.00  0.00    -0.269 OA
ATOM      7  H   UNL A   1      47.697  25.326  32.230  1.00  0.00     0.163 HD
BRANCH   5   8
ATOM      8  C   UNL A   1      44.824  26.235  30.743  1.00  0.00     0.039 A 
ATOM      9  C   UNL A   1      42.809  27.187  29.050  1.00  0.00     0.046 A 
ATOM     10  C   UNL A   1      43.511  28.088  29.848  1.00  0.00     0.027 A 
ATOM     11  C   UNL A   1      43.152  25.835  29.024  1.00  0.00     0.027 A 
ATOM     12  C   UNL A   1      44.491  27.602  30.715  1.00  0.00     0.016 A 
ATOM     13  C   UNL A   1      44.201  25.379  29.830  1.00  0.00     0.016 A 
BRANCH   9  14
ATOM     14  N   UNL A   1      41.809  27.657  28.171  1.00  0.00    -0.317 N 
ATOM     15  C   UNL A   1      41.982  28.257  26.930  1.00  0.00     0.047 A 
ATOM     16  C   UNL A   1      40.744  28.727  26.524  1.00  0.00     0.028 A 
ATOM     17  C   UNL A   1      39.794  28.357  27.502  1.00  0.00     0.020 A 
ATOM     18  C   UNL A   1      40.464  27.651  28.474  1.00  0.00     0.092 A 
BRANCH  15  19
ATOM     19  C   UNL A   1      43.233  28.216  26.251  1.00  0.00     0.046 C 
ATOM     20  N   UNL A   1      43.640  24.740  25.250  1.00  0.00    -0.279 N 
ATOM     21  C   UNL A   1      42.896  25.912  25.367  1.00  0.00     0.265 C 
ATOM     22  C   UNL A   1      45.012  24.736  24.955  1.00  0.00     0.206 C 
ATOM     23  O   UNL A   1      41.676  25.970  25.236  1.00  0.00    -0.268 OA
ATOM     24  C   UNL A   1      43.702  27.136  25.597  1.00  0.00     0.104 C 
ATOM     25  N   UNL A   1      45.667  25.937  24.814  1.00  0.00    -0.184 NA
ATOM     26  S   UNL A   1      45.933  23.327  24.743  1.00  0.00    -0.038 S 
ATOM     27  C   UNL A   1      45.081  27.034  25.120  1.00  0.00     0.226 C 
BRANCH  20  28
ATOM     28  C   UNL A   1      42.852  23.509  25.387  1.00  0.00     0.155 C 
BRANCH  28  29
ATOM     29  C   UNL A   1      42.889  23.092  26.837  1.00  0.00    -0.013 C 
ATOM     30  C   UNL A   1      42.184  22.067  27.338  1.00  0.00     0.006 C 
ENDBRANCH  28  29
ENDBRANCH  20  28
BRANCH  27  31
ATOM     31  O   UNL A   1      45.796  28.163  24.976  1.00  0.00    -0.493 OA
ATOM     32  H   UNL A   1      46.387  28.433  25.651  1.00  0.00     0.295 HD
ENDBRANCH  27  31
ENDBRANCH  15  19
ENDBRANCH   9  14
ENDBRANCH   5   8
ENDBRANCH   3   4
ENDBRANCH   2   3
ENDBRANCH   1   2
BRANCH   1  33
ATOM     33  C   UNL A   1      47.733  29.564  28.762  1.00  0.00     0.002 C 
BRANCH  33  34
ATOM     34  C   UNL A   1      47.344  30.142  27.393  1.00  0.00     0.021 C 
BRANCH  34  35
ATOM     35  C   UNL A   1      47.640  31.637  27.270  1.00  0.00     0.116 C 
BRANCH  35  36
ATOM     36  N   UNL A   1      46.754  32.231  26.284  1.00  0.00    -0.352 N 
ATOM     37  C   UNL A   1      45.403  32.444  26.300  1.00  0.00     0.251 C 
ATOM     38  H   UNL A   1      47.203  32.530  25.460  1.00  0.00     0.163 HD
ATOM     39  O   UNL A   1      44.829  32.597  25.229  1.00  0.00    -0.269 OA
BRANCH  37  40
ATOM     40  C   UNL A   1      44.624  32.491  27.558  1.00  0.00     0.039 A 
ATOM     41  C   UNL A   1      43.835  31.374  27.863  1.00  0.00     0.014 A 
ATOM     42  C   UNL A   1      44.561  33.632  28.365  1.00  0.00     0.014 A 
ATOM     43  C   UNL A   1      43.026  31.379  28.994  1.00  0.00     0.010 A 
ATOM     44  C   UNL A   1      43.765  33.637  29.511  1.00  0.00     0.010 A 
ATOM     45  C   UNL A   1      43.011  32.504  29.831  1.00  0.00    -0.014 A 
BRANCH  45  46
ATOM     46  C   UNL A   1      42.365  32.378  31.157  1.00  0.00     0.031 A 
ATOM     47  C   UNL A   1      43.189  31.443  32.071  1.00  0.00     0.074 A 
ATOM     48  C   UNL A   1      41.165  33.016  31.341  1.00  0.00     0.049 A 
ATOM     49  N   UNL A   1      42.792  30.639  33.006  1.00  0.00    -0.248 NA
ATOM     50  C   UNL A   1      44.659  31.307  31.854  1.00  0.00     0.031 C 
ATOM     51  C   UNL A   1      40.534  33.933  30.361  1.00  0.00     0.029 A 
ATOM     52  N   UNL A   1      40.230  33.040  32.360  1.00  0.00    -0.354 N 
ATOM     53  C   UNL A   1      43.938  30.051  33.595  1.00  0.00     0.074 A 
ATOM     54  C   UNL A   1      45.048  30.417  32.773  1.00  0.00     0.031 C 
ATOM     55  C   UNL A   1      39.317  34.345  30.787  1.00  0.00     0.029 A 
ATOM     56  C   UNL A   1      39.030  33.756  32.081  1.00  0.00     0.049 A 
ATOM     57  H   UNL A   1      40.384  32.593  33.223  1.00  0.00     0.167 HD
ATOM     58  C   UNL A   1      43.909  29.413  34.804  1.00  0.00     0.031 A 
ATOM     59  C   UNL A   1      37.872  33.827  32.815  1.00  0.00     0.031 A 
ATOM     60  C   UNL A   1      42.576  29.396  35.299  1.00  0.00     0.049 A 
ATOM     61  C   UNL A   1      38.171  33.131  34.074  1.00  0.00     0.074 A 
ATOM     62  C   UNL A   1      41.445  28.735  34.896  1.00  0.00     0.029 A 
ATOM     63  N   UNL A   1      42.227  30.461  36.095  1.00  0.00    -0.354 N 
ATOM     64  N   UNL A   1      38.907  33.602  35.031  1.00  0.00    -0.248 NA
ATOM     65  C   UNL A   1      37.646  31.771  34.265  1.00  0.00     0.031 C 
ATOM     66  C   UNL A   1      40.452  29.728  35.013  1.00  0.00     0.029 A 
ATOM     67  C   UNL A   1      40.965  30.827  35.716  1.00  0.00     0.049 A 
ATOM     68  H   UNL A   1      42.777  30.877  36.798  1.00  0.00     0.167 HD
ATOM     69  C   UNL A   1      39.249  32.463  35.712  1.00  0.00     0.074 A 
ATOM     70  C   UNL A   1      38.215  31.487  35.434  1.00  0.00     0.031 C 
ATOM     71  C   UNL A   1      40.560  32.193  35.934  1.00  0.00     0.031 A 
BRANCH  58  72
ATOM     72  C   UNL A   1      44.989  29.017  35.779  1.00  0.00    -0.014 A 
ATOM     73  C   UNL A   1      44.903  27.706  36.325  1.00  0.00     0.010 A 
ATOM     74  C   UNL A   1      45.822  29.933  36.434  1.00  0.00     0.010 A 
ATOM     75  C   UNL A   1      45.488  27.374  37.547  1.00  0.00     0.020 A 
ATOM     76  C   UNL A   1      46.452  29.590  37.645  1.00  0.00     0.020 A 
ATOM     77  C   UNL A   1      46.233  28.334  38.219  1.00  0.00     0.054 A 
BRANCH  77  78
ATOM     78  S   UNL A   1      46.843  27.931  39.878  1.00  0.00     0.124 S 
ATOM     79  O   UNL A   1      47.346  26.572  39.701  1.00  0.00    -0.237 OA
ATOM     80  O   UNL A   1      47.867  28.952  40.095  1.00  0.00    -0.237 OA
ATOM     81  O   UNL A   1      45.657  28.060  40.721  1.00  0.00    -0.744 OA
ENDBRANCH  77  78
ENDBRANCH  58  72
BRANCH  59  82
ATOM     82  C   UNL A   1      36.429  34.284  32.677  1.00  0.00    -0.014 A 
ATOM     83  C   UNL A   1      35.710  35.099  33.557  1.00  0.00     0.010 A 
ATOM     84  C   UNL A   1      35.748  33.960  31.462  1.00  0.00     0.010 A 
ATOM     85  C   UNL A   1      34.470  35.680  33.169  1.00  0.00     0.020 A 
ATOM     86  C   UNL A   1      34.563  34.566  31.043  1.00  0.00     0.020 A 
ATOM     87  C   UNL A   1      33.938  35.456  31.892  1.00  0.00     0.054 A 
BRANCH  87  88
ATOM     88  S   UNL A   1      32.532  36.423  31.263  1.00  0.00     0.124 S 
ATOM     89  O   UNL A   1      32.299  35.828  29.952  1.00  0.00    -0.237 OA
ATOM     90  O   UNL A   1      31.497  36.175  32.265  1.00  0.00    -0.237 OA
ATOM     91  O   UNL A   1      33.042  37.794  31.244  1.00  0.00    -0.744 OA
ENDBRANCH  87  88
ENDBRANCH  59  82
BRANCH  71  92
ATOM     92  C   UNL A   1      41.487  33.401  35.988  1.00  0.00    -0.014 A 
ATOM     93  C   UNL A   1      42.361  33.645  34.912  1.00  0.00     0.010 A 
ATOM     94  C   UNL A   1      41.584  34.263  37.101  1.00  0.00     0.010 A 
ATOM     95  C   UNL A   1      43.286  34.700  34.936  1.00  0.00     0.020 A 
ATOM     96  C   UNL A   1      42.511  35.325  37.136  1.00  0.00     0.020 A 
ATOM     97  C   UNL A   1      43.355  35.539  36.047  1.00  0.00     0.054 A 
BRANCH  97  98
ATOM     98  S   UNL A   1      44.560  36.903  36.035  1.00  0.00     0.124 S 
ATOM     99  O   UNL A   1      45.029  36.935  37.418  1.00  0.00    -0.237 OA
ATOM    100  O   UNL A   1      45.541  36.449  35.055  1.00  0.00    -0.237 OA
ATOM    101  O   UNL A   1      43.771  38.066  35.628  1.00  0.00    -0.744 OA
ENDBRANCH  97  98
ENDBRANCH  71  92
ENDBRANCH  45  46
ENDBRANCH  37  40
ENDBRANCH  35  36
ENDBRANCH  34  35
ENDBRANCH  33  34
ENDBRANCH   1  33
TORSDOF 21
ENDMDL
