MODEL 1
REMARK VINA RESULT:     -11.8      0.000      0.000
REMARK SMILES Cc1ccc(-c2cc([C@@H](C)C(=O)NCCCCCCNC(=O)c3ccc(-c4c5nc(c(-c6ccc(S(=O)(=O)[O-])cc6)c6ccc([nH]6)c(-c6ccc(S(=O)(=O)[O-])cc6)c6nc(c(-c7ccc(S(=O)(=O)[O-])cc7)c7ccc4[nH]7)C=C6)C=C5)cc3)ccc2C[C@H]2CCCC2=O)cc1
REMARK SMILES IDX 16 1 15 2 14 3 13 4 11 5 12 6 9 8 10 9 8 10 6 11 7 12 85 13
REMARK SMILES IDX 84 14 83 15 5 16 1 17 2 18 3 19 94 20 4 21 93 22 86 23 87 24
REMARK SMILES IDX 88 25 91 26 89 27 90 28 92 29 17 30 18 31 19 32 20 33 21 34
REMARK SMILES IDX 22 36 23 37 24 38 82 39 25 40 81 41 26 42 27 43 28 44 75 45
REMARK SMILES IDX 29 46 80 47 74 48 76 49 30 50 79 51 73 52 72 53 31 55 61 56
REMARK SMILES IDX 42 57 60 58 43 59 46 60 59 61 77 62 44 63 45 64 58 66 78 67
REMARK SMILES IDX 47 68 32 69 33 70 41 71 34 72 40 73 35 74 36 75 37 76 38 77
REMARK SMILES IDX 39 78 62 79 63 80 71 81 64 82 70 83 65 84 66 85 67 86 68 87
REMARK SMILES IDX 69 88 48 89 49 90 57 91 50 92 56 93 51 94 52 95 53 96 54 97
REMARK SMILES IDX 55 98
REMARK H PARENT 13 7 20 35 76 54 46 65
REMARK Flexibility Score: inf
ROOT
ATOM      1  C   UNL A   1      38.466  22.464  25.653  1.00  0.00     0.002 C 
ENDROOT
BRANCH   1   2
ATOM      2  C   UNL A   1      37.605  21.275  25.214  1.00  0.00     0.021 C 
BRANCH   2   3
ATOM      3  C   UNL A   1      36.100  21.543  25.158  1.00  0.00     0.116 C 
BRANCH   3   4
ATOM      4  N   UNL A   1      35.481  21.520  26.470  1.00  0.00    -0.356 N 
ATOM      5  C   UNL A   1      34.180  21.477  26.867  1.00  0.00     0.227 C 
ATOM      6  O   UNL A   1      33.978  21.475  28.090  1.00  0.00    -0.274 OA
ATOM      7  H   UNL A   1      36.125  21.539  27.215  1.00  0.00     0.163 HD
BRANCH   5   8
ATOM      8  C   UNL A   1      32.982  21.418  25.904  1.00  0.00     0.105 C 
ATOM      9  C   UNL A   1      32.819  20.091  25.163  1.00  0.00     0.023 C 
BRANCH   8  10
ATOM     10  C   UNL A   1      32.824  22.668  25.055  1.00  0.00    -0.035 A 
ATOM     11  C   UNL A   1      32.997  25.128  24.868  1.00  0.00    -0.015 A 
ATOM     12  C   UNL A   1      33.077  23.934  25.619  1.00  0.00     0.013 A 
ATOM     13  C   UNL A   1      32.766  25.028  23.478  1.00  0.00    -0.039 A 
ATOM     14  C   UNL A   1      32.426  23.778  22.939  1.00  0.00     0.004 A 
ATOM     15  C   UNL A   1      32.430  22.624  23.720  1.00  0.00     0.005 A 
BRANCH  11  16
ATOM     16  C   UNL A   1      33.049  26.419  25.581  1.00  0.00    -0.018 A 
ATOM     17  C   UNL A   1      33.263  30.286  27.525  1.00  0.00     0.044 C 
ATOM     18  C   UNL A   1      33.168  28.952  26.847  1.00  0.00    -0.051 A 
ATOM     19  C   UNL A   1      34.112  28.600  25.880  1.00  0.00     0.004 A 
ATOM     20  C   UNL A   1      32.163  28.035  27.176  1.00  0.00     0.004 A 
ATOM     21  C   UNL A   1      34.044  27.356  25.250  1.00  0.00     0.009 A 
ATOM     22  C   UNL A   1      32.102  26.783  26.547  1.00  0.00     0.009 A 
ENDBRANCH  11  16
BRANCH  13  23
ATOM     23  C   UNL A   1      32.895  26.198  22.517  1.00  0.00     0.047 C 
BRANCH  23  24
ATOM     24  C   UNL A   1      31.602  26.975  22.221  1.00  0.00     0.060 C 
ATOM     25  C   UNL A   1      30.310  26.387  22.805  1.00  0.00     0.012 C 
ATOM     26  C   UNL A   1      31.591  28.386  22.779  1.00  0.00     0.136 C 
ATOM     27  C   UNL A   1      29.980  27.227  24.032  1.00  0.00     0.009 C 
ATOM     28  C   UNL A   1      30.398  28.641  23.660  1.00  0.00     0.076 C 
ATOM     29  O   UNL A   1      32.445  29.230  22.531  1.00  0.00    -0.299 OA
ENDBRANCH  23  24
ENDBRANCH  13  23
ENDBRANCH   8  10
ENDBRANCH   5   8
ENDBRANCH   3   4
ENDBRANCH   2   3
ENDBRANCH   1   2
BRANCH   1  30
ATOM     30  C   UNL A   1      39.592  22.168  26.659  1.00  0.00     0.002 C 
BRANCH  30  31
ATOM     31  C   UNL A   1      41.021  22.197  26.111  1.00  0.00     0.021 C 
BRANCH  31  32
ATOM     32  C   UNL A   1      41.874  23.328  26.683  1.00  0.00     0.116 C 
BRANCH  32  33
ATOM     33  N   UNL A   1      42.021  24.439  25.754  1.00  0.00    -0.352 N 
ATOM     34  C   UNL A   1      41.578  25.737  25.915  1.00  0.00     0.251 C 
ATOM     35  H   UNL A   1      42.491  24.242  24.911  1.00  0.00     0.163 HD
ATOM     36  O   UNL A   1      41.540  26.538  24.996  1.00  0.00    -0.269 OA
BRANCH  34  37
ATOM     37  C   UNL A   1      41.275  26.164  27.295  1.00  0.00     0.039 A 
ATOM     38  C   UNL A   1      39.936  26.108  27.696  1.00  0.00     0.014 A 
ATOM     39  C   UNL A   1      42.233  26.820  28.065  1.00  0.00     0.014 A 
ATOM     40  C   UNL A   1      39.525  26.832  28.812  1.00  0.00     0.010 A 
ATOM     41  C   UNL A   1      41.808  27.598  29.131  1.00  0.00     0.010 A 
ATOM     42  C   UNL A   1      40.448  27.639  29.481  1.00  0.00    -0.014 A 
BRANCH  42  43
ATOM     43  C   UNL A   1      40.051  28.645  30.466  1.00  0.00     0.031 A 
ATOM     44  C   UNL A   1      39.269  29.845  30.070  1.00  0.00     0.074 A 
ATOM     45  C   UNL A   1      40.381  28.499  31.770  1.00  0.00     0.049 A 
ATOM     46  N   UNL A   1      39.304  30.980  30.697  1.00  0.00    -0.248 NA
ATOM     47  C   UNL A   1      38.417  29.867  28.886  1.00  0.00     0.031 C 
ATOM     48  C   UNL A   1      39.821  29.249  32.891  1.00  0.00     0.029 A 
ATOM     49  N   UNL A   1      41.453  27.803  32.333  1.00  0.00    -0.354 N 
ATOM     50  C   UNL A   1      38.291  31.761  30.190  1.00  0.00     0.074 A 
ATOM     51  C   UNL A   1      37.824  31.059  29.015  1.00  0.00     0.031 C 
ATOM     52  C   UNL A   1      40.699  29.226  33.902  1.00  0.00     0.029 A 
ATOM     53  C   UNL A   1      41.903  28.573  33.417  1.00  0.00     0.049 A 
ATOM     54  H   UNL A   1      41.821  26.941  32.030  1.00  0.00     0.167 HD
ATOM     55  C   UNL A   1      37.832  32.847  30.879  1.00  0.00     0.031 A 
ATOM     56  C   UNL A   1      43.176  29.037  33.577  1.00  0.00     0.031 A 
ATOM     57  C   UNL A   1      38.556  33.072  32.126  1.00  0.00     0.049 A 
ATOM     58  C   UNL A   1      43.257  30.530  33.795  1.00  0.00     0.074 A 
ATOM     59  C   UNL A   1      38.267  32.764  33.447  1.00  0.00     0.029 A 
ATOM     60  N   UNL A   1      39.880  33.485  32.096  1.00  0.00    -0.354 N 
ATOM     61  N   UNL A   1      42.254  31.342  33.619  1.00  0.00    -0.248 NA
ATOM     62  C   UNL A   1      44.488  31.238  34.146  1.00  0.00     0.031 C 
ATOM     63  C   UNL A   1      39.448  32.943  34.208  1.00  0.00     0.029 A 
ATOM     64  C   UNL A   1      40.447  33.370  33.351  1.00  0.00     0.049 A 
ATOM     65  H   UNL A   1      40.348  33.814  31.296  1.00  0.00     0.167 HD
ATOM     66  C   UNL A   1      42.679  32.634  33.769  1.00  0.00     0.074 A 
ATOM     67  C   UNL A   1      44.078  32.519  34.132  1.00  0.00     0.031 C 
ATOM     68  C   UNL A   1      41.849  33.693  33.552  1.00  0.00     0.031 A 
BRANCH  55  69
ATOM     69  C   UNL A   1      36.508  33.508  30.563  1.00  0.00    -0.014 A 
ATOM     70  C   UNL A   1      36.189  33.832  29.228  1.00  0.00     0.010 A 
ATOM     71  C   UNL A   1      35.568  33.891  31.538  1.00  0.00     0.010 A 
ATOM     72  C   UNL A   1      35.078  34.619  28.898  1.00  0.00     0.020 A 
ATOM     73  C   UNL A   1      34.473  34.715  31.229  1.00  0.00     0.020 A 
ATOM     74  C   UNL A   1      34.247  35.094  29.909  1.00  0.00     0.054 A 
BRANCH  74  75
ATOM     75  S   UNL A   1      32.908  36.237  29.480  1.00  0.00     0.124 S 
ATOM     76  O   UNL A   1      33.634  37.402  28.977  1.00  0.00    -0.237 OA
ATOM     77  O   UNL A   1      32.159  35.483  28.482  1.00  0.00    -0.237 OA
ATOM     78  O   UNL A   1      32.216  36.449  30.751  1.00  0.00    -0.744 OA
ENDBRANCH  74  75
ENDBRANCH  55  69
BRANCH  56  79
ATOM     79  C   UNL A   1      44.223  28.231  32.898  1.00  0.00    -0.014 A 
ATOM     80  C   UNL A   1      44.157  26.829  33.033  1.00  0.00     0.010 A 
ATOM     81  C   UNL A   1      44.975  28.786  31.848  1.00  0.00     0.010 A 
ATOM     82  C   UNL A   1      44.693  25.999  32.046  1.00  0.00     0.020 A 
ATOM     83  C   UNL A   1      45.515  27.954  30.859  1.00  0.00     0.020 A 
ATOM     84  C   UNL A   1      45.312  26.573  30.935  1.00  0.00     0.054 A 
BRANCH  84  85
ATOM     85  S   UNL A   1      45.675  25.498  29.515  1.00  0.00     0.124 S 
ATOM     86  O   UNL A   1      44.715  24.412  29.691  1.00  0.00    -0.237 OA
ATOM     87  O   UNL A   1      45.413  26.392  28.387  1.00  0.00    -0.237 OA
ATOM     88  O   UNL A   1      47.075  25.141  29.714  1.00  0.00    -0.744 OA
ENDBRANCH  84  85
ENDBRANCH  56  79
BRANCH  68  89
ATOM     89  C   UNL A   1      42.268  35.136  33.565  1.00  0.00    -0.014 A 
ATOM     90  C   UNL A   1      42.039  35.999  34.649  1.00  0.00     0.010 A 
ATOM     91  C   UNL A   1      43.047  35.627  32.492  1.00  0.00     0.010 A 
ATOM     92  C   UNL A   1      42.524  37.315  34.640  1.00  0.00     0.020 A 
ATOM     93  C   UNL A   1      43.561  36.926  32.488  1.00  0.00     0.020 A 
ATOM     94  C   UNL A   1      43.278  37.772  33.557  1.00  0.00     0.054 A 
BRANCH  94  95
ATOM     95  S   UNL A   1      43.965  39.449  33.574  1.00  0.00     0.124 S 
ATOM     96  O   UNL A   1      44.243  39.645  34.995  1.00  0.00    -0.237 OA
ATOM     97  O   UNL A   1      45.144  39.336  32.718  1.00  0.00    -0.237 OA
ATOM     98  O   UNL A   1      42.882  40.262  33.027  1.00  0.00    -0.744 OA
ENDBRANCH  94  95
ENDBRANCH  68  89
ENDBRANCH  42  43
ENDBRANCH  34  37
ENDBRANCH  32  33
ENDBRANCH  31  32
ENDBRANCH  30  31
ENDBRANCH   1  30
TORSDOF 20
ENDMDL
MODEL 2
REMARK VINA RESULT:     -11.4      5.176     12.893
REMARK SMILES Cc1ccc(-c2cc([C@@H](C)C(=O)NCCCCCCNC(=O)c3ccc(-c4c5nc(c(-c6ccc(S(=O)(=O)[O-])cc6)c6ccc([nH]6)c(-c6ccc(S(=O)(=O)[O-])cc6)c6nc(c(-c7ccc(S(=O)(=O)[O-])cc7)c7ccc4[nH]7)C=C6)C=C5)cc3)ccc2C[C@H]2CCCC2=O)cc1
REMARK SMILES IDX 16 1 15 2 14 3 13 4 11 5 12 6 9 8 10 9 8 10 6 11 7 12 85 13
REMARK SMILES IDX 84 14 83 15 5 16 1 17 2 18 3 19 94 20 4 21 93 22 86 23 87 24
REMARK SMILES IDX 88 25 91 26 89 27 90 28 92 29 17 30 18 31 19 32 20 33 21 34
REMARK SMILES IDX 22 36 23 37 24 38 82 39 25 40 81 41 26 42 27 43 28 44 75 45
REMARK SMILES IDX 29 46 80 47 74 48 76 49 30 50 79 51 73 52 72 53 31 55 61 56
REMARK SMILES IDX 42 57 60 58 43 59 46 60 59 61 77 62 44 63 45 64 58 66 78 67
REMARK SMILES IDX 47 68 32 69 33 70 41 71 34 72 40 73 35 74 36 75 37 76 38 77
REMARK SMILES IDX 39 78 62 79 63 80 71 81 64 82 70 83 65 84 66 85 67 86 68 87
REMARK SMILES IDX 69 88 48 89 49 90 57 91 50 92 56 93 51 94 52 95 53 96 54 97
REMARK SMILES IDX 55 98
REMARK H PARENT 13 7 20 35 76 54 46 65
REMARK Flexibility Score: inf
ROOT
ATOM      1  C   UNL A   1      39.558  33.650  30.183  1.00  0.00     0.002 C 
ENDROOT
BRANCH   1   2
ATOM      2  C   UNL A   1      41.071  33.505  30.380  1.00  0.00     0.021 C 
BRANCH   2   3
ATOM      3  C   UNL A   1      41.904  34.720  29.965  1.00  0.00     0.116 C 
BRANCH   3   4
ATOM      4  N   UNL A   1      41.957  34.893  28.526  1.00  0.00    -0.356 N 
ATOM      5  C   UNL A   1      42.989  35.131  27.671  1.00  0.00     0.227 C 
ATOM      6  O   UNL A   1      42.695  35.237  26.472  1.00  0.00    -0.274 OA
ATOM      7  H   UNL A   1      41.080  34.825  28.084  1.00  0.00     0.163 HD
BRANCH   5   8
ATOM      8  C   UNL A   1      44.459  35.256  28.102  1.00  0.00     0.105 C 
ATOM      9  C   UNL A   1      45.233  36.389  27.427  1.00  0.00     0.023 C 
BRANCH   8  10
ATOM     10  C   UNL A   1      45.184  33.923  28.181  1.00  0.00    -0.035 A 
ATOM     11  C   UNL A   1      45.333  31.557  27.478  1.00  0.00    -0.015 A 
ATOM     12  C   UNL A   1      44.677  32.808  27.486  1.00  0.00     0.013 A 
ATOM     13  C   UNL A   1      46.598  31.462  28.099  1.00  0.00    -0.039 A 
ATOM     14  C   UNL A   1      47.056  32.545  28.865  1.00  0.00     0.004 A 
ATOM     15  C   UNL A   1      46.349  33.744  28.925  1.00  0.00     0.005 A 
BRANCH  11  16
ATOM     16  C   UNL A   1      44.623  30.388  26.923  1.00  0.00    -0.018 A 
ATOM     17  C   UNL A   1      42.636  26.849  25.404  1.00  0.00     0.044 C 
ATOM     18  C   UNL A   1      43.308  28.076  25.944  1.00  0.00    -0.051 A 
ATOM     19  C   UNL A   1      44.649  28.016  26.329  1.00  0.00     0.004 A 
ATOM     20  C   UNL A   1      42.626  29.294  26.054  1.00  0.00     0.004 A 
ATOM     21  C   UNL A   1      45.291  29.154  26.821  1.00  0.00     0.009 A 
ATOM     22  C   UNL A   1      43.277  30.436  26.542  1.00  0.00     0.009 A 
ENDBRANCH  11  16
BRANCH  13  23
ATOM     23  C   UNL A   1      47.516  30.260  27.960  1.00  0.00     0.047 C 
BRANCH  23  24
ATOM     24  C   UNL A   1      48.108  29.707  29.268  1.00  0.00     0.060 C 
ATOM     25  C   UNL A   1      47.490  28.402  29.791  1.00  0.00     0.012 C 
ATOM     26  C   UNL A   1      49.579  29.348  29.173  1.00  0.00     0.136 C 
ATOM     27  C   UNL A   1      48.470  27.294  29.427  1.00  0.00     0.009 C 
ATOM     28  C   UNL A   1      49.845  27.924  29.583  1.00  0.00     0.076 C 
ATOM     29  O   UNL A   1      50.456  30.129  28.820  1.00  0.00    -0.299 OA
ENDBRANCH  23  24
ENDBRANCH  13  23
ENDBRANCH   8  10
ENDBRANCH   5   8
ENDBRANCH   3   4
ENDBRANCH   2   3
ENDBRANCH   1   2
BRANCH   1  30
ATOM     30  C   UNL A   1      38.688  32.456  30.609  1.00  0.00     0.002 C 
BRANCH  30  31
ATOM     31  C   UNL A   1      37.340  32.789  31.254  1.00  0.00     0.021 C 
BRANCH  31  32
ATOM     32  C   UNL A   1      36.344  31.632  31.226  1.00  0.00     0.116 C 
BRANCH  32  33
ATOM     33  N   UNL A   1      35.407  31.729  30.117  1.00  0.00    -0.352 N 
ATOM     34  C   UNL A   1      35.550  31.212  28.844  1.00  0.00     0.251 C 
ATOM     35  H   UNL A   1      34.573  32.223  30.294  1.00  0.00     0.163 HD
ATOM     36  O   UNL A   1      34.826  31.536  27.917  1.00  0.00    -0.269 OA
BRANCH  34  37
ATOM     37  C   UNL A   1      36.542  30.131  28.679  1.00  0.00     0.039 A 
ATOM     38  C   UNL A   1      36.734  29.276  29.770  1.00  0.00     0.014 A 
ATOM     39  C   UNL A   1      37.411  30.121  27.592  1.00  0.00     0.014 A 
ATOM     40  C   UNL A   1      37.887  28.498  29.834  1.00  0.00     0.010 A 
ATOM     41  C   UNL A   1      38.592  29.402  27.692  1.00  0.00     0.010 A 
ATOM     42  C   UNL A   1      38.852  28.622  28.832  1.00  0.00    -0.014 A 
BRANCH  42  43
ATOM     43  C   UNL A   1      40.202  28.074  28.962  1.00  0.00     0.031 A 
ATOM     44  C   UNL A   1      40.503  26.669  28.585  1.00  0.00     0.074 A 
ATOM     45  C   UNL A   1      41.215  28.844  29.422  1.00  0.00     0.049 A 
ATOM     46  N   UNL A   1      41.459  25.962  29.104  1.00  0.00    -0.248 NA
ATOM     47  C   UNL A   1      39.699  25.929  27.618  1.00  0.00     0.031 C 
ATOM     48  C   UNL A   1      42.640  28.536  29.334  1.00  0.00     0.029 A 
ATOM     49  N   UNL A   1      41.162  29.956  30.265  1.00  0.00    -0.354 N 
ATOM     50  C   UNL A   1      41.576  24.815  28.352  1.00  0.00     0.074 A 
ATOM     51  C   UNL A   1      40.410  24.803  27.496  1.00  0.00     0.031 C 
ATOM     52  C   UNL A   1      43.283  29.209  30.299  1.00  0.00     0.029 A 
ATOM     53  C   UNL A   1      42.275  29.865  31.115  1.00  0.00     0.049 A 
ATOM     54  H   UNL A   1      40.478  30.664  30.264  1.00  0.00     0.167 HD
ATOM     55  C   UNL A   1      42.709  24.055  28.406  1.00  0.00     0.031 A 
ATOM     56  C   UNL A   1      42.224  29.846  32.478  1.00  0.00     0.031 A 
ATOM     57  C   UNL A   1      43.695  24.576  29.348  1.00  0.00     0.049 A 
ATOM     58  C   UNL A   1      42.933  28.664  33.098  1.00  0.00     0.074 A 
ATOM     59  C   UNL A   1      44.839  25.340  29.182  1.00  0.00     0.029 A 
ATOM     60  N   UNL A   1      43.443  24.532  30.712  1.00  0.00    -0.354 N 
ATOM     61  N   UNL A   1      43.353  27.635  32.418  1.00  0.00    -0.248 NA
ATOM     62  C   UNL A   1      43.152  28.505  34.535  1.00  0.00     0.031 C 
ATOM     63  C   UNL A   1      45.247  25.805  30.457  1.00  0.00     0.029 A 
ATOM     64  C   UNL A   1      44.356  25.312  31.395  1.00  0.00     0.049 A 
ATOM     65  H   UNL A   1      42.717  24.018  31.133  1.00  0.00     0.167 HD
ATOM     66  C   UNL A   1      43.831  26.683  33.276  1.00  0.00     0.074 A 
ATOM     67  C   UNL A   1      43.717  27.286  34.591  1.00  0.00     0.031 C 
ATOM     68  C   UNL A   1      44.255  25.465  32.836  1.00  0.00     0.031 A 
BRANCH  55  69
ATOM     69  C   UNL A   1      43.041  23.018  27.355  1.00  0.00    -0.014 A 
ATOM     70  C   UNL A   1      42.361  21.782  27.353  1.00  0.00     0.010 A 
ATOM     71  C   UNL A   1      44.052  23.174  26.388  1.00  0.00     0.010 A 
ATOM     72  C   UNL A   1      42.760  20.714  26.538  1.00  0.00     0.020 A 
ATOM     73  C   UNL A   1      44.490  22.101  25.594  1.00  0.00     0.020 A 
ATOM     74  C   UNL A   1      43.854  20.867  25.692  1.00  0.00     0.054 A 
BRANCH  74  75
ATOM     75  S   UNL A   1      44.452  19.431  24.764  1.00  0.00     0.124 S 
ATOM     76  O   UNL A   1      43.442  18.417  25.061  1.00  0.00    -0.237 OA
ATOM     77  O   UNL A   1      44.463  19.926  23.391  1.00  0.00    -0.237 OA
ATOM     78  O   UNL A   1      45.770  19.170  25.342  1.00  0.00    -0.744 OA
ENDBRANCH  74  75
ENDBRANCH  55  69
BRANCH  56  79
ATOM     79  C   UNL A   1      41.035  30.512  33.067  1.00  0.00    -0.014 A 
ATOM     80  C   UNL A   1      39.917  29.707  33.366  1.00  0.00     0.010 A 
ATOM     81  C   UNL A   1      41.158  31.771  33.680  1.00  0.00     0.010 A 
ATOM     82  C   UNL A   1      39.029  30.079  34.377  1.00  0.00     0.020 A 
ATOM     83  C   UNL A   1      40.267  32.146  34.693  1.00  0.00     0.020 A 
ATOM     84  C   UNL A   1      39.249  31.267  35.076  1.00  0.00     0.054 A 
BRANCH  84  85
ATOM     85  S   UNL A   1      38.303  31.544  36.602  1.00  0.00     0.124 S 
ATOM     86  O   UNL A   1      37.803  30.207  36.907  1.00  0.00    -0.237 OA
ATOM     87  O   UNL A   1      39.334  32.051  37.507  1.00  0.00    -0.237 OA
ATOM     88  O   UNL A   1      37.295  32.518  36.199  1.00  0.00    -0.744 OA
ENDBRANCH  84  85
ENDBRANCH  56  79
BRANCH  68  89
ATOM     89  C   UNL A   1      44.667  24.321  33.719  1.00  0.00    -0.014 A 
ATOM     90  C   UNL A   1      43.753  23.453  34.337  1.00  0.00     0.010 A 
ATOM     91  C   UNL A   1      46.042  24.013  33.833  1.00  0.00     0.010 A 
ATOM     92  C   UNL A   1      44.195  22.351  35.084  1.00  0.00     0.020 A 
ATOM     93  C   UNL A   1      46.490  22.900  34.549  1.00  0.00     0.020 A 
ATOM     94  C   UNL A   1      45.562  22.085  35.189  1.00  0.00     0.054 A 
BRANCH  94  95
ATOM     95  S   UNL A   1      46.132  20.622  36.095  1.00  0.00     0.124 S 
ATOM     96  O   UNL A   1      45.425  19.546  35.406  1.00  0.00    -0.237 OA
ATOM     97  O   UNL A   1      47.580  20.647  35.893  1.00  0.00    -0.237 OA
ATOM     98  O   UNL A   1      45.698  20.884  37.465  1.00  0.00    -0.744 OA
ENDBRANCH  94  95
ENDBRANCH  68  89
ENDBRANCH  42  43
ENDBRANCH  34  37
ENDBRANCH  32  33
ENDBRANCH  31  32
ENDBRANCH  30  31
ENDBRANCH   1  30
TORSDOF 20
ENDMDL
MODEL 3
REMARK VINA RESULT:     -10.7      5.317     13.635
REMARK SMILES Cc1ccc(-c2cc([C@@H](C)C(=O)NCCCCCCNC(=O)c3ccc(-c4c5nc(c(-c6ccc(S(=O)(=O)[O-])cc6)c6ccc([nH]6)c(-c6ccc(S(=O)(=O)[O-])cc6)c6nc(c(-c7ccc(S(=O)(=O)[O-])cc7)c7ccc4[nH]7)C=C6)C=C5)cc3)ccc2C[C@H]2CCCC2=O)cc1
REMARK SMILES IDX 16 1 15 2 14 3 13 4 11 5 12 6 9 8 10 9 8 10 6 11 7 12 85 13
REMARK SMILES IDX 84 14 83 15 5 16 1 17 2 18 3 19 94 20 4 21 93 22 86 23 87 24
REMARK SMILES IDX 88 25 91 26 89 27 90 28 92 29 17 30 18 31 19 32 20 33 21 34
REMARK SMILES IDX 22 36 23 37 24 38 82 39 25 40 81 41 26 42 27 43 28 44 75 45
REMARK SMILES IDX 29 46 80 47 74 48 76 49 30 50 79 51 73 52 72 53 31 55 61 56
REMARK SMILES IDX 42 57 60 58 43 59 46 60 59 61 77 62 44 63 45 64 58 66 78 67
REMARK SMILES IDX 47 68 32 69 33 70 41 71 34 72 40 73 35 74 36 75 37 76 38 77
REMARK SMILES IDX 39 78 62 79 63 80 71 81 64 82 70 83 65 84 66 85 67 86 68 87
REMARK SMILES IDX 69 88 48 89 49 90 57 91 50 92 56 93 51 94 52 95 53 96 54 97
REMARK SMILES IDX 55 98
REMARK H PARENT 13 7 20 35 76 54 46 65
REMARK Flexibility Score: inf
ROOT
ATOM      1  C   UNL A   1      39.645  33.796  29.946  1.00  0.00     0.002 C 
ENDROOT
BRANCH   1   2
ATOM      2  C   UNL A   1      41.175  33.882  29.993  1.00  0.00     0.021 C 
BRANCH   2   3
ATOM      3  C   UNL A   1      41.764  35.246  29.626  1.00  0.00     0.116 C 
BRANCH   3   4
ATOM      4  N   UNL A   1      41.900  35.426  28.193  1.00  0.00    -0.356 N 
ATOM      5  C   UNL A   1      42.736  36.194  27.443  1.00  0.00     0.227 C 
ATOM      6  O   UNL A   1      42.591  36.126  26.214  1.00  0.00    -0.274 OA
ATOM      7  H   UNL A   1      41.268  34.890  27.662  1.00  0.00     0.163 HD
BRANCH   5   8
ATOM      8  C   UNL A   1      43.831  37.104  28.024  1.00  0.00     0.105 C 
ATOM      9  C   UNL A   1      43.874  38.514  27.435  1.00  0.00     0.023 C 
BRANCH   8  10
ATOM     10  C   UNL A   1      45.177  36.415  28.176  1.00  0.00    -0.035 A 
ATOM     11  C   UNL A   1      46.529  34.356  27.960  1.00  0.00    -0.015 A 
ATOM     12  C   UNL A   1      45.296  35.041  27.888  1.00  0.00     0.013 A 
ATOM     13  C   UNL A   1      47.696  35.107  28.220  1.00  0.00    -0.039 A 
ATOM     14  C   UNL A   1      47.563  36.453  28.594  1.00  0.00     0.004 A 
ATOM     15  C   UNL A   1      46.322  37.087  28.596  1.00  0.00     0.005 A 
BRANCH  11  16
ATOM     16  C   UNL A   1      46.527  32.883  27.870  1.00  0.00    -0.018 A 
ATOM     17  C   UNL A   1      46.597  28.571  27.443  1.00  0.00     0.044 C 
ATOM     18  C   UNL A   1      46.593  30.062  27.601  1.00  0.00    -0.051 A 
ATOM     19  C   UNL A   1      46.387  30.874  26.484  1.00  0.00     0.004 A 
ATOM     20  C   UNL A   1      46.769  30.665  28.852  1.00  0.00     0.004 A 
ATOM     21  C   UNL A   1      46.366  32.263  26.618  1.00  0.00     0.009 A 
ATOM     22  C   UNL A   1      46.741  32.061  28.984  1.00  0.00     0.009 A 
ENDBRANCH  11  16
BRANCH  13  23
ATOM     23  C   UNL A   1      49.103  34.549  28.087  1.00  0.00     0.047 C 
BRANCH  23  24
ATOM     24  C   UNL A   1      49.966  35.153  26.966  1.00  0.00     0.060 C 
ATOM     25  C   UNL A   1      51.486  35.011  27.132  1.00  0.00     0.012 C 
ATOM     26  C   UNL A   1      49.733  34.524  25.605  1.00  0.00     0.136 C 
ATOM     27  C   UNL A   1      51.908  33.876  26.207  1.00  0.00     0.009 C 
ATOM     28  C   UNL A   1      51.007  34.011  24.989  1.00  0.00     0.076 C 
ATOM     29  O   UNL A   1      48.638  34.454  25.059  1.00  0.00    -0.299 OA
ENDBRANCH  23  24
ENDBRANCH  13  23
ENDBRANCH   8  10
ENDBRANCH   5   8
ENDBRANCH   3   4
ENDBRANCH   2   3
ENDBRANCH   1   2
BRANCH   1  30
ATOM     30  C   UNL A   1      39.012  32.476  30.415  1.00  0.00     0.002 C 
BRANCH  30  31
ATOM     31  C   UNL A   1      37.589  32.561  30.974  1.00  0.00     0.021 C 
BRANCH  31  32
ATOM     32  C   UNL A   1      36.786  31.273  30.804  1.00  0.00     0.116 C 
BRANCH  32  33
ATOM     33  N   UNL A   1      35.845  31.346  29.695  1.00  0.00    -0.352 N 
ATOM     34  C   UNL A   1      36.015  30.863  28.413  1.00  0.00     0.251 C 
ATOM     35  H   UNL A   1      34.986  31.791  29.882  1.00  0.00     0.163 HD
ATOM     36  O   UNL A   1      35.276  31.169  27.492  1.00  0.00    -0.269 OA
BRANCH  34  37
ATOM     37  C   UNL A   1      37.062  29.839  28.226  1.00  0.00     0.039 A 
ATOM     38  C   UNL A   1      37.229  28.910  29.259  1.00  0.00     0.014 A 
ATOM     39  C   UNL A   1      37.992  29.949  27.196  1.00  0.00     0.014 A 
ATOM     40  C   UNL A   1      38.410  28.176  29.333  1.00  0.00     0.010 A 
ATOM     41  C   UNL A   1      39.196  29.271  27.312  1.00  0.00     0.010 A 
ATOM     42  C   UNL A   1      39.424  28.416  28.403  1.00  0.00    -0.014 A 
BRANCH  42  43
ATOM     43  C   UNL A   1      40.788  27.914  28.572  1.00  0.00     0.031 A 
ATOM     44  C   UNL A   1      41.153  26.528  28.181  1.00  0.00     0.074 A 
ATOM     45  C   UNL A   1      41.755  28.710  29.083  1.00  0.00     0.049 A 
ATOM     46  N   UNL A   1      42.115  25.846  28.721  1.00  0.00    -0.248 NA
ATOM     47  C   UNL A   1      40.412  25.780  27.172  1.00  0.00     0.031 C 
ATOM     48  C   UNL A   1      43.193  28.455  29.042  1.00  0.00     0.029 A 
ATOM     49  N   UNL A   1      41.631  29.802  29.945  1.00  0.00    -0.354 N 
ATOM     50  C   UNL A   1      42.300  24.718  27.953  1.00  0.00     0.074 A 
ATOM     51  C   UNL A   1      41.167  24.682  27.055  1.00  0.00     0.031 C 
ATOM     52  C   UNL A   1      43.775  29.131  30.042  1.00  0.00     0.029 A 
ATOM     53  C   UNL A   1      42.716  29.735  30.832  1.00  0.00     0.049 A 
ATOM     54  H   UNL A   1      40.923  30.486  29.931  1.00  0.00     0.167 HD
ATOM     55  C   UNL A   1      43.457  23.998  28.035  1.00  0.00     0.031 A 
ATOM     56  C   UNL A   1      42.617  29.687  32.192  1.00  0.00     0.031 A 
ATOM     57  C   UNL A   1      44.389  24.535  29.022  1.00  0.00     0.049 A 
ATOM     58  C   UNL A   1      43.345  28.519  32.815  1.00  0.00     0.074 A 
ATOM     59  C   UNL A   1      45.510  25.342  28.912  1.00  0.00     0.029 A 
ATOM     60  N   UNL A   1      44.089  24.455  30.374  1.00  0.00    -0.354 N 
ATOM     61  N   UNL A   1      43.826  27.519  32.132  1.00  0.00    -0.248 NA
ATOM     62  C   UNL A   1      43.518  28.339  34.256  1.00  0.00     0.031 C 
ATOM     63  C   UNL A   1      45.854  25.796  30.209  1.00  0.00     0.029 A 
ATOM     64  C   UNL A   1      44.949  25.254  31.105  1.00  0.00     0.049 A 
ATOM     65  H   UNL A   1      43.368  23.907  30.759  1.00  0.00     0.167 HD
ATOM     66  C   UNL A   1      44.307  26.568  32.990  1.00  0.00     0.074 A 
ATOM     67  C   UNL A   1      44.125  27.140  34.311  1.00  0.00     0.031 C 
ATOM     68  C   UNL A   1      44.790  25.375  32.543  1.00  0.00     0.031 A 
BRANCH  55  69
ATOM     69  C   UNL A   1      43.864  22.994  26.977  1.00  0.00    -0.014 A 
ATOM     70  C   UNL A   1      42.947  22.006  26.562  1.00  0.00     0.010 A 
ATOM     71  C   UNL A   1      45.148  22.931  26.405  1.00  0.00     0.010 A 
ATOM     72  C   UNL A   1      43.327  20.935  25.742  1.00  0.00     0.020 A 
ATOM     73  C   UNL A   1      45.556  21.843  25.617  1.00  0.00     0.020 A 
ATOM     74  C   UNL A   1      44.645  20.837  25.308  1.00  0.00     0.054 A 
BRANCH  74  75
ATOM     75  S   UNL A   1      45.156  19.366  24.381  1.00  0.00     0.124 S 
ATOM     76  O   UNL A   1      44.679  18.275  25.229  1.00  0.00    -0.237 OA
ATOM     77  O   UNL A   1      44.451  19.533  23.115  1.00  0.00    -0.237 OA
ATOM     78  O   UNL A   1      46.611  19.493  24.307  1.00  0.00    -0.744 OA
ENDBRANCH  74  75
ENDBRANCH  55  69
BRANCH  56  79
ATOM     79  C   UNL A   1      41.384  30.299  32.749  1.00  0.00    -0.014 A 
ATOM     80  C   UNL A   1      40.341  29.432  33.134  1.00  0.00     0.010 A 
ATOM     81  C   UNL A   1      41.410  31.609  33.256  1.00  0.00     0.010 A 
ATOM     82  C   UNL A   1      39.439  29.810  34.130  1.00  0.00     0.020 A 
ATOM     83  C   UNL A   1      40.503  31.991  34.254  1.00  0.00     0.020 A 
ATOM     84  C   UNL A   1      39.568  31.065  34.726  1.00  0.00     0.054 A 
BRANCH  84  85
ATOM     85  S   UNL A   1      38.623  31.387  36.244  1.00  0.00     0.124 S 
ATOM     86  O   UNL A   1      37.527  32.222  35.760  1.00  0.00    -0.237 OA
ATOM     87  O   UNL A   1      38.249  30.036  36.658  1.00  0.00    -0.237 OA
ATOM     88  O   UNL A   1      39.591  32.057  37.106  1.00  0.00    -0.744 OA
ENDBRANCH  84  85
ENDBRANCH  56  79
BRANCH  68  89
ATOM     89  C   UNL A   1      45.212  24.229  33.419  1.00  0.00    -0.014 A 
ATOM     90  C   UNL A   1      46.395  24.227  34.175  1.00  0.00     0.010 A 
ATOM     91  C   UNL A   1      44.318  23.149  33.603  1.00  0.00     0.010 A 
ATOM     92  C   UNL A   1      46.699  23.166  35.040  1.00  0.00     0.020 A 
ATOM     93  C   UNL A   1      44.597  22.103  34.486  1.00  0.00     0.020 A 
ATOM     94  C   UNL A   1      45.800  22.107  35.186  1.00  0.00     0.054 A 
BRANCH  94  95
ATOM     95  S   UNL A   1      46.157  20.769  36.355  1.00  0.00     0.124 S 
ATOM     96  O   UNL A   1      45.676  21.333  37.614  1.00  0.00    -0.237 OA
ATOM     97  O   UNL A   1      45.374  19.651  35.833  1.00  0.00    -0.237 OA
ATOM     98  O   UNL A   1      47.605  20.609  36.250  1.00  0.00    -0.744 OA
ENDBRANCH  94  95
ENDBRANCH  68  89
ENDBRANCH  42  43
ENDBRANCH  34  37
ENDBRANCH  32  33
ENDBRANCH  31  32
ENDBRANCH  30  31
ENDBRANCH   1  30
TORSDOF 20
ENDMDL
