MODEL 1
REMARK VINA RESULT:     -12.3      0.000      0.000
REMARK SMILES Cc1ccnc(C(=O)c2[nH]c3cc(F)ccc3c2CC(=O)NCCCCCCNC(=O)c2ccc(-c3c4nc(c(-c5ccc(S(=O)(=O)[O-])cc5)c5ccc([nH]5)c(-c5ccc(S(=O)(=O)[O-])cc5)c5nc(c(-c6ccc(S(=O)(=O)[O-])cc6)c6ccc3[nH]6)C=C5)C=C4)cc2)c1
REMARK SMILES IDX 25 1 24 2 23 3 22 4 20 5 21 6 19 8 18 9 9 10 10 11 11 12
REMARK SMILES IDX 17 14 12 15 16 16 13 17 15 18 14 19 7 20 8 21 6 22 1 23 2 24
REMARK SMILES IDX 3 25 92 26 4 27 5 28 26 29 27 30 28 31 29 32 30 33 31 35
REMARK SMILES IDX 32 36 33 37 91 38 34 39 90 40 35 41 36 42 37 43 84 44 38 45
REMARK SMILES IDX 89 46 83 47 85 48 39 49 88 50 82 51 81 52 40 54 70 55 51 56
REMARK SMILES IDX 69 57 52 58 55 59 68 60 86 61 53 62 54 63 67 65 87 66 56 67
REMARK SMILES IDX 41 68 42 69 50 70 43 71 49 72 44 73 45 74 46 75 47 76 48 77
REMARK SMILES IDX 71 78 72 79 80 80 73 81 79 82 74 83 75 84 76 85 77 86 78 87
REMARK SMILES IDX 57 88 58 89 66 90 59 91 65 92 60 93 61 94 62 95 63 96 64 97
REMARK H PARENT 22 7 10 13 29 34 85 53 55 64
REMARK Flexibility Score: inf
ROOT
ATOM      1  C   UNL A   1      31.861  27.876  27.346  1.00  0.00     0.002 C 
ENDROOT
BRANCH   1   2
ATOM      2  C   UNL A   1      30.954  27.054  26.423  1.00  0.00     0.021 C 
BRANCH   2   3
ATOM      3  C   UNL A   1      31.605  25.813  25.812  1.00  0.00     0.116 C 
BRANCH   3   4
ATOM      4  N   UNL A   1      31.841  24.765  26.785  1.00  0.00    -0.356 N 
ATOM      5  C   UNL A   1      32.506  23.582  26.639  1.00  0.00     0.224 C 
ATOM      6  O   UNL A   1      32.704  22.892  27.643  1.00  0.00    -0.275 OA
ATOM      7  H   UNL A   1      31.468  24.930  27.681  1.00  0.00     0.163 HD
BRANCH   5   8
ATOM      8  C   UNL A   1      33.093  23.182  25.295  1.00  0.00     0.138 C 
BRANCH   8   9
ATOM      9  C   UNL A   1      34.221  22.190  25.357  1.00  0.00    -0.002 A 
ATOM     10  C   UNL A   1      34.136  20.802  25.288  1.00  0.00     0.093 A 
ATOM     11  N   UNL A   1      35.420  20.308  25.324  1.00  0.00    -0.351 N 
ATOM     12  C   UNL A   1      36.323  21.316  25.544  1.00  0.00     0.049 A 
ATOM     13  H   UNL A   1      35.658  19.360  25.205  1.00  0.00     0.167 HD
ATOM     14  C   UNL A   1      35.605  22.510  25.574  1.00  0.00     0.004 A 
ATOM     15  C   UNL A   1      37.712  21.260  25.707  1.00  0.00     0.066 A 
ATOM     16  C   UNL A   1      36.314  23.715  25.785  1.00  0.00     0.013 A 
ATOM     17  C   UNL A   1      38.377  22.466  25.915  1.00  0.00     0.125 A 
ATOM     18  C   UNL A   1      37.704  23.678  25.955  1.00  0.00     0.040 A 
ATOM     19  F   UNL A   1      39.706  22.452  26.085  1.00  0.00    -0.207 F 
BRANCH  10  20
ATOM     20  C   UNL A   1      32.972  19.946  25.132  1.00  0.00     0.227 C 
ATOM     21  O   UNL A   1      31.837  20.410  25.152  1.00  0.00    -0.285 OA
BRANCH  20  22
ATOM     22  C   UNL A   1      33.201  18.472  24.887  1.00  0.00     0.113 A 
ATOM     23  C   UNL A   1      32.177  15.047  26.168  1.00  0.00     0.044 C 
ATOM     24  C   UNL A   1      32.837  16.141  25.382  1.00  0.00    -0.047 A 
ATOM     25  C   UNL A   1      33.749  15.831  24.373  1.00  0.00     0.023 A 
ATOM     26  C   UNL A   1      32.545  17.487  25.628  1.00  0.00     0.036 A 
ATOM     27  C   UNL A   1      34.343  16.867  23.673  1.00  0.00     0.112 A 
ATOM     28  N   UNL A   1      34.100  18.171  23.913  1.00  0.00    -0.253 NA
ENDBRANCH  20  22
ENDBRANCH  10  20
ENDBRANCH   8   9
ENDBRANCH   5   8
ENDBRANCH   3   4
ENDBRANCH   2   3
ENDBRANCH   1   2
BRANCH   1  29
ATOM     29  C   UNL A   1      33.282  28.139  26.834  1.00  0.00     0.002 C 
BRANCH  29  30
ATOM     30  C   UNL A   1      33.816  29.564  27.023  1.00  0.00     0.021 C 
BRANCH  30  31
ATOM     31  C   UNL A   1      35.208  29.678  27.646  1.00  0.00     0.116 C 
BRANCH  31  32
ATOM     32  N   UNL A   1      35.172  30.210  28.997  1.00  0.00    -0.352 N 
ATOM     33  C   UNL A   1      36.167  30.268  29.942  1.00  0.00     0.251 C 
ATOM     34  H   UNL A   1      34.306  30.585  29.278  1.00  0.00     0.163 HD
ATOM     35  O   UNL A   1      35.895  30.627  31.085  1.00  0.00    -0.269 OA
BRANCH  33  36
ATOM     36  C   UNL A   1      37.559  29.882  29.608  1.00  0.00     0.039 A 
ATOM     37  C   UNL A   1      38.416  29.512  30.652  1.00  0.00     0.014 A 
ATOM     38  C   UNL A   1      38.043  29.944  28.298  1.00  0.00     0.014 A 
ATOM     39  C   UNL A   1      39.740  29.154  30.379  1.00  0.00     0.010 A 
ATOM     40  C   UNL A   1      39.362  29.570  28.023  1.00  0.00     0.010 A 
ATOM     41  C   UNL A   1      40.219  29.169  29.061  1.00  0.00    -0.014 A 
BRANCH  41  42
ATOM     42  C   UNL A   1      41.612  28.765  28.753  1.00  0.00     0.031 A 
ATOM     43  C   UNL A   1      42.725  29.771  28.801  1.00  0.00     0.074 A 
ATOM     44  C   UNL A   1      41.873  27.497  28.386  1.00  0.00     0.049 A 
ATOM     45  N   UNL A   1      43.981  29.625  28.462  1.00  0.00    -0.248 NA
ATOM     46  C   UNL A   1      42.380  31.117  29.283  1.00  0.00     0.031 C 
ATOM     47  C   UNL A   1      40.884  26.423  28.284  1.00  0.00     0.029 A 
ATOM     48  N   UNL A   1      43.054  26.902  28.019  1.00  0.00    -0.354 N 
ATOM     49  C   UNL A   1      44.571  30.866  28.656  1.00  0.00     0.074 A 
ATOM     50  C   UNL A   1      43.539  31.750  29.156  1.00  0.00     0.031 C 
ATOM     51  C   UNL A   1      41.501  25.299  27.881  1.00  0.00     0.029 A 
ATOM     52  C   UNL A   1      42.920  25.578  27.682  1.00  0.00     0.049 A 
ATOM     53  H   UNL A   1      43.914  27.380  27.999  1.00  0.00     0.167 HD
ATOM     54  C   UNL A   1      45.853  31.241  28.427  1.00  0.00     0.031 A 
ATOM     55  C   UNL A   1      43.834  24.689  27.250  1.00  0.00     0.031 A 
ATOM     56  C   UNL A   1      46.891  30.373  27.944  1.00  0.00     0.049 A 
ATOM     57  C   UNL A   1      45.264  25.110  27.073  1.00  0.00     0.074 A 
ATOM     58  C   UNL A   1      48.212  30.677  27.661  1.00  0.00     0.029 A 
ATOM     59  N   UNL A   1      46.729  29.021  27.687  1.00  0.00    -0.354 N 
ATOM     60  N   UNL A   1      45.795  26.296  27.236  1.00  0.00    -0.248 NA
ATOM     61  C   UNL A   1      46.214  24.068  26.658  1.00  0.00     0.031 C 
ATOM     62  C   UNL A   1      48.852  29.504  27.237  1.00  0.00     0.029 A 
ATOM     63  C   UNL A   1      47.928  28.472  27.263  1.00  0.00     0.049 A 
ATOM     64  H   UNL A   1      45.886  28.524  27.790  1.00  0.00     0.167 HD
ATOM     65  C   UNL A   1      47.144  26.146  26.938  1.00  0.00     0.074 A 
ATOM     66  C   UNL A   1      47.349  24.753  26.599  1.00  0.00     0.031 C 
ATOM     67  C   UNL A   1      48.121  27.084  26.937  1.00  0.00     0.031 A 
BRANCH  54  68
ATOM     68  C   UNL A   1      46.183  32.684  28.675  1.00  0.00    -0.014 A 
ATOM     69  C   UNL A   1      46.528  33.129  29.962  1.00  0.00     0.010 A 
ATOM     70  C   UNL A   1      46.129  33.603  27.614  1.00  0.00     0.010 A 
ATOM     71  C   UNL A   1      46.776  34.485  30.193  1.00  0.00     0.020 A 
ATOM     72  C   UNL A   1      46.383  34.958  27.839  1.00  0.00     0.020 A 
ATOM     73  C   UNL A   1      46.685  35.393  29.133  1.00  0.00     0.054 A 
BRANCH  73  74
ATOM     74  S   UNL A   1      46.987  37.157  29.430  1.00  0.00     0.124 S 
ATOM     75  O   UNL A   1      48.245  37.124  30.171  1.00  0.00    -0.237 OA
ATOM     76  O   UNL A   1      47.068  37.717  28.085  1.00  0.00    -0.237 OA
ATOM     77  O   UNL A   1      45.817  37.571  30.202  1.00  0.00    -0.744 OA
ENDBRANCH  73  74
ENDBRANCH  54  68
BRANCH  55  78
ATOM     78  C   UNL A   1      43.412  23.299  26.953  1.00  0.00    -0.014 A 
ATOM     79  C   UNL A   1      43.735  22.713  25.717  1.00  0.00     0.010 A 
ATOM     80  C   UNL A   1      42.728  22.548  27.921  1.00  0.00     0.010 A 
ATOM     81  C   UNL A   1      43.382  21.388  25.454  1.00  0.00     0.020 A 
ATOM     82  C   UNL A   1      42.380  21.220  27.663  1.00  0.00     0.020 A 
ATOM     83  C   UNL A   1      42.706  20.650  26.430  1.00  0.00     0.054 A 
BRANCH  83  84
ATOM     84  S   UNL A   1      42.322  18.901  26.130  1.00  0.00     0.124 S 
ATOM     85  O   UNL A   1      40.905  18.957  25.786  1.00  0.00    -0.237 OA
ATOM     86  O   UNL A   1      43.222  18.543  25.037  1.00  0.00    -0.237 OA
ATOM     87  O   UNL A   1      42.636  18.275  27.413  1.00  0.00    -0.744 OA
ENDBRANCH  83  84
ENDBRANCH  55  78
BRANCH  67  88
ATOM     88  C   UNL A   1      49.501  26.628  26.567  1.00  0.00    -0.014 A 
ATOM     89  C   UNL A   1      49.932  26.678  25.230  1.00  0.00     0.010 A 
ATOM     90  C   UNL A   1      50.381  26.172  27.563  1.00  0.00     0.010 A 
ATOM     91  C   UNL A   1      51.221  26.259  24.890  1.00  0.00     0.020 A 
ATOM     92  C   UNL A   1      51.672  25.757  27.226  1.00  0.00     0.020 A 
ATOM     93  C   UNL A   1      52.080  25.792  25.890  1.00  0.00     0.054 A 
BRANCH  93  94
ATOM     94  S   UNL A   1      53.766  25.281  25.455  1.00  0.00     0.124 S 
ATOM     95  O   UNL A   1      54.264  24.765  26.727  1.00  0.00    -0.237 OA
ATOM     96  O   UNL A   1      53.554  24.280  24.411  1.00  0.00    -0.237 OA
ATOM     97  O   UNL A   1      54.386  26.523  24.997  1.00  0.00    -0.744 OA
ENDBRANCH  93  94
ENDBRANCH  67  88
ENDBRANCH  41  42
ENDBRANCH  33  36
ENDBRANCH  31  32
ENDBRANCH  30  31
ENDBRANCH  29  30
ENDBRANCH   1  29
TORSDOF 19
ENDMDL
MODEL 2
REMARK VINA RESULT:     -12.2      3.209      3.863
REMARK SMILES Cc1ccnc(C(=O)c2[nH]c3cc(F)ccc3c2CC(=O)NCCCCCCNC(=O)c2ccc(-c3c4nc(c(-c5ccc(S(=O)(=O)[O-])cc5)c5ccc([nH]5)c(-c5ccc(S(=O)(=O)[O-])cc5)c5nc(c(-c6ccc(S(=O)(=O)[O-])cc6)c6ccc3[nH]6)C=C5)C=C4)cc2)c1
REMARK SMILES IDX 25 1 24 2 23 3 22 4 20 5 21 6 19 8 18 9 9 10 10 11 11 12
REMARK SMILES IDX 17 14 12 15 16 16 13 17 15 18 14 19 7 20 8 21 6 22 1 23 2 24
REMARK SMILES IDX 3 25 92 26 4 27 5 28 26 29 27 30 28 31 29 32 30 33 31 35
REMARK SMILES IDX 32 36 33 37 91 38 34 39 90 40 35 41 36 42 37 43 84 44 38 45
REMARK SMILES IDX 89 46 83 47 85 48 39 49 88 50 82 51 81 52 40 54 70 55 51 56
REMARK SMILES IDX 69 57 52 58 55 59 68 60 86 61 53 62 54 63 67 65 87 66 56 67
REMARK SMILES IDX 41 68 42 69 50 70 43 71 49 72 44 73 45 74 46 75 47 76 48 77
REMARK SMILES IDX 71 78 72 79 80 80 73 81 79 82 74 83 75 84 76 85 77 86 78 87
REMARK SMILES IDX 57 88 58 89 66 90 59 91 65 92 60 93 61 94 62 95 63 96 64 97
REMARK H PARENT 22 7 10 13 29 34 85 53 55 64
REMARK Flexibility Score: inf
ROOT
ATOM      1  C   UNL A   1      31.957  26.529  23.504  1.00  0.00     0.002 C 
ENDROOT
BRANCH   1   2
ATOM      2  C   UNL A   1      32.767  26.361  22.213  1.00  0.00     0.021 C 
BRANCH   2   3
ATOM      3  C   UNL A   1      33.736  25.179  22.206  1.00  0.00     0.116 C 
BRANCH   3   4
ATOM      4  N   UNL A   1      33.080  23.915  21.936  1.00  0.00    -0.356 N 
ATOM      5  C   UNL A   1      32.696  22.937  22.807  1.00  0.00     0.224 C 
ATOM      6  O   UNL A   1      32.029  21.994  22.373  1.00  0.00    -0.275 OA
ATOM      7  H   UNL A   1      32.884  23.736  20.988  1.00  0.00     0.163 HD
BRANCH   5   8
ATOM      8  C   UNL A   1      32.979  23.066  24.295  1.00  0.00     0.138 C 
BRANCH   8   9
ATOM      9  C   UNL A   1      34.085  22.192  24.816  1.00  0.00    -0.002 A 
ATOM     10  C   UNL A   1      34.013  20.845  25.161  1.00  0.00     0.093 A 
ATOM     11  N   UNL A   1      35.276  20.445  25.530  1.00  0.00    -0.351 N 
ATOM     12  C   UNL A   1      36.135  21.514  25.560  1.00  0.00     0.049 A 
ATOM     13  H   UNL A   1      35.530  19.518  25.740  1.00  0.00     0.167 HD
ATOM     14  C   UNL A   1      35.420  22.627  25.123  1.00  0.00     0.004 A 
ATOM     15  C   UNL A   1      37.484  21.574  25.931  1.00  0.00     0.066 A 
ATOM     16  C   UNL A   1      36.088  23.871  25.057  1.00  0.00     0.013 A 
ATOM     17  C   UNL A   1      38.109  22.817  25.856  1.00  0.00     0.125 A 
ATOM     18  C   UNL A   1      37.436  23.952  25.429  1.00  0.00     0.040 A 
ATOM     19  F   UNL A   1      39.397  22.917  26.211  1.00  0.00    -0.207 F 
BRANCH  10  20
ATOM     20  C   UNL A   1      32.886  19.928  25.107  1.00  0.00     0.227 C 
ATOM     21  O   UNL A   1      31.733  20.336  25.197  1.00  0.00    -0.285 OA
BRANCH  20  22
ATOM     22  C   UNL A   1      33.173  18.462  24.879  1.00  0.00     0.113 A 
ATOM     23  C   UNL A   1      32.066  15.004  25.990  1.00  0.00     0.044 C 
ATOM     24  C   UNL A   1      32.797  16.119  25.303  1.00  0.00    -0.047 A 
ATOM     25  C   UNL A   1      33.834  15.837  24.413  1.00  0.00     0.023 A 
ATOM     26  C   UNL A   1      32.450  17.456  25.523  1.00  0.00     0.036 A 
ATOM     27  C   UNL A   1      34.490  16.892  23.802  1.00  0.00     0.112 A 
ATOM     28  N   UNL A   1      34.192  18.189  24.022  1.00  0.00    -0.253 NA
ENDBRANCH  20  22
ENDBRANCH  10  20
ENDBRANCH   8   9
ENDBRANCH   5   8
ENDBRANCH   3   4
ENDBRANCH   2   3
ENDBRANCH   1   2
BRANCH   1  29
ATOM     29  C   UNL A   1      32.122  27.867  24.233  1.00  0.00     0.002 C 
BRANCH  29  30
ATOM     30  C   UNL A   1      33.557  28.390  24.372  1.00  0.00     0.021 C 
BRANCH  30  31
ATOM     31  C   UNL A   1      34.094  28.495  25.801  1.00  0.00     0.116 C 
BRANCH  31  32
ATOM     32  N   UNL A   1      33.721  29.742  26.445  1.00  0.00    -0.352 N 
ATOM     33  C   UNL A   1      34.373  30.449  27.426  1.00  0.00     0.251 C 
ATOM     34  H   UNL A   1      32.876  30.140  26.133  1.00  0.00     0.163 HD
ATOM     35  O   UNL A   1      33.818  31.414  27.946  1.00  0.00    -0.269 OA
BRANCH  33  36
ATOM     36  C   UNL A   1      35.726  30.052  27.881  1.00  0.00     0.039 A 
ATOM     37  C   UNL A   1      35.880  29.594  29.196  1.00  0.00     0.014 A 
ATOM     38  C   UNL A   1      36.847  30.184  27.055  1.00  0.00     0.014 A 
ATOM     39  C   UNL A   1      37.142  29.222  29.666  1.00  0.00     0.010 A 
ATOM     40  C   UNL A   1      38.106  29.796  27.520  1.00  0.00     0.010 A 
ATOM     41  C   UNL A   1      38.263  29.309  28.828  1.00  0.00    -0.014 A 
BRANCH  41  42
ATOM     42  C   UNL A   1      39.604  28.891  29.304  1.00  0.00     0.031 A 
ATOM     43  C   UNL A   1      40.439  29.818  30.139  1.00  0.00     0.074 A 
ATOM     44  C   UNL A   1      40.093  27.689  28.949  1.00  0.00     0.049 A 
ATOM     45  N   UNL A   1      41.671  29.666  30.554  1.00  0.00    -0.248 NA
ATOM     46  C   UNL A   1      39.812  31.082  30.552  1.00  0.00     0.031 C 
ATOM     47  C   UNL A   1      39.394  26.697  28.130  1.00  0.00     0.029 A 
ATOM     48  N   UNL A   1      41.303  27.103  29.225  1.00  0.00    -0.354 N 
ATOM     49  C   UNL A   1      41.981  30.828  31.248  1.00  0.00     0.074 A 
ATOM     50  C   UNL A   1      40.803  31.669  31.211  1.00  0.00     0.031 C 
ATOM     51  C   UNL A   1      40.188  25.625  27.971  1.00  0.00     0.029 A 
ATOM     52  C   UNL A   1      41.453  25.861  28.661  1.00  0.00     0.049 A 
ATOM     53  H   UNL A   1      41.996  27.534  29.776  1.00  0.00     0.167 HD
ATOM     54  C   UNL A   1      43.145  31.170  31.852  1.00  0.00     0.031 A 
ATOM     55  C   UNL A   1      42.496  25.010  28.686  1.00  0.00     0.031 A 
ATOM     56  C   UNL A   1      44.317  30.341  31.910  1.00  0.00     0.049 A 
ATOM     57  C   UNL A   1      43.749  25.381  29.424  1.00  0.00     0.074 A 
ATOM     58  C   UNL A   1      45.548  30.620  32.481  1.00  0.00     0.029 A 
ATOM     59  N   UNL A   1      44.401  29.059  31.390  1.00  0.00    -0.354 N 
ATOM     60  N   UNL A   1      44.032  26.496  30.050  1.00  0.00    -0.248 NA
ATOM     61  C   UNL A   1      44.821  24.375  29.458  1.00  0.00     0.031 C 
ATOM     62  C   UNL A   1      46.375  29.502  32.310  1.00  0.00     0.029 A 
ATOM     63  C   UNL A   1      45.655  28.528  31.638  1.00  0.00     0.049 A 
ATOM     64  H   UNL A   1      43.675  28.595  30.914  1.00  0.00     0.167 HD
ATOM     65  C   UNL A   1      45.317  26.329  30.551  1.00  0.00     0.074 A 
ATOM     66  C   UNL A   1      45.751  25.002  30.166  1.00  0.00     0.031 C 
ATOM     67  C   UNL A   1      46.071  27.204  31.258  1.00  0.00     0.031 A 
BRANCH  54  68
ATOM     68  C   UNL A   1      43.200  32.534  32.475  1.00  0.00    -0.014 A 
ATOM     69  C   UNL A   1      42.824  32.725  33.815  1.00  0.00     0.010 A 
ATOM     70  C   UNL A   1      43.614  33.635  31.707  1.00  0.00     0.010 A 
ATOM     71  C   UNL A   1      42.823  34.009  34.369  1.00  0.00     0.020 A 
ATOM     72  C   UNL A   1      43.622  34.918  32.258  1.00  0.00     0.020 A 
ATOM     73  C   UNL A   1      43.206  35.099  33.580  1.00  0.00     0.054 A 
BRANCH  73  74
ATOM     74  S   UNL A   1      43.188  36.771  34.286  1.00  0.00     0.124 S 
ATOM     75  O   UNL A   1      44.321  36.717  35.207  1.00  0.00    -0.237 OA
ATOM     76  O   UNL A   1      43.369  37.631  33.120  1.00  0.00    -0.237 OA
ATOM     77  O   UNL A   1      41.872  36.854  34.916  1.00  0.00    -0.744 OA
ENDBRANCH  73  74
ENDBRANCH  54  68
BRANCH  55  78
ATOM     78  C   UNL A   1      42.391  23.711  27.980  1.00  0.00    -0.014 A 
ATOM     79  C   UNL A   1      42.877  23.580  26.668  1.00  0.00     0.010 A 
ATOM     80  C   UNL A   1      41.845  22.594  28.634  1.00  0.00     0.010 A 
ATOM     81  C   UNL A   1      42.824  22.344  26.019  1.00  0.00     0.020 A 
ATOM     82  C   UNL A   1      41.797  21.356  27.990  1.00  0.00     0.020 A 
ATOM     83  C   UNL A   1      42.284  21.240  26.685  1.00  0.00     0.054 A 
BRANCH  83  84
ATOM     84  S   UNL A   1      42.292  19.612  25.881  1.00  0.00     0.124 S 
ATOM     85  O   UNL A   1      42.673  18.733  26.981  1.00  0.00    -0.237 OA
ATOM     86  O   UNL A   1      40.919  19.468  25.404  1.00  0.00    -0.237 OA
ATOM     87  O   UNL A   1      43.292  19.776  24.827  1.00  0.00    -0.744 OA
ENDBRANCH  83  84
ENDBRANCH  55  78
BRANCH  67  88
ATOM     88  C   UNL A   1      47.439  26.746  31.668  1.00  0.00    -0.014 A 
ATOM     89  C   UNL A   1      48.548  26.987  30.839  1.00  0.00     0.010 A 
ATOM     90  C   UNL A   1      47.622  26.094  32.900  1.00  0.00     0.010 A 
ATOM     91  C   UNL A   1      49.822  26.566  31.228  1.00  0.00     0.020 A 
ATOM     92  C   UNL A   1      48.896  25.676  33.293  1.00  0.00     0.020 A 
ATOM     93  C   UNL A   1      49.987  25.904  32.449  1.00  0.00     0.054 A 
BRANCH  93  94
ATOM     94  S   UNL A   1      51.646  25.386  32.971  1.00  0.00     0.124 S 
ATOM     95  O   UNL A   1      52.247  26.655  33.371  1.00  0.00    -0.237 OA
ATOM     96  O   UNL A   1      51.377  24.447  34.058  1.00  0.00    -0.237 OA
ATOM     97  O   UNL A   1      52.204  24.782  31.763  1.00  0.00    -0.744 OA
ENDBRANCH  93  94
ENDBRANCH  67  88
ENDBRANCH  41  42
ENDBRANCH  33  36
ENDBRANCH  31  32
ENDBRANCH  30  31
ENDBRANCH  29  30
ENDBRANCH   1  29
TORSDOF 19
ENDMDL
MODEL 3
REMARK VINA RESULT:     -12.1      5.197      6.745
REMARK SMILES Cc1ccnc(C(=O)c2[nH]c3cc(F)ccc3c2CC(=O)NCCCCCCNC(=O)c2ccc(-c3c4nc(c(-c5ccc(S(=O)(=O)[O-])cc5)c5ccc([nH]5)c(-c5ccc(S(=O)(=O)[O-])cc5)c5nc(c(-c6ccc(S(=O)(=O)[O-])cc6)c6ccc3[nH]6)C=C5)C=C4)cc2)c1
REMARK SMILES IDX 25 1 24 2 23 3 22 4 20 5 21 6 19 8 18 9 9 10 10 11 11 12
REMARK SMILES IDX 17 14 12 15 16 16 13 17 15 18 14 19 7 20 8 21 6 22 1 23 2 24
REMARK SMILES IDX 3 25 92 26 4 27 5 28 26 29 27 30 28 31 29 32 30 33 31 35
REMARK SMILES IDX 32 36 33 37 91 38 34 39 90 40 35 41 36 42 37 43 84 44 38 45
REMARK SMILES IDX 89 46 83 47 85 48 39 49 88 50 82 51 81 52 40 54 70 55 51 56
REMARK SMILES IDX 69 57 52 58 55 59 68 60 86 61 53 62 54 63 67 65 87 66 56 67
REMARK SMILES IDX 41 68 42 69 50 70 43 71 49 72 44 73 45 74 46 75 47 76 48 77
REMARK SMILES IDX 71 78 72 79 80 80 73 81 79 82 74 83 75 84 76 85 77 86 78 87
REMARK SMILES IDX 57 88 58 89 66 90 59 91 65 92 60 93 61 94 62 95 63 96 64 97
REMARK H PARENT 22 7 10 13 29 34 85 53 55 64
REMARK Flexibility Score: inf
ROOT
ATOM      1  C   UNL A   1      31.277  27.272  26.854  1.00  0.00     0.002 C 
ENDROOT
BRANCH   1   2
ATOM      2  C   UNL A   1      31.818  25.888  26.476  1.00  0.00     0.021 C 
BRANCH   2   3
ATOM      3  C   UNL A   1      30.758  24.797  26.325  1.00  0.00     0.116 C 
BRANCH   3   4
ATOM      4  N   UNL A   1      31.293  23.563  25.787  1.00  0.00    -0.356 N 
ATOM      5  C   UNL A   1      31.232  23.075  24.513  1.00  0.00     0.224 C 
ATOM      6  O   UNL A   1      31.875  22.058  24.242  1.00  0.00    -0.275 OA
ATOM      7  H   UNL A   1      31.770  22.993  26.433  1.00  0.00     0.163 HD
BRANCH   5   8
ATOM      8  C   UNL A   1      30.487  23.833  23.427  1.00  0.00     0.138 C 
BRANCH   8   9
ATOM      9  C   UNL A   1      31.141  25.107  22.969  1.00  0.00    -0.002 A 
ATOM     10  C   UNL A   1      32.429  25.267  22.464  1.00  0.00     0.093 A 
ATOM     11  N   UNL A   1      32.576  26.591  22.119  1.00  0.00    -0.351 N 
ATOM     12  C   UNL A   1      31.477  27.318  22.502  1.00  0.00     0.049 A 
ATOM     13  H   UNL A   1      33.361  26.965  21.658  1.00  0.00     0.167 HD
ATOM     14  C   UNL A   1      30.559  26.419  23.042  1.00  0.00     0.004 A 
ATOM     15  C   UNL A   1      31.227  28.691  22.400  1.00  0.00     0.066 A 
ATOM     16  C   UNL A   1      29.325  26.922  23.513  1.00  0.00     0.013 A 
ATOM     17  C   UNL A   1      30.002  29.151  22.878  1.00  0.00     0.125 A 
ATOM     18  C   UNL A   1      29.060  28.294  23.426  1.00  0.00     0.040 A 
ATOM     19  F   UNL A   1      29.731  30.461  22.807  1.00  0.00    -0.207 F 
BRANCH  10  20
ATOM     20  C   UNL A   1      33.469  24.279  22.234  1.00  0.00     0.227 C 
ATOM     21  O   UNL A   1      33.556  23.687  21.163  1.00  0.00    -0.285 OA
BRANCH  20  22
ATOM     22  C   UNL A   1      34.479  24.040  23.333  1.00  0.00     0.113 A 
ATOM     23  C   UNL A   1      37.233  21.643  24.377  1.00  0.00     0.044 C 
ATOM     24  C   UNL A   1      36.261  22.785  24.365  1.00  0.00    -0.047 A 
ATOM     25  C   UNL A   1      36.227  23.693  25.424  1.00  0.00     0.023 A 
ATOM     26  C   UNL A   1      35.383  22.976  23.292  1.00  0.00     0.036 A 
ATOM     27  C   UNL A   1      35.312  24.731  25.379  1.00  0.00     0.112 A 
ATOM     28  N   UNL A   1      34.436  24.917  24.371  1.00  0.00    -0.253 NA
ENDBRANCH  20  22
ENDBRANCH  10  20
ENDBRANCH   8   9
ENDBRANCH   5   8
ENDBRANCH   3   4
ENDBRANCH   2   3
ENDBRANCH   1   2
BRANCH   1  29
ATOM     29  C   UNL A   1      31.841  28.455  26.060  1.00  0.00     0.002 C 
BRANCH  29  30
ATOM     30  C   UNL A   1      33.256  28.277  25.493  1.00  0.00     0.021 C 
BRANCH  30  31
ATOM     31  C   UNL A   1      34.377  28.975  26.266  1.00  0.00     0.116 C 
BRANCH  31  32
ATOM     32  N   UNL A   1      34.001  30.305  26.712  1.00  0.00    -0.352 N 
ATOM     33  C   UNL A   1      34.561  31.089  27.691  1.00  0.00     0.251 C 
ATOM     34  H   UNL A   1      33.231  30.702  26.245  1.00  0.00     0.163 HD
ATOM     35  O   UNL A   1      34.003  32.134  28.021  1.00  0.00    -0.269 OA
BRANCH  33  36
ATOM     36  C   UNL A   1      35.815  30.685  28.369  1.00  0.00     0.039 A 
ATOM     37  C   UNL A   1      35.745  29.716  29.378  1.00  0.00     0.014 A 
ATOM     38  C   UNL A   1      37.039  31.291  28.068  1.00  0.00     0.014 A 
ATOM     39  C   UNL A   1      36.904  29.318  30.049  1.00  0.00     0.010 A 
ATOM     40  C   UNL A   1      38.201  30.879  28.728  1.00  0.00     0.010 A 
ATOM     41  C   UNL A   1      38.143  29.888  29.721  1.00  0.00    -0.014 A 
BRANCH  41  42
ATOM     42  C   UNL A   1      39.385  29.454  30.405  1.00  0.00     0.031 A 
ATOM     43  C   UNL A   1      39.853  30.152  31.649  1.00  0.00     0.074 A 
ATOM     44  C   UNL A   1      40.121  28.456  29.882  1.00  0.00     0.049 A 
ATOM     45  N   UNL A   1      40.964  29.981  32.319  1.00  0.00    -0.248 NA
ATOM     46  C   UNL A   1      38.962  31.181  32.205  1.00  0.00     0.031 C 
ATOM     47  C   UNL A   1      39.790  27.703  28.671  1.00  0.00     0.029 A 
ATOM     48  N   UNL A   1      41.309  27.913  30.301  1.00  0.00    -0.354 N 
ATOM     49  C   UNL A   1      40.925  30.903  33.357  1.00  0.00     0.074 A 
ATOM     50  C   UNL A   1      39.672  31.620  33.236  1.00  0.00     0.031 C 
ATOM     51  C   UNL A   1      40.754  26.794  28.446  1.00  0.00     0.029 A 
ATOM     52  C   UNL A   1      41.774  26.912  29.485  1.00  0.00     0.049 A 
ATOM     53  H   UNL A   1      41.782  28.213  31.111  1.00  0.00     0.167 HD
ATOM     54  C   UNL A   1      41.851  31.140  34.317  1.00  0.00     0.031 A 
ATOM     55  C   UNL A   1      42.900  26.178  29.556  1.00  0.00     0.031 A 
ATOM     56  C   UNL A   1      43.091  30.427  34.458  1.00  0.00     0.049 A 
ATOM     57  C   UNL A   1      43.877  26.410  30.671  1.00  0.00     0.074 A 
ATOM     58  C   UNL A   1      44.099  30.620  35.388  1.00  0.00     0.029 A 
ATOM     59  N   UNL A   1      43.487  29.371  33.654  1.00  0.00    -0.354 N 
ATOM     60  N   UNL A   1      43.834  27.305  31.626  1.00  0.00    -0.248 NA
ATOM     61  C   UNL A   1      45.053  25.528  30.716  1.00  0.00     0.031 C 
ATOM     62  C   UNL A   1      45.104  29.673  35.149  1.00  0.00     0.029 A 
ATOM     63  C   UNL A   1      44.716  28.891  34.073  1.00  0.00     0.049 A 
ATOM     64  H   UNL A   1      42.971  29.015  32.895  1.00  0.00     0.167 HD
ATOM     65  C   UNL A   1      44.979  27.098  32.385  1.00  0.00     0.074 A 
ATOM     66  C   UNL A   1      45.687  25.986  31.787  1.00  0.00     0.031 C 
ATOM     67  C   UNL A   1      45.406  27.779  33.475  1.00  0.00     0.031 A 
BRANCH  54  68
ATOM     68  C   UNL A   1      41.551  32.255  35.275  1.00  0.00    -0.014 A 
ATOM     69  C   UNL A   1      40.875  32.002  36.480  1.00  0.00     0.010 A 
ATOM     70  C   UNL A   1      41.935  33.569  34.958  1.00  0.00     0.010 A 
ATOM     71  C   UNL A   1      40.550  33.056  37.339  1.00  0.00     0.020 A 
ATOM     72  C   UNL A   1      41.618  34.624  35.815  1.00  0.00     0.020 A 
ATOM     73  C   UNL A   1      40.908  34.363  36.991  1.00  0.00     0.054 A 
BRANCH  73  74
ATOM     74  S   UNL A   1      40.472  35.738  38.091  1.00  0.00     0.124 S 
ATOM     75  O   UNL A   1      41.771  36.090  38.659  1.00  0.00    -0.237 OA
ATOM     76  O   UNL A   1      39.897  36.726  37.183  1.00  0.00    -0.237 OA
ATOM     77  O   UNL A   1      39.524  35.132  39.025  1.00  0.00    -0.744 OA
ENDBRANCH  73  74
ENDBRANCH  54  68
BRANCH  55  78
ATOM     78  C   UNL A   1      43.161  25.146  28.524  1.00  0.00    -0.014 A 
ATOM     79  C   UNL A   1      42.597  23.865  28.650  1.00  0.00     0.010 A 
ATOM     80  C   UNL A   1      43.935  25.457  27.394  1.00  0.00     0.010 A 
ATOM     81  C   UNL A   1      42.800  22.907  27.654  1.00  0.00     0.020 A 
ATOM     82  C   UNL A   1      44.134  24.503  26.394  1.00  0.00     0.020 A 
ATOM     83  C   UNL A   1      43.568  23.232  26.533  1.00  0.00     0.054 A 
BRANCH  83  84
ATOM     84  S   UNL A   1      43.764  22.022  25.193  1.00  0.00     0.124 S 
ATOM     85  O   UNL A   1      45.151  21.603  25.364  1.00  0.00    -0.237 OA
ATOM     86  O   UNL A   1      42.756  21.012  25.506  1.00  0.00    -0.237 OA
ATOM     87  O   UNL A   1      43.486  22.814  23.997  1.00  0.00    -0.744 OA
ENDBRANCH  83  84
ENDBRANCH  55  78
BRANCH  67  88
ATOM     88  C   UNL A   1      46.696  27.329  34.095  1.00  0.00    -0.014 A 
ATOM     89  C   UNL A   1      47.917  27.889  33.681  1.00  0.00     0.010 A 
ATOM     90  C   UNL A   1      46.687  26.362  35.114  1.00  0.00     0.010 A 
ATOM     91  C   UNL A   1      49.116  27.473  34.265  1.00  0.00     0.020 A 
ATOM     92  C   UNL A   1      47.884  25.947  35.703  1.00  0.00     0.020 A 
ATOM     93  C   UNL A   1      49.093  26.497  35.266  1.00  0.00     0.054 A 
BRANCH  93  94
ATOM     94  S   UNL A   1      50.646  25.980  36.050  1.00  0.00     0.124 S 
ATOM     95  O   UNL A   1      50.393  26.288  37.455  1.00  0.00    -0.237 OA
ATOM     96  O   UNL A   1      50.729  24.558  35.724  1.00  0.00    -0.237 OA
ATOM     97  O   UNL A   1      51.647  26.820  35.395  1.00  0.00    -0.744 OA
ENDBRANCH  93  94
ENDBRANCH  67  88
ENDBRANCH  41  42
ENDBRANCH  33  36
ENDBRANCH  31  32
ENDBRANCH  30  31
ENDBRANCH  29  30
ENDBRANCH   1  29
TORSDOF 19
ENDMDL
