MODEL 1
REMARK VINA RESULT:     -10.8      0.000      0.000
REMARK SMILES Cc1nn(C(C)C)c(C)c1S(=O)(=O)Nc1cccc(C(=O)NCCCCCCNC(=O)c2ccc(-c3c4nc(c(-c5ccc(S(=O)(=O)[O-])cc5)c5ccc([nH]5)c(-c5ccc(S(=O)(=O)[O-])cc5)c5nc(c(-c6ccc(S(=O)(=O)[O-])cc6)c6ccc3[nH]6)C=C5)C=C4)cc2)c1C
REMARK SMILES IDX 25 1 24 2 23 3 22 4 20 5 21 6 19 8 15 9 16 10 92 11 17 12
REMARK SMILES IDX 93 13 18 14 14 15 11 17 12 18 13 19 10 20 1 21 2 22 3 23
REMARK SMILES IDX 4 24 8 25 9 26 5 27 6 28 7 29 26 30 27 31 28 32 29 33 30 34
REMARK SMILES IDX 31 36 32 37 33 38 91 39 34 40 90 41 35 42 36 43 37 44 84 45
REMARK SMILES IDX 38 46 89 47 83 48 85 49 39 50 88 51 82 52 81 53 40 55 70 56
REMARK SMILES IDX 51 57 69 58 52 59 55 60 68 61 86 62 53 63 54 64 67 66 87 67
REMARK SMILES IDX 56 68 41 69 42 70 50 71 43 72 49 73 44 74 45 75 46 76 47 77
REMARK SMILES IDX 48 78 71 79 72 80 80 81 73 82 79 83 74 84 75 85 76 86 77 87
REMARK SMILES IDX 78 88 57 89 58 90 66 91 59 92 65 93 60 94 61 95 62 96 63 97
REMARK SMILES IDX 64 98
REMARK H PARENT 22 7 14 16 29 35 85 54 55 65
REMARK Flexibility Score: inf
ROOT
ATOM      1  C   UNL A   1      37.965  24.040  26.523  1.00  0.00     0.002 C 
ENDROOT
BRANCH   1   2
ATOM      2  C   UNL A   1      37.796  23.087  25.328  1.00  0.00     0.021 C 
BRANCH   2   3
ATOM      3  C   UNL A   1      37.163  21.735  25.665  1.00  0.00     0.116 C 
BRANCH   3   4
ATOM      4  N   UNL A   1      35.995  21.901  26.504  1.00  0.00    -0.352 N 
ATOM      5  C   UNL A   1      34.641  21.929  26.303  1.00  0.00     0.251 C 
ATOM      6  O   UNL A   1      33.986  21.965  27.345  1.00  0.00    -0.269 OA
ATOM      7  H   UNL A   1      36.231  22.025  27.451  1.00  0.00     0.163 HD
BRANCH   5   8
ATOM      8  C   UNL A   1      33.956  21.836  24.959  1.00  0.00     0.044 A 
ATOM      9  C   UNL A   1      32.965  22.981  23.029  1.00  0.00     0.053 A 
ATOM     10  C   UNL A   1      32.311  21.814  22.645  1.00  0.00     0.027 A 
ATOM     11  C   UNL A   1      33.894  22.971  24.104  1.00  0.00    -0.014 A 
ATOM     12  C   UNL A   1      32.522  20.647  23.372  1.00  0.00     0.003 A 
ATOM     13  C   UNL A   1      34.744  24.203  24.331  1.00  0.00     0.047 C 
ATOM     14  C   UNL A   1      33.322  20.663  24.524  1.00  0.00     0.014 A 
BRANCH   9  15
ATOM     15  N   UNL A   1      32.679  24.235  22.433  1.00  0.00    -0.279 N 
ATOM     16  H   UNL A   1      33.306  24.529  21.734  1.00  0.00     0.180 HD
BRANCH  15  17
ATOM     17  S   UNL A   1      31.429  25.262  22.758  1.00  0.00     0.265 S 
ATOM     18  O   UNL A   1      30.278  24.466  23.130  1.00  0.00    -0.201 OA
ATOM     19  O   UNL A   1      31.368  26.134  21.600  1.00  0.00    -0.201 OA
BRANCH  17  20
ATOM     20  C   UNL A   1      31.593  26.367  24.066  1.00  0.00     0.131 A 
ATOM     21  C   UNL A   1      29.975  25.563  26.008  1.00  0.00     0.070 C 
ATOM     22  C   UNL A   1      30.937  26.450  25.317  1.00  0.00     0.080 A 
ATOM     23  N   UNL A   1      31.317  27.549  25.984  1.00  0.00    -0.176 NA
ATOM     24  N   UNL A   1      32.289  28.093  25.236  1.00  0.00    -0.266 N 
ATOM     25  C   UNL A   1      32.545  27.381  24.097  1.00  0.00     0.056 A 
ATOM     26  C   UNL A   1      33.658  27.697  23.163  1.00  0.00     0.068 C 
BRANCH  24  27
ATOM     27  C   UNL A   1      32.967  29.294  25.718  1.00  0.00     0.101 C 
ATOM     28  C   UNL A   1      31.969  30.416  26.001  1.00  0.00     0.033 C 
ATOM     29  C   UNL A   1      33.840  29.001  26.939  1.00  0.00     0.033 C 
ENDBRANCH  24  27
ENDBRANCH  17  20
ENDBRANCH  15  17
ENDBRANCH   9  15
ENDBRANCH   5   8
ENDBRANCH   3   4
ENDBRANCH   2   3
ENDBRANCH   1   2
BRANCH   1  30
ATOM     30  C   UNL A   1      39.298  24.798  26.621  1.00  0.00     0.002 C 
BRANCH  30  31
ATOM     31  C   UNL A   1      39.964  24.825  27.997  1.00  0.00     0.021 C 
BRANCH  31  32
ATOM     32  C   UNL A   1      39.898  26.182  28.684  1.00  0.00     0.116 C 
BRANCH  32  33
ATOM     33  N   UNL A   1      38.729  26.951  28.278  1.00  0.00    -0.352 N 
ATOM     34  C   UNL A   1      38.633  28.324  28.121  1.00  0.00     0.251 C 
ATOM     35  H   UNL A   1      37.912  26.435  28.094  1.00  0.00     0.163 HD
ATOM     36  O   UNL A   1      37.582  28.920  28.036  1.00  0.00    -0.269 OA
BRANCH  34  37
ATOM     37  C   UNL A   1      39.915  29.026  27.912  1.00  0.00     0.039 A 
ATOM     38  C   UNL A   1      40.690  28.610  26.824  1.00  0.00     0.014 A 
ATOM     39  C   UNL A   1      40.446  29.803  28.938  1.00  0.00     0.014 A 
ATOM     40  C   UNL A   1      42.061  28.828  26.848  1.00  0.00     0.010 A 
ATOM     41  C   UNL A   1      41.816  29.940  29.001  1.00  0.00     0.010 A 
ATOM     42  C   UNL A   1      42.622  29.409  27.983  1.00  0.00    -0.014 A 
BRANCH  42  43
ATOM     43  C   UNL A   1      44.055  29.501  28.211  1.00  0.00     0.031 A 
ATOM     44  C   UNL A   1      44.807  30.570  27.511  1.00  0.00     0.074 A 
ATOM     45  C   UNL A   1      44.654  28.676  29.101  1.00  0.00     0.049 A 
ATOM     46  N   UNL A   1      46.083  30.578  27.326  1.00  0.00    -0.248 NA
ATOM     47  C   UNL A   1      44.139  31.723  26.906  1.00  0.00     0.031 C 
ATOM     48  C   UNL A   1      46.018  28.790  29.616  1.00  0.00     0.029 A 
ATOM     49  N   UNL A   1      44.229  27.436  29.591  1.00  0.00    -0.354 N 
ATOM     50  C   UNL A   1      46.431  31.830  26.862  1.00  0.00     0.074 A 
ATOM     51  C   UNL A   1      45.181  32.471  26.535  1.00  0.00     0.031 C 
ATOM     52  C   UNL A   1      46.417  27.579  30.040  1.00  0.00     0.029 A 
ATOM     53  C   UNL A   1      45.384  26.636  29.639  1.00  0.00     0.049 A 
ATOM     54  H   UNL A   1      43.315  27.177  29.848  1.00  0.00     0.167 HD
ATOM     55  C   UNL A   1      47.731  32.233  26.945  1.00  0.00     0.031 A 
ATOM     56  C   UNL A   1      45.601  25.554  28.829  1.00  0.00     0.031 A 
ATOM     57  C   UNL A   1      48.593  31.131  27.367  1.00  0.00     0.049 A 
ATOM     58  C   UNL A   1      46.860  25.694  27.982  1.00  0.00     0.074 A 
ATOM     59  C   UNL A   1      49.120  30.763  28.593  1.00  0.00     0.029 A 
ATOM     60  N   UNL A   1      48.736  30.032  26.529  1.00  0.00    -0.354 N 
ATOM     61  N   UNL A   1      47.449  26.836  27.739  1.00  0.00    -0.248 NA
ATOM     62  C   UNL A   1      47.545  24.577  27.331  1.00  0.00     0.031 C 
ATOM     63  C   UNL A   1      49.462  29.384  28.521  1.00  0.00     0.029 A 
ATOM     64  C   UNL A   1      49.189  28.936  27.239  1.00  0.00     0.049 A 
ATOM     65  H   UNL A   1      48.541  30.033  25.563  1.00  0.00     0.167 HD
ATOM     66  C   UNL A   1      48.558  26.634  26.960  1.00  0.00     0.074 A 
ATOM     67  C   UNL A   1      48.575  25.201  26.730  1.00  0.00     0.031 C 
ATOM     68  C   UNL A   1      49.375  27.657  26.567  1.00  0.00     0.031 A 
BRANCH  55  69
ATOM     69  C   UNL A   1      48.162  33.686  26.928  1.00  0.00    -0.014 A 
ATOM     70  C   UNL A   1      48.327  34.374  28.149  1.00  0.00     0.010 A 
ATOM     71  C   UNL A   1      48.342  34.455  25.762  1.00  0.00     0.010 A 
ATOM     72  C   UNL A   1      48.557  35.759  28.203  1.00  0.00     0.020 A 
ATOM     73  C   UNL A   1      48.540  35.844  25.797  1.00  0.00     0.020 A 
ATOM     74  C   UNL A   1      48.633  36.493  27.021  1.00  0.00     0.054 A 
BRANCH  74  75
ATOM     75  S   UNL A   1      48.851  38.290  27.101  1.00  0.00     0.124 S 
ATOM     76  O   UNL A   1      48.274  38.619  28.402  1.00  0.00    -0.237 OA
ATOM     77  O   UNL A   1      50.300  38.435  26.998  1.00  0.00    -0.237 OA
ATOM     78  O   UNL A   1      48.095  38.782  25.951  1.00  0.00    -0.744 OA
ENDBRANCH  74  75
ENDBRANCH  55  69
BRANCH  56  79
ATOM     79  C   UNL A   1      44.364  24.829  28.415  1.00  0.00    -0.014 A 
ATOM     80  C   UNL A   1      44.013  24.860  27.048  1.00  0.00     0.010 A 
ATOM     81  C   UNL A   1      43.795  23.838  29.233  1.00  0.00     0.010 A 
ATOM     82  C   UNL A   1      43.262  23.828  26.476  1.00  0.00     0.020 A 
ATOM     83  C   UNL A   1      43.028  22.808  28.664  1.00  0.00     0.020 A 
ATOM     84  C   UNL A   1      42.824  22.777  27.281  1.00  0.00     0.054 A 
BRANCH  84  85
ATOM     85  S   UNL A   1      42.157  21.295  26.463  1.00  0.00     0.124 S 
ATOM     86  O   UNL A   1      42.988  21.198  25.267  1.00  0.00    -0.237 OA
ATOM     87  O   UNL A   1      42.382  20.255  27.469  1.00  0.00    -0.237 OA
ATOM     88  O   UNL A   1      40.757  21.637  26.233  1.00  0.00    -0.744 OA
ENDBRANCH  84  85
ENDBRANCH  56  79
BRANCH  68  89
ATOM     89  C   UNL A   1      50.487  27.557  25.549  1.00  0.00    -0.014 A 
ATOM     90  C   UNL A   1      51.074  28.665  24.921  1.00  0.00     0.010 A 
ATOM     91  C   UNL A   1      51.086  26.294  25.321  1.00  0.00     0.010 A 
ATOM     92  C   UNL A   1      52.172  28.513  24.062  1.00  0.00     0.020 A 
ATOM     93  C   UNL A   1      52.208  26.138  24.505  1.00  0.00     0.020 A 
ATOM     94  C   UNL A   1      52.732  27.250  23.860  1.00  0.00     0.054 A 
BRANCH  94  95
ATOM     95  S   UNL A   1      54.198  27.074  22.810  1.00  0.00     0.124 S 
ATOM     96  O   UNL A   1      55.105  26.335  23.683  1.00  0.00    -0.237 OA
ATOM     97  O   UNL A   1      53.690  26.329  21.660  1.00  0.00    -0.237 OA
ATOM     98  O   UNL A   1      54.584  28.454  22.527  1.00  0.00    -0.744 OA
ENDBRANCH  94  95
ENDBRANCH  68  89
ENDBRANCH  42  43
ENDBRANCH  34  37
ENDBRANCH  32  33
ENDBRANCH  31  32
ENDBRANCH  30  31
ENDBRANCH   1  30
TORSDOF 20
ENDMDL
MODEL 2
REMARK VINA RESULT:     -10.7      5.138      9.032
REMARK SMILES Cc1nn(C(C)C)c(C)c1S(=O)(=O)Nc1cccc(C(=O)NCCCCCCNC(=O)c2ccc(-c3c4nc(c(-c5ccc(S(=O)(=O)[O-])cc5)c5ccc([nH]5)c(-c5ccc(S(=O)(=O)[O-])cc5)c5nc(c(-c6ccc(S(=O)(=O)[O-])cc6)c6ccc3[nH]6)C=C5)C=C4)cc2)c1C
REMARK SMILES IDX 25 1 24 2 23 3 22 4 20 5 21 6 19 8 15 9 16 10 92 11 17 12
REMARK SMILES IDX 93 13 18 14 14 15 11 17 12 18 13 19 10 20 1 21 2 22 3 23
REMARK SMILES IDX 4 24 8 25 9 26 5 27 6 28 7 29 26 30 27 31 28 32 29 33 30 34
REMARK SMILES IDX 31 36 32 37 33 38 91 39 34 40 90 41 35 42 36 43 37 44 84 45
REMARK SMILES IDX 38 46 89 47 83 48 85 49 39 50 88 51 82 52 81 53 40 55 70 56
REMARK SMILES IDX 51 57 69 58 52 59 55 60 68 61 86 62 53 63 54 64 67 66 87 67
REMARK SMILES IDX 56 68 41 69 42 70 50 71 43 72 49 73 44 74 45 75 46 76 47 77
REMARK SMILES IDX 48 78 71 79 72 80 80 81 73 82 79 83 74 84 75 85 76 86 77 87
REMARK SMILES IDX 78 88 57 89 58 90 66 91 59 92 65 93 60 94 61 95 62 96 63 97
REMARK SMILES IDX 64 98
REMARK H PARENT 22 7 14 16 29 35 85 54 55 65
REMARK Flexibility Score: inf
ROOT
ATOM      1  C   UNL A   1      39.006  25.729  28.203  1.00  0.00     0.002 C 
ENDROOT
BRANCH   1   2
ATOM      2  C   UNL A   1      39.356  24.615  27.202  1.00  0.00     0.021 C 
BRANCH   2   3
ATOM      3  C   UNL A   1      38.157  23.995  26.481  1.00  0.00     0.116 C 
BRANCH   3   4
ATOM      4  N   UNL A   1      38.441  22.635  26.070  1.00  0.00    -0.352 N 
ATOM      5  C   UNL A   1      37.741  21.632  25.458  1.00  0.00     0.251 C 
ATOM      6  O   UNL A   1      38.428  20.650  25.174  1.00  0.00    -0.269 OA
ATOM      7  H   UNL A   1      39.364  22.367  26.285  1.00  0.00     0.163 HD
BRANCH   5   8
ATOM      8  C   UNL A   1      36.284  21.699  25.062  1.00  0.00     0.044 A 
ATOM      9  C   UNL A   1      34.529  22.747  23.706  1.00  0.00     0.053 A 
ATOM     10  C   UNL A   1      33.543  22.213  24.531  1.00  0.00     0.027 A 
ATOM     11  C   UNL A   1      35.892  22.388  23.881  1.00  0.00    -0.014 A 
ATOM     12  C   UNL A   1      33.914  21.378  25.580  1.00  0.00     0.003 A 
ATOM     13  C   UNL A   1      36.888  22.810  22.822  1.00  0.00     0.047 C 
ATOM     14  C   UNL A   1      35.269  21.138  25.850  1.00  0.00     0.014 A 
BRANCH   9  15
ATOM     15  N   UNL A   1      34.237  23.723  22.721  1.00  0.00    -0.279 N 
ATOM     16  H   UNL A   1      34.789  23.687  21.907  1.00  0.00     0.180 HD
BRANCH  15  17
ATOM     17  S   UNL A   1      33.092  24.910  22.762  1.00  0.00     0.265 S 
ATOM     18  O   UNL A   1      31.789  24.277  22.765  1.00  0.00    -0.201 OA
ATOM     19  O   UNL A   1      33.462  25.807  21.685  1.00  0.00    -0.201 OA
BRANCH  17  20
ATOM     20  C   UNL A   1      33.036  25.950  24.131  1.00  0.00     0.131 A 
ATOM     21  C   UNL A   1      35.024  25.262  25.748  1.00  0.00     0.070 C 
ATOM     22  C   UNL A   1      33.814  25.995  25.313  1.00  0.00     0.080 A 
ATOM     23  N   UNL A   1      33.342  26.920  26.161  1.00  0.00    -0.176 NA
ATOM     24  N   UNL A   1      32.362  27.542  25.489  1.00  0.00    -0.266 N 
ATOM     25  C   UNL A   1      32.179  27.041  24.230  1.00  0.00     0.056 A 
ATOM     26  C   UNL A   1      31.246  27.636  23.236  1.00  0.00     0.068 C 
BRANCH  24  27
ATOM     27  C   UNL A   1      31.667  28.661  26.121  1.00  0.00     0.101 C 
ATOM     28  C   UNL A   1      31.516  28.438  27.625  1.00  0.00     0.033 C 
ATOM     29  C   UNL A   1      32.350  29.996  25.820  1.00  0.00     0.033 C 
ENDBRANCH  24  27
ENDBRANCH  17  20
ENDBRANCH  15  17
ENDBRANCH   9  15
ENDBRANCH   5   8
ENDBRANCH   3   4
ENDBRANCH   2   3
ENDBRANCH   1   2
BRANCH   1  30
ATOM     30  C   UNL A   1      39.012  27.169  27.666  1.00  0.00     0.002 C 
BRANCH  30  31
ATOM     31  C   UNL A   1      38.290  28.213  28.517  1.00  0.00     0.021 C 
BRANCH  31  32
ATOM     32  C   UNL A   1      38.405  29.632  27.975  1.00  0.00     0.116 C 
BRANCH  32  33
ATOM     33  N   UNL A   1      37.454  30.542  28.601  1.00  0.00    -0.352 N 
ATOM     34  C   UNL A   1      37.433  30.967  29.920  1.00  0.00     0.251 C 
ATOM     35  H   UNL A   1      36.744  30.895  28.019  1.00  0.00     0.163 HD
ATOM     36  O   UNL A   1      36.481  31.509  30.436  1.00  0.00    -0.269 OA
BRANCH  34  37
ATOM     37  C   UNL A   1      38.716  30.852  30.640  1.00  0.00     0.039 A 
ATOM     38  C   UNL A   1      39.827  31.463  30.047  1.00  0.00     0.014 A 
ATOM     39  C   UNL A   1      38.851  29.909  31.654  1.00  0.00     0.014 A 
ATOM     40  C   UNL A   1      41.098  30.995  30.353  1.00  0.00     0.010 A 
ATOM     41  C   UNL A   1      40.105  29.388  31.890  1.00  0.00     0.010 A 
ATOM     42  C   UNL A   1      41.216  29.897  31.204  1.00  0.00    -0.014 A 
BRANCH  42  43
ATOM     43  C   UNL A   1      42.469  29.195  31.435  1.00  0.00     0.031 A 
ATOM     44  C   UNL A   1      42.709  27.933  30.693  1.00  0.00     0.074 A 
ATOM     45  C   UNL A   1      43.409  29.734  32.245  1.00  0.00     0.049 A 
ATOM     46  N   UNL A   1      43.571  27.033  31.024  1.00  0.00    -0.248 NA
ATOM     47  C   UNL A   1      41.930  27.565  29.510  1.00  0.00     0.031 C 
ATOM     48  C   UNL A   1      44.792  29.286  32.396  1.00  0.00     0.029 A 
ATOM     49  N   UNL A   1      43.268  30.687  33.260  1.00  0.00    -0.354 N 
ATOM     50  C   UNL A   1      43.670  26.143  29.975  1.00  0.00     0.074 A 
ATOM     51  C   UNL A   1      42.570  26.467  29.101  1.00  0.00     0.031 C 
ATOM     52  C   UNL A   1      45.244  29.692  33.594  1.00  0.00     0.029 A 
ATOM     53  C   UNL A   1      44.103  30.251  34.303  1.00  0.00     0.049 A 
ATOM     54  H   UNL A   1      42.704  31.494  33.248  1.00  0.00     0.167 HD
ATOM     55  C   UNL A   1      44.760  25.327  29.895  1.00  0.00     0.031 A 
ATOM     56  C   UNL A   1      43.646  29.792  35.509  1.00  0.00     0.031 A 
ATOM     57  C   UNL A   1      45.577  25.428  31.102  1.00  0.00     0.049 A 
ATOM     58  C   UNL A   1      44.089  28.364  35.804  1.00  0.00     0.074 A 
ATOM     59  C   UNL A   1      46.721  26.145  31.409  1.00  0.00     0.029 A 
ATOM     60  N   UNL A   1      45.044  24.998  32.312  1.00  0.00    -0.354 N 
ATOM     61  N   UNL A   1      44.502  27.528  34.888  1.00  0.00    -0.248 NA
ATOM     62  C   UNL A   1      44.088  27.759  37.136  1.00  0.00     0.031 C 
ATOM     63  C   UNL A   1      46.798  26.251  32.826  1.00  0.00     0.029 A 
ATOM     64  C   UNL A   1      45.730  25.559  33.371  1.00  0.00     0.049 A 
ATOM     65  H   UNL A   1      44.282  24.379  32.401  1.00  0.00     0.167 HD
ATOM     66  C   UNL A   1      44.837  26.330  35.464  1.00  0.00     0.074 A 
ATOM     67  C   UNL A   1      44.559  26.525  36.876  1.00  0.00     0.031 C 
ATOM     68  C   UNL A   1      45.318  25.276  34.740  1.00  0.00     0.031 A 
BRANCH  55  69
ATOM     69  C   UNL A   1      45.226  24.674  28.610  1.00  0.00    -0.014 A 
ATOM     70  C   UNL A   1      45.901  25.450  27.643  1.00  0.00     0.010 A 
ATOM     71  C   UNL A   1      44.969  23.337  28.251  1.00  0.00     0.010 A 
ATOM     72  C   UNL A   1      46.208  24.953  26.365  1.00  0.00     0.020 A 
ATOM     73  C   UNL A   1      45.239  22.833  26.969  1.00  0.00     0.020 A 
ATOM     74  C   UNL A   1      45.848  23.651  26.026  1.00  0.00     0.054 A 
BRANCH  74  75
ATOM     75  S   UNL A   1      46.176  23.044  24.351  1.00  0.00     0.124 S 
ATOM     76  O   UNL A   1      47.163  24.001  23.857  1.00  0.00    -0.237 OA
ATOM     77  O   UNL A   1      46.675  21.694  24.598  1.00  0.00    -0.237 OA
ATOM     78  O   UNL A   1      44.872  23.112  23.695  1.00  0.00    -0.744 OA
ENDBRANCH  74  75
ENDBRANCH  55  69
BRANCH  56  79
ATOM     79  C   UNL A   1      42.362  30.404  35.960  1.00  0.00    -0.014 A 
ATOM     80  C   UNL A   1      42.368  31.780  36.279  1.00  0.00     0.010 A 
ATOM     81  C   UNL A   1      41.130  29.779  35.704  1.00  0.00     0.010 A 
ATOM     82  C   UNL A   1      41.205  32.548  36.168  1.00  0.00     0.020 A 
ATOM     83  C   UNL A   1      39.956  30.546  35.606  1.00  0.00     0.020 A 
ATOM     84  C   UNL A   1      40.017  31.933  35.775  1.00  0.00     0.054 A 
BRANCH  84  85
ATOM     85  S   UNL A   1      38.617  32.997  35.307  1.00  0.00     0.124 S 
ATOM     86  O   UNL A   1      38.677  32.968  33.850  1.00  0.00    -0.237 OA
ATOM     87  O   UNL A   1      37.479  32.295  35.903  1.00  0.00    -0.237 OA
ATOM     88  O   UNL A   1      38.945  34.276  35.928  1.00  0.00    -0.744 OA
ENDBRANCH  84  85
ENDBRANCH  56  79
BRANCH  68  89
ATOM     89  C   UNL A   1      45.514  23.869  35.253  1.00  0.00    -0.014 A 
ATOM     90  C   UNL A   1      45.953  22.800  34.458  1.00  0.00     0.010 A 
ATOM     91  C   UNL A   1      45.403  23.633  36.646  1.00  0.00     0.010 A 
ATOM     92  C   UNL A   1      46.216  21.541  35.018  1.00  0.00     0.020 A 
ATOM     93  C   UNL A   1      45.706  22.397  37.219  1.00  0.00     0.020 A 
ATOM     94  C   UNL A   1      46.090  21.348  36.395  1.00  0.00     0.054 A 
BRANCH  94  95
ATOM     95  S   UNL A   1      46.505  19.740  37.118  1.00  0.00     0.124 S 
ATOM     96  O   UNL A   1      47.953  19.695  36.937  1.00  0.00    -0.237 OA
ATOM     97  O   UNL A   1      46.049  19.875  38.500  1.00  0.00    -0.237 OA
ATOM     98  O   UNL A   1      45.741  18.793  36.309  1.00  0.00    -0.744 OA
ENDBRANCH  94  95
ENDBRANCH  68  89
ENDBRANCH  42  43
ENDBRANCH  34  37
ENDBRANCH  32  33
ENDBRANCH  31  32
ENDBRANCH  30  31
ENDBRANCH   1  30
TORSDOF 20
ENDMDL
MODEL 3
REMARK VINA RESULT:     -10.4      5.310      9.729
REMARK SMILES Cc1nn(C(C)C)c(C)c1S(=O)(=O)Nc1cccc(C(=O)NCCCCCCNC(=O)c2ccc(-c3c4nc(c(-c5ccc(S(=O)(=O)[O-])cc5)c5ccc([nH]5)c(-c5ccc(S(=O)(=O)[O-])cc5)c5nc(c(-c6ccc(S(=O)(=O)[O-])cc6)c6ccc3[nH]6)C=C5)C=C4)cc2)c1C
REMARK SMILES IDX 25 1 24 2 23 3 22 4 20 5 21 6 19 8 15 9 16 10 92 11 17 12
REMARK SMILES IDX 93 13 18 14 14 15 11 17 12 18 13 19 10 20 1 21 2 22 3 23
REMARK SMILES IDX 4 24 8 25 9 26 5 27 6 28 7 29 26 30 27 31 28 32 29 33 30 34
REMARK SMILES IDX 31 36 32 37 33 38 91 39 34 40 90 41 35 42 36 43 37 44 84 45
REMARK SMILES IDX 38 46 89 47 83 48 85 49 39 50 88 51 82 52 81 53 40 55 70 56
REMARK SMILES IDX 51 57 69 58 52 59 55 60 68 61 86 62 53 63 54 64 67 66 87 67
REMARK SMILES IDX 56 68 41 69 42 70 50 71 43 72 49 73 44 74 45 75 46 76 47 77
REMARK SMILES IDX 48 78 71 79 72 80 80 81 73 82 79 83 74 84 75 85 76 86 77 87
REMARK SMILES IDX 78 88 57 89 58 90 66 91 59 92 65 93 60 94 61 95 62 96 63 97
REMARK SMILES IDX 64 98
REMARK H PARENT 22 7 14 16 29 35 85 54 55 65
REMARK Flexibility Score: inf
ROOT
ATOM      1  C   UNL A   1      34.628  30.086  27.139  1.00  0.00     0.002 C 
ENDROOT
BRANCH   1   2
ATOM      2  C   UNL A   1      33.215  30.598  27.467  1.00  0.00     0.021 C 
BRANCH   2   3
ATOM      3  C   UNL A   1      32.244  30.616  26.284  1.00  0.00     0.116 C 
BRANCH   3   4
ATOM      4  N   UNL A   1      32.855  30.052  25.099  1.00  0.00    -0.352 N 
ATOM      5  C   UNL A   1      32.535  29.061  24.211  1.00  0.00     0.251 C 
ATOM      6  O   UNL A   1      33.296  28.997  23.245  1.00  0.00    -0.269 OA
ATOM      7  H   UNL A   1      33.710  30.486  24.878  1.00  0.00     0.163 HD
BRANCH   5   8
ATOM      8  C   UNL A   1      31.325  28.160  24.305  1.00  0.00     0.044 A 
ATOM      9  C   UNL A   1      30.355  26.027  25.030  1.00  0.00     0.053 A 
ATOM     10  C   UNL A   1      29.262  26.213  24.187  1.00  0.00     0.027 A 
ATOM     11  C   UNL A   1      31.323  27.053  25.198  1.00  0.00    -0.014 A 
ATOM     12  C   UNL A   1      29.165  27.390  23.451  1.00  0.00     0.003 A 
ATOM     13  C   UNL A   1      32.356  26.892  26.292  1.00  0.00     0.047 C 
ATOM     14  C   UNL A   1      30.193  28.343  23.499  1.00  0.00     0.014 A 
BRANCH   9  15
ATOM     15  N   UNL A   1      30.596  24.795  25.687  1.00  0.00    -0.279 N 
ATOM     16  H   UNL A   1      30.451  24.793  26.660  1.00  0.00     0.180 HD
BRANCH  15  17
ATOM     17  S   UNL A   1      31.087  23.363  25.030  1.00  0.00     0.265 S 
ATOM     18  O   UNL A   1      30.757  23.380  23.620  1.00  0.00    -0.201 OA
ATOM     19  O   UNL A   1      30.515  22.352  25.899  1.00  0.00    -0.201 OA
BRANCH  17  20
ATOM     20  C   UNL A   1      32.765  22.985  25.046  1.00  0.00     0.131 A 
ATOM     21  C   UNL A   1      33.048  20.623  26.222  1.00  0.00     0.070 C 
ATOM     22  C   UNL A   1      33.479  21.890  25.589  1.00  0.00     0.080 A 
ATOM     23  N   UNL A   1      34.801  22.066  25.452  1.00  0.00    -0.176 NA
ATOM     24  N   UNL A   1      34.930  23.186  24.725  1.00  0.00    -0.266 N 
ATOM     25  C   UNL A   1      33.728  23.747  24.393  1.00  0.00     0.056 A 
ATOM     26  C   UNL A   1      33.589  24.918  23.487  1.00  0.00     0.068 C 
BRANCH  24  27
ATOM     27  C   UNL A   1      36.267  23.635  24.344  1.00  0.00     0.101 C 
ATOM     28  C   UNL A   1      37.237  23.543  25.521  1.00  0.00     0.033 C 
ATOM     29  C   UNL A   1      36.794  22.876  23.125  1.00  0.00     0.033 C 
ENDBRANCH  24  27
ENDBRANCH  17  20
ENDBRANCH  15  17
ENDBRANCH   9  15
ENDBRANCH   5   8
ENDBRANCH   3   4
ENDBRANCH   2   3
ENDBRANCH   1   2
BRANCH   1  30
ATOM     30  C   UNL A   1      35.545  29.774  28.331  1.00  0.00     0.002 C 
BRANCH  30  31
ATOM     31  C   UNL A   1      37.003  29.457  28.001  1.00  0.00     0.021 C 
BRANCH  31  32
ATOM     32  C   UNL A   1      38.006  30.274  28.804  1.00  0.00     0.116 C 
BRANCH  32  33
ATOM     33  N   UNL A   1      37.441  31.531  29.278  1.00  0.00    -0.352 N 
ATOM     34  C   UNL A   1      37.824  32.264  30.390  1.00  0.00     0.251 C 
ATOM     35  H   UNL A   1      36.701  31.903  28.746  1.00  0.00     0.163 HD
ATOM     36  O   UNL A   1      37.156  33.152  30.874  1.00  0.00    -0.269 OA
BRANCH  34  37
ATOM     37  C   UNL A   1      39.190  31.996  30.882  1.00  0.00     0.039 A 
ATOM     38  C   UNL A   1      40.246  32.412  30.063  1.00  0.00     0.014 A 
ATOM     39  C   UNL A   1      39.379  31.090  31.921  1.00  0.00     0.014 A 
ATOM     40  C   UNL A   1      41.476  31.779  30.175  1.00  0.00     0.010 A 
ATOM     41  C   UNL A   1      40.573  30.404  31.971  1.00  0.00     0.010 A 
ATOM     42  C   UNL A   1      41.599  30.715  31.067  1.00  0.00    -0.014 A 
BRANCH  42  43
ATOM     43  C   UNL A   1      42.766  29.849  31.125  1.00  0.00     0.031 A 
ATOM     44  C   UNL A   1      42.674  28.510  30.495  1.00  0.00     0.074 A 
ATOM     45  C   UNL A   1      43.919  30.302  31.671  1.00  0.00     0.049 A 
ATOM     46  N   UNL A   1      43.457  27.518  30.749  1.00  0.00    -0.248 NA
ATOM     47  C   UNL A   1      41.623  28.171  29.536  1.00  0.00     0.031 C 
ATOM     48  C   UNL A   1      45.230  29.660  31.597  1.00  0.00     0.029 A 
ATOM     49  N   UNL A   1      44.123  31.344  32.582  1.00  0.00    -0.354 N 
ATOM     50  C   UNL A   1      43.214  26.541  29.807  1.00  0.00     0.074 A 
ATOM     51  C   UNL A   1      42.009  26.958  29.134  1.00  0.00     0.031 C 
ATOM     52  C   UNL A   1      45.974  30.087  32.632  1.00  0.00     0.029 A 
ATOM     53  C   UNL A   1      45.092  30.870  33.483  1.00  0.00     0.049 A 
ATOM     54  H   UNL A   1      43.683  32.225  32.591  1.00  0.00     0.167 HD
ATOM     55  C   UNL A   1      44.143  25.563  29.606  1.00  0.00     0.031 A 
ATOM     56  C   UNL A   1      44.840  30.587  34.799  1.00  0.00     0.031 A 
ATOM     57  C   UNL A   1      45.201  25.635  30.611  1.00  0.00     0.049 A 
ATOM     58  C   UNL A   1      45.140  29.137  35.158  1.00  0.00     0.074 A 
ATOM     59  C   UNL A   1      46.470  26.189  30.607  1.00  0.00     0.029 A 
ATOM     60  N   UNL A   1      44.881  25.391  31.942  1.00  0.00    -0.354 N 
ATOM     61  N   UNL A   1      45.235  28.175  34.278  1.00  0.00    -0.248 NA
ATOM     62  C   UNL A   1      45.336  28.649  36.524  1.00  0.00     0.031 C 
ATOM     63  C   UNL A   1      46.856  26.397  31.960  1.00  0.00     0.029 A 
ATOM     64  C   UNL A   1      45.843  25.924  32.778  1.00  0.00     0.049 A 
ATOM     65  H   UNL A   1      44.079  24.906  32.246  1.00  0.00     0.167 HD
ATOM     66  C   UNL A   1      45.521  26.991  34.906  1.00  0.00     0.074 A 
ATOM     67  C   UNL A   1      45.573  27.340  36.315  1.00  0.00     0.031 C 
ATOM     68  C   UNL A   1      45.693  25.820  34.223  1.00  0.00     0.031 A 
BRANCH  55  69
ATOM     69  C   UNL A   1      44.238  24.744  28.335  1.00  0.00    -0.014 A 
ATOM     70  C   UNL A   1      45.147  23.665  28.272  1.00  0.00     0.010 A 
ATOM     71  C   UNL A   1      43.534  25.021  27.148  1.00  0.00     0.010 A 
ATOM     72  C   UNL A   1      45.408  22.976  27.076  1.00  0.00     0.020 A 
ATOM     73  C   UNL A   1      43.805  24.364  25.938  1.00  0.00     0.020 A 
ATOM     74  C   UNL A   1      44.753  23.350  25.905  1.00  0.00     0.054 A 
BRANCH  74  75
ATOM     75  S   UNL A   1      45.154  22.508  24.352  1.00  0.00     0.124 S 
ATOM     76  O   UNL A   1      46.202  23.358  23.793  1.00  0.00    -0.237 OA
ATOM     77  O   UNL A   1      45.586  21.191  24.811  1.00  0.00    -0.237 OA
ATOM     78  O   UNL A   1      43.892  22.523  23.614  1.00  0.00    -0.744 OA
ENDBRANCH  74  75
ENDBRANCH  55  69
BRANCH  56  79
ATOM     79  C   UNL A   1      43.773  31.424  35.422  1.00  0.00    -0.014 A 
ATOM     80  C   UNL A   1      42.560  30.789  35.767  1.00  0.00     0.010 A 
ATOM     81  C   UNL A   1      44.075  32.664  36.011  1.00  0.00     0.010 A 
ATOM     82  C   UNL A   1      41.759  31.285  36.801  1.00  0.00     0.020 A 
ATOM     83  C   UNL A   1      43.263  33.172  37.040  1.00  0.00     0.020 A 
ATOM     84  C   UNL A   1      42.149  32.444  37.470  1.00  0.00     0.054 A 
BRANCH  84  85
ATOM     85  S   UNL A   1      41.289  32.870  39.015  1.00  0.00     0.124 S 
ATOM     86  O   UNL A   1      41.723  34.243  39.245  1.00  0.00    -0.237 OA
ATOM     87  O   UNL A   1      39.882  32.710  38.643  1.00  0.00    -0.237 OA
ATOM     88  O   UNL A   1      41.791  31.881  39.963  1.00  0.00    -0.744 OA
ENDBRANCH  84  85
ENDBRANCH  56  79
BRANCH  68  89
ATOM     89  C   UNL A   1      45.802  24.446  34.841  1.00  0.00    -0.014 A 
ATOM     90  C   UNL A   1      44.698  23.660  35.200  1.00  0.00     0.010 A 
ATOM     91  C   UNL A   1      47.080  23.840  34.927  1.00  0.00     0.010 A 
ATOM     92  C   UNL A   1      44.864  22.350  35.674  1.00  0.00     0.020 A 
ATOM     93  C   UNL A   1      47.252  22.522  35.353  1.00  0.00     0.020 A 
ATOM     94  C   UNL A   1      46.141  21.790  35.748  1.00  0.00     0.054 A 
BRANCH  94  95
ATOM     95  S   UNL A   1      46.339  20.072  36.288  1.00  0.00     0.124 S 
ATOM     96  O   UNL A   1      47.773  19.865  36.106  1.00  0.00    -0.237 OA
ATOM     97  O   UNL A   1      45.883  20.110  37.676  1.00  0.00    -0.237 OA
ATOM     98  O   UNL A   1      45.476  19.325  35.377  1.00  0.00    -0.744 OA
ENDBRANCH  94  95
ENDBRANCH  68  89
ENDBRANCH  42  43
ENDBRANCH  34  37
ENDBRANCH  32  33
ENDBRANCH  31  32
ENDBRANCH  30  31
ENDBRANCH   1  30
TORSDOF 20
ENDMDL
