MODEL 1
REMARK VINA RESULT:     -10.0      0.000      0.000
REMARK SMILES O=C(NCCCCCCNC(=O)[C@@H]1CSCN1C(=O)c1cccc(Cl)c1)c1ccc(-c2c3nc(c(-c4ccc(S(=O)(=O)[O-])cc4)c4ccc([nH]4)c(-c4ccc(S(=O)(=O)[O-])cc4)c4nc(c(-c5ccc(S(=O)(=O)[O-])cc5)c5ccc2[nH]5)C=C4)C=C3)cc1
REMARK SMILES IDX 6 1 5 2 4 3 3 4 1 5 2 6 27 8 28 9 86 10 29 11 85 12 30 13
REMARK SMILES IDX 31 14 32 15 79 16 33 17 84 18 78 19 80 20 34 21 83 22 77 23
REMARK SMILES IDX 76 24 35 26 65 27 46 28 64 29 47 30 50 31 63 32 81 33 48 34
REMARK SMILES IDX 49 35 62 37 82 38 51 39 36 40 37 41 45 42 38 43 44 44 39 45
REMARK SMILES IDX 40 46 41 47 42 48 43 49 66 50 67 51 75 52 68 53 74 54 69 55
REMARK SMILES IDX 70 56 71 57 72 58 73 59 52 60 53 61 61 62 54 63 60 64 55 65
REMARK SMILES IDX 56 66 57 67 58 68 59 69 7 70 8 71 9 72 10 73 11 74 12 76
REMARK SMILES IDX 13 77 14 78 17 79 15 80 16 81 18 82 19 83 20 84 21 85 26 86
REMARK SMILES IDX 22 87 24 88 23 89 25 90
REMARK H PARENT 3 7 80 25 50 36 10 75
REMARK Flexibility Score: inf
ROOT
ATOM      1  C   UNL A   1      34.989  23.004  24.169  1.00  0.00     0.002 C 
ENDROOT
BRANCH   1   2
ATOM      2  C   UNL A   1      36.298  23.658  24.615  1.00  0.00     0.021 C 
BRANCH   2   3
ATOM      3  C   UNL A   1      36.709  23.332  26.046  1.00  0.00     0.116 C 
BRANCH   3   4
ATOM      4  N   UNL A   1      37.650  22.225  26.102  1.00  0.00    -0.352 N 
ATOM      5  O   UNL A   1      39.682  21.247  26.097  1.00  0.00    -0.269 OA
ATOM      6  C   UNL A   1      39.011  22.256  26.291  1.00  0.00     0.251 C 
ATOM      7  H   UNL A   1      37.260  21.329  25.989  1.00  0.00     0.163 HD
BRANCH   6   8
ATOM      8  C   UNL A   1      39.660  23.514  26.718  1.00  0.00     0.039 A 
ATOM      9  C   UNL A   1      40.192  23.633  28.004  1.00  0.00     0.014 A 
ATOM     10  C   UNL A   1      39.755  24.578  25.817  1.00  0.00     0.014 A 
ATOM     11  C   UNL A   1      40.700  24.854  28.431  1.00  0.00     0.010 A 
ATOM     12  C   UNL A   1      40.345  25.779  26.221  1.00  0.00     0.010 A 
ATOM     13  C   UNL A   1      40.802  25.934  27.539  1.00  0.00    -0.014 A 
BRANCH  13  14
ATOM     14  C   UNL A   1      41.466  27.184  27.990  1.00  0.00     0.031 A 
ATOM     15  C   UNL A   1      42.951  27.370  27.863  1.00  0.00     0.074 A 
ATOM     16  C   UNL A   1      40.696  28.173  28.488  1.00  0.00     0.049 A 
ATOM     17  N   UNL A   1      43.677  28.412  28.182  1.00  0.00    -0.248 NA
ATOM     18  C   UNL A   1      43.726  26.247  27.311  1.00  0.00     0.031 C 
ATOM     19  C   UNL A   1      39.242  28.103  28.663  1.00  0.00     0.029 A 
ATOM     20  N   UNL A   1      41.019  29.434  28.918  1.00  0.00    -0.354 N 
ATOM     21  C   UNL A   1      44.990  28.071  27.881  1.00  0.00     0.074 A 
ATOM     22  C   UNL A   1      44.966  26.713  27.381  1.00  0.00     0.031 C 
ATOM     23  C   UNL A   1      38.794  29.282  29.115  1.00  0.00     0.029 A 
ATOM     24  C   UNL A   1      39.931  30.170  29.326  1.00  0.00     0.049 A 
ATOM     25  H   UNL A   1      41.941  29.779  28.933  1.00  0.00     0.167 HD
ATOM     26  C   UNL A   1      46.110  28.824  28.005  1.00  0.00     0.031 A 
ATOM     27  C   UNL A   1      39.854  31.414  29.833  1.00  0.00     0.031 A 
ATOM     28  C   UNL A   1      46.127  30.171  28.517  1.00  0.00     0.049 A 
ATOM     29  C   UNL A   1      41.117  32.208  29.999  1.00  0.00     0.074 A 
ATOM     30  C   UNL A   1      47.210  31.019  28.674  1.00  0.00     0.029 A 
ATOM     31  N   UNL A   1      45.010  30.866  28.956  1.00  0.00    -0.354 N 
ATOM     32  N   UNL A   1      42.346  31.873  29.687  1.00  0.00    -0.248 NA
ATOM     33  C   UNL A   1      40.982  33.548  30.584  1.00  0.00     0.031 C 
ATOM     34  C   UNL A   1      46.754  32.209  29.253  1.00  0.00     0.029 A 
ATOM     35  C   UNL A   1      45.380  32.125  29.402  1.00  0.00     0.049 A 
ATOM     36  H   UNL A   1      44.090  30.517  28.952  1.00  0.00     0.167 HD
ATOM     37  C   UNL A   1      43.130  32.969  30.022  1.00  0.00     0.074 A 
ATOM     38  C   UNL A   1      42.233  33.984  30.537  1.00  0.00     0.031 C 
ATOM     39  C   UNL A   1      44.473  33.121  29.916  1.00  0.00     0.031 A 
BRANCH  26  40
ATOM     40  C   UNL A   1      47.421  28.201  27.595  1.00  0.00    -0.014 A 
ATOM     41  C   UNL A   1      48.240  27.550  28.534  1.00  0.00     0.010 A 
ATOM     42  C   UNL A   1      47.814  28.220  26.243  1.00  0.00     0.010 A 
ATOM     43  C   UNL A   1      49.445  26.962  28.138  1.00  0.00     0.020 A 
ATOM     44  C   UNL A   1      49.006  27.612  25.838  1.00  0.00     0.020 A 
ATOM     45  C   UNL A   1      49.822  27.000  26.792  1.00  0.00     0.054 A 
BRANCH  45  46
ATOM     46  S   UNL A   1      51.381  26.211  26.304  1.00  0.00     0.124 S 
ATOM     47  O   UNL A   1      52.360  26.982  27.067  1.00  0.00    -0.237 OA
ATOM     48  O   UNL A   1      51.192  24.829  26.740  1.00  0.00    -0.237 OA
ATOM     49  O   UNL A   1      51.430  26.402  24.856  1.00  0.00    -0.744 OA
ENDBRANCH  45  46
ENDBRANCH  26  40
BRANCH  27  50
ATOM     50  C   UNL A   1      38.535  31.968  30.238  1.00  0.00    -0.014 A 
ATOM     51  C   UNL A   1      38.074  31.836  31.558  1.00  0.00     0.010 A 
ATOM     52  C   UNL A   1      37.737  32.647  29.298  1.00  0.00     0.010 A 
ATOM     53  C   UNL A   1      36.828  32.353  31.926  1.00  0.00     0.020 A 
ATOM     54  C   UNL A   1      36.505  33.192  29.669  1.00  0.00     0.020 A 
ATOM     55  C   UNL A   1      36.051  33.027  30.978  1.00  0.00     0.054 A 
BRANCH  55  56
ATOM     56  S   UNL A   1      34.455  33.720  31.486  1.00  0.00     0.124 S 
ATOM     57  O   UNL A   1      33.961  32.702  32.407  1.00  0.00    -0.237 OA
ATOM     58  O   UNL A   1      34.840  34.992  32.093  1.00  0.00    -0.237 OA
ATOM     59  O   UNL A   1      33.719  33.838  30.228  1.00  0.00    -0.744 OA
ENDBRANCH  55  56
ENDBRANCH  27  50
BRANCH  39  60
ATOM     60  C   UNL A   1      45.046  34.447  30.338  1.00  0.00    -0.014 A 
ATOM     61  C   UNL A   1      45.103  35.534  29.449  1.00  0.00     0.010 A 
ATOM     62  C   UNL A   1      45.509  34.613  31.657  1.00  0.00     0.010 A 
ATOM     63  C   UNL A   1      45.645  36.755  29.859  1.00  0.00     0.020 A 
ATOM     64  C   UNL A   1      46.027  35.840  32.079  1.00  0.00     0.020 A 
ATOM     65  C   UNL A   1      46.108  36.898  31.171  1.00  0.00     0.054 A 
BRANCH  65  66
ATOM     66  S   UNL A   1      46.779  38.501  31.690  1.00  0.00     0.124 S 
ATOM     67  O   UNL A   1      47.313  38.191  33.012  1.00  0.00    -0.237 OA
ATOM     68  O   UNL A   1      47.774  38.782  30.659  1.00  0.00    -0.237 OA
ATOM     69  O   UNL A   1      45.613  39.383  31.679  1.00  0.00    -0.744 OA
ENDBRANCH  65  66
ENDBRANCH  39  60
ENDBRANCH  13  14
ENDBRANCH   6   8
ENDBRANCH   3   4
ENDBRANCH   2   3
ENDBRANCH   1   2
BRANCH   1  70
ATOM     70  C   UNL A   1      34.088  23.877  23.284  1.00  0.00     0.002 C 
BRANCH  70  71
ATOM     71  C   UNL A   1      32.691  23.309  23.007  1.00  0.00     0.021 C 
BRANCH  71  72
ATOM     72  C   UNL A   1      31.566  24.310  23.247  1.00  0.00     0.116 C 
BRANCH  72  73
ATOM     73  N   UNL A   1      31.140  24.325  24.628  1.00  0.00    -0.354 N 
ATOM     74  C   UNL A   1      30.797  25.367  25.440  1.00  0.00     0.243 C 
ATOM     75  H   UNL A   1      31.089  23.438  25.052  1.00  0.00     0.163 HD
ATOM     76  O   UNL A   1      30.231  25.073  26.500  1.00  0.00    -0.273 OA
BRANCH  74  77
ATOM     77  C   UNL A   1      30.882  26.844  24.985  1.00  0.00     0.185 C 
ATOM     78  C   UNL A   1      29.842  27.059  23.886  1.00  0.00     0.106 C 
ATOM     79  N   UNL A   1      32.205  27.329  24.559  1.00  0.00    -0.317 N 
ATOM     80  S   UNL A   1      30.606  28.071  22.600  1.00  0.00    -0.138 SA
ATOM     81  C   UNL A   1      32.282  27.849  23.210  1.00  0.00     0.190 C 
BRANCH  79  82
ATOM     82  C   UNL A   1      33.211  27.398  25.515  1.00  0.00     0.255 C 
ATOM     83  O   UNL A   1      33.970  26.461  25.752  1.00  0.00    -0.269 OA
BRANCH  82  84
ATOM     84  C   UNL A   1      33.446  28.659  26.252  1.00  0.00     0.041 A 
ATOM     85  C   UNL A   1      34.652  28.915  26.914  1.00  0.00     0.014 A 
ATOM     86  C   UNL A   1      32.447  29.635  26.208  1.00  0.00     0.034 A 
ATOM     87  C   UNL A   1      34.818  30.108  27.619  1.00  0.00     0.002 A 
ATOM     88  C   UNL A   1      32.631  30.833  26.893  1.00  0.00     0.041 A 
ATOM     89  C   UNL A   1      33.801  31.064  27.617  1.00  0.00     0.020 A 
ATOM     90  Cl  UNL A   1      31.404  32.037  26.848  1.00  0.00    -0.084 Cl
ENDBRANCH  82  84
ENDBRANCH  79  82
ENDBRANCH  74  77
ENDBRANCH  72  73
ENDBRANCH  71  72
ENDBRANCH  70  71
ENDBRANCH   1  70
TORSDOF 18
ENDMDL
MODEL 2
REMARK VINA RESULT:      -9.9      0.884      8.256
REMARK SMILES O=C(NCCCCCCNC(=O)[C@@H]1CSCN1C(=O)c1cccc(Cl)c1)c1ccc(-c2c3nc(c(-c4ccc(S(=O)(=O)[O-])cc4)c4ccc([nH]4)c(-c4ccc(S(=O)(=O)[O-])cc4)c4nc(c(-c5ccc(S(=O)(=O)[O-])cc5)c5ccc2[nH]5)C=C4)C=C3)cc1
REMARK SMILES IDX 6 1 5 2 4 3 3 4 1 5 2 6 27 8 28 9 86 10 29 11 85 12 30 13
REMARK SMILES IDX 31 14 32 15 79 16 33 17 84 18 78 19 80 20 34 21 83 22 77 23
REMARK SMILES IDX 76 24 35 26 65 27 46 28 64 29 47 30 50 31 63 32 81 33 48 34
REMARK SMILES IDX 49 35 62 37 82 38 51 39 36 40 37 41 45 42 38 43 44 44 39 45
REMARK SMILES IDX 40 46 41 47 42 48 43 49 66 50 67 51 75 52 68 53 74 54 69 55
REMARK SMILES IDX 70 56 71 57 72 58 73 59 52 60 53 61 61 62 54 63 60 64 55 65
REMARK SMILES IDX 56 66 57 67 58 68 59 69 7 70 8 71 9 72 10 73 11 74 12 76
REMARK SMILES IDX 13 77 14 78 17 79 15 80 16 81 18 82 19 83 20 84 21 85 26 86
REMARK SMILES IDX 22 87 24 88 23 89 25 90
REMARK H PARENT 3 7 80 25 50 36 10 75
REMARK Flexibility Score: inf
ROOT
ATOM      1  C   UNL A   1      35.103  22.724  24.282  1.00  0.00     0.002 C 
ENDROOT
BRANCH   1   2
ATOM      2  C   UNL A   1      36.333  23.574  24.608  1.00  0.00     0.021 C 
BRANCH   2   3
ATOM      3  C   UNL A   1      36.867  23.391  26.024  1.00  0.00     0.116 C 
BRANCH   3   4
ATOM      4  N   UNL A   1      37.796  22.275  26.113  1.00  0.00    -0.352 N 
ATOM      5  O   UNL A   1      39.816  21.275  26.167  1.00  0.00    -0.269 OA
ATOM      6  C   UNL A   1      39.151  22.294  26.334  1.00  0.00     0.251 C 
ATOM      7  H   UNL A   1      37.398  21.382  26.000  1.00  0.00     0.163 HD
BRANCH   6   8
ATOM      8  C   UNL A   1      39.804  23.550  26.762  1.00  0.00     0.039 A 
ATOM      9  C   UNL A   1      40.234  23.707  28.083  1.00  0.00     0.014 A 
ATOM     10  C   UNL A   1      40.005  24.572  25.831  1.00  0.00     0.014 A 
ATOM     11  C   UNL A   1      40.745  24.930  28.501  1.00  0.00     0.010 A 
ATOM     12  C   UNL A   1      40.598  25.772  26.234  1.00  0.00     0.010 A 
ATOM     13  C   UNL A   1      40.953  25.968  27.578  1.00  0.00    -0.014 A 
BRANCH  13  14
ATOM     14  C   UNL A   1      41.617  27.217  28.032  1.00  0.00     0.031 A 
ATOM     15  C   UNL A   1      40.824  28.365  28.591  1.00  0.00     0.074 A 
ATOM     16  C   UNL A   1      42.963  27.287  27.966  1.00  0.00     0.049 A 
ATOM     17  N   UNL A   1      41.258  29.510  29.057  1.00  0.00    -0.248 NA
ATOM     18  C   UNL A   1      39.361  28.217  28.630  1.00  0.00     0.031 C 
ATOM     19  C   UNL A   1      43.836  26.234  27.438  1.00  0.00     0.029 A 
ATOM     20  N   UNL A   1      43.832  28.269  28.361  1.00  0.00    -0.354 N 
ATOM     21  C   UNL A   1      40.125  30.221  29.436  1.00  0.00     0.074 A 
ATOM     22  C   UNL A   1      38.983  29.392  29.118  1.00  0.00     0.031 C 
ATOM     23  C   UNL A   1      45.115  26.605  27.588  1.00  0.00     0.029 A 
ATOM     24  C   UNL A   1      45.153  27.946  28.159  1.00  0.00     0.049 A 
ATOM     25  H   UNL A   1      43.539  29.123  28.754  1.00  0.00     0.167 HD
ATOM     26  C   UNL A   1      40.048  31.450  30.003  1.00  0.00     0.031 A 
ATOM     27  C   UNL A   1      46.274  28.655  28.387  1.00  0.00     0.031 A 
ATOM     28  C   UNL A   1      41.190  32.275  30.304  1.00  0.00     0.049 A 
ATOM     29  C   UNL A   1      46.155  30.030  28.975  1.00  0.00     0.074 A 
ATOM     30  C   UNL A   1      41.216  33.532  30.885  1.00  0.00     0.029 A 
ATOM     31  N   UNL A   1      42.509  31.928  30.047  1.00  0.00    -0.354 N 
ATOM     32  N   UNL A   1      45.075  30.675  29.347  1.00  0.00    -0.248 NA
ATOM     33  C   UNL A   1      47.406  30.773  29.177  1.00  0.00     0.031 C 
ATOM     34  C   UNL A   1      42.546  33.964  30.935  1.00  0.00     0.029 A 
ATOM     35  C   UNL A   1      43.354  32.954  30.439  1.00  0.00     0.049 A 
ATOM     36  H   UNL A   1      42.801  31.079  29.644  1.00  0.00     0.167 HD
ATOM     37  C   UNL A   1      45.517  31.894  29.843  1.00  0.00     0.074 A 
ATOM     38  C   UNL A   1      46.963  31.886  29.746  1.00  0.00     0.031 C 
ATOM     39  C   UNL A   1      44.792  32.930  30.332  1.00  0.00     0.031 A 
BRANCH  26  40
ATOM     40  C   UNL A   1      38.677  31.989  30.321  1.00  0.00    -0.014 A 
ATOM     41  C   UNL A   1      37.992  31.588  31.483  1.00  0.00     0.010 A 
ATOM     42  C   UNL A   1      38.086  32.948  29.477  1.00  0.00     0.010 A 
ATOM     43  C   UNL A   1      36.727  32.108  31.775  1.00  0.00     0.020 A 
ATOM     44  C   UNL A   1      36.832  33.489  29.779  1.00  0.00     0.020 A 
ATOM     45  C   UNL A   1      36.154  33.053  30.919  1.00  0.00     0.054 A 
BRANCH  45  46
ATOM     46  S   UNL A   1      34.521  33.725  31.335  1.00  0.00     0.124 S 
ATOM     47  O   UNL A   1      34.016  32.726  32.275  1.00  0.00    -0.237 OA
ATOM     48  O   UNL A   1      34.847  35.025  31.916  1.00  0.00    -0.237 OA
ATOM     49  O   UNL A   1      33.828  33.776  30.051  1.00  0.00    -0.744 OA
ENDBRANCH  45  46
ENDBRANCH  26  40
BRANCH  27  50
ATOM     50  C   UNL A   1      47.600  28.078  28.034  1.00  0.00    -0.014 A 
ATOM     51  C   UNL A   1      48.155  28.279  26.760  1.00  0.00     0.010 A 
ATOM     52  C   UNL A   1      48.319  27.332  28.986  1.00  0.00     0.010 A 
ATOM     53  C   UNL A   1      49.397  27.725  26.436  1.00  0.00     0.020 A 
ATOM     54  C   UNL A   1      49.575  26.803  28.677  1.00  0.00     0.020 A 
ATOM     55  C   UNL A   1      50.099  26.990  27.397  1.00  0.00     0.054 A 
BRANCH  55  56
ATOM     56  S   UNL A   1      51.724  26.310  26.968  1.00  0.00     0.124 S 
ATOM     57  O   UNL A   1      52.093  27.118  25.811  1.00  0.00    -0.237 OA
ATOM     58  O   UNL A   1      52.499  26.550  28.183  1.00  0.00    -0.237 OA
ATOM     59  O   UNL A   1      51.442  24.904  26.687  1.00  0.00    -0.744 OA
ENDBRANCH  55  56
ENDBRANCH  27  50
BRANCH  39  60
ATOM     60  C   UNL A   1      45.557  34.127  30.828  1.00  0.00    -0.014 A 
ATOM     61  C   UNL A   1      45.888  35.189  29.967  1.00  0.00     0.010 A 
ATOM     62  C   UNL A   1      45.926  34.200  32.183  1.00  0.00     0.010 A 
ATOM     63  C   UNL A   1      46.606  36.288  30.446  1.00  0.00     0.020 A 
ATOM     64  C   UNL A   1      46.620  35.309  32.672  1.00  0.00     0.020 A 
ATOM     65  C   UNL A   1      46.971  36.339  31.795  1.00  0.00     0.054 A 
BRANCH  65  66
ATOM     66  S   UNL A   1      47.875  37.790  32.401  1.00  0.00     0.124 S 
ATOM     67  O   UNL A   1      46.796  38.750  32.614  1.00  0.00    -0.237 OA
ATOM     68  O   UNL A   1      48.516  37.286  33.612  1.00  0.00    -0.237 OA
ATOM     69  O   UNL A   1      48.788  38.110  31.306  1.00  0.00    -0.744 OA
ENDBRANCH  65  66
ENDBRANCH  39  60
ENDBRANCH  13  14
ENDBRANCH   6   8
ENDBRANCH   3   4
ENDBRANCH   2   3
ENDBRANCH   1   2
BRANCH   1  70
ATOM     70  C   UNL A   1      34.230  23.248  23.133  1.00  0.00     0.002 C 
BRANCH  70  71
ATOM     71  C   UNL A   1      32.792  22.716  23.107  1.00  0.00     0.021 C 
BRANCH  71  72
ATOM     72  C   UNL A   1      31.780  23.657  23.748  1.00  0.00     0.116 C 
BRANCH  72  73
ATOM     73  N   UNL A   1      31.839  23.614  25.192  1.00  0.00    -0.354 N 
ATOM     74  C   UNL A   1      31.457  24.534  26.125  1.00  0.00     0.243 C 
ATOM     75  H   UNL A   1      32.219  22.785  25.563  1.00  0.00     0.163 HD
ATOM     76  O   UNL A   1      31.389  24.135  27.294  1.00  0.00    -0.273 OA
BRANCH  74  77
ATOM     77  C   UNL A   1      30.906  25.930  25.745  1.00  0.00     0.185 C 
ATOM     78  C   UNL A   1      29.506  25.741  25.162  1.00  0.00     0.106 C 
ATOM     79  N   UNL A   1      31.741  26.749  24.852  1.00  0.00    -0.317 N 
ATOM     80  S   UNL A   1      29.359  26.830  23.728  1.00  0.00    -0.138 SA
ATOM     81  C   UNL A   1      31.122  27.161  23.610  1.00  0.00     0.190 C 
BRANCH  79  82
ATOM     82  C   UNL A   1      32.970  27.187  25.331  1.00  0.00     0.255 C 
ATOM     83  O   UNL A   1      34.016  26.569  25.144  1.00  0.00    -0.269 OA
BRANCH  82  84
ATOM     84  C   UNL A   1      33.068  28.479  26.045  1.00  0.00     0.041 A 
ATOM     85  C   UNL A   1      31.983  29.358  26.133  1.00  0.00     0.014 A 
ATOM     86  C   UNL A   1      34.266  28.770  26.704  1.00  0.00     0.034 A 
ATOM     87  C   UNL A   1      32.131  30.579  26.794  1.00  0.00     0.002 A 
ATOM     88  C   UNL A   1      34.396  29.979  27.382  1.00  0.00     0.041 A 
ATOM     89  C   UNL A   1      33.343  30.894  27.411  1.00  0.00     0.020 A 
ATOM     90  Cl  UNL A   1      35.868  30.347  28.190  1.00  0.00    -0.084 Cl
ENDBRANCH  82  84
ENDBRANCH  79  82
ENDBRANCH  74  77
ENDBRANCH  72  73
ENDBRANCH  71  72
ENDBRANCH  70  71
ENDBRANCH   1  70
TORSDOF 18
ENDMDL
MODEL 3
REMARK VINA RESULT:      -9.9      2.525      3.845
REMARK SMILES O=C(NCCCCCCNC(=O)[C@@H]1CSCN1C(=O)c1cccc(Cl)c1)c1ccc(-c2c3nc(c(-c4ccc(S(=O)(=O)[O-])cc4)c4ccc([nH]4)c(-c4ccc(S(=O)(=O)[O-])cc4)c4nc(c(-c5ccc(S(=O)(=O)[O-])cc5)c5ccc2[nH]5)C=C4)C=C3)cc1
REMARK SMILES IDX 6 1 5 2 4 3 3 4 1 5 2 6 27 8 28 9 86 10 29 11 85 12 30 13
REMARK SMILES IDX 31 14 32 15 79 16 33 17 84 18 78 19 80 20 34 21 83 22 77 23
REMARK SMILES IDX 76 24 35 26 65 27 46 28 64 29 47 30 50 31 63 32 81 33 48 34
REMARK SMILES IDX 49 35 62 37 82 38 51 39 36 40 37 41 45 42 38 43 44 44 39 45
REMARK SMILES IDX 40 46 41 47 42 48 43 49 66 50 67 51 75 52 68 53 74 54 69 55
REMARK SMILES IDX 70 56 71 57 72 58 73 59 52 60 53 61 61 62 54 63 60 64 55 65
REMARK SMILES IDX 56 66 57 67 58 68 59 69 7 70 8 71 9 72 10 73 11 74 12 76
REMARK SMILES IDX 13 77 14 78 17 79 15 80 16 81 18 82 19 83 20 84 21 85 26 86
REMARK SMILES IDX 22 87 24 88 23 89 25 90
REMARK H PARENT 3 7 80 25 50 36 10 75
REMARK Flexibility Score: inf
ROOT
ATOM      1  C   UNL A   1      36.851  20.549  25.067  1.00  0.00     0.002 C 
ENDROOT
BRANCH   1   2
ATOM      2  C   UNL A   1      38.288  20.096  24.801  1.00  0.00     0.021 C 
BRANCH   2   3
ATOM      3  C   UNL A   1      39.273  20.443  25.911  1.00  0.00     0.116 C 
BRANCH   3   4
ATOM      4  N   UNL A   1      40.306  19.429  26.056  1.00  0.00    -0.352 N 
ATOM      5  O   UNL A   1      42.413  18.627  26.094  1.00  0.00    -0.269 OA
ATOM      6  C   UNL A   1      41.663  19.592  26.200  1.00  0.00     0.251 C 
ATOM      7  H   UNL A   1      39.991  18.497  26.051  1.00  0.00     0.163 HD
BRANCH   6   8
ATOM      8  C   UNL A   1      42.212  20.939  26.470  1.00  0.00     0.039 A 
ATOM      9  C   UNL A   1      42.529  21.322  27.776  1.00  0.00     0.014 A 
ATOM     10  C   UNL A   1      42.429  21.818  25.407  1.00  0.00     0.014 A 
ATOM     11  C   UNL A   1      42.939  22.625  28.032  1.00  0.00     0.010 A 
ATOM     12  C   UNL A   1      42.924  23.102  25.658  1.00  0.00     0.010 A 
ATOM     13  C   UNL A   1      43.162  23.523  26.975  1.00  0.00    -0.014 A 
BRANCH  13  14
ATOM     14  C   UNL A   1      43.721  24.866  27.273  1.00  0.00     0.031 A 
ATOM     15  C   UNL A   1      45.172  25.179  27.035  1.00  0.00     0.074 A 
ATOM     16  C   UNL A   1      42.886  25.820  27.733  1.00  0.00     0.049 A 
ATOM     17  N   UNL A   1      45.806  26.311  27.216  1.00  0.00    -0.248 NA
ATOM     18  C   UNL A   1      46.022  24.088  26.534  1.00  0.00     0.031 C 
ATOM     19  C   UNL A   1      41.458  25.628  28.007  1.00  0.00     0.029 A 
ATOM     20  N   UNL A   1      43.104  27.139  28.031  1.00  0.00    -0.354 N 
ATOM     21  C   UNL A   1      47.128  26.068  26.861  1.00  0.00     0.074 A 
ATOM     22  C   UNL A   1      47.212  24.674  26.483  1.00  0.00     0.031 C 
ATOM     23  C   UNL A   1      40.920  26.796  28.383  1.00  0.00     0.029 A 
ATOM     24  C   UNL A   1      41.973  27.803  28.443  1.00  0.00     0.049 A 
ATOM     25  H   UNL A   1      43.986  27.570  27.956  1.00  0.00     0.167 HD
ATOM     26  C   UNL A   1      48.173  26.932  26.847  1.00  0.00     0.031 A 
ATOM     27  C   UNL A   1      41.800  29.076  28.845  1.00  0.00     0.031 A 
ATOM     28  C   UNL A   1      48.083  28.316  27.239  1.00  0.00     0.049 A 
ATOM     29  C   UNL A   1      42.985  29.997  28.860  1.00  0.00     0.074 A 
ATOM     30  C   UNL A   1      49.083  29.274  27.253  1.00  0.00     0.029 A 
ATOM     31  N   UNL A   1      46.928  28.940  27.688  1.00  0.00    -0.354 N 
ATOM     32  N   UNL A   1      44.222  29.754  28.499  1.00  0.00    -0.248 NA
ATOM     33  C   UNL A   1      42.749  31.367  29.335  1.00  0.00     0.031 C 
ATOM     34  C   UNL A   1      48.543  30.464  27.755  1.00  0.00     0.029 A 
ATOM     35  C   UNL A   1      47.195  30.264  27.999  1.00  0.00     0.049 A 
ATOM     36  H   UNL A   1      46.049  28.506  27.774  1.00  0.00     0.167 HD
ATOM     37  C   UNL A   1      44.910  30.945  28.688  1.00  0.00     0.074 A 
ATOM     38  C   UNL A   1      43.946  31.914  29.170  1.00  0.00     0.031 C 
ATOM     39  C   UNL A   1      46.223  31.213  28.483  1.00  0.00     0.031 A 
BRANCH  26  40
ATOM     40  C   UNL A   1      49.514  26.402  26.409  1.00  0.00    -0.014 A 
ATOM     41  C   UNL A   1      50.025  26.690  25.131  1.00  0.00     0.010 A 
ATOM     42  C   UNL A   1      50.297  25.650  27.303  1.00  0.00     0.010 A 
ATOM     43  C   UNL A   1      51.277  26.206  24.741  1.00  0.00     0.020 A 
ATOM     44  C   UNL A   1      51.561  25.184  26.927  1.00  0.00     0.020 A 
ATOM     45  C   UNL A   1      52.037  25.452  25.642  1.00  0.00     0.054 A 
BRANCH  45  46
ATOM     46  S   UNL A   1      53.667  24.855  25.117  1.00  0.00     0.124 S 
ATOM     47  O   UNL A   1      53.839  25.538  23.836  1.00  0.00    -0.237 OA
ATOM     48  O   UNL A   1      54.540  25.313  26.195  1.00  0.00    -0.237 OA
ATOM     49  O   UNL A   1      53.496  23.407  25.031  1.00  0.00    -0.744 OA
ENDBRANCH  45  46
ENDBRANCH  26  40
BRANCH  27  50
ATOM     50  C   UNL A   1      40.457  29.538  29.285  1.00  0.00    -0.014 A 
ATOM     51  C   UNL A   1      39.452  29.827  28.347  1.00  0.00     0.010 A 
ATOM     52  C   UNL A   1      40.174  29.676  30.657  1.00  0.00     0.010 A 
ATOM     53  C   UNL A   1      38.196  30.269  28.772  1.00  0.00     0.020 A 
ATOM     54  C   UNL A   1      38.910  30.088  31.087  1.00  0.00     0.020 A 
ATOM     55  C   UNL A   1      37.933  30.398  30.140  1.00  0.00     0.054 A 
BRANCH  55  56
ATOM     56  S   UNL A   1      36.286  30.938  30.670  1.00  0.00     0.124 S 
ATOM     57  O   UNL A   1      35.496  30.730  29.461  1.00  0.00    -0.237 OA
ATOM     58  O   UNL A   1      35.997  30.034  31.780  1.00  0.00    -0.237 OA
ATOM     59  O   UNL A   1      36.492  32.334  31.052  1.00  0.00    -0.744 OA
ENDBRANCH  55  56
ENDBRANCH  27  50
BRANCH  39  60
ATOM     60  C   UNL A   1      46.683  32.620  28.751  1.00  0.00    -0.014 A 
ATOM     61  C   UNL A   1      46.887  33.083  30.063  1.00  0.00     0.010 A 
ATOM     62  C   UNL A   1      46.942  33.483  27.671  1.00  0.00     0.010 A 
ATOM     63  C   UNL A   1      47.308  34.395  30.292  1.00  0.00     0.020 A 
ATOM     64  C   UNL A   1      47.389  34.788  27.893  1.00  0.00     0.020 A 
ATOM     65  C   UNL A   1      47.552  35.241  29.205  1.00  0.00     0.054 A 
BRANCH  65  66
ATOM     66  S   UNL A   1      48.128  36.931  29.525  1.00  0.00     0.124 S 
ATOM     67  O   UNL A   1      49.122  37.116  28.472  1.00  0.00    -0.237 OA
ATOM     68  O   UNL A   1      46.907  37.718  29.381  1.00  0.00    -0.237 OA
ATOM     69  O   UNL A   1      48.662  36.862  30.883  1.00  0.00    -0.744 OA
ENDBRANCH  65  66
ENDBRANCH  39  60
ENDBRANCH  13  14
ENDBRANCH   6   8
ENDBRANCH   3   4
ENDBRANCH   2   3
ENDBRANCH   1   2
BRANCH   1  70
ATOM     70  C   UNL A   1      36.469  21.905  24.456  1.00  0.00     0.002 C 
BRANCH  70  71
ATOM     71  C   UNL A   1      36.307  23.053  25.459  1.00  0.00     0.021 C 
BRANCH  71  72
ATOM     72  C   UNL A   1      34.890  23.609  25.529  1.00  0.00     0.116 C 
BRANCH  72  73
ATOM     73  N   UNL A   1      34.260  23.327  26.800  1.00  0.00    -0.354 N 
ATOM     74  C   UNL A   1      33.063  22.737  27.086  1.00  0.00     0.243 C 
ATOM     75  H   UNL A   1      34.780  23.607  27.588  1.00  0.00     0.163 HD
ATOM     76  O   UNL A   1      32.887  22.395  28.262  1.00  0.00    -0.273 OA
BRANCH  74  77
ATOM     77  C   UNL A   1      32.066  22.294  25.988  1.00  0.00     0.185 C 
ATOM     78  C   UNL A   1      32.692  21.125  25.228  1.00  0.00     0.106 C 
ATOM     79  N   UNL A   1      31.600  23.335  25.059  1.00  0.00    -0.317 N 
ATOM     80  S   UNL A   1      32.364  21.377  23.470  1.00  0.00    -0.138 SA
ATOM     81  C   UNL A   1      31.862  23.093  23.655  1.00  0.00     0.190 C 
BRANCH  79  82
ATOM     82  C   UNL A   1      30.823  24.366  25.574  1.00  0.00     0.255 C 
ATOM     83  O   UNL A   1      30.152  24.247  26.595  1.00  0.00    -0.269 OA
BRANCH  82  84
ATOM     84  C   UNL A   1      30.834  25.695  24.924  1.00  0.00     0.041 A 
ATOM     85  C   UNL A   1      29.685  26.241  24.340  1.00  0.00     0.014 A 
ATOM     86  C   UNL A   1      32.018  26.435  24.973  1.00  0.00     0.034 A 
ATOM     87  C   UNL A   1      29.750  27.488  23.715  1.00  0.00     0.002 A 
ATOM     88  C   UNL A   1      32.067  27.688  24.368  1.00  0.00     0.041 A 
ATOM     89  C   UNL A   1      30.946  28.208  23.720  1.00  0.00     0.020 A 
ATOM     90  Cl  UNL A   1      33.523  28.603  24.420  1.00  0.00    -0.084 Cl
ENDBRANCH  82  84
ENDBRANCH  79  82
ENDBRANCH  74  77
ENDBRANCH  72  73
ENDBRANCH  71  72
ENDBRANCH  70  71
ENDBRANCH   1  70
TORSDOF 18
ENDMDL
