MODEL 1
REMARK VINA RESULT:     -11.3      0.000      0.000
REMARK SMILES N#Cc1ccc2c(c1)C=C(C(=O)NCCCCCCNC(=O)c1ccc(-c3c4nc(c(-c5ccc(S(=O)(=O)[O-])cc5)c5ccc([nH]5)c(-c5ccc(S(=O)(=O)[O-])cc5)c5nc(c(-c6ccc(S(=O)(=O)[O-])cc6)c6ccc3[nH]6)C=C5)C=C4)cc1)[C@@H](C(F)(F)F)O2
REMARK SMILES IDX 17 1 16 2 15 3 14 4 13 5 11 6 12 7 10 9 3 10 4 11 8 12 5 13
REMARK SMILES IDX 7 14 6 15 9 16 88 17 83 18 2 19 1 20 84 21 85 22 86 23 87 24
REMARK SMILES IDX 18 25 19 26 20 27 21 28 22 30 23 31 24 32 82 33 25 34 81 35
REMARK SMILES IDX 26 36 27 37 28 38 75 39 29 40 80 41 74 42 76 43 30 44 79 45
REMARK SMILES IDX 73 46 72 47 31 49 61 50 42 51 60 52 43 53 46 54 59 55 77 56
REMARK SMILES IDX 44 57 45 58 58 60 78 61 47 62 32 63 33 64 41 65 34 66 40 67
REMARK SMILES IDX 35 68 36 69 37 70 38 71 39 72 62 73 63 74 71 75 64 76 70 77
REMARK SMILES IDX 65 78 66 79 67 80 68 81 69 82 48 83 49 84 57 85 50 86 56 87
REMARK SMILES IDX 51 88 52 89 53 90 54 91 55 92
REMARK H PARENT 13 8 20 29 76 48 46 59
REMARK Flexibility Score: inf
ROOT
ATOM      1  C   UNL A   1      31.523  29.006  25.491  1.00  0.00     0.002 C 
ENDROOT
BRANCH   1   2
ATOM      2  C   UNL A   1      31.083  28.010  24.408  1.00  0.00     0.002 C 
BRANCH   2   3
ATOM      3  C   UNL A   1      30.263  26.827  24.926  1.00  0.00     0.021 C 
BRANCH   3   4
ATOM      4  C   UNL A   1      30.058  25.742  23.878  1.00  0.00     0.116 C 
BRANCH   4   5
ATOM      5  N   UNL A   1      30.930  25.929  22.730  1.00  0.00    -0.352 N 
ATOM      6  C   UNL A   1      32.089  25.402  22.272  1.00  0.00     0.251 C 
ATOM      7  O   UNL A   1      32.491  25.852  21.193  1.00  0.00    -0.270 OA
ATOM      8  H   UNL A   1      30.587  26.627  22.127  1.00  0.00     0.163 HD
BRANCH   6   9
ATOM      9  C   UNL A   1      32.885  24.349  22.974  1.00  0.00     0.067 C 
ATOM     10  C   UNL A   1      33.195  19.798  24.594  1.00  0.00     0.053 A 
ATOM     11  C   UNL A   1      34.533  20.015  24.940  1.00  0.00     0.023 A 
ATOM     12  C   UNL A   1      32.448  20.823  23.993  1.00  0.00     0.031 A 
ATOM     13  C   UNL A   1      35.120  21.252  24.691  1.00  0.00     0.048 A 
ATOM     14  C   UNL A   1      33.038  22.066  23.743  1.00  0.00     0.018 A 
ATOM     15  C   UNL A   1      34.370  22.268  24.107  1.00  0.00     0.128 A 
ATOM     16  C   UNL A   1      32.310  23.136  23.071  1.00  0.00     0.025 C 
ATOM     17  O   UNL A   1      35.035  23.432  23.881  1.00  0.00    -0.475 OA
ATOM     18  C   UNL A   1      34.235  24.602  23.582  1.00  0.00     0.314 C 
BRANCH  10  19
ATOM     19  C   UNL A   1      32.598  18.522  24.843  1.00  0.00     0.099 C 
ATOM     20  N   UNL A   1      32.108  17.486  25.041  1.00  0.00    -0.192 NA
ENDBRANCH  10  19
BRANCH  18  21
ATOM     21  C   UNL A   1      34.158  25.489  24.839  1.00  0.00     0.429 C 
ATOM     22  F   UNL A   1      35.194  25.224  25.671  1.00  0.00    -0.167 F 
ATOM     23  F   UNL A   1      34.223  26.812  24.555  1.00  0.00    -0.167 F 
ATOM     24  F   UNL A   1      33.013  25.295  25.532  1.00  0.00    -0.167 F 
ENDBRANCH  18  21
ENDBRANCH   6   9
ENDBRANCH   4   5
ENDBRANCH   3   4
ENDBRANCH   2   3
ENDBRANCH   1   2
BRANCH   1  25
ATOM     25  C   UNL A   1      32.038  28.367  26.781  1.00  0.00     0.021 C 
BRANCH  25  26
ATOM     26  C   UNL A   1      33.453  28.783  27.155  1.00  0.00     0.116 C 
BRANCH  26  27
ATOM     27  N   UNL A   1      33.513  30.166  27.605  1.00  0.00    -0.352 N 
ATOM     28  C   UNL A   1      34.516  30.819  28.279  1.00  0.00     0.251 C 
ATOM     29  H   UNL A   1      32.719  30.712  27.397  1.00  0.00     0.163 HD
ATOM     30  O   UNL A   1      34.318  31.927  28.764  1.00  0.00    -0.269 OA
BRANCH  28  31
ATOM     31  C   UNL A   1      35.821  30.147  28.440  1.00  0.00     0.039 A 
ATOM     32  C   UNL A   1      36.134  29.498  29.637  1.00  0.00     0.014 A 
ATOM     33  C   UNL A   1      36.761  30.228  27.412  1.00  0.00     0.014 A 
ATOM     34  C   UNL A   1      37.444  29.109  29.882  1.00  0.00     0.010 A 
ATOM     35  C   UNL A   1      38.051  29.739  27.623  1.00  0.00     0.010 A 
ATOM     36  C   UNL A   1      38.421  29.232  28.881  1.00  0.00    -0.014 A 
BRANCH  36  37
ATOM     37  C   UNL A   1      39.829  28.857  29.170  1.00  0.00     0.031 A 
ATOM     38  C   UNL A   1      40.736  29.814  29.902  1.00  0.00     0.074 A 
ATOM     39  C   UNL A   1      40.281  27.640  28.805  1.00  0.00     0.049 A 
ATOM     40  N   UNL A   1      42.001  29.675  30.203  1.00  0.00    -0.248 NA
ATOM     41  C   UNL A   1      40.154  31.092  30.350  1.00  0.00     0.031 C 
ATOM     42  C   UNL A   1      39.483  26.615  28.130  1.00  0.00     0.029 A 
ATOM     43  N   UNL A   1      41.511  27.051  28.962  1.00  0.00    -0.354 N 
ATOM     44  C   UNL A   1      42.369  30.848  30.854  1.00  0.00     0.074 A 
ATOM     45  C   UNL A   1      41.207  31.706  30.871  1.00  0.00     0.031 C 
ATOM     46  C   UNL A   1      40.227  25.512  27.972  1.00  0.00     0.029 A 
ATOM     47  C   UNL A   1      41.580  25.775  28.451  1.00  0.00     0.049 A 
ATOM     48  H   UNL A   1      42.272  27.498  29.400  1.00  0.00     0.167 HD
ATOM     49  C   UNL A   1      43.564  31.166  31.403  1.00  0.00     0.031 A 
ATOM     50  C   UNL A   1      42.616  24.917  28.351  1.00  0.00     0.031 A 
ATOM     51  C   UNL A   1      44.706  30.288  31.401  1.00  0.00     0.049 A 
ATOM     52  C   UNL A   1      43.953  25.326  28.904  1.00  0.00     0.074 A 
ATOM     53  C   UNL A   1      45.954  30.513  31.957  1.00  0.00     0.029 A 
ATOM     54  N   UNL A   1      44.746  29.025  30.829  1.00  0.00    -0.354 N 
ATOM     55  N   UNL A   1      44.275  26.428  29.540  1.00  0.00    -0.248 NA
ATOM     56  C   UNL A   1      45.065  24.381  28.739  1.00  0.00     0.031 C 
ATOM     57  C   UNL A   1      46.772  29.430  31.640  1.00  0.00     0.029 A 
ATOM     58  C   UNL A   1      46.009  28.478  30.982  1.00  0.00     0.049 A 
ATOM     59  H   UNL A   1      43.989  28.583  30.379  1.00  0.00     0.167 HD
ATOM     60  C   UNL A   1      45.617  26.296  29.874  1.00  0.00     0.074 A 
ATOM     61  C   UNL A   1      46.043  24.999  29.390  1.00  0.00     0.031 C 
ATOM     62  C   UNL A   1      46.422  27.175  30.518  1.00  0.00     0.031 A 
BRANCH  49  63
ATOM     63  C   UNL A   1      43.726  32.510  32.073  1.00  0.00    -0.014 A 
ATOM     64  C   UNL A   1      43.304  32.678  33.406  1.00  0.00     0.010 A 
ATOM     65  C   UNL A   1      44.132  33.640  31.341  1.00  0.00     0.010 A 
ATOM     66  C   UNL A   1      43.227  33.953  33.974  1.00  0.00     0.020 A 
ATOM     67  C   UNL A   1      44.093  34.914  31.919  1.00  0.00     0.020 A 
ATOM     68  C   UNL A   1      43.608  35.065  33.220  1.00  0.00     0.054 A 
BRANCH  68  69
ATOM     69  S   UNL A   1      43.422  36.717  33.946  1.00  0.00     0.124 S 
ATOM     70  O   UNL A   1      42.197  36.575  34.727  1.00  0.00    -0.237 OA
ATOM     71  O   UNL A   1      44.652  36.863  34.719  1.00  0.00    -0.237 OA
ATOM     72  O   UNL A   1      43.320  37.594  32.781  1.00  0.00    -0.744 OA
ENDBRANCH  68  69
ENDBRANCH  49  63
BRANCH  50  73
ATOM     73  C   UNL A   1      42.402  23.587  27.711  1.00  0.00    -0.014 A 
ATOM     74  C   UNL A   1      41.749  22.554  28.412  1.00  0.00     0.010 A 
ATOM     75  C   UNL A   1      42.921  23.316  26.433  1.00  0.00     0.010 A 
ATOM     76  C   UNL A   1      41.687  21.262  27.884  1.00  0.00     0.020 A 
ATOM     77  C   UNL A   1      42.821  22.034  25.881  1.00  0.00     0.020 A 
ATOM     78  C   UNL A   1      42.236  21.008  26.626  1.00  0.00     0.054 A 
BRANCH  78  79
ATOM     79  S   UNL A   1      42.203  19.309  25.994  1.00  0.00     0.124 S 
ATOM     80  O   UNL A   1      40.777  19.107  25.752  1.00  0.00    -0.237 OA
ATOM     81  O   UNL A   1      43.038  19.400  24.799  1.00  0.00    -0.237 OA
ATOM     82  O   UNL A   1      42.768  18.524  27.088  1.00  0.00    -0.744 OA
ENDBRANCH  78  79
ENDBRANCH  50  73
BRANCH  62  83
ATOM     83  C   UNL A   1      47.860  26.791  30.771  1.00  0.00    -0.014 A 
ATOM     84  C   UNL A   1      48.206  26.159  31.983  1.00  0.00     0.010 A 
ATOM     85  C   UNL A   1      48.883  27.214  29.907  1.00  0.00     0.010 A 
ATOM     86  C   UNL A   1      49.545  26.024  32.357  1.00  0.00     0.020 A 
ATOM     87  C   UNL A   1      50.226  27.042  30.259  1.00  0.00     0.020 A 
ATOM     88  C   UNL A   1      50.546  26.483  31.498  1.00  0.00     0.054 A 
BRANCH  88  89
ATOM     89  S   UNL A   1      52.272  26.383  32.045  1.00  0.00     0.124 S 
ATOM     90  O   UNL A   1      52.797  25.303  31.214  1.00  0.00    -0.237 OA
ATOM     91  O   UNL A   1      52.781  27.717  31.738  1.00  0.00    -0.237 OA
ATOM     92  O   UNL A   1      52.165  26.078  33.470  1.00  0.00    -0.744 OA
ENDBRANCH  88  89
ENDBRANCH  62  83
ENDBRANCH  36  37
ENDBRANCH  28  31
ENDBRANCH  26  27
ENDBRANCH  25  26
ENDBRANCH   1  25
TORSDOF 18
ENDMDL
MODEL 2
REMARK VINA RESULT:     -11.0      0.954      8.170
REMARK SMILES N#Cc1ccc2c(c1)C=C(C(=O)NCCCCCCNC(=O)c1ccc(-c3c4nc(c(-c5ccc(S(=O)(=O)[O-])cc5)c5ccc([nH]5)c(-c5ccc(S(=O)(=O)[O-])cc5)c5nc(c(-c6ccc(S(=O)(=O)[O-])cc6)c6ccc3[nH]6)C=C5)C=C4)cc1)[C@@H](C(F)(F)F)O2
REMARK SMILES IDX 17 1 16 2 15 3 14 4 13 5 11 6 12 7 10 9 3 10 4 11 8 12 5 13
REMARK SMILES IDX 7 14 6 15 9 16 88 17 83 18 2 19 1 20 84 21 85 22 86 23 87 24
REMARK SMILES IDX 18 25 19 26 20 27 21 28 22 30 23 31 24 32 82 33 25 34 81 35
REMARK SMILES IDX 26 36 27 37 28 38 75 39 29 40 80 41 74 42 76 43 30 44 79 45
REMARK SMILES IDX 73 46 72 47 31 49 61 50 42 51 60 52 43 53 46 54 59 55 77 56
REMARK SMILES IDX 44 57 45 58 58 60 78 61 47 62 32 63 33 64 41 65 34 66 40 67
REMARK SMILES IDX 35 68 36 69 37 70 38 71 39 72 62 73 63 74 71 75 64 76 70 77
REMARK SMILES IDX 65 78 66 79 67 80 68 81 69 82 48 83 49 84 57 85 50 86 56 87
REMARK SMILES IDX 51 88 52 89 53 90 54 91 55 92
REMARK H PARENT 13 8 20 29 76 48 46 59
REMARK Flexibility Score: inf
ROOT
ATOM      1  C   UNL A   1      31.999  29.237  24.965  1.00  0.00     0.002 C 
ENDROOT
BRANCH   1   2
ATOM      2  C   UNL A   1      31.906  28.327  23.732  1.00  0.00     0.002 C 
BRANCH   2   3
ATOM      3  C   UNL A   1      33.146  27.468  23.478  1.00  0.00     0.021 C 
BRANCH   3   4
ATOM      4  C   UNL A   1      32.938  26.436  22.378  1.00  0.00     0.116 C 
BRANCH   4   5
ATOM      5  N   UNL A   1      31.735  25.651  22.596  1.00  0.00    -0.352 N 
ATOM      6  C   UNL A   1      31.423  24.443  23.122  1.00  0.00     0.251 C 
ATOM      7  O   UNL A   1      30.220  24.161  23.134  1.00  0.00    -0.270 OA
ATOM      8  H   UNL A   1      30.933  26.123  22.275  1.00  0.00     0.163 HD
BRANCH   6   9
ATOM      9  C   UNL A   1      32.417  23.465  23.662  1.00  0.00     0.067 C 
ATOM     10  C   UNL A   1      33.686  18.856  24.415  1.00  0.00     0.053 A 
ATOM     11  C   UNL A   1      34.938  19.279  24.877  1.00  0.00     0.023 A 
ATOM     12  C   UNL A   1      32.745  19.797  23.972  1.00  0.00     0.031 A 
ATOM     13  C   UNL A   1      35.244  20.636  24.901  1.00  0.00     0.048 A 
ATOM     14  C   UNL A   1      33.052  21.161  23.997  1.00  0.00     0.018 A 
ATOM     15  C   UNL A   1      34.300  21.565  24.472  1.00  0.00     0.128 A 
ATOM     16  C   UNL A   1      32.120  22.163  23.494  1.00  0.00     0.025 C 
ATOM     17  O   UNL A   1      34.698  22.864  24.510  1.00  0.00    -0.475 OA
ATOM     18  C   UNL A   1      33.667  23.874  24.388  1.00  0.00     0.314 C 
BRANCH  10  19
ATOM     19  C   UNL A   1      33.379  17.459  24.384  1.00  0.00     0.099 C 
ATOM     20  N   UNL A   1      33.127  16.324  24.351  1.00  0.00    -0.192 NA
ENDBRANCH  10  19
BRANCH  18  21
ATOM     21  C   UNL A   1      33.374  24.461  25.782  1.00  0.00     0.429 C 
ATOM     22  F   UNL A   1      33.953  25.677  25.917  1.00  0.00    -0.167 F 
ATOM     23  F   UNL A   1      32.051  24.639  26.010  1.00  0.00    -0.167 F 
ATOM     24  F   UNL A   1      33.838  23.670  26.776  1.00  0.00    -0.167 F 
ENDBRANCH  18  21
ENDBRANCH   6   9
ENDBRANCH   4   5
ENDBRANCH   3   4
ENDBRANCH   2   3
ENDBRANCH   1   2
BRANCH   1  25
ATOM     25  C   UNL A   1      32.027  28.501  26.306  1.00  0.00     0.021 C 
BRANCH  25  26
ATOM     26  C   UNL A   1      33.228  28.845  27.175  1.00  0.00     0.116 C 
BRANCH  26  27
ATOM     27  N   UNL A   1      33.361  30.281  27.376  1.00  0.00    -0.352 N 
ATOM     28  C   UNL A   1      34.399  30.988  27.931  1.00  0.00     0.251 C 
ATOM     29  H   UNL A   1      32.597  30.822  27.072  1.00  0.00     0.163 HD
ATOM     30  O   UNL A   1      34.261  32.173  28.213  1.00  0.00    -0.269 OA
BRANCH  28  31
ATOM     31  C   UNL A   1      35.669  30.288  28.215  1.00  0.00     0.039 A 
ATOM     32  C   UNL A   1      35.883  29.703  29.465  1.00  0.00     0.014 A 
ATOM     33  C   UNL A   1      36.672  30.277  27.246  1.00  0.00     0.014 A 
ATOM     34  C   UNL A   1      37.162  29.291  29.816  1.00  0.00     0.010 A 
ATOM     35  C   UNL A   1      37.929  29.762  27.568  1.00  0.00     0.010 A 
ATOM     36  C   UNL A   1      38.203  29.323  28.874  1.00  0.00    -0.014 A 
BRANCH  36  37
ATOM     37  C   UNL A   1      39.576  28.923  29.275  1.00  0.00     0.031 A 
ATOM     38  C   UNL A   1      40.126  27.580  28.867  1.00  0.00     0.074 A 
ATOM     39  C   UNL A   1      40.342  29.783  29.976  1.00  0.00     0.049 A 
ATOM     40  N   UNL A   1      41.283  27.044  29.160  1.00  0.00    -0.248 NA
ATOM     41  C   UNL A   1      39.270  26.723  28.026  1.00  0.00     0.031 C 
ATOM     42  C   UNL A   1      39.932  31.126  30.391  1.00  0.00     0.029 A 
ATOM     43  N   UNL A   1      41.625  29.668  30.450  1.00  0.00    -0.354 N 
ATOM     44  C   UNL A   1      41.286  25.789  28.561  1.00  0.00     0.074 A 
ATOM     45  C   UNL A   1      40.002  25.622  27.919  1.00  0.00     0.031 C 
ATOM     46  C   UNL A   1      40.955  31.725  31.016  1.00  0.00     0.029 A 
ATOM     47  C   UNL A   1      42.064  30.782  31.127  1.00  0.00     0.049 A 
ATOM     48  H   UNL A   1      42.179  28.864  30.319  1.00  0.00     0.167 HD
ATOM     49  C   UNL A   1      42.280  24.871  28.534  1.00  0.00     0.031 A 
ATOM     50  C   UNL A   1      43.216  31.019  31.789  1.00  0.00     0.031 A 
ATOM     51  C   UNL A   1      43.565  25.064  29.156  1.00  0.00     0.049 A 
ATOM     52  C   UNL A   1      44.275  29.953  31.805  1.00  0.00     0.074 A 
ATOM     53  C   UNL A   1      44.647  24.200  29.160  1.00  0.00     0.029 A 
ATOM     54  N   UNL A   1      43.949  26.187  29.873  1.00  0.00    -0.354 N 
ATOM     55  N   UNL A   1      44.270  28.783  31.211  1.00  0.00    -0.248 NA
ATOM     56  C   UNL A   1      45.497  30.233  32.570  1.00  0.00     0.031 C 
ATOM     57  C   UNL A   1      45.646  24.759  29.956  1.00  0.00     0.029 A 
ATOM     58  C   UNL A   1      45.235  26.020  30.359  1.00  0.00     0.049 A 
ATOM     59  H   UNL A   1      43.390  26.985  30.017  1.00  0.00     0.167 HD
ATOM     60  C   UNL A   1      45.497  28.201  31.506  1.00  0.00     0.074 A 
ATOM     61  C   UNL A   1      46.228  29.155  32.315  1.00  0.00     0.031 C 
ATOM     62  C   UNL A   1      45.968  26.983  31.144  1.00  0.00     0.031 A 
BRANCH  49  63
ATOM     63  C   UNL A   1      42.052  23.569  27.804  1.00  0.00    -0.014 A 
ATOM     64  C   UNL A   1      41.490  22.475  28.492  1.00  0.00     0.010 A 
ATOM     65  C   UNL A   1      42.544  23.373  26.501  1.00  0.00     0.010 A 
ATOM     66  C   UNL A   1      41.481  21.201  27.917  1.00  0.00     0.020 A 
ATOM     67  C   UNL A   1      42.499  22.107  25.908  1.00  0.00     0.020 A 
ATOM     68  C   UNL A   1      42.000  21.023  26.633  1.00  0.00     0.054 A 
BRANCH  68  69
ATOM     69  S   UNL A   1      42.053  19.348  25.938  1.00  0.00     0.124 S 
ATOM     70  O   UNL A   1      42.928  19.521  24.782  1.00  0.00    -0.237 OA
ATOM     71  O   UNL A   1      42.607  18.566  27.040  1.00  0.00    -0.237 OA
ATOM     72  O   UNL A   1      40.654  19.063  25.624  1.00  0.00    -0.744 OA
ENDBRANCH  68  69
ENDBRANCH  49  63
BRANCH  50  73
ATOM     73  C   UNL A   1      43.410  32.333  32.467  1.00  0.00    -0.014 A 
ATOM     74  C   UNL A   1      43.067  32.494  33.825  1.00  0.00     0.010 A 
ATOM     75  C   UNL A   1      43.856  33.452  31.744  1.00  0.00     0.010 A 
ATOM     76  C   UNL A   1      43.094  33.756  34.423  1.00  0.00     0.020 A 
ATOM     77  C   UNL A   1      43.927  34.711  32.352  1.00  0.00     0.020 A 
ATOM     78  C   UNL A   1      43.512  34.859  33.677  1.00  0.00     0.054 A 
BRANCH  78  79
ATOM     79  S   UNL A   1      43.472  36.497  34.455  1.00  0.00     0.124 S 
ATOM     80  O   UNL A   1      44.214  37.305  33.491  1.00  0.00    -0.237 OA
ATOM     81  O   UNL A   1      42.040  36.773  34.539  1.00  0.00    -0.237 OA
ATOM     82  O   UNL A   1      44.139  36.285  35.737  1.00  0.00    -0.744 OA
ENDBRANCH  78  79
ENDBRANCH  50  73
BRANCH  62  83
ATOM     83  C   UNL A   1      47.353  26.579  31.591  1.00  0.00    -0.014 A 
ATOM     84  C   UNL A   1      48.454  26.832  30.749  1.00  0.00     0.010 A 
ATOM     85  C   UNL A   1      47.540  25.795  32.742  1.00  0.00     0.010 A 
ATOM     86  C   UNL A   1      49.696  26.249  31.010  1.00  0.00     0.020 A 
ATOM     87  C   UNL A   1      48.793  25.245  33.029  1.00  0.00     0.020 A 
ATOM     88  C   UNL A   1      49.852  25.445  32.141  1.00  0.00     0.054 A 
BRANCH  88  89
ATOM     89  S   UNL A   1      51.447  24.624  32.410  1.00  0.00     0.124 S 
ATOM     90  O   UNL A   1      51.805  25.076  33.750  1.00  0.00    -0.237 OA
ATOM     91  O   UNL A   1      51.099  23.209  32.294  1.00  0.00    -0.237 OA
ATOM     92  O   UNL A   1      52.286  25.141  31.331  1.00  0.00    -0.744 OA
ENDBRANCH  88  89
ENDBRANCH  62  83
ENDBRANCH  36  37
ENDBRANCH  28  31
ENDBRANCH  26  27
ENDBRANCH  25  26
ENDBRANCH   1  25
TORSDOF 18
ENDMDL
MODEL 3
REMARK VINA RESULT:     -10.9      1.339      8.258
REMARK SMILES N#Cc1ccc2c(c1)C=C(C(=O)NCCCCCCNC(=O)c1ccc(-c3c4nc(c(-c5ccc(S(=O)(=O)[O-])cc5)c5ccc([nH]5)c(-c5ccc(S(=O)(=O)[O-])cc5)c5nc(c(-c6ccc(S(=O)(=O)[O-])cc6)c6ccc3[nH]6)C=C5)C=C4)cc1)[C@@H](C(F)(F)F)O2
REMARK SMILES IDX 17 1 16 2 15 3 14 4 13 5 11 6 12 7 10 9 3 10 4 11 8 12 5 13
REMARK SMILES IDX 7 14 6 15 9 16 88 17 83 18 2 19 1 20 84 21 85 22 86 23 87 24
REMARK SMILES IDX 18 25 19 26 20 27 21 28 22 30 23 31 24 32 82 33 25 34 81 35
REMARK SMILES IDX 26 36 27 37 28 38 75 39 29 40 80 41 74 42 76 43 30 44 79 45
REMARK SMILES IDX 73 46 72 47 31 49 61 50 42 51 60 52 43 53 46 54 59 55 77 56
REMARK SMILES IDX 44 57 45 58 58 60 78 61 47 62 32 63 33 64 41 65 34 66 40 67
REMARK SMILES IDX 35 68 36 69 37 70 38 71 39 72 62 73 63 74 71 75 64 76 70 77
REMARK SMILES IDX 65 78 66 79 67 80 68 81 69 82 48 83 49 84 57 85 50 86 56 87
REMARK SMILES IDX 51 88 52 89 53 90 54 91 55 92
REMARK H PARENT 13 8 20 29 76 48 46 59
REMARK Flexibility Score: inf
ROOT
ATOM      1  C   UNL A   1      31.952  28.672  25.251  1.00  0.00     0.002 C 
ENDROOT
BRANCH   1   2
ATOM      2  C   UNL A   1      31.234  27.361  25.603  1.00  0.00     0.002 C 
BRANCH   2   3
ATOM      3  C   UNL A   1      30.674  26.598  24.400  1.00  0.00     0.021 C 
BRANCH   3   4
ATOM      4  C   UNL A   1      30.464  25.117  24.682  1.00  0.00     0.116 C 
BRANCH   4   5
ATOM      5  N   UNL A   1      31.393  24.622  25.684  1.00  0.00    -0.352 N 
ATOM      6  C   UNL A   1      32.187  23.538  25.847  1.00  0.00     0.251 C 
ATOM      7  O   UNL A   1      32.864  23.522  26.881  1.00  0.00    -0.270 OA
ATOM      8  H   UNL A   1      31.463  25.239  26.447  1.00  0.00     0.163 HD
BRANCH   6   9
ATOM      9  C   UNL A   1      32.283  22.397  24.886  1.00  0.00     0.067 C 
ATOM     10  C   UNL A   1      33.023  17.672  24.142  1.00  0.00     0.053 A 
ATOM     11  C   UNL A   1      32.682  17.833  22.794  1.00  0.00     0.023 A 
ATOM     12  C   UNL A   1      32.988  18.771  25.014  1.00  0.00     0.031 A 
ATOM     13  C   UNL A   1      32.314  19.088  22.320  1.00  0.00     0.048 A 
ATOM     14  C   UNL A   1      32.618  20.032  24.536  1.00  0.00     0.018 A 
ATOM     15  C   UNL A   1      32.293  20.177  23.186  1.00  0.00     0.128 A 
ATOM     16  C   UNL A   1      32.517  21.185  25.423  1.00  0.00     0.025 C 
ATOM     17  O   UNL A   1      31.899  21.355  22.638  1.00  0.00    -0.475 OA
ATOM     18  C   UNL A   1      32.166  22.560  23.397  1.00  0.00     0.314 C 
BRANCH  10  19
ATOM     19  C   UNL A   1      33.393  16.378  24.628  1.00  0.00     0.099 C 
ATOM     20  N   UNL A   1      33.691  15.323  25.016  1.00  0.00    -0.192 NA
ENDBRANCH  10  19
BRANCH  18  21
ATOM     21  C   UNL A   1      33.385  23.276  22.785  1.00  0.00     0.429 C 
ATOM     22  F   UNL A   1      33.514  22.958  21.475  1.00  0.00    -0.167 F 
ATOM     23  F   UNL A   1      33.287  24.625  22.844  1.00  0.00    -0.167 F 
ATOM     24  F   UNL A   1      34.539  22.941  23.406  1.00  0.00    -0.167 F 
ENDBRANCH  18  21
ENDBRANCH   6   9
ENDBRANCH   4   5
ENDBRANCH   3   4
ENDBRANCH   2   3
ENDBRANCH   1   2
BRANCH   1  25
ATOM     25  C   UNL A   1      33.402  28.759  25.731  1.00  0.00     0.021 C 
BRANCH  25  26
ATOM     26  C   UNL A   1      33.549  28.821  27.244  1.00  0.00     0.116 C 
BRANCH  26  27
ATOM     27  N   UNL A   1      33.605  30.192  27.730  1.00  0.00    -0.352 N 
ATOM     28  C   UNL A   1      34.614  30.835  28.404  1.00  0.00     0.251 C 
ATOM     29  H   UNL A   1      32.804  30.736  27.549  1.00  0.00     0.163 HD
ATOM     30  O   UNL A   1      34.414  31.929  28.921  1.00  0.00    -0.269 OA
BRANCH  28  31
ATOM     31  C   UNL A   1      35.927  30.171  28.527  1.00  0.00     0.039 A 
ATOM     32  C   UNL A   1      36.313  29.596  29.740  1.00  0.00     0.014 A 
ATOM     33  C   UNL A   1      36.802  30.185  27.440  1.00  0.00     0.014 A 
ATOM     34  C   UNL A   1      37.635  29.219  29.928  1.00  0.00     0.010 A 
ATOM     35  C   UNL A   1      38.103  29.706  27.602  1.00  0.00     0.010 A 
ATOM     36  C   UNL A   1      38.550  29.277  28.864  1.00  0.00    -0.014 A 
BRANCH  36  37
ATOM     37  C   UNL A   1      39.972  28.916  29.089  1.00  0.00     0.031 A 
ATOM     38  C   UNL A   1      40.485  27.558  28.683  1.00  0.00     0.074 A 
ATOM     39  C   UNL A   1      40.812  29.823  29.626  1.00  0.00     0.049 A 
ATOM     40  N   UNL A   1      41.682  27.053  28.840  1.00  0.00    -0.248 NA
ATOM     41  C   UNL A   1      39.537  26.644  28.020  1.00  0.00     0.031 C 
ATOM     42  C   UNL A   1      40.439  31.184  30.020  1.00  0.00     0.029 A 
ATOM     43  N   UNL A   1      42.151  29.750  29.922  1.00  0.00    -0.354 N 
ATOM     44  C   UNL A   1      41.625  25.765  28.317  1.00  0.00     0.074 A 
ATOM     45  C   UNL A   1      40.267  25.548  27.873  1.00  0.00     0.031 C 
ATOM     46  C   UNL A   1      41.528  31.829  30.460  1.00  0.00     0.029 A 
ATOM     47  C   UNL A   1      42.659  30.907  30.467  1.00  0.00     0.049 A 
ATOM     48  H   UNL A   1      42.696  28.946  29.758  1.00  0.00     0.167 HD
ATOM     49  C   UNL A   1      42.622  24.858  28.202  1.00  0.00     0.031 A 
ATOM     50  C   UNL A   1      43.887  31.194  30.946  1.00  0.00     0.031 A 
ATOM     51  C   UNL A   1      43.978  25.100  28.626  1.00  0.00     0.049 A 
ATOM     52  C   UNL A   1      44.958  30.142  30.873  1.00  0.00     0.074 A 
ATOM     53  C   UNL A   1      45.066  24.250  28.526  1.00  0.00     0.029 A 
ATOM     54  N   UNL A   1      44.437  26.268  29.219  1.00  0.00    -0.354 N 
ATOM     55  N   UNL A   1      44.893  28.940  30.351  1.00  0.00    -0.248 NA
ATOM     56  C   UNL A   1      46.270  30.479  31.441  1.00  0.00     0.031 C 
ATOM     57  C   UNL A   1      46.155  24.865  29.141  1.00  0.00     0.029 A 
ATOM     58  C   UNL A   1      45.781  26.142  29.527  1.00  0.00     0.049 A 
ATOM     59  H   UNL A   1      43.888  27.067  29.394  1.00  0.00     0.167 HD
ATOM     60  C   UNL A   1      46.160  28.389  30.503  1.00  0.00     0.074 A 
ATOM     61  C   UNL A   1      46.978  29.396  31.147  1.00  0.00     0.031 C 
ATOM     62  C   UNL A   1      46.599  27.158  30.147  1.00  0.00     0.031 A 
BRANCH  49  63
ATOM     63  C   UNL A   1      42.320  23.513  27.585  1.00  0.00    -0.014 A 
ATOM     64  C   UNL A   1      41.951  22.435  28.414  1.00  0.00     0.010 A 
ATOM     65  C   UNL A   1      42.561  23.271  26.221  1.00  0.00     0.010 A 
ATOM     66  C   UNL A   1      41.890  21.135  27.905  1.00  0.00     0.020 A 
ATOM     67  C   UNL A   1      42.462  21.976  25.701  1.00  0.00     0.020 A 
ATOM     68  C   UNL A   1      42.162  20.912  26.553  1.00  0.00     0.054 A 
BRANCH  68  69
ATOM     69  S   UNL A   1      42.158  19.208  25.932  1.00  0.00     0.124 S 
ATOM     70  O   UNL A   1      40.747  18.994  25.624  1.00  0.00    -0.237 OA
ATOM     71  O   UNL A   1      43.052  19.290  24.780  1.00  0.00    -0.237 OA
ATOM     72  O   UNL A   1      42.675  18.432  27.057  1.00  0.00    -0.744 OA
ENDBRANCH  68  69
ENDBRANCH  49  63
BRANCH  50  73
ATOM     73  C   UNL A   1      44.149  32.547  31.516  1.00  0.00    -0.014 A 
ATOM     74  C   UNL A   1      44.578  33.602  30.686  1.00  0.00     0.010 A 
ATOM     75  C   UNL A   1      44.055  32.770  32.901  1.00  0.00     0.010 A 
ATOM     76  C   UNL A   1      44.979  34.823  31.233  1.00  0.00     0.020 A 
ATOM     77  C   UNL A   1      44.413  34.006  33.449  1.00  0.00     0.020 A 
ATOM     78  C   UNL A   1      44.906  35.012  32.614  1.00  0.00     0.054 A 
BRANCH  78  79
ATOM     79  S   UNL A   1      45.496  36.581  33.306  1.00  0.00     0.124 S 
ATOM     80  O   UNL A   1      46.945  36.427  33.202  1.00  0.00    -0.237 OA
ATOM     81  O   UNL A   1      44.902  37.567  32.407  1.00  0.00    -0.237 OA
ATOM     82  O   UNL A   1      44.965  36.580  34.666  1.00  0.00    -0.744 OA
ENDBRANCH  78  79
ENDBRANCH  50  73
BRANCH  62  83
ATOM     83  C   UNL A   1      48.040  26.795  30.417  1.00  0.00    -0.014 A 
ATOM     84  C   UNL A   1      48.394  26.247  31.666  1.00  0.00     0.010 A 
ATOM     85  C   UNL A   1      49.057  27.163  29.521  1.00  0.00     0.010 A 
ATOM     86  C   UNL A   1      49.735  26.141  32.041  1.00  0.00     0.020 A 
ATOM     87  C   UNL A   1      50.402  27.019  29.876  1.00  0.00     0.020 A 
ATOM     88  C   UNL A   1      50.730  26.544  31.148  1.00  0.00     0.054 A 
BRANCH  88  89
ATOM     89  S   UNL A   1      52.460  26.486  31.690  1.00  0.00     0.124 S 
ATOM     90  O   UNL A   1      52.516  27.578  32.658  1.00  0.00    -0.237 OA
ATOM     91  O   UNL A   1      52.572  25.142  32.251  1.00  0.00    -0.237 OA
ATOM     92  O   UNL A   1      53.214  26.705  30.458  1.00  0.00    -0.744 OA
ENDBRANCH  88  89
ENDBRANCH  62  83
ENDBRANCH  36  37
ENDBRANCH  28  31
ENDBRANCH  26  27
ENDBRANCH  25  26
ENDBRANCH   1  25
TORSDOF 18
ENDMDL
