MODEL 1
REMARK VINA RESULT:      -9.7      0.000      0.000
REMARK SMILES COCC[C@H](C)NC(=O)N1CC[C@H](C(=O)NCCCCCCNC(=O)c2ccc(-c3c4nc(c(-c5ccc(S(=O)(=O)[O-])cc5)c5ccc([nH]5)c(-c5ccc(S(=O)(=O)[O-])cc5)c5nc(c(-c6ccc(S(=O)(=O)[O-])cc6)c6ccc3[nH]6)C=C5)C=C4)cc2)[C@H]1C
REMARK SMILES IDX 18 1 17 2 16 3 14 4 15 5 13 7 10 8 11 9 86 10 12 11 87 12
REMARK SMILES IDX 8 13 7 14 9 16 5 17 6 18 4 19 3 20 2 21 1 22 19 23 20 24
REMARK SMILES IDX 21 25 22 26 23 27 24 28 25 30 26 31 27 32 85 33 28 34 84 35
REMARK SMILES IDX 29 36 30 37 31 38 78 39 32 40 83 41 77 42 79 43 33 44 82 45
REMARK SMILES IDX 76 46 75 47 34 49 64 50 45 51 63 52 46 53 49 54 62 55 80 56
REMARK SMILES IDX 47 57 48 58 61 60 81 61 50 62 35 63 36 64 44 65 37 66 43 67
REMARK SMILES IDX 38 68 39 69 40 70 41 71 42 72 65 73 66 74 74 75 67 76 73 77
REMARK SMILES IDX 68 78 69 79 70 80 71 81 72 82 51 83 52 84 60 85 53 86 59 87
REMARK SMILES IDX 54 88 55 89 56 90 57 91 58 92
REMARK H PARENT 16 6 7 15 23 29 79 48 49 59
REMARK Flexibility Score: inf
ROOT
ATOM      1  C   UNL A   1      36.606  23.568  24.622  1.00  0.00     0.021 C 
ENDROOT
BRANCH   1   2
ATOM      2  C   UNL A   1      35.117  23.944  24.702  1.00  0.00     0.116 C 
BRANCH   2   3
ATOM      3  N   UNL A   1      34.711  24.694  23.532  1.00  0.00    -0.356 N 
ATOM      4  C   UNL A   1      33.615  25.359  23.126  1.00  0.00     0.225 C 
ATOM      5  O   UNL A   1      33.713  25.763  21.952  1.00  0.00    -0.275 OA
ATOM      6  H   UNL A   1      35.424  24.724  22.853  1.00  0.00     0.163 HD
BRANCH   4   7
ATOM      7  C   UNL A   1      32.374  25.797  23.928  1.00  0.00     0.102 C 
ATOM      8  N   UNL A   1      31.252  24.201  25.363  1.00  0.00    -0.321 N 
ATOM      9  C   UNL A   1      30.907  23.927  23.968  1.00  0.00     0.122 C 
ATOM     10  C   UNL A   1      32.014  25.479  25.408  1.00  0.00     0.096 C 
ATOM     11  C   UNL A   1      31.135  25.224  23.214  1.00  0.00     0.037 C 
ATOM     12  C   UNL A   1      31.143  26.643  25.928  1.00  0.00     0.032 C 
BRANCH   8  13
ATOM     13  C   UNL A   1      31.023  23.168  26.231  1.00  0.00     0.317 C 
ATOM     14  N   UNL A   1      31.478  21.902  26.102  1.00  0.00    -0.335 N 
ATOM     15  H   UNL A   1      30.826  21.226  26.398  1.00  0.00     0.165 HD
ATOM     16  O   UNL A   1      30.308  23.341  27.227  1.00  0.00    -0.249 OA
BRANCH  14  17
ATOM     17  C   UNL A   1      32.727  21.322  25.618  1.00  0.00     0.083 C 
ATOM     18  C   UNL A   1      33.699  21.206  26.806  1.00  0.00     0.031 C 
BRANCH  17  19
ATOM     19  C   UNL A   1      32.658  19.919  24.948  1.00  0.00     0.053 C 
BRANCH  19  20
ATOM     20  C   UNL A   1      33.873  19.002  24.862  1.00  0.00     0.162 C 
BRANCH  20  21
ATOM     21  O   UNL A   1      33.814  18.062  23.803  1.00  0.00    -0.385 OA
ATOM     22  C   UNL A   1      32.894  17.036  24.070  1.00  0.00     0.194 C 
ENDBRANCH  20  21
ENDBRANCH  19  20
ENDBRANCH  17  19
ENDBRANCH  14  17
ENDBRANCH   8  13
ENDBRANCH   4   7
ENDBRANCH   2   3
ENDBRANCH   1   2
BRANCH   1  23
ATOM     23  C   UNL A   1      37.367  23.510  25.957  1.00  0.00     0.002 C 
BRANCH  23  24
ATOM     24  C   UNL A   1      38.811  22.990  25.958  1.00  0.00     0.002 C 
BRANCH  24  25
ATOM     25  C   UNL A   1      39.091  21.599  26.536  1.00  0.00     0.021 C 
BRANCH  25  26
ATOM     26  C   UNL A   1      39.295  20.459  25.540  1.00  0.00     0.116 C 
BRANCH  26  27
ATOM     27  N   UNL A   1      40.323  19.535  25.985  1.00  0.00    -0.352 N 
ATOM     28  C   UNL A   1      41.624  19.757  26.360  1.00  0.00     0.251 C 
ATOM     29  H   UNL A   1      40.040  18.592  26.023  1.00  0.00     0.163 HD
ATOM     30  O   UNL A   1      42.383  18.793  26.460  1.00  0.00    -0.269 OA
BRANCH  28  31
ATOM     31  C   UNL A   1      42.137  21.119  26.646  1.00  0.00     0.039 A 
ATOM     32  C   UNL A   1      42.454  21.952  25.566  1.00  0.00     0.014 A 
ATOM     33  C   UNL A   1      42.401  21.554  27.948  1.00  0.00     0.014 A 
ATOM     34  C   UNL A   1      42.992  23.226  25.790  1.00  0.00     0.010 A 
ATOM     35  C   UNL A   1      42.889  22.845  28.174  1.00  0.00     0.010 A 
ATOM     36  C   UNL A   1      43.194  23.694  27.098  1.00  0.00    -0.014 A 
BRANCH  36  37
ATOM     37  C   UNL A   1      43.719  25.064  27.350  1.00  0.00     0.031 A 
ATOM     38  C   UNL A   1      45.174  25.385  27.126  1.00  0.00     0.074 A 
ATOM     39  C   UNL A   1      42.894  26.016  27.830  1.00  0.00     0.049 A 
ATOM     40  N   UNL A   1      45.816  26.507  27.341  1.00  0.00    -0.248 NA
ATOM     41  C   UNL A   1      46.022  24.298  26.610  1.00  0.00     0.031 C 
ATOM     42  C   UNL A   1      41.469  25.834  28.118  1.00  0.00     0.029 A 
ATOM     43  N   UNL A   1      43.135  27.326  28.167  1.00  0.00    -0.354 N 
ATOM     44  C   UNL A   1      47.141  26.259  27.004  1.00  0.00     0.074 A 
ATOM     45  C   UNL A   1      47.219  24.869  26.606  1.00  0.00     0.031 C 
ATOM     46  C   UNL A   1      40.961  26.993  28.571  1.00  0.00     0.029 A 
ATOM     47  C   UNL A   1      42.027  27.988  28.641  1.00  0.00     0.049 A 
ATOM     48  H   UNL A   1      44.019  27.752  28.078  1.00  0.00     0.167 HD
ATOM     49  C   UNL A   1      48.197  27.111  27.012  1.00  0.00     0.031 A 
ATOM     50  C   UNL A   1      41.880  29.249  29.091  1.00  0.00     0.031 A 
ATOM     51  C   UNL A   1      48.119  28.496  27.398  1.00  0.00     0.049 A 
ATOM     52  C   UNL A   1      43.065  30.174  29.099  1.00  0.00     0.074 A 
ATOM     53  C   UNL A   1      49.123  29.450  27.390  1.00  0.00     0.029 A 
ATOM     54  N   UNL A   1      46.976  29.127  27.863  1.00  0.00    -0.354 N 
ATOM     55  N   UNL A   1      44.300  29.933  28.725  1.00  0.00    -0.248 NA
ATOM     56  C   UNL A   1      42.836  31.545  29.577  1.00  0.00     0.031 C 
ATOM     57  C   UNL A   1      48.599  30.645  27.895  1.00  0.00     0.029 A 
ATOM     58  C   UNL A   1      47.254  30.451  28.166  1.00  0.00     0.049 A 
ATOM     59  H   UNL A   1      46.095  28.699  27.964  1.00  0.00     0.167 HD
ATOM     60  C   UNL A   1      44.988  31.130  28.902  1.00  0.00     0.074 A 
ATOM     61  C   UNL A   1      44.030  32.095  29.401  1.00  0.00     0.031 C 
ATOM     62  C   UNL A   1      46.295  31.403  28.667  1.00  0.00     0.031 A 
BRANCH  49  63
ATOM     63  C   UNL A   1      49.538  26.562  26.598  1.00  0.00    -0.014 A 
ATOM     64  C   UNL A   1      50.426  26.021  27.545  1.00  0.00     0.010 A 
ATOM     65  C   UNL A   1      49.898  26.548  25.238  1.00  0.00     0.010 A 
ATOM     66  C   UNL A   1      51.668  25.521  27.146  1.00  0.00     0.020 A 
ATOM     67  C   UNL A   1      51.129  26.023  24.831  1.00  0.00     0.020 A 
ATOM     68  C   UNL A   1      52.014  25.530  25.792  1.00  0.00     0.054 A 
BRANCH  68  69
ATOM     69  S   UNL A   1      53.627  24.864  25.296  1.00  0.00     0.124 S 
ATOM     70  O   UNL A   1      53.305  23.461  25.037  1.00  0.00    -0.237 OA
ATOM     71  O   UNL A   1      53.950  25.659  24.109  1.00  0.00    -0.237 OA
ATOM     72  O   UNL A   1      54.475  25.105  26.453  1.00  0.00    -0.744 OA
ENDBRANCH  68  69
ENDBRANCH  49  63
BRANCH  50  73
ATOM     73  C   UNL A   1      40.547  29.716  29.563  1.00  0.00    -0.014 A 
ATOM     74  C   UNL A   1      40.294  29.880  30.936  1.00  0.00     0.010 A 
ATOM     75  C   UNL A   1      39.531  30.016  28.639  1.00  0.00     0.010 A 
ATOM     76  C   UNL A   1      39.043  30.323  31.377  1.00  0.00     0.020 A 
ATOM     77  C   UNL A   1      38.288  30.485  29.074  1.00  0.00     0.020 A 
ATOM     78  C   UNL A   1      38.049  30.626  30.442  1.00  0.00     0.054 A 
BRANCH  78  79
ATOM     79  S   UNL A   1      36.454  31.257  31.034  1.00  0.00     0.124 S 
ATOM     80  O   UNL A   1      36.839  32.517  31.659  1.00  0.00    -0.237 OA
ATOM     81  O   UNL A   1      35.681  31.372  29.799  1.00  0.00    -0.237 OA
ATOM     82  O   UNL A   1      35.996  30.215  31.951  1.00  0.00    -0.744 OA
ENDBRANCH  78  79
ENDBRANCH  50  73
BRANCH  62  83
ATOM     83  C   UNL A   1      46.765  32.811  28.918  1.00  0.00    -0.014 A 
ATOM     84  C   UNL A   1      46.646  33.805  27.932  1.00  0.00     0.010 A 
ATOM     85  C   UNL A   1      47.287  33.154  30.179  1.00  0.00     0.010 A 
ATOM     86  C   UNL A   1      47.069  35.112  28.191  1.00  0.00     0.020 A 
ATOM     87  C   UNL A   1      47.688  34.464  30.450  1.00  0.00     0.020 A 
ATOM     88  C   UNL A   1      47.590  35.433  29.449  1.00  0.00     0.054 A 
BRANCH  88  89
ATOM     89  S   UNL A   1      48.093  37.145  29.776  1.00  0.00     0.124 S 
ATOM     90  O   UNL A   1      49.502  36.985  30.126  1.00  0.00    -0.237 OA
ATOM     91  O   UNL A   1      47.833  37.807  28.500  1.00  0.00    -0.237 OA
ATOM     92  O   UNL A   1      47.221  37.558  30.873  1.00  0.00    -0.744 OA
ENDBRANCH  88  89
ENDBRANCH  62  83
ENDBRANCH  36  37
ENDBRANCH  28  31
ENDBRANCH  26  27
ENDBRANCH  25  26
ENDBRANCH  24  25
ENDBRANCH  23  24
ENDBRANCH   1  23
TORSDOF 21
ENDMDL
MODEL 2
REMARK VINA RESULT:      -9.6      1.734      3.012
REMARK SMILES COCC[C@H](C)NC(=O)N1CC[C@H](C(=O)NCCCCCCNC(=O)c2ccc(-c3c4nc(c(-c5ccc(S(=O)(=O)[O-])cc5)c5ccc([nH]5)c(-c5ccc(S(=O)(=O)[O-])cc5)c5nc(c(-c6ccc(S(=O)(=O)[O-])cc6)c6ccc3[nH]6)C=C5)C=C4)cc2)[C@H]1C
REMARK SMILES IDX 18 1 17 2 16 3 14 4 15 5 13 7 10 8 11 9 86 10 12 11 87 12
REMARK SMILES IDX 8 13 7 14 9 16 5 17 6 18 4 19 3 20 2 21 1 22 19 23 20 24
REMARK SMILES IDX 21 25 22 26 23 27 24 28 25 30 26 31 27 32 85 33 28 34 84 35
REMARK SMILES IDX 29 36 30 37 31 38 78 39 32 40 83 41 77 42 79 43 33 44 82 45
REMARK SMILES IDX 76 46 75 47 34 49 64 50 45 51 63 52 46 53 49 54 62 55 80 56
REMARK SMILES IDX 47 57 48 58 61 60 81 61 50 62 35 63 36 64 44 65 37 66 43 67
REMARK SMILES IDX 38 68 39 69 40 70 41 71 42 72 65 73 66 74 74 75 67 76 73 77
REMARK SMILES IDX 68 78 69 79 70 80 71 81 72 82 51 83 52 84 60 85 53 86 59 87
REMARK SMILES IDX 54 88 55 89 56 90 57 91 58 92
REMARK H PARENT 16 6 7 15 23 29 79 48 49 59
REMARK Flexibility Score: inf
ROOT
ATOM      1  C   UNL A   1      36.173  23.839  25.019  1.00  0.00     0.021 C 
ENDROOT
BRANCH   1   2
ATOM      2  C   UNL A   1      34.851  24.573  25.300  1.00  0.00     0.116 C 
BRANCH   2   3
ATOM      3  N   UNL A   1      33.815  24.138  24.386  1.00  0.00    -0.356 N 
ATOM      4  C   UNL A   1      33.112  24.676  23.374  1.00  0.00     0.225 C 
ATOM      5  O   UNL A   1      32.226  23.910  22.952  1.00  0.00    -0.275 OA
ATOM      6  H   UNL A   1      33.556  23.202  24.549  1.00  0.00     0.163 HD
BRANCH   4   7
ATOM      7  C   UNL A   1      33.341  25.992  22.604  1.00  0.00     0.102 C 
ATOM      8  N   UNL A   1      31.894  27.889  23.021  1.00  0.00    -0.321 N 
ATOM      9  C   UNL A   1      31.187  26.912  22.193  1.00  0.00     0.122 C 
ATOM     10  C   UNL A   1      33.311  27.450  23.148  1.00  0.00     0.096 C 
ATOM     11  C   UNL A   1      32.260  26.082  21.511  1.00  0.00     0.037 C 
ATOM     12  C   UNL A   1      34.249  28.290  22.253  1.00  0.00     0.032 C 
BRANCH   8  13
ATOM     13  C   UNL A   1      31.093  28.800  23.655  1.00  0.00     0.317 C 
ATOM     14  N   UNL A   1      31.192  29.189  24.945  1.00  0.00    -0.335 N 
ATOM     15  H   UNL A   1      30.317  29.335  25.372  1.00  0.00     0.165 HD
ATOM     16  O   UNL A   1      30.148  29.322  23.048  1.00  0.00    -0.249 OA
BRANCH  14  17
ATOM     17  C   UNL A   1      32.318  29.439  25.840  1.00  0.00     0.083 C 
ATOM     18  C   UNL A   1      31.978  30.659  26.714  1.00  0.00     0.031 C 
BRANCH  17  19
ATOM     19  C   UNL A   1      32.740  28.292  26.804  1.00  0.00     0.053 C 
BRANCH  19  20
ATOM     20  C   UNL A   1      32.252  26.859  26.620  1.00  0.00     0.162 C 
BRANCH  20  21
ATOM     21  O   UNL A   1      30.842  26.721  26.651  1.00  0.00    -0.385 OA
ATOM     22  C   UNL A   1      30.408  25.649  25.855  1.00  0.00     0.194 C 
ENDBRANCH  20  21
ENDBRANCH  19  20
ENDBRANCH  17  19
ENDBRANCH  14  17
ENDBRANCH   8  13
ENDBRANCH   4   7
ENDBRANCH   2   3
ENDBRANCH   1   2
BRANCH   1  23
ATOM     23  C   UNL A   1      37.242  23.916  26.121  1.00  0.00     0.002 C 
BRANCH  23  24
ATOM     24  C   UNL A   1      38.549  23.131  25.934  1.00  0.00     0.002 C 
BRANCH  24  25
ATOM     25  C   UNL A   1      38.560  21.635  26.262  1.00  0.00     0.021 C 
BRANCH  25  26
ATOM     26  C   UNL A   1      39.276  20.711  25.278  1.00  0.00     0.116 C 
BRANCH  26  27
ATOM     27  N   UNL A   1      40.182  19.803  25.956  1.00  0.00    -0.352 N 
ATOM     28  C   UNL A   1      41.415  20.021  26.516  1.00  0.00     0.251 C 
ATOM     29  H   UNL A   1      39.858  18.875  26.026  1.00  0.00     0.163 HD
ATOM     30  O   UNL A   1      42.109  19.049  26.816  1.00  0.00    -0.269 OA
BRANCH  28  31
ATOM     31  C   UNL A   1      41.933  21.388  26.768  1.00  0.00     0.039 A 
ATOM     32  C   UNL A   1      42.186  22.218  25.669  1.00  0.00     0.014 A 
ATOM     33  C   UNL A   1      42.262  21.831  28.052  1.00  0.00     0.014 A 
ATOM     34  C   UNL A   1      42.725  23.496  25.858  1.00  0.00     0.010 A 
ATOM     35  C   UNL A   1      42.751  23.128  28.245  1.00  0.00     0.010 A 
ATOM     36  C   UNL A   1      42.993  23.973  27.151  1.00  0.00    -0.014 A 
BRANCH  36  37
ATOM     37  C   UNL A   1      43.520  25.348  27.368  1.00  0.00     0.031 A 
ATOM     38  C   UNL A   1      44.961  25.676  27.074  1.00  0.00     0.074 A 
ATOM     39  C   UNL A   1      42.712  26.299  27.878  1.00  0.00     0.049 A 
ATOM     40  N   UNL A   1      45.605  26.803  27.251  1.00  0.00    -0.248 NA
ATOM     41  C   UNL A   1      45.791  24.591  26.527  1.00  0.00     0.031 C 
ATOM     42  C   UNL A   1      41.304  26.110  28.234  1.00  0.00     0.029 A 
ATOM     43  N   UNL A   1      42.960  27.612  28.194  1.00  0.00    -0.354 N 
ATOM     44  C   UNL A   1      46.914  26.561  26.854  1.00  0.00     0.074 A 
ATOM     45  C   UNL A   1      46.983  25.169  26.464  1.00  0.00     0.031 C 
ATOM     46  C   UNL A   1      40.809  27.269  28.701  1.00  0.00     0.029 A 
ATOM     47  C   UNL A   1      41.871  28.271  28.714  1.00  0.00     0.049 A 
ATOM     48  H   UNL A   1      43.836  28.043  28.061  1.00  0.00     0.167 HD
ATOM     49  C   UNL A   1      47.964  27.419  26.807  1.00  0.00     0.031 A 
ATOM     50  C   UNL A   1      41.737  29.535  29.161  1.00  0.00     0.031 A 
ATOM     51  C   UNL A   1      47.895  28.807  27.186  1.00  0.00     0.049 A 
ATOM     52  C   UNL A   1      42.915  30.468  29.107  1.00  0.00     0.074 A 
ATOM     53  C   UNL A   1      48.892  29.767  27.124  1.00  0.00     0.029 A 
ATOM     54  N   UNL A   1      46.770  29.435  27.699  1.00  0.00    -0.354 N 
ATOM     55  N   UNL A   1      44.132  30.231  28.678  1.00  0.00    -0.248 NA
ATOM     56  C   UNL A   1      42.699  31.840  29.585  1.00  0.00     0.031 C 
ATOM     57  C   UNL A   1      48.384  30.962  27.643  1.00  0.00     0.029 A 
ATOM     58  C   UNL A   1      47.054  30.762  27.978  1.00  0.00     0.049 A 
ATOM     59  H   UNL A   1      45.898  29.002  27.843  1.00  0.00     0.167 HD
ATOM     60  C   UNL A   1      44.820  31.433  28.814  1.00  0.00     0.074 A 
ATOM     61  C   UNL A   1      43.880  32.396  29.349  1.00  0.00     0.031 C 
ATOM     62  C   UNL A   1      46.113  31.713  28.516  1.00  0.00     0.031 A 
BRANCH  49  63
ATOM     63  C   UNL A   1      49.288  26.875  26.335  1.00  0.00    -0.014 A 
ATOM     64  C   UNL A   1      49.745  27.109  25.026  1.00  0.00     0.010 A 
ATOM     65  C   UNL A   1      50.105  26.156  27.226  1.00  0.00     0.010 A 
ATOM     66  C   UNL A   1      50.973  26.594  24.602  1.00  0.00     0.020 A 
ATOM     67  C   UNL A   1      51.347  25.662  26.814  1.00  0.00     0.020 A 
ATOM     68  C   UNL A   1      51.764  25.868  25.497  1.00  0.00     0.054 A 
BRANCH  68  69
ATOM     69  S   UNL A   1      53.359  25.219  24.928  1.00  0.00     0.124 S 
ATOM     70  O   UNL A   1      53.272  23.815  25.333  1.00  0.00    -0.237 OA
ATOM     71  O   UNL A   1      53.304  25.456  23.484  1.00  0.00    -0.237 OA
ATOM     72  O   UNL A   1      54.338  26.015  25.650  1.00  0.00    -0.744 OA
ENDBRANCH  68  69
ENDBRANCH  49  63
BRANCH  50  73
ATOM     73  C   UNL A   1      40.424  29.997  29.691  1.00  0.00    -0.014 A 
ATOM     74  C   UNL A   1      40.252  30.230  31.066  1.00  0.00     0.010 A 
ATOM     75  C   UNL A   1      39.345  30.224  28.818  1.00  0.00     0.010 A 
ATOM     76  C   UNL A   1      39.021  30.669  31.562  1.00  0.00     0.020 A 
ATOM     77  C   UNL A   1      38.121  30.689  29.305  1.00  0.00     0.020 A 
ATOM     78  C   UNL A   1      37.963  30.899  30.677  1.00  0.00     0.054 A 
BRANCH  78  79
ATOM     79  S   UNL A   1      36.392  31.525  31.333  1.00  0.00     0.124 S 
ATOM     80  O   UNL A   1      35.640  31.798  30.113  1.00  0.00    -0.237 OA
ATOM     81  O   UNL A   1      35.912  30.402  32.134  1.00  0.00    -0.237 OA
ATOM     82  O   UNL A   1      36.790  32.703  32.102  1.00  0.00    -0.744 OA
ENDBRANCH  78  79
ENDBRANCH  50  73
BRANCH  62  83
ATOM     83  C   UNL A   1      46.585  33.126  28.734  1.00  0.00    -0.014 A 
ATOM     84  C   UNL A   1      47.144  33.525  29.960  1.00  0.00     0.010 A 
ATOM     85  C   UNL A   1      46.512  34.053  27.679  1.00  0.00     0.010 A 
ATOM     86  C   UNL A   1      47.595  34.836  30.137  1.00  0.00     0.020 A 
ATOM     87  C   UNL A   1      46.984  35.357  27.843  1.00  0.00     0.020 A 
ATOM     88  C   UNL A   1      47.510  35.745  29.077  1.00  0.00     0.054 A 
BRANCH  88  89
ATOM     89  S   UNL A   1      48.141  37.429  29.317  1.00  0.00     0.124 S 
ATOM     90  O   UNL A   1      48.876  37.302  30.571  1.00  0.00    -0.237 OA
ATOM     91  O   UNL A   1      48.960  37.640  28.126  1.00  0.00    -0.237 OA
ATOM     92  O   UNL A   1      46.931  38.246  29.383  1.00  0.00    -0.744 OA
ENDBRANCH  88  89
ENDBRANCH  62  83
ENDBRANCH  36  37
ENDBRANCH  28  31
ENDBRANCH  26  27
ENDBRANCH  25  26
ENDBRANCH  24  25
ENDBRANCH  23  24
ENDBRANCH   1  23
TORSDOF 21
ENDMDL
MODEL 3
REMARK VINA RESULT:      -9.5      1.705      3.442
REMARK SMILES COCC[C@H](C)NC(=O)N1CC[C@H](C(=O)NCCCCCCNC(=O)c2ccc(-c3c4nc(c(-c5ccc(S(=O)(=O)[O-])cc5)c5ccc([nH]5)c(-c5ccc(S(=O)(=O)[O-])cc5)c5nc(c(-c6ccc(S(=O)(=O)[O-])cc6)c6ccc3[nH]6)C=C5)C=C4)cc2)[C@H]1C
REMARK SMILES IDX 18 1 17 2 16 3 14 4 15 5 13 7 10 8 11 9 86 10 12 11 87 12
REMARK SMILES IDX 8 13 7 14 9 16 5 17 6 18 4 19 3 20 2 21 1 22 19 23 20 24
REMARK SMILES IDX 21 25 22 26 23 27 24 28 25 30 26 31 27 32 85 33 28 34 84 35
REMARK SMILES IDX 29 36 30 37 31 38 78 39 32 40 83 41 77 42 79 43 33 44 82 45
REMARK SMILES IDX 76 46 75 47 34 49 64 50 45 51 63 52 46 53 49 54 62 55 80 56
REMARK SMILES IDX 47 57 48 58 61 60 81 61 50 62 35 63 36 64 44 65 37 66 43 67
REMARK SMILES IDX 38 68 39 69 40 70 41 71 42 72 65 73 66 74 74 75 67 76 73 77
REMARK SMILES IDX 68 78 69 79 70 80 71 81 72 82 51 83 52 84 60 85 53 86 59 87
REMARK SMILES IDX 54 88 55 89 56 90 57 91 58 92
REMARK H PARENT 16 6 7 15 23 29 79 48 49 59
REMARK Flexibility Score: inf
ROOT
ATOM      1  C   UNL A   1      39.835  22.473  26.149  1.00  0.00     0.021 C 
ENDROOT
BRANCH   1   2
ATOM      2  C   UNL A   1      38.458  21.845  25.875  1.00  0.00     0.116 C 
BRANCH   2   3
ATOM      3  N   UNL A   1      37.811  22.491  24.752  1.00  0.00    -0.356 N 
ATOM      4  C   UNL A   1      36.608  22.442  24.152  1.00  0.00     0.225 C 
ATOM      5  O   UNL A   1      36.565  23.134  23.118  1.00  0.00    -0.275 OA
ATOM      6  H   UNL A   1      38.410  23.136  24.309  1.00  0.00     0.163 HD
BRANCH   4   7
ATOM      7  C   UNL A   1      35.294  21.793  24.629  1.00  0.00     0.102 C 
ATOM      8  N   UNL A   1      33.357  23.184  25.051  1.00  0.00    -0.321 N 
ATOM      9  C   UNL A   1      34.305  23.324  26.156  1.00  0.00     0.122 C 
ATOM     10  C   UNL A   1      33.840  22.092  24.162  1.00  0.00     0.096 C 
ATOM     11  C   UNL A   1      35.162  22.072  26.138  1.00  0.00     0.037 C 
ATOM     12  C   UNL A   1      33.022  20.796  24.356  1.00  0.00     0.032 C 
BRANCH   8  13
ATOM     13  C   UNL A   1      32.427  24.184  24.955  1.00  0.00     0.317 C 
ATOM     14  N   UNL A   1      32.684  25.498  24.776  1.00  0.00    -0.335 N 
ATOM     15  H   UNL A   1      32.072  26.082  25.279  1.00  0.00     0.165 HD
ATOM     16  O   UNL A   1      31.222  23.923  25.071  1.00  0.00    -0.249 OA
BRANCH  14  17
ATOM     17  C   UNL A   1      33.673  26.237  23.997  1.00  0.00     0.083 C 
ATOM     18  C   UNL A   1      33.651  25.701  22.555  1.00  0.00     0.031 C 
BRANCH  17  19
ATOM     19  C   UNL A   1      33.513  27.783  23.912  1.00  0.00     0.053 C 
BRANCH  19  20
ATOM     20  C   UNL A   1      32.145  28.454  23.881  1.00  0.00     0.162 C 
BRANCH  20  21
ATOM     21  O   UNL A   1      31.449  28.292  22.658  1.00  0.00    -0.385 OA
ATOM     22  C   UNL A   1      30.256  27.570  22.831  1.00  0.00     0.194 C 
ENDBRANCH  20  21
ENDBRANCH  19  20
ENDBRANCH  17  19
ENDBRANCH  14  17
ENDBRANCH   8  13
ENDBRANCH   4   7
ENDBRANCH   2   3
ENDBRANCH   1   2
BRANCH   1  23
ATOM     23  C   UNL A   1      40.400  22.282  27.566  1.00  0.00     0.002 C 
BRANCH  23  24
ATOM     24  C   UNL A   1      41.705  21.491  27.736  1.00  0.00     0.002 C 
BRANCH  24  25
ATOM     25  C   UNL A   1      41.704  19.994  27.412  1.00  0.00     0.021 C 
BRANCH  25  26
ATOM     26  C   UNL A   1      41.530  19.598  25.947  1.00  0.00     0.116 C 
BRANCH  26  27
ATOM     27  N   UNL A   1      42.751  19.045  25.391  1.00  0.00    -0.352 N 
ATOM     28  C   UNL A   1      43.895  19.662  24.951  1.00  0.00     0.251 C 
ATOM     29  H   UNL A   1      42.761  18.063  25.317  1.00  0.00     0.163 HD
ATOM     30  O   UNL A   1      44.703  19.010  24.290  1.00  0.00    -0.269 OA
BRANCH  28  31
ATOM     31  C   UNL A   1      44.182  21.086  25.249  1.00  0.00     0.039 A 
ATOM     32  C   UNL A   1      44.922  21.391  26.399  1.00  0.00     0.014 A 
ATOM     33  C   UNL A   1      43.659  22.126  24.476  1.00  0.00     0.014 A 
ATOM     34  C   UNL A   1      45.170  22.725  26.747  1.00  0.00     0.010 A 
ATOM     35  C   UNL A   1      43.951  23.457  24.794  1.00  0.00     0.010 A 
ATOM     36  C   UNL A   1      44.705  23.771  25.935  1.00  0.00    -0.014 A 
BRANCH  36  37
ATOM     37  C   UNL A   1      45.004  25.191  26.268  1.00  0.00     0.031 A 
ATOM     38  C   UNL A   1      46.397  25.743  26.111  1.00  0.00     0.074 A 
ATOM     39  C   UNL A   1      44.028  25.980  26.761  1.00  0.00     0.049 A 
ATOM     40  N   UNL A   1      46.851  26.937  26.399  1.00  0.00    -0.248 NA
ATOM     41  C   UNL A   1      47.418  24.827  25.576  1.00  0.00     0.031 C 
ATOM     42  C   UNL A   1      42.642  25.567  26.990  1.00  0.00     0.029 A 
ATOM     43  N   UNL A   1      44.054  27.293  27.166  1.00  0.00    -0.354 N 
ATOM     44  C   UNL A   1      48.208  26.914  26.098  1.00  0.00     0.074 A 
ATOM     45  C   UNL A   1      48.512  25.574  25.641  1.00  0.00     0.031 C 
ATOM     46  C   UNL A   1      41.947  26.609  27.476  1.00  0.00     0.029 A 
ATOM     47  C   UNL A   1      42.843  27.752  27.630  1.00  0.00     0.049 A 
ATOM     48  H   UNL A   1      44.863  27.853  27.127  1.00  0.00     0.167 HD
ATOM     49  C   UNL A   1      49.118  27.916  26.183  1.00  0.00     0.031 A 
ATOM     50  C   UNL A   1      42.490  28.951  28.131  1.00  0.00     0.031 A 
ATOM     51  C   UNL A   1      48.815  29.252  26.629  1.00  0.00     0.049 A 
ATOM     52  C   UNL A   1      43.517  30.046  28.223  1.00  0.00     0.074 A 
ATOM     53  C   UNL A   1      49.659  30.348  26.700  1.00  0.00     0.029 A 
ATOM     54  N   UNL A   1      47.575  29.676  27.081  1.00  0.00    -0.354 N 
ATOM     55  N   UNL A   1      44.783  30.017  27.883  1.00  0.00    -0.248 NA
ATOM     56  C   UNL A   1      43.064  31.339  28.755  1.00  0.00     0.031 C 
ATOM     57  C   UNL A   1      48.942  31.421  27.239  1.00  0.00     0.029 A 
ATOM     58  C   UNL A   1      47.636  31.009  27.453  1.00  0.00     0.049 A 
ATOM     59  H   UNL A   1      46.769  29.112  27.130  1.00  0.00     0.167 HD
ATOM     60  C   UNL A   1      45.272  31.294  28.138  1.00  0.00     0.074 A 
ATOM     61  C   UNL A   1      44.163  32.074  28.646  1.00  0.00     0.031 C 
ATOM     62  C   UNL A   1      46.527  31.776  27.962  1.00  0.00     0.031 A 
BRANCH  49  63
ATOM     63  C   UNL A   1      50.539  27.601  25.792  1.00  0.00    -0.014 A 
ATOM     64  C   UNL A   1      50.987  27.782  24.471  1.00  0.00     0.010 A 
ATOM     65  C   UNL A   1      51.451  27.158  26.768  1.00  0.00     0.010 A 
ATOM     66  C   UNL A   1      52.306  27.481  24.124  1.00  0.00     0.020 A 
ATOM     67  C   UNL A   1      52.779  26.882  26.431  1.00  0.00     0.020 A 
ATOM     68  C   UNL A   1      53.193  27.027  25.105  1.00  0.00     0.054 A 
BRANCH  68  69
ATOM     69  S   UNL A   1      54.904  26.653  24.632  1.00  0.00     0.124 S 
ATOM     70  O   UNL A   1      54.840  26.750  23.174  1.00  0.00    -0.237 OA
ATOM     71  O   UNL A   1      55.659  27.719  25.295  1.00  0.00    -0.237 OA
ATOM     72  O   UNL A   1      55.128  25.316  25.159  1.00  0.00    -0.744 OA
ENDBRANCH  68  69
ENDBRANCH  49  63
BRANCH  50  73
ATOM     73  C   UNL A   1      41.088  29.183  28.576  1.00  0.00    -0.014 A 
ATOM     74  C   UNL A   1      40.060  29.356  27.634  1.00  0.00     0.010 A 
ATOM     75  C   UNL A   1      40.774  29.214  29.947  1.00  0.00     0.010 A 
ATOM     76  C   UNL A   1      38.743  29.569  28.054  1.00  0.00     0.020 A 
ATOM     77  C   UNL A   1      39.455  29.400  30.370  1.00  0.00     0.020 A 
ATOM     78  C   UNL A   1      38.449  29.586  29.420  1.00  0.00     0.054 A 
BRANCH  78  79
ATOM     79  S   UNL A   1      36.724  29.805  29.942  1.00  0.00     0.124 S 
ATOM     80  O   UNL A   1      36.653  28.947  31.120  1.00  0.00    -0.237 OA
ATOM     81  O   UNL A   1      36.650  31.241  30.198  1.00  0.00    -0.237 OA
ATOM     82  O   UNL A   1      35.959  29.346  28.785  1.00  0.00    -0.744 OA
ENDBRANCH  78  79
ENDBRANCH  50  73
BRANCH  62  83
ATOM     83  C   UNL A   1      46.766  33.226  28.294  1.00  0.00    -0.014 A 
ATOM     84  C   UNL A   1      46.553  34.235  27.340  1.00  0.00     0.010 A 
ATOM     85  C   UNL A   1      47.160  33.584  29.596  1.00  0.00     0.010 A 
ATOM     86  C   UNL A   1      46.760  35.577  27.672  1.00  0.00     0.020 A 
ATOM     87  C   UNL A   1      47.344  34.925  29.940  1.00  0.00     0.020 A 
ATOM     88  C   UNL A   1      47.157  35.913  28.971  1.00  0.00     0.054 A 
BRANCH  88  89
ATOM     89  S   UNL A   1      47.379  37.664  29.391  1.00  0.00     0.124 S 
ATOM     90  O   UNL A   1      46.331  38.301  28.598  1.00  0.00    -0.237 OA
ATOM     91  O   UNL A   1      47.169  37.678  30.837  1.00  0.00    -0.237 OA
ATOM     92  O   UNL A   1      48.746  37.952  28.964  1.00  0.00    -0.744 OA
ENDBRANCH  88  89
ENDBRANCH  62  83
ENDBRANCH  36  37
ENDBRANCH  28  31
ENDBRANCH  26  27
ENDBRANCH  25  26
ENDBRANCH  24  25
ENDBRANCH  23  24
ENDBRANCH   1  23
TORSDOF 21
ENDMDL
