MODEL 1
REMARK VINA RESULT:     -11.4      0.000      0.000
REMARK SMILES CCC(C)(C)n1c(SCC(=O)NCCCCCCNC(=O)c2ccc(-c3c4nc(c(-c5ccc(S(=O)(=O)[O-])cc5)c5ccc([nH]5)c(-c5ccc(S(=O)(=O)[O-])cc5)c5nc(c(-c6ccc(S(=O)(=O)[O-])cc6)c6ccc3[nH]6)C=C5)C=C4)cc2)nc2cccnc21
REMARK SMILES IDX 15 1 14 2 13 3 12 4 10 5 11 6 9 8 8 9 7 10 6 11 88 12 82 13
REMARK SMILES IDX 83 14 87 15 84 16 86 17 85 18 3 19 4 20 5 21 2 22 1 23 16 24
REMARK SMILES IDX 17 25 18 26 19 27 20 28 21 30 22 31 23 32 81 33 24 34 80 35
REMARK SMILES IDX 25 36 26 37 27 38 74 39 28 40 79 41 73 42 75 43 29 44 78 45
REMARK SMILES IDX 72 46 71 47 30 49 60 50 41 51 59 52 42 53 45 54 58 55 76 56
REMARK SMILES IDX 43 57 44 58 57 60 77 61 46 62 31 63 32 64 40 65 33 66 39 67
REMARK SMILES IDX 34 68 35 69 36 70 37 71 38 72 61 73 62 74 70 75 63 76 69 77
REMARK SMILES IDX 64 78 65 79 66 80 67 81 68 82 47 83 48 84 56 85 49 86 55 87
REMARK SMILES IDX 50 88 51 89 52 90 53 91 54 92
REMARK H PARENT 12 7 19 29 75 48 45 59
REMARK Flexibility Score: inf
ROOT
ATOM      1  C   UNL A   1      37.086  23.398  25.439  1.00  0.00     0.002 C 
ENDROOT
BRANCH   1   2
ATOM      2  C   UNL A   1      36.161  22.186  25.271  1.00  0.00     0.021 C 
BRANCH   2   3
ATOM      3  C   UNL A   1      34.816  22.471  24.616  1.00  0.00     0.116 C 
BRANCH   3   4
ATOM      4  N   UNL A   1      33.876  21.389  24.778  1.00  0.00    -0.355 N 
ATOM      5  C   UNL A   1      32.657  21.420  25.369  1.00  0.00     0.230 C 
ATOM      6  O   UNL A   1      31.849  20.554  25.011  1.00  0.00    -0.274 OA
ATOM      7  H   UNL A   1      34.155  20.518  24.413  1.00  0.00     0.163 HD
BRANCH   5   8
ATOM      8  C   UNL A   1      32.244  22.506  26.344  1.00  0.00     0.178 C 
BRANCH   8   9
ATOM      9  S   UNL A   1      31.115  23.763  25.813  1.00  0.00    -0.078 SA
BRANCH   9  10
ATOM     10  C   UNL A   1      31.471  25.449  25.683  1.00  0.00     0.171 A 
ATOM     11  N   UNL A   1      31.906  26.345  24.711  1.00  0.00    -0.298 N 
ATOM     12  C   UNL A   1      31.969  27.593  25.346  1.00  0.00     0.161 A 
ATOM     13  N   UNL A   1      31.328  26.066  26.848  1.00  0.00    -0.221 NA
ATOM     14  C   UNL A   1      31.624  27.373  26.663  1.00  0.00     0.109 A 
ATOM     15  N   UNL A   1      32.286  28.786  24.793  1.00  0.00    -0.237 NA
ATOM     16  C   UNL A   1      31.618  28.459  27.546  1.00  0.00     0.034 A 
ATOM     17  C   UNL A   1      32.268  29.809  25.679  1.00  0.00     0.113 A 
ATOM     18  C   UNL A   1      31.955  29.708  27.026  1.00  0.00     0.022 A 
BRANCH  11  19
ATOM     19  C   UNL A   1      32.186  26.270  23.264  1.00  0.00     0.043 C 
ATOM     20  C   UNL A   1      33.432  27.015  22.818  1.00  0.00     0.035 C 
ATOM     21  C   UNL A   1      31.065  26.964  22.435  1.00  0.00     0.035 C 
BRANCH  19  22
ATOM     22  C   UNL A   1      32.316  24.775  22.811  1.00  0.00     0.025 C 
ATOM     23  C   UNL A   1      32.930  24.558  21.426  1.00  0.00     0.006 C 
ENDBRANCH  19  22
ENDBRANCH  11  19
ENDBRANCH   9  10
ENDBRANCH   8   9
ENDBRANCH   5   8
ENDBRANCH   3   4
ENDBRANCH   2   3
ENDBRANCH   1   2
BRANCH   1  24
ATOM     24  C   UNL A   1      38.367  23.175  26.257  1.00  0.00     0.002 C 
BRANCH  24  25
ATOM     25  C   UNL A   1      39.155  21.891  25.967  1.00  0.00     0.021 C 
BRANCH  25  26
ATOM     26  C   UNL A   1      40.388  21.721  26.834  1.00  0.00     0.116 C 
BRANCH  26  27
ATOM     27  N   UNL A   1      41.603  21.836  26.047  1.00  0.00    -0.352 N 
ATOM     28  C   UNL A   1      42.242  22.983  25.640  1.00  0.00     0.251 C 
ATOM     29  H   UNL A   1      42.020  20.988  25.769  1.00  0.00     0.163 HD
ATOM     30  O   UNL A   1      42.988  22.953  24.672  1.00  0.00    -0.269 OA
BRANCH  28  31
ATOM     31  C   UNL A   1      42.032  24.238  26.388  1.00  0.00     0.039 A 
ATOM     32  C   UNL A   1      42.511  24.348  27.698  1.00  0.00     0.014 A 
ATOM     33  C   UNL A   1      41.294  25.274  25.810  1.00  0.00     0.014 A 
ATOM     34  C   UNL A   1      42.271  25.517  28.411  1.00  0.00     0.010 A 
ATOM     35  C   UNL A   1      41.121  26.462  26.485  1.00  0.00     0.010 A 
ATOM     36  C   UNL A   1      41.576  26.567  27.796  1.00  0.00    -0.014 A 
BRANCH  36  37
ATOM     37  C   UNL A   1      41.429  27.841  28.480  1.00  0.00     0.031 A 
ATOM     38  C   UNL A   1      42.537  28.799  28.226  1.00  0.00     0.074 A 
ATOM     39  C   UNL A   1      40.293  28.211  29.104  1.00  0.00     0.049 A 
ATOM     40  N   UNL A   1      43.434  29.207  29.059  1.00  0.00    -0.248 NA
ATOM     41  C   UNL A   1      42.760  29.247  26.841  1.00  0.00     0.031 C 
ATOM     42  C   UNL A   1      39.010  27.504  29.148  1.00  0.00     0.029 A 
ATOM     43  N   UNL A   1      40.015  29.378  29.742  1.00  0.00    -0.354 N 
ATOM     44  C   UNL A   1      44.210  30.129  28.363  1.00  0.00     0.074 A 
ATOM     45  C   UNL A   1      43.874  29.969  26.971  1.00  0.00     0.031 C 
ATOM     46  C   UNL A   1      38.044  28.352  29.574  1.00  0.00     0.029 A 
ATOM     47  C   UNL A   1      38.662  29.606  29.970  1.00  0.00     0.049 A 
ATOM     48  H   UNL A   1      40.716  30.011  30.021  1.00  0.00     0.167 HD
ATOM     49  C   UNL A   1      44.885  31.125  29.002  1.00  0.00     0.031 A 
ATOM     50  C   UNL A   1      38.102  30.766  30.406  1.00  0.00     0.031 A 
ATOM     51  C   UNL A   1      44.947  30.900  30.423  1.00  0.00     0.049 A 
ATOM     52  C   UNL A   1      39.192  31.532  31.066  1.00  0.00     0.074 A 
ATOM     53  C   UNL A   1      45.455  29.897  31.223  1.00  0.00     0.029 A 
ATOM     54  N   UNL A   1      44.048  31.594  31.201  1.00  0.00    -0.354 N 
ATOM     55  N   UNL A   1      39.792  31.136  32.155  1.00  0.00    -0.248 NA
ATOM     56  C   UNL A   1      39.923  32.508  30.271  1.00  0.00     0.031 C 
ATOM     57  C   UNL A   1      44.491  29.737  32.259  1.00  0.00     0.029 A 
ATOM     58  C   UNL A   1      43.493  30.699  32.079  1.00  0.00     0.049 A 
ATOM     59  H   UNL A   1      43.842  32.555  31.139  1.00  0.00     0.167 HD
ATOM     60  C   UNL A   1      41.125  31.471  31.967  1.00  0.00     0.074 A 
ATOM     61  C   UNL A   1      41.129  32.397  30.834  1.00  0.00     0.031 C 
ATOM     62  C   UNL A   1      42.127  30.757  32.557  1.00  0.00     0.031 A 
BRANCH  49  63
ATOM     63  C   UNL A   1      45.132  32.488  28.405  1.00  0.00    -0.014 A 
ATOM     64  C   UNL A   1      46.432  32.818  27.972  1.00  0.00     0.010 A 
ATOM     65  C   UNL A   1      44.205  33.545  28.512  1.00  0.00     0.010 A 
ATOM     66  C   UNL A   1      46.801  34.147  27.724  1.00  0.00     0.020 A 
ATOM     67  C   UNL A   1      44.548  34.866  28.224  1.00  0.00     0.020 A 
ATOM     68  C   UNL A   1      45.855  35.164  27.861  1.00  0.00     0.054 A 
BRANCH  68  69
ATOM     69  S   UNL A   1      46.369  36.886  27.658  1.00  0.00     0.124 S 
ATOM     70  O   UNL A   1      46.213  37.412  29.009  1.00  0.00    -0.237 OA
ATOM     71  O   UNL A   1      47.744  36.739  27.187  1.00  0.00    -0.237 OA
ATOM     72  O   UNL A   1      45.428  37.411  26.671  1.00  0.00    -0.744 OA
ENDBRANCH  68  69
ENDBRANCH  49  63
BRANCH  50  73
ATOM     73  C   UNL A   1      36.804  31.383  30.013  1.00  0.00    -0.014 A 
ATOM     74  C   UNL A   1      35.948  31.933  30.990  1.00  0.00     0.010 A 
ATOM     75  C   UNL A   1      36.526  31.694  28.666  1.00  0.00     0.010 A 
ATOM     76  C   UNL A   1      34.925  32.835  30.642  1.00  0.00     0.020 A 
ATOM     77  C   UNL A   1      35.501  32.581  28.309  1.00  0.00     0.020 A 
ATOM     78  C   UNL A   1      34.731  33.180  29.303  1.00  0.00     0.054 A 
BRANCH  78  79
ATOM     79  S   UNL A   1      33.549  34.494  28.880  1.00  0.00     0.124 S 
ATOM     80  O   UNL A   1      34.412  35.530  28.318  1.00  0.00    -0.237 OA
ATOM     81  O   UNL A   1      32.666  33.823  27.931  1.00  0.00    -0.237 OA
ATOM     82  O   UNL A   1      32.933  34.832  30.164  1.00  0.00    -0.744 OA
ENDBRANCH  78  79
ENDBRANCH  50  73
BRANCH  62  83
ATOM     83  C   UNL A   1      41.781  29.751  33.629  1.00  0.00    -0.014 A 
ATOM     84  C   UNL A   1      41.380  28.429  33.348  1.00  0.00     0.010 A 
ATOM     85  C   UNL A   1      42.134  30.082  34.948  1.00  0.00     0.010 A 
ATOM     86  C   UNL A   1      41.367  27.457  34.363  1.00  0.00     0.020 A 
ATOM     87  C   UNL A   1      42.139  29.117  35.957  1.00  0.00     0.020 A 
ATOM     88  C   UNL A   1      41.770  27.805  35.657  1.00  0.00     0.054 A 
BRANCH  88  89
ATOM     89  S   UNL A   1      41.883  26.519  36.934  1.00  0.00     0.124 S 
ATOM     90  O   UNL A   1      40.597  26.625  37.616  1.00  0.00    -0.237 OA
ATOM     91  O   UNL A   1      42.080  25.303  36.148  1.00  0.00    -0.237 OA
ATOM     92  O   UNL A   1      43.040  26.922  37.735  1.00  0.00    -0.744 OA
ENDBRANCH  88  89
ENDBRANCH  62  83
ENDBRANCH  36  37
ENDBRANCH  28  31
ENDBRANCH  26  27
ENDBRANCH  25  26
ENDBRANCH  24  25
ENDBRANCH   1  24
TORSDOF 20
ENDMDL
MODEL 2
REMARK VINA RESULT:     -11.1      2.650      9.502
REMARK SMILES CCC(C)(C)n1c(SCC(=O)NCCCCCCNC(=O)c2ccc(-c3c4nc(c(-c5ccc(S(=O)(=O)[O-])cc5)c5ccc([nH]5)c(-c5ccc(S(=O)(=O)[O-])cc5)c5nc(c(-c6ccc(S(=O)(=O)[O-])cc6)c6ccc3[nH]6)C=C5)C=C4)cc2)nc2cccnc21
REMARK SMILES IDX 15 1 14 2 13 3 12 4 10 5 11 6 9 8 8 9 7 10 6 11 88 12 82 13
REMARK SMILES IDX 83 14 87 15 84 16 86 17 85 18 3 19 4 20 5 21 2 22 1 23 16 24
REMARK SMILES IDX 17 25 18 26 19 27 20 28 21 30 22 31 23 32 81 33 24 34 80 35
REMARK SMILES IDX 25 36 26 37 27 38 74 39 28 40 79 41 73 42 75 43 29 44 78 45
REMARK SMILES IDX 72 46 71 47 30 49 60 50 41 51 59 52 42 53 45 54 58 55 76 56
REMARK SMILES IDX 43 57 44 58 57 60 77 61 46 62 31 63 32 64 40 65 33 66 39 67
REMARK SMILES IDX 34 68 35 69 36 70 37 71 38 72 61 73 62 74 70 75 63 76 69 77
REMARK SMILES IDX 64 78 65 79 66 80 67 81 68 82 47 83 48 84 56 85 49 86 55 87
REMARK SMILES IDX 50 88 51 89 52 90 53 91 54 92
REMARK H PARENT 12 7 19 29 75 48 45 59
REMARK Flexibility Score: inf
ROOT
ATOM      1  C   UNL A   1      33.243  28.252  25.893  1.00  0.00     0.002 C 
ENDROOT
BRANCH   1   2
ATOM      2  C   UNL A   1      32.508  27.186  25.072  1.00  0.00     0.021 C 
BRANCH   2   3
ATOM      3  C   UNL A   1      31.071  26.906  25.495  1.00  0.00     0.116 C 
BRANCH   3   4
ATOM      4  N   UNL A   1      30.979  25.896  26.521  1.00  0.00    -0.355 N 
ATOM      5  C   UNL A   1      31.009  24.550  26.376  1.00  0.00     0.230 C 
ATOM      6  O   UNL A   1      31.371  23.896  27.362  1.00  0.00    -0.274 OA
ATOM      7  H   UNL A   1      30.883  26.227  27.443  1.00  0.00     0.163 HD
BRANCH   5   8
ATOM      8  C   UNL A   1      30.719  23.859  25.057  1.00  0.00     0.178 C 
BRANCH   8   9
ATOM      9  S   UNL A   1      32.068  23.303  24.054  1.00  0.00    -0.078 SA
BRANCH   9  10
ATOM     10  C   UNL A   1      32.802  21.741  24.126  1.00  0.00     0.171 A 
ATOM     11  N   UNL A   1      33.973  21.167  24.615  1.00  0.00    -0.298 N 
ATOM     12  C   UNL A   1      33.883  19.803  24.306  1.00  0.00     0.161 A 
ATOM     13  N   UNL A   1      32.063  20.829  23.509  1.00  0.00    -0.221 NA
ATOM     14  C   UNL A   1      32.704  19.641  23.610  1.00  0.00     0.109 A 
ATOM     15  N   UNL A   1      34.758  18.824  24.629  1.00  0.00    -0.237 NA
ATOM     16  C   UNL A   1      32.361  18.362  23.156  1.00  0.00     0.034 A 
ATOM     17  C   UNL A   1      34.392  17.604  24.174  1.00  0.00     0.113 A 
ATOM     18  C   UNL A   1      33.242  17.322  23.450  1.00  0.00     0.022 A 
BRANCH  11  19
ATOM     19  C   UNL A   1      35.124  21.643  25.405  1.00  0.00     0.043 C 
ATOM     20  C   UNL A   1      34.896  21.669  26.907  1.00  0.00     0.035 C 
ATOM     21  C   UNL A   1      35.449  23.133  25.089  1.00  0.00     0.035 C 
BRANCH  19  22
ATOM     22  C   UNL A   1      36.387  20.763  25.113  1.00  0.00     0.025 C 
ATOM     23  C   UNL A   1      37.694  21.534  24.908  1.00  0.00     0.006 C 
ENDBRANCH  19  22
ENDBRANCH  11  19
ENDBRANCH   9  10
ENDBRANCH   8   9
ENDBRANCH   5   8
ENDBRANCH   3   4
ENDBRANCH   2   3
ENDBRANCH   1   2
BRANCH   1  24
ATOM     24  C   UNL A   1      32.772  29.702  25.712  1.00  0.00     0.002 C 
BRANCH  24  25
ATOM     25  C   UNL A   1      32.772  30.587  26.966  1.00  0.00     0.021 C 
BRANCH  25  26
ATOM     26  C   UNL A   1      34.132  30.713  27.626  1.00  0.00     0.116 C 
BRANCH  26  27
ATOM     27  N   UNL A   1      34.130  31.755  28.637  1.00  0.00    -0.352 N 
ATOM     28  C   UNL A   1      34.886  31.823  29.784  1.00  0.00     0.251 C 
ATOM     29  H   UNL A   1      33.510  32.505  28.484  1.00  0.00     0.163 HD
ATOM     30  O   UNL A   1      34.507  32.510  30.722  1.00  0.00    -0.269 OA
BRANCH  28  31
ATOM     31  C   UNL A   1      36.157  31.078  29.863  1.00  0.00     0.039 A 
ATOM     32  C   UNL A   1      36.144  29.733  30.248  1.00  0.00     0.014 A 
ATOM     33  C   UNL A   1      37.365  31.740  29.628  1.00  0.00     0.014 A 
ATOM     34  C   UNL A   1      37.349  29.049  30.361  1.00  0.00     0.010 A 
ATOM     35  C   UNL A   1      38.554  31.046  29.665  1.00  0.00     0.010 A 
ATOM     36  C   UNL A   1      38.547  29.715  30.069  1.00  0.00    -0.014 A 
BRANCH  36  37
ATOM     37  C   UNL A   1      39.802  28.981  30.059  1.00  0.00     0.031 A 
ATOM     38  C   UNL A   1      40.421  28.818  31.401  1.00  0.00     0.074 A 
ATOM     39  C   UNL A   1      40.253  28.315  28.977  1.00  0.00     0.049 A 
ATOM     40  N   UNL A   1      41.506  29.363  31.840  1.00  0.00    -0.248 NA
ATOM     41  C   UNL A   1      39.668  28.076  32.425  1.00  0.00     0.031 C 
ATOM     42  C   UNL A   1      39.582  28.113  27.690  1.00  0.00     0.029 A 
ATOM     43  N   UNL A   1      41.380  27.565  28.850  1.00  0.00    -0.354 N 
ATOM     44  C   UNL A   1      41.690  28.863  33.126  1.00  0.00     0.074 A 
ATOM     45  C   UNL A   1      40.445  28.238  33.497  1.00  0.00     0.031 C 
ATOM     46  C   UNL A   1      40.203  27.121  27.011  1.00  0.00     0.029 A 
ATOM     47  C   UNL A   1      41.393  26.722  27.744  1.00  0.00     0.049 A 
ATOM     48  H   UNL A   1      42.127  27.617  29.489  1.00  0.00     0.167 HD
ATOM     49  C   UNL A   1      42.926  28.779  33.692  1.00  0.00     0.031 A 
ATOM     50  C   UNL A   1      42.296  25.739  27.491  1.00  0.00     0.031 A 
ATOM     51  C   UNL A   1      43.902  29.537  32.955  1.00  0.00     0.049 A 
ATOM     52  C   UNL A   1      43.504  26.065  28.295  1.00  0.00     0.074 A 
ATOM     53  C   UNL A   1      44.035  30.866  32.606  1.00  0.00     0.029 A 
ATOM     54  N   UNL A   1      44.718  28.833  32.098  1.00  0.00    -0.354 N 
ATOM     55  N   UNL A   1      44.240  27.122  28.089  1.00  0.00    -0.248 NA
ATOM     56  C   UNL A   1      43.632  25.461  29.614  1.00  0.00     0.031 C 
ATOM     57  C   UNL A   1      44.527  30.843  31.270  1.00  0.00     0.029 A 
ATOM     58  C   UNL A   1      44.740  29.510  30.907  1.00  0.00     0.049 A 
ATOM     59  H   UNL A   1      45.197  27.997  32.304  1.00  0.00     0.167 HD
ATOM     60  C   UNL A   1      44.590  27.562  29.357  1.00  0.00     0.074 A 
ATOM     61  C   UNL A   1      44.268  26.450  30.250  1.00  0.00     0.031 C 
ATOM     62  C   UNL A   1      44.841  28.880  29.606  1.00  0.00     0.031 A 
BRANCH  49  63
ATOM     63  C   UNL A   1      43.332  27.700  34.665  1.00  0.00    -0.014 A 
ATOM     64  C   UNL A   1      43.685  28.064  35.980  1.00  0.00     0.010 A 
ATOM     65  C   UNL A   1      43.646  26.387  34.257  1.00  0.00     0.010 A 
ATOM     66  C   UNL A   1      44.377  27.179  36.818  1.00  0.00     0.020 A 
ATOM     67  C   UNL A   1      44.293  25.482  35.099  1.00  0.00     0.020 A 
ATOM     68  C   UNL A   1      44.683  25.895  36.366  1.00  0.00     0.054 A 
BRANCH  68  69
ATOM     69  S   UNL A   1      45.681  24.803  37.407  1.00  0.00     0.124 S 
ATOM     70  O   UNL A   1      46.154  23.813  36.445  1.00  0.00    -0.237 OA
ATOM     71  O   UNL A   1      46.693  25.719  37.926  1.00  0.00    -0.237 OA
ATOM     72  O   UNL A   1      44.728  24.307  38.396  1.00  0.00    -0.744 OA
ENDBRANCH  68  69
ENDBRANCH  49  63
BRANCH  50  73
ATOM     73  C   UNL A   1      42.073  24.401  26.874  1.00  0.00    -0.014 A 
ATOM     74  C   UNL A   1      43.139  23.707  26.262  1.00  0.00     0.010 A 
ATOM     75  C   UNL A   1      40.895  23.670  27.131  1.00  0.00     0.010 A 
ATOM     76  C   UNL A   1      43.065  22.324  26.013  1.00  0.00     0.020 A 
ATOM     77  C   UNL A   1      40.807  22.295  26.874  1.00  0.00     0.020 A 
ATOM     78  C   UNL A   1      41.909  21.620  26.354  1.00  0.00     0.054 A 
BRANCH  78  79
ATOM     79  S   UNL A   1      41.893  19.807  26.219  1.00  0.00     0.124 S 
ATOM     80  O   UNL A   1      42.903  19.555  25.195  1.00  0.00    -0.237 OA
ATOM     81  O   UNL A   1      42.248  19.393  27.574  1.00  0.00    -0.237 OA
ATOM     82  O   UNL A   1      40.519  19.502  25.819  1.00  0.00    -0.744 OA
ENDBRANCH  78  79
ENDBRANCH  50  73
BRANCH  62  83
ATOM     83  C   UNL A   1      44.994  29.834  28.444  1.00  0.00    -0.014 A 
ATOM     84  C   UNL A   1      43.909  30.277  27.662  1.00  0.00     0.010 A 
ATOM     85  C   UNL A   1      46.227  30.496  28.324  1.00  0.00     0.010 A 
ATOM     86  C   UNL A   1      44.053  31.381  26.804  1.00  0.00     0.020 A 
ATOM     87  C   UNL A   1      46.372  31.602  27.485  1.00  0.00     0.020 A 
ATOM     88  C   UNL A   1      45.280  32.050  26.740  1.00  0.00     0.054 A 
BRANCH  88  89
ATOM     89  S   UNL A   1      45.426  33.557  25.736  1.00  0.00     0.124 S 
ATOM     90  O   UNL A   1      44.717  34.549  26.538  1.00  0.00    -0.237 OA
ATOM     91  O   UNL A   1      46.872  33.739  25.642  1.00  0.00    -0.237 OA
ATOM     92  O   UNL A   1      44.772  33.202  24.476  1.00  0.00    -0.744 OA
ENDBRANCH  88  89
ENDBRANCH  62  83
ENDBRANCH  36  37
ENDBRANCH  28  31
ENDBRANCH  26  27
ENDBRANCH  25  26
ENDBRANCH  24  25
ENDBRANCH   1  24
TORSDOF 20
ENDMDL
MODEL 3
REMARK VINA RESULT:     -11.0      1.368      2.146
REMARK SMILES CCC(C)(C)n1c(SCC(=O)NCCCCCCNC(=O)c2ccc(-c3c4nc(c(-c5ccc(S(=O)(=O)[O-])cc5)c5ccc([nH]5)c(-c5ccc(S(=O)(=O)[O-])cc5)c5nc(c(-c6ccc(S(=O)(=O)[O-])cc6)c6ccc3[nH]6)C=C5)C=C4)cc2)nc2cccnc21
REMARK SMILES IDX 15 1 14 2 13 3 12 4 10 5 11 6 9 8 8 9 7 10 6 11 88 12 82 13
REMARK SMILES IDX 83 14 87 15 84 16 86 17 85 18 3 19 4 20 5 21 2 22 1 23 16 24
REMARK SMILES IDX 17 25 18 26 19 27 20 28 21 30 22 31 23 32 81 33 24 34 80 35
REMARK SMILES IDX 25 36 26 37 27 38 74 39 28 40 79 41 73 42 75 43 29 44 78 45
REMARK SMILES IDX 72 46 71 47 30 49 60 50 41 51 59 52 42 53 45 54 58 55 76 56
REMARK SMILES IDX 43 57 44 58 57 60 77 61 46 62 31 63 32 64 40 65 33 66 39 67
REMARK SMILES IDX 34 68 35 69 36 70 37 71 38 72 61 73 62 74 70 75 63 76 69 77
REMARK SMILES IDX 64 78 65 79 66 80 67 81 68 82 47 83 48 84 56 85 49 86 55 87
REMARK SMILES IDX 50 88 51 89 52 90 53 91 54 92
REMARK H PARENT 12 7 19 29 75 48 45 59
REMARK Flexibility Score: inf
ROOT
ATOM      1  C   UNL A   1      36.082  21.162  25.114  1.00  0.00     0.002 C 
ENDROOT
BRANCH   1   2
ATOM      2  C   UNL A   1      35.602  22.153  26.181  1.00  0.00     0.021 C 
BRANCH   2   3
ATOM      3  C   UNL A   1      34.646  23.233  25.693  1.00  0.00     0.116 C 
BRANCH   3   4
ATOM      4  N   UNL A   1      34.282  23.070  24.306  1.00  0.00    -0.355 N 
ATOM      5  C   UNL A   1      33.910  24.026  23.421  1.00  0.00     0.230 C 
ATOM      6  O   UNL A   1      34.085  23.767  22.224  1.00  0.00    -0.274 OA
ATOM      7  H   UNL A   1      34.309  22.149  23.959  1.00  0.00     0.163 HD
BRANCH   5   8
ATOM      8  C   UNL A   1      33.398  25.388  23.849  1.00  0.00     0.178 C 
BRANCH   8   9
ATOM      9  S   UNL A   1      32.553  26.405  22.671  1.00  0.00    -0.078 SA
BRANCH   9  10
ATOM     10  C   UNL A   1      31.547  27.759  23.046  1.00  0.00     0.171 A 
ATOM     11  N   UNL A   1      31.377  28.668  24.087  1.00  0.00    -0.298 N 
ATOM     12  C   UNL A   1      30.338  29.518  23.682  1.00  0.00     0.161 A 
ATOM     13  N   UNL A   1      30.652  27.977  22.092  1.00  0.00    -0.221 NA
ATOM     14  C   UNL A   1      29.909  29.047  22.459  1.00  0.00     0.109 A 
ATOM     15  N   UNL A   1      29.851  30.596  24.336  1.00  0.00    -0.237 NA
ATOM     16  C   UNL A   1      28.852  29.705  21.819  1.00  0.00     0.034 A 
ATOM     17  C   UNL A   1      28.833  31.205  23.685  1.00  0.00     0.113 A 
ATOM     18  C   UNL A   1      28.305  30.813  22.463  1.00  0.00     0.022 A 
BRANCH  11  19
ATOM     19  C   UNL A   1      32.072  28.951  25.356  1.00  0.00     0.043 C 
ATOM     20  C   UNL A   1      31.986  30.395  25.821  1.00  0.00     0.035 C 
ATOM     21  C   UNL A   1      33.609  28.736  25.219  1.00  0.00     0.035 C 
BRANCH  19  22
ATOM     22  C   UNL A   1      31.520  28.032  26.498  1.00  0.00     0.025 C 
ATOM     23  C   UNL A   1      30.889  26.715  26.038  1.00  0.00     0.006 C 
ENDBRANCH  19  22
ENDBRANCH  11  19
ENDBRANCH   9  10
ENDBRANCH   8   9
ENDBRANCH   5   8
ENDBRANCH   3   4
ENDBRANCH   2   3
ENDBRANCH   1   2
BRANCH   1  24
ATOM     24  C   UNL A   1      37.559  21.258  24.704  1.00  0.00     0.002 C 
BRANCH  24  25
ATOM     25  C   UNL A   1      38.597  21.104  25.824  1.00  0.00     0.021 C 
BRANCH  25  26
ATOM     26  C   UNL A   1      39.391  22.367  26.100  1.00  0.00     0.116 C 
BRANCH  26  27
ATOM     27  N   UNL A   1      40.799  22.176  25.801  1.00  0.00    -0.352 N 
ATOM     28  C   UNL A   1      41.790  23.128  25.753  1.00  0.00     0.251 C 
ATOM     29  H   UNL A   1      41.079  21.252  25.609  1.00  0.00     0.163 HD
ATOM     30  O   UNL A   1      42.807  22.915  25.108  1.00  0.00    -0.269 OA
BRANCH  28  31
ATOM     31  C   UNL A   1      41.621  24.393  26.494  1.00  0.00     0.039 A 
ATOM     32  C   UNL A   1      42.083  24.488  27.811  1.00  0.00     0.014 A 
ATOM     33  C   UNL A   1      40.936  25.457  25.902  1.00  0.00     0.014 A 
ATOM     34  C   UNL A   1      41.882  25.669  28.517  1.00  0.00     0.010 A 
ATOM     35  C   UNL A   1      40.802  26.654  26.570  1.00  0.00     0.010 A 
ATOM     36  C   UNL A   1      41.240  26.744  27.888  1.00  0.00    -0.014 A 
BRANCH  36  37
ATOM     37  C   UNL A   1      41.136  28.025  28.566  1.00  0.00     0.031 A 
ATOM     38  C   UNL A   1      42.240  28.971  28.253  1.00  0.00     0.074 A 
ATOM     39  C   UNL A   1      40.033  28.411  29.238  1.00  0.00     0.049 A 
ATOM     40  N   UNL A   1      43.178  29.378  29.040  1.00  0.00    -0.248 NA
ATOM     41  C   UNL A   1      42.404  29.404  26.855  1.00  0.00     0.031 C 
ATOM     42  C   UNL A   1      38.747  27.717  29.346  1.00  0.00     0.029 A 
ATOM     43  N   UNL A   1      39.795  29.587  29.877  1.00  0.00    -0.354 N 
ATOM     44  C   UNL A   1      43.929  30.286  28.301  1.00  0.00     0.074 A 
ATOM     45  C   UNL A   1      43.529  30.117  26.927  1.00  0.00     0.031 C 
ATOM     46  C   UNL A   1      37.810  28.578  29.808  1.00  0.00     0.029 A 
ATOM     47  C   UNL A   1      38.456  29.830  30.165  1.00  0.00     0.049 A 
ATOM     48  H   UNL A   1      40.514  30.216  30.118  1.00  0.00     0.167 HD
ATOM     49  C   UNL A   1      44.641  31.282  28.899  1.00  0.00     0.031 A 
ATOM     50  C   UNL A   1      37.927  30.998  30.614  1.00  0.00     0.031 A 
ATOM     51  C   UNL A   1      44.766  31.069  30.318  1.00  0.00     0.049 A 
ATOM     52  C   UNL A   1      39.052  31.760  31.217  1.00  0.00     0.074 A 
ATOM     53  C   UNL A   1      45.301  30.068  31.104  1.00  0.00     0.029 A 
ATOM     54  N   UNL A   1      43.910  31.778  31.130  1.00  0.00    -0.354 N 
ATOM     55  N   UNL A   1      39.698  31.368  32.281  1.00  0.00    -0.248 NA
ATOM     56  C   UNL A   1      39.755  32.722  30.380  1.00  0.00     0.031 C 
ATOM     57  C   UNL A   1      44.384  29.926  32.184  1.00  0.00     0.029 A 
ATOM     58  C   UNL A   1      43.388  30.897  32.040  1.00  0.00     0.049 A 
ATOM     59  H   UNL A   1      43.710  32.740  31.068  1.00  0.00     0.167 HD
ATOM     60  C   UNL A   1      41.024  31.689  32.029  1.00  0.00     0.074 A 
ATOM     61  C   UNL A   1      40.984  32.604  30.889  1.00  0.00     0.031 C 
ATOM     62  C   UNL A   1      42.045  30.971  32.579  1.00  0.00     0.031 A 
BRANCH  49  63
ATOM     63  C   UNL A   1      44.873  32.637  28.279  1.00  0.00    -0.014 A 
ATOM     64  C   UNL A   1      46.195  33.054  28.026  1.00  0.00     0.010 A 
ATOM     65  C   UNL A   1      43.864  33.619  28.197  1.00  0.00     0.010 A 
ATOM     66  C   UNL A   1      46.497  34.399  27.769  1.00  0.00     0.020 A 
ATOM     67  C   UNL A   1      44.147  34.952  27.897  1.00  0.00     0.020 A 
ATOM     68  C   UNL A   1      45.468  35.340  27.716  1.00  0.00     0.054 A 
BRANCH  68  69
ATOM     69  S   UNL A   1      45.877  37.090  27.506  1.00  0.00     0.124 S 
ATOM     70  O   UNL A   1      44.699  37.597  26.812  1.00  0.00    -0.237 OA
ATOM     71  O   UNL A   1      46.040  37.531  28.889  1.00  0.00    -0.237 OA
ATOM     72  O   UNL A   1      47.105  37.063  26.715  1.00  0.00    -0.744 OA
ENDBRANCH  68  69
ENDBRANCH  49  63
BRANCH  50  73
ATOM     73  C   UNL A   1      36.618  31.623  30.275  1.00  0.00    -0.014 A 
ATOM     74  C   UNL A   1      35.921  32.392  31.232  1.00  0.00     0.010 A 
ATOM     75  C   UNL A   1      36.181  31.714  28.937  1.00  0.00     0.010 A 
ATOM     76  C   UNL A   1      34.903  33.286  30.852  1.00  0.00     0.020 A 
ATOM     77  C   UNL A   1      35.159  32.593  28.551  1.00  0.00     0.020 A 
ATOM     78  C   UNL A   1      34.553  33.406  29.506  1.00  0.00     0.054 A 
BRANCH  78  79
ATOM     79  S   UNL A   1      33.386  34.703  28.997  1.00  0.00     0.124 S 
ATOM     80  O   UNL A   1      34.274  35.766  28.534  1.00  0.00    -0.237 OA
ATOM     81  O   UNL A   1      32.608  34.031  27.960  1.00  0.00    -0.237 OA
ATOM     82  O   UNL A   1      32.648  35.005  30.224  1.00  0.00    -0.744 OA
ENDBRANCH  78  79
ENDBRANCH  50  73
BRANCH  62  83
ATOM     83  C   UNL A   1      41.740  29.978  33.676  1.00  0.00    -0.014 A 
ATOM     84  C   UNL A   1      41.209  28.695  33.431  1.00  0.00     0.010 A 
ATOM     85  C   UNL A   1      42.258  30.260  34.951  1.00  0.00     0.010 A 
ATOM     86  C   UNL A   1      41.230  27.712  34.434  1.00  0.00     0.020 A 
ATOM     87  C   UNL A   1      42.296  29.282  35.946  1.00  0.00     0.020 A 
ATOM     88  C   UNL A   1      41.796  28.007  35.679  1.00  0.00     0.054 A 
BRANCH  88  89
ATOM     89  S   UNL A   1      41.946  26.696  36.927  1.00  0.00     0.124 S 
ATOM     90  O   UNL A   1      40.655  26.748  37.607  1.00  0.00    -0.237 OA
ATOM     91  O   UNL A   1      42.182  25.506  36.114  1.00  0.00    -0.237 OA
ATOM     92  O   UNL A   1      43.088  27.116  37.740  1.00  0.00    -0.744 OA
ENDBRANCH  88  89
ENDBRANCH  62  83
ENDBRANCH  36  37
ENDBRANCH  28  31
ENDBRANCH  26  27
ENDBRANCH  25  26
ENDBRANCH  24  25
ENDBRANCH   1  24
TORSDOF 20
ENDMDL
