MODEL 1
REMARK VINA RESULT:     -11.1      0.000      0.000
REMARK SMILES CC(C)[NH2+][C@]1(C(=O)NCCCCCCNC(=O)c2ccc(-c3c4nc(c(-c5ccc(S(=O)(=O)[O-])cc5)c5ccc([nH]5)c(-c5ccc(S(=O)(=O)[O-])cc5)c5nc(c(-c6ccc(S(=O)(=O)[O-])cc6)c6ccc3[nH]6)C=C5)C=C4)cc2)CCC[C@@H]1CCSc1cnccn1
REMARK SMILES IDX 11 1 10 2 9 3 8 4 6 5 7 6 5 8 78 9 81 10 79 11 80 12 4 13
REMARK SMILES IDX 2 16 1 17 3 18 82 19 83 20 84 21 85 22 86 23 90 24 87 25
REMARK SMILES IDX 89 26 88 27 12 28 13 29 14 30 15 31 16 32 17 34 18 35 19 36
REMARK SMILES IDX 77 37 20 38 76 39 21 40 22 41 23 42 70 43 24 44 75 45 69 46
REMARK SMILES IDX 71 47 25 48 74 49 68 50 67 51 26 53 56 54 37 55 55 56 38 57
REMARK SMILES IDX 41 58 54 59 72 60 39 61 40 62 53 64 73 65 42 66 27 67 28 68
REMARK SMILES IDX 36 69 29 70 35 71 30 72 31 73 32 74 33 75 34 76 57 77 58 78
REMARK SMILES IDX 66 79 59 80 65 81 60 82 61 83 62 84 63 85 64 86 43 87 44 88
REMARK SMILES IDX 52 89 45 90 51 91 46 92 47 93 48 94 49 95 50 96
REMARK H PARENT 8 7 4 14 4 15 15 33 71 52 41 63
REMARK Flexibility Score: inf
ROOT
ATOM      1  C   UNL A   1      35.873  21.931  24.706  1.00  0.00     0.002 C 
ENDROOT
BRANCH   1   2
ATOM      2  C   UNL A   1      35.203  20.573  24.999  1.00  0.00     0.021 C 
BRANCH   2   3
ATOM      3  C   UNL A   1      33.688  20.591  24.836  1.00  0.00     0.116 C 
BRANCH   3   4
ATOM      4  N   UNL A   1      33.377  21.464  23.743  1.00  0.00    -0.351 N 
ATOM      5  C   UNL A   1      32.665  22.591  23.563  1.00  0.00     0.281 C 
ATOM      6  O   UNL A   1      32.705  22.862  22.361  1.00  0.00    -0.268 OA
ATOM      7  H   UNL A   1      33.793  21.159  22.904  1.00  0.00     0.163 HD
BRANCH   5   8
ATOM      8  C   UNL A   1      32.236  23.600  24.698  1.00  0.00     0.178 C 
ATOM      9  C   UNL A   1      31.452  22.964  25.828  1.00  0.00     0.079 C 
ATOM     10  C   UNL A   1      33.629  23.999  25.155  1.00  0.00     0.061 C 
ATOM     11  C   UNL A   1      32.286  23.207  27.076  1.00  0.00     0.008 C 
ATOM     12  C   UNL A   1      33.478  24.114  26.684  1.00  0.00     0.011 C 
BRANCH   8  13
ATOM     13  N   UNL A   1      31.533  24.850  24.327  1.00  0.00    -0.331 N 
ATOM     14  H   UNL A   1      32.211  25.595  24.481  1.00  0.00     0.347 HD
ATOM     15  H   UNL A   1      31.198  24.593  23.398  1.00  0.00     0.347 HD
BRANCH  13  16
ATOM     16  C   UNL A   1      30.277  25.341  24.920  1.00  0.00     0.176 C 
ATOM     17  C   UNL A   1      30.573  26.371  26.029  1.00  0.00     0.075 C 
ATOM     18  C   UNL A   1      29.339  26.002  23.916  1.00  0.00     0.075 C 
ENDBRANCH  13  16
ENDBRANCH   8  13
BRANCH  10  19
ATOM     19  C   UNL A   1      34.204  25.166  24.248  1.00  0.00     0.022 C 
BRANCH  19  20
ATOM     20  C   UNL A   1      33.465  26.607  24.061  1.00  0.00     0.077 C 
BRANCH  20  21
ATOM     21  S   UNL A   1      32.801  27.766  22.541  1.00  0.00    -0.105 SA
BRANCH  21  22
ATOM     22  C   UNL A   1      31.334  28.770  22.932  1.00  0.00     0.114 A 
ATOM     23  C   UNL A   1      31.097  29.461  24.122  1.00  0.00     0.146 A 
ATOM     24  N   UNL A   1      30.380  28.850  21.953  1.00  0.00    -0.247 NA
ATOM     25  N   UNL A   1      30.085  30.377  24.293  1.00  0.00    -0.260 NA
ATOM     26  C   UNL A   1      29.355  29.732  22.130  1.00  0.00     0.132 A 
ATOM     27  C   UNL A   1      29.247  30.524  23.251  1.00  0.00     0.131 A 
ENDBRANCH  21  22
ENDBRANCH  20  21
ENDBRANCH  19  20
ENDBRANCH  10  19
ENDBRANCH   5   8
ENDBRANCH   3   4
ENDBRANCH   2   3
ENDBRANCH   1   2
BRANCH   1  28
ATOM     28  C   UNL A   1      37.021  22.318  25.646  1.00  0.00     0.002 C 
BRANCH  28  29
ATOM     29  C   UNL A   1      37.527  23.750  25.489  1.00  0.00     0.021 C 
BRANCH  29  30
ATOM     30  C   UNL A   1      38.458  24.205  26.599  1.00  0.00     0.116 C 
BRANCH  30  31
ATOM     31  N   UNL A   1      39.850  24.024  26.243  1.00  0.00    -0.352 N 
ATOM     32  C   UNL A   1      40.922  24.815  26.584  1.00  0.00     0.251 C 
ATOM     33  H   UNL A   1      40.056  23.238  25.687  1.00  0.00     0.163 HD
ATOM     34  O   UNL A   1      42.005  24.662  26.040  1.00  0.00    -0.269 OA
BRANCH  32  35
ATOM     35  C   UNL A   1      40.731  25.874  27.601  1.00  0.00     0.039 A 
ATOM     36  C   UNL A   1      39.740  25.708  28.569  1.00  0.00     0.014 A 
ATOM     37  C   UNL A   1      41.550  27.008  27.614  1.00  0.00     0.014 A 
ATOM     38  C   UNL A   1      39.600  26.661  29.579  1.00  0.00     0.010 A 
ATOM     39  C   UNL A   1      41.465  27.910  28.670  1.00  0.00     0.010 A 
ATOM     40  C   UNL A   1      40.479  27.754  29.655  1.00  0.00    -0.014 A 
BRANCH  40  41
ATOM     41  C   UNL A   1      40.371  28.752  30.751  1.00  0.00     0.031 A 
ATOM     42  C   UNL A   1      41.241  28.625  31.973  1.00  0.00     0.074 A 
ATOM     43  C   UNL A   1      39.456  29.739  30.668  1.00  0.00     0.049 A 
ATOM     44  N   UNL A   1      41.267  29.373  33.046  1.00  0.00    -0.248 NA
ATOM     45  C   UNL A   1      42.189  27.498  32.005  1.00  0.00     0.031 C 
ATOM     46  C   UNL A   1      38.526  29.943  29.555  1.00  0.00     0.029 A 
ATOM     47  N   UNL A   1      39.155  30.755  31.540  1.00  0.00    -0.354 N 
ATOM     48  C   UNL A   1      42.214  28.797  33.886  1.00  0.00     0.074 A 
ATOM     49  C   UNL A   1      42.705  27.611  33.220  1.00  0.00     0.031 C 
ATOM     50  C   UNL A   1      37.781  31.033  29.798  1.00  0.00     0.029 A 
ATOM     51  C   UNL A   1      38.147  31.581  31.101  1.00  0.00     0.049 A 
ATOM     52  H   UNL A   1      39.618  30.882  32.400  1.00  0.00     0.167 HD
ATOM     53  C   UNL A   1      42.650  29.227  35.094  1.00  0.00     0.031 A 
ATOM     54  C   UNL A   1      37.574  32.652  31.684  1.00  0.00     0.031 A 
ATOM     55  C   UNL A   1      42.169  30.417  35.744  1.00  0.00     0.049 A 
ATOM     56  C   UNL A   1      38.070  33.104  33.030  1.00  0.00     0.074 A 
ATOM     57  C   UNL A   1      42.595  30.974  36.936  1.00  0.00     0.029 A 
ATOM     58  N   UNL A   1      41.154  31.229  35.262  1.00  0.00    -0.354 N 
ATOM     59  N   UNL A   1      39.023  32.592  33.772  1.00  0.00    -0.248 NA
ATOM     60  C   UNL A   1      37.423  34.287  33.613  1.00  0.00     0.031 C 
ATOM     61  C   UNL A   1      41.794  32.087  37.208  1.00  0.00     0.029 A 
ATOM     62  C   UNL A   1      40.916  32.265  36.150  1.00  0.00     0.049 A 
ATOM     63  H   UNL A   1      40.673  31.089  34.415  1.00  0.00     0.167 HD
ATOM     64  C   UNL A   1      39.110  33.409  34.894  1.00  0.00     0.074 A 
ATOM     65  C   UNL A   1      38.124  34.456  34.726  1.00  0.00     0.031 C 
ATOM     66  C   UNL A   1      39.931  33.301  35.968  1.00  0.00     0.031 A 
BRANCH  53  67
ATOM     67  C   UNL A   1      43.693  28.400  35.799  1.00  0.00    -0.014 A 
ATOM     68  C   UNL A   1      43.335  27.368  36.686  1.00  0.00     0.010 A 
ATOM     69  C   UNL A   1      45.056  28.625  35.530  1.00  0.00     0.010 A 
ATOM     70  C   UNL A   1      44.318  26.603  37.318  1.00  0.00     0.020 A 
ATOM     71  C   UNL A   1      46.042  27.842  36.137  1.00  0.00     0.020 A 
ATOM     72  C   UNL A   1      45.666  26.845  37.040  1.00  0.00     0.054 A 
BRANCH  72  73
ATOM     73  S   UNL A   1      46.919  25.815  37.851  1.00  0.00     0.124 S 
ATOM     74  O   UNL A   1      48.080  26.017  36.989  1.00  0.00    -0.237 OA
ATOM     75  O   UNL A   1      47.012  26.413  39.180  1.00  0.00    -0.237 OA
ATOM     76  O   UNL A   1      46.343  24.472  37.813  1.00  0.00    -0.744 OA
ENDBRANCH  72  73
ENDBRANCH  53  67
BRANCH  54  77
ATOM     77  C   UNL A   1      36.468  33.375  30.995  1.00  0.00    -0.014 A 
ATOM     78  C   UNL A   1      36.701  34.059  29.788  1.00  0.00     0.010 A 
ATOM     79  C   UNL A   1      35.174  33.383  31.546  1.00  0.00     0.010 A 
ATOM     80  C   UNL A   1      35.667  34.760  29.159  1.00  0.00     0.020 A 
ATOM     81  C   UNL A   1      34.131  34.055  30.903  1.00  0.00     0.020 A 
ATOM     82  C   UNL A   1      34.386  34.752  29.722  1.00  0.00     0.054 A 
BRANCH  82  83
ATOM     83  S   UNL A   1      33.051  35.638  28.871  1.00  0.00     0.124 S 
ATOM     84  O   UNL A   1      32.298  36.198  29.988  1.00  0.00    -0.237 OA
ATOM     85  O   UNL A   1      33.784  36.601  28.052  1.00  0.00    -0.237 OA
ATOM     86  O   UNL A   1      32.368  34.586  28.121  1.00  0.00    -0.744 OA
ENDBRANCH  82  83
ENDBRANCH  54  77
BRANCH  66  87
ATOM     87  C   UNL A   1      39.831  34.364  37.029  1.00  0.00    -0.014 A 
ATOM     88  C   UNL A   1      40.550  35.569  36.931  1.00  0.00     0.010 A 
ATOM     89  C   UNL A   1      38.955  34.176  38.116  1.00  0.00     0.010 A 
ATOM     90  C   UNL A   1      40.420  36.551  37.917  1.00  0.00     0.020 A 
ATOM     91  C   UNL A   1      38.798  35.168  39.085  1.00  0.00     0.020 A 
ATOM     92  C   UNL A   1      39.543  36.345  38.987  1.00  0.00     0.054 A 
BRANCH  92  93
ATOM     93  S   UNL A   1      39.359  37.653  40.229  1.00  0.00     0.124 S 
ATOM     94  O   UNL A   1      40.678  38.278  40.210  1.00  0.00    -0.237 OA
ATOM     95  O   UNL A   1      38.272  38.462  39.681  1.00  0.00    -0.237 OA
ATOM     96  O   UNL A   1      39.031  36.927  41.453  1.00  0.00    -0.744 OA
ENDBRANCH  92  93
ENDBRANCH  66  87
ENDBRANCH  40  41
ENDBRANCH  32  35
ENDBRANCH  30  31
ENDBRANCH  29  30
ENDBRANCH  28  29
ENDBRANCH   1  28
TORSDOF 22
ENDMDL
MODEL 2
REMARK VINA RESULT:     -10.9      4.466      9.963
REMARK SMILES CC(C)[NH2+][C@]1(C(=O)NCCCCCCNC(=O)c2ccc(-c3c4nc(c(-c5ccc(S(=O)(=O)[O-])cc5)c5ccc([nH]5)c(-c5ccc(S(=O)(=O)[O-])cc5)c5nc(c(-c6ccc(S(=O)(=O)[O-])cc6)c6ccc3[nH]6)C=C5)C=C4)cc2)CCC[C@@H]1CCSc1cnccn1
REMARK SMILES IDX 11 1 10 2 9 3 8 4 6 5 7 6 5 8 78 9 81 10 79 11 80 12 4 13
REMARK SMILES IDX 2 16 1 17 3 18 82 19 83 20 84 21 85 22 86 23 90 24 87 25
REMARK SMILES IDX 89 26 88 27 12 28 13 29 14 30 15 31 16 32 17 34 18 35 19 36
REMARK SMILES IDX 77 37 20 38 76 39 21 40 22 41 23 42 70 43 24 44 75 45 69 46
REMARK SMILES IDX 71 47 25 48 74 49 68 50 67 51 26 53 56 54 37 55 55 56 38 57
REMARK SMILES IDX 41 58 54 59 72 60 39 61 40 62 53 64 73 65 42 66 27 67 28 68
REMARK SMILES IDX 36 69 29 70 35 71 30 72 31 73 32 74 33 75 34 76 57 77 58 78
REMARK SMILES IDX 66 79 59 80 65 81 60 82 61 83 62 84 63 85 64 86 43 87 44 88
REMARK SMILES IDX 52 89 45 90 51 91 46 92 47 93 48 94 49 95 50 96
REMARK H PARENT 8 7 4 14 4 15 15 33 71 52 41 63
REMARK Flexibility Score: inf
ROOT
ATOM      1  C   UNL A   1      31.411  28.222  23.623  1.00  0.00     0.002 C 
ENDROOT
BRANCH   1   2
ATOM      2  C   UNL A   1      31.744  27.084  22.639  1.00  0.00     0.021 C 
BRANCH   2   3
ATOM      3  C   UNL A   1      31.405  25.697  23.170  1.00  0.00     0.116 C 
BRANCH   3   4
ATOM      4  N   UNL A   1      32.141  24.742  22.396  1.00  0.00    -0.351 N 
ATOM      5  C   UNL A   1      33.308  24.082  22.508  1.00  0.00     0.281 C 
ATOM      6  O   UNL A   1      33.456  23.420  21.478  1.00  0.00    -0.268 OA
ATOM      7  H   UNL A   1      31.669  24.507  21.564  1.00  0.00     0.163 HD
BRANCH   5   8
ATOM      8  C   UNL A   1      34.110  23.851  23.847  1.00  0.00     0.178 C 
ATOM      9  C   UNL A   1      34.267  25.095  24.697  1.00  0.00     0.079 C 
ATOM     10  C   UNL A   1      33.152  22.864  24.492  1.00  0.00     0.061 C 
ATOM     11  C   UNL A   1      33.591  24.761  26.017  1.00  0.00     0.008 C 
ATOM     12  C   UNL A   1      33.176  23.270  25.978  1.00  0.00     0.011 C 
BRANCH   8  13
ATOM     13  N   UNL A   1      35.434  23.189  23.792  1.00  0.00    -0.331 N 
ATOM     14  H   UNL A   1      35.283  22.331  23.260  1.00  0.00     0.347 HD
ATOM     15  H   UNL A   1      36.001  23.961  23.441  1.00  0.00     0.347 HD
BRANCH  13  16
ATOM     16  C   UNL A   1      36.246  22.787  24.953  1.00  0.00     0.176 C 
ATOM     17  C   UNL A   1      37.021  21.490  24.644  1.00  0.00     0.075 C 
ATOM     18  C   UNL A   1      37.261  23.837  25.389  1.00  0.00     0.075 C 
ENDBRANCH  13  16
ENDBRANCH   8  13
BRANCH  10  19
ATOM     19  C   UNL A   1      33.443  21.388  23.989  1.00  0.00     0.022 C 
BRANCH  19  20
ATOM     20  C   UNL A   1      32.363  20.489  23.163  1.00  0.00     0.077 C 
BRANCH  20  21
ATOM     21  S   UNL A   1      32.157  18.569  22.561  1.00  0.00    -0.105 SA
BRANCH  21  22
ATOM     22  C   UNL A   1      32.937  17.339  23.654  1.00  0.00     0.114 A 
ATOM     23  C   UNL A   1      34.048  16.551  23.352  1.00  0.00     0.146 A 
ATOM     24  N   UNL A   1      32.369  17.186  24.890  1.00  0.00    -0.247 NA
ATOM     25  N   UNL A   1      34.733  15.796  24.277  1.00  0.00    -0.260 NA
ATOM     26  C   UNL A   1      33.023  16.413  25.803  1.00  0.00     0.132 A 
ATOM     27  C   UNL A   1      34.214  15.782  25.519  1.00  0.00     0.131 A 
ENDBRANCH  21  22
ENDBRANCH  20  21
ENDBRANCH  19  20
ENDBRANCH  10  19
ENDBRANCH   5   8
ENDBRANCH   3   4
ENDBRANCH   2   3
ENDBRANCH   1   2
BRANCH   1  28
ATOM     28  C   UNL A   1      32.580  28.711  24.489  1.00  0.00     0.002 C 
BRANCH  28  29
ATOM     29  C   UNL A   1      32.743  27.983  25.821  1.00  0.00     0.021 C 
BRANCH  29  30
ATOM     30  C   UNL A   1      33.876  28.511  26.683  1.00  0.00     0.116 C 
BRANCH  30  31
ATOM     31  N   UNL A   1      33.600  29.844  27.179  1.00  0.00    -0.352 N 
ATOM     32  C   UNL A   1      34.385  30.624  27.993  1.00  0.00     0.251 C 
ATOM     33  H   UNL A   1      32.744  30.240  26.898  1.00  0.00     0.163 HD
ATOM     34  O   UNL A   1      33.935  31.639  28.503  1.00  0.00    -0.269 OA
BRANCH  32  35
ATOM     35  C   UNL A   1      35.777  30.196  28.265  1.00  0.00     0.039 A 
ATOM     36  C   UNL A   1      36.733  30.335  27.259  1.00  0.00     0.014 A 
ATOM     37  C   UNL A   1      36.137  29.692  29.520  1.00  0.00     0.014 A 
ATOM     38  C   UNL A   1      38.063  30.008  27.525  1.00  0.00     0.010 A 
ATOM     39  C   UNL A   1      37.476  29.451  29.809  1.00  0.00     0.010 A 
ATOM     40  C   UNL A   1      38.451  29.591  28.810  1.00  0.00    -0.014 A 
BRANCH  40  41
ATOM     41  C   UNL A   1      39.871  29.283  29.121  1.00  0.00     0.031 A 
ATOM     42  C   UNL A   1      40.441  27.933  28.777  1.00  0.00     0.074 A 
ATOM     43  C   UNL A   1      40.629  30.198  29.759  1.00  0.00     0.049 A 
ATOM     44  N   UNL A   1      41.643  27.466  29.003  1.00  0.00    -0.248 NA
ATOM     45  C   UNL A   1      39.540  26.975  28.116  1.00  0.00     0.031 C 
ATOM     46  C   UNL A   1      40.178  31.526  30.184  1.00  0.00     0.029 A 
ATOM     47  N   UNL A   1      41.939  30.149  30.166  1.00  0.00    -0.354 N 
ATOM     48  C   UNL A   1      41.634  26.158  28.531  1.00  0.00     0.074 A 
ATOM     49  C   UNL A   1      40.296  25.889  28.052  1.00  0.00     0.031 C 
ATOM     50  C   UNL A   1      41.202  32.174  30.762  1.00  0.00     0.029 A 
ATOM     51  C   UNL A   1      42.368  31.296  30.791  1.00  0.00     0.049 A 
ATOM     52  H   UNL A   1      42.518  29.365  30.022  1.00  0.00     0.167 HD
ATOM     53  C   UNL A   1      42.653  25.267  28.482  1.00  0.00     0.031 A 
ATOM     54  C   UNL A   1      43.562  31.604  31.335  1.00  0.00     0.031 A 
ATOM     55  C   UNL A   1      43.987  25.546  28.945  1.00  0.00     0.049 A 
ATOM     56  C   UNL A   1      44.674  30.593  31.276  1.00  0.00     0.074 A 
ATOM     57  C   UNL A   1      45.105  24.734  28.877  1.00  0.00     0.029 A 
ATOM     58  N   UNL A   1      44.381  26.722  29.564  1.00  0.00    -0.354 N 
ATOM     59  N   UNL A   1      44.668  29.390  30.754  1.00  0.00    -0.248 NA
ATOM     60  C   UNL A   1      45.960  30.986  31.870  1.00  0.00     0.031 C 
ATOM     61  C   UNL A   1      46.160  25.394  29.514  1.00  0.00     0.029 A 
ATOM     62  C   UNL A   1      45.719  26.645  29.915  1.00  0.00     0.049 A 
ATOM     63  H   UNL A   1      43.797  27.496  29.730  1.00  0.00     0.167 HD
ATOM     64  C   UNL A   1      45.956  28.895  30.928  1.00  0.00     0.074 A 
ATOM     65  C   UNL A   1      46.717  29.934  31.590  1.00  0.00     0.031 C 
ATOM     66  C   UNL A   1      46.463  27.689  30.572  1.00  0.00     0.031 A 
BRANCH  53  67
ATOM     67  C   UNL A   1      42.364  23.900  27.919  1.00  0.00    -0.014 A 
ATOM     68  C   UNL A   1      42.178  23.700  26.539  1.00  0.00     0.010 A 
ATOM     69  C   UNL A   1      42.329  22.787  28.780  1.00  0.00     0.010 A 
ATOM     70  C   UNL A   1      41.926  22.421  26.035  1.00  0.00     0.020 A 
ATOM     71  C   UNL A   1      42.108  21.502  28.277  1.00  0.00     0.020 A 
ATOM     72  C   UNL A   1      41.892  21.330  26.908  1.00  0.00     0.054 A 
BRANCH  72  73
ATOM     73  S   UNL A   1      41.595  19.677  26.221  1.00  0.00     0.124 S 
ATOM     74  O   UNL A   1      42.020  18.814  27.319  1.00  0.00    -0.237 OA
ATOM     75  O   UNL A   1      40.158  19.696  25.957  1.00  0.00    -0.237 OA
ATOM     76  O   UNL A   1      42.445  19.637  25.033  1.00  0.00    -0.744 OA
ENDBRANCH  72  73
ENDBRANCH  53  67
BRANCH  54  77
ATOM     77  C   UNL A   1      43.768  32.931  31.980  1.00  0.00    -0.014 A 
ATOM     78  C   UNL A   1      43.501  33.112  33.349  1.00  0.00     0.010 A 
ATOM     79  C   UNL A   1      44.232  34.024  31.225  1.00  0.00     0.010 A 
ATOM     80  C   UNL A   1      43.669  34.367  33.944  1.00  0.00     0.020 A 
ATOM     81  C   UNL A   1      44.432  35.270  31.823  1.00  0.00     0.020 A 
ATOM     82  C   UNL A   1      44.134  35.439  33.176  1.00  0.00     0.054 A 
BRANCH  82  83
ATOM     83  S   UNL A   1      44.380  37.048  33.977  1.00  0.00     0.124 S 
ATOM     84  O   UNL A   1      45.332  36.720  35.033  1.00  0.00    -0.237 OA
ATOM     85  O   UNL A   1      44.900  37.867  32.884  1.00  0.00    -0.237 OA
ATOM     86  O   UNL A   1      43.040  37.410  34.433  1.00  0.00    -0.744 OA
ENDBRANCH  82  83
ENDBRANCH  54  77
BRANCH  66  87
ATOM     87  C   UNL A   1      47.921  27.437  30.853  1.00  0.00    -0.014 A 
ATOM     88  C   UNL A   1      48.930  27.991  30.046  1.00  0.00     0.010 A 
ATOM     89  C   UNL A   1      48.287  26.678  31.982  1.00  0.00     0.010 A 
ATOM     90  C   UNL A   1      50.277  27.764  30.343  1.00  0.00     0.020 A 
ATOM     91  C   UNL A   1      49.630  26.476  32.300  1.00  0.00     0.020 A 
ATOM     92  C   UNL A   1      50.618  27.009  31.469  1.00  0.00     0.054 A 
BRANCH  92  93
ATOM     93  S   UNL A   1      52.373  26.766  31.858  1.00  0.00     0.124 S 
ATOM     94  O   UNL A   1      53.019  27.701  30.942  1.00  0.00    -0.237 OA
ATOM     95  O   UNL A   1      52.439  27.124  33.273  1.00  0.00    -0.237 OA
ATOM     96  O   UNL A   1      52.600  25.352  31.568  1.00  0.00    -0.744 OA
ENDBRANCH  92  93
ENDBRANCH  66  87
ENDBRANCH  40  41
ENDBRANCH  32  35
ENDBRANCH  30  31
ENDBRANCH  29  30
ENDBRANCH  28  29
ENDBRANCH   1  28
TORSDOF 22
ENDMDL
MODEL 3
REMARK VINA RESULT:     -10.8      2.315      9.094
REMARK SMILES CC(C)[NH2+][C@]1(C(=O)NCCCCCCNC(=O)c2ccc(-c3c4nc(c(-c5ccc(S(=O)(=O)[O-])cc5)c5ccc([nH]5)c(-c5ccc(S(=O)(=O)[O-])cc5)c5nc(c(-c6ccc(S(=O)(=O)[O-])cc6)c6ccc3[nH]6)C=C5)C=C4)cc2)CCC[C@@H]1CCSc1cnccn1
REMARK SMILES IDX 11 1 10 2 9 3 8 4 6 5 7 6 5 8 78 9 81 10 79 11 80 12 4 13
REMARK SMILES IDX 2 16 1 17 3 18 82 19 83 20 84 21 85 22 86 23 90 24 87 25
REMARK SMILES IDX 89 26 88 27 12 28 13 29 14 30 15 31 16 32 17 34 18 35 19 36
REMARK SMILES IDX 77 37 20 38 76 39 21 40 22 41 23 42 70 43 24 44 75 45 69 46
REMARK SMILES IDX 71 47 25 48 74 49 68 50 67 51 26 53 56 54 37 55 55 56 38 57
REMARK SMILES IDX 41 58 54 59 72 60 39 61 40 62 53 64 73 65 42 66 27 67 28 68
REMARK SMILES IDX 36 69 29 70 35 71 30 72 31 73 32 74 33 75 34 76 57 77 58 78
REMARK SMILES IDX 66 79 59 80 65 81 60 82 61 83 62 84 63 85 64 86 43 87 44 88
REMARK SMILES IDX 52 89 45 90 51 91 46 92 47 93 48 94 49 95 50 96
REMARK H PARENT 8 7 4 14 4 15 15 33 71 52 41 63
REMARK Flexibility Score: inf
ROOT
ATOM      1  C   UNL A   1      31.859  29.355  24.729  1.00  0.00     0.002 C 
ENDROOT
BRANCH   1   2
ATOM      2  C   UNL A   1      32.455  28.290  23.786  1.00  0.00     0.021 C 
BRANCH   2   3
ATOM      3  C   UNL A   1      31.444  27.703  22.809  1.00  0.00     0.116 C 
BRANCH   3   4
ATOM      4  N   UNL A   1      32.141  26.780  21.963  1.00  0.00    -0.351 N 
ATOM      5  C   UNL A   1      32.703  25.565  22.095  1.00  0.00     0.281 C 
ATOM      6  O   UNL A   1      33.225  25.283  21.014  1.00  0.00    -0.268 OA
ATOM      7  H   UNL A   1      32.232  27.126  21.046  1.00  0.00     0.163 HD
BRANCH   5   8
ATOM      8  C   UNL A   1      32.390  24.525  23.239  1.00  0.00     0.178 C 
ATOM      9  C   UNL A   1      31.168  23.667  22.979  1.00  0.00     0.079 C 
ATOM     10  C   UNL A   1      33.667  23.709  23.129  1.00  0.00     0.061 C 
ATOM     11  C   UNL A   1      31.685  22.237  22.960  1.00  0.00     0.008 C 
ATOM     12  C   UNL A   1      33.181  22.264  23.359  1.00  0.00     0.011 C 
BRANCH   8  13
ATOM     13  N   UNL A   1      32.303  24.997  24.641  1.00  0.00    -0.331 N 
ATOM     14  H   UNL A   1      33.091  24.562  25.120  1.00  0.00     0.347 HD
ATOM     15  H   UNL A   1      32.242  26.003  24.483  1.00  0.00     0.347 HD
BRANCH  13  16
ATOM     16  C   UNL A   1      31.153  24.814  25.543  1.00  0.00     0.176 C 
ATOM     17  C   UNL A   1      31.538  23.905  26.728  1.00  0.00     0.075 C 
ATOM     18  C   UNL A   1      30.607  26.116  26.119  1.00  0.00     0.075 C 
ENDBRANCH  13  16
ENDBRANCH   8  13
BRANCH  10  19
ATOM     19  C   UNL A   1      34.834  24.377  23.969  1.00  0.00     0.022 C 
BRANCH  19  20
ATOM     20  C   UNL A   1      35.885  23.529  24.882  1.00  0.00     0.077 C 
BRANCH  20  21
ATOM     21  S   UNL A   1      37.326  22.136  24.606  1.00  0.00    -0.105 SA
BRANCH  21  22
ATOM     22  C   UNL A   1      38.669  22.174  25.834  1.00  0.00     0.114 A 
ATOM     23  C   UNL A   1      39.472  21.098  26.217  1.00  0.00     0.146 A 
ATOM     24  N   UNL A   1      38.906  23.384  26.430  1.00  0.00    -0.247 NA
ATOM     25  N   UNL A   1      40.609  21.218  26.982  1.00  0.00    -0.260 NA
ATOM     26  C   UNL A   1      40.013  23.502  27.218  1.00  0.00     0.132 A 
ATOM     27  C   UNL A   1      40.880  22.455  27.437  1.00  0.00     0.131 A 
ENDBRANCH  21  22
ENDBRANCH  20  21
ENDBRANCH  19  20
ENDBRANCH  10  19
ENDBRANCH   5   8
ENDBRANCH   3   4
ENDBRANCH   2   3
ENDBRANCH   1   2
BRANCH   1  28
ATOM     28  C   UNL A   1      32.841  29.977  25.729  1.00  0.00     0.002 C 
BRANCH  28  29
ATOM     29  C   UNL A   1      32.288  31.155  26.528  1.00  0.00     0.021 C 
BRANCH  29  30
ATOM     30  C   UNL A   1      33.209  31.644  27.631  1.00  0.00     0.116 C 
BRANCH  30  31
ATOM     31  N   UNL A   1      33.032  33.057  27.895  1.00  0.00    -0.352 N 
ATOM     32  C   UNL A   1      33.731  33.850  28.773  1.00  0.00     0.251 C 
ATOM     33  H   UNL A   1      32.322  33.507  27.381  1.00  0.00     0.163 HD
ATOM     34  O   UNL A   1      33.335  34.973  29.046  1.00  0.00    -0.269 OA
BRANCH  32  35
ATOM     35  C   UNL A   1      34.955  33.307  29.404  1.00  0.00     0.039 A 
ATOM     36  C   UNL A   1      36.195  33.812  29.015  1.00  0.00     0.014 A 
ATOM     37  C   UNL A   1      34.871  32.326  30.399  1.00  0.00     0.014 A 
ATOM     38  C   UNL A   1      37.351  33.365  29.655  1.00  0.00     0.010 A 
ATOM     39  C   UNL A   1      36.015  31.947  31.094  1.00  0.00     0.010 A 
ATOM     40  C   UNL A   1      37.269  32.451  30.720  1.00  0.00    -0.014 A 
BRANCH  40  41
ATOM     41  C   UNL A   1      38.487  32.000  31.441  1.00  0.00     0.031 A 
ATOM     42  C   UNL A   1      38.835  32.600  32.778  1.00  0.00     0.074 A 
ATOM     43  C   UNL A   1      39.304  31.092  30.871  1.00  0.00     0.049 A 
ATOM     44  N   UNL A   1      39.872  32.364  33.540  1.00  0.00    -0.248 NA
ATOM     45  C   UNL A   1      37.913  33.613  33.317  1.00  0.00     0.031 C 
ATOM     46  C   UNL A   1      39.098  30.469  29.561  1.00  0.00     0.029 A 
ATOM     47  N   UNL A   1      40.476  30.537  31.320  1.00  0.00    -0.354 N 
ATOM     48  C   UNL A   1      39.736  33.211  34.635  1.00  0.00     0.074 A 
ATOM     49  C   UNL A   1      38.545  34.001  34.414  1.00  0.00     0.031 C 
ATOM     50  C   UNL A   1      40.092  29.597  29.327  1.00  0.00     0.029 A 
ATOM     51  C   UNL A   1      41.029  29.629  30.446  1.00  0.00     0.049 A 
ATOM     52  H   UNL A   1      40.884  30.766  32.187  1.00  0.00     0.167 HD
ATOM     53  C   UNL A   1      40.522  33.309  35.734  1.00  0.00     0.031 A 
ATOM     54  C   UNL A   1      42.166  28.911  30.531  1.00  0.00     0.031 A 
ATOM     55  C   UNL A   1      41.696  32.509  35.956  1.00  0.00     0.049 A 
ATOM     56  C   UNL A   1      43.026  29.045  31.758  1.00  0.00     0.074 A 
ATOM     57  C   UNL A   1      42.521  32.485  37.066  1.00  0.00     0.029 A 
ATOM     58  N   UNL A   1      42.217  31.597  35.051  1.00  0.00    -0.354 N 
ATOM     59  N   UNL A   1      42.838  29.794  32.818  1.00  0.00    -0.248 NA
ATOM     60  C   UNL A   1      44.246  28.228  31.806  1.00  0.00     0.031 C 
ATOM     61  C   UNL A   1      43.576  31.606  36.807  1.00  0.00     0.029 A 
ATOM     62  C   UNL A   1      43.371  31.028  35.563  1.00  0.00     0.049 A 
ATOM     63  H   UNL A   1      41.824  31.385  34.173  1.00  0.00     0.167 HD
ATOM     64  C   UNL A   1      43.899  29.514  33.672  1.00  0.00     0.074 A 
ATOM     65  C   UNL A   1      44.715  28.517  33.012  1.00  0.00     0.031 C 
ATOM     66  C   UNL A   1      44.173  30.036  34.894  1.00  0.00     0.031 A 
BRANCH  53  67
ATOM     67  C   UNL A   1      40.144  34.327  36.778  1.00  0.00    -0.014 A 
ATOM     68  C   UNL A   1      39.228  34.021  37.802  1.00  0.00     0.010 A 
ATOM     69  C   UNL A   1      40.754  35.595  36.766  1.00  0.00     0.010 A 
ATOM     70  C   UNL A   1      38.903  34.975  38.770  1.00  0.00     0.020 A 
ATOM     71  C   UNL A   1      40.455  36.542  37.750  1.00  0.00     0.020 A 
ATOM     72  C   UNL A   1      39.518  36.230  38.738  1.00  0.00     0.054 A 
BRANCH  72  73
ATOM     73  S   UNL A   1      39.100  37.436  40.026  1.00  0.00     0.124 S 
ATOM     74  O   UNL A   1      40.402  38.026  40.321  1.00  0.00    -0.237 OA
ATOM     75  O   UNL A   1      38.152  38.314  39.345  1.00  0.00    -0.237 OA
ATOM     76  O   UNL A   1      38.531  36.619  41.096  1.00  0.00    -0.744 OA
ENDBRANCH  72  73
ENDBRANCH  53  67
BRANCH  54  77
ATOM     77  C   UNL A   1      42.556  27.997  29.421  1.00  0.00    -0.014 A 
ATOM     78  C   UNL A   1      43.312  28.470  28.334  1.00  0.00     0.010 A 
ATOM     79  C   UNL A   1      42.168  26.644  29.445  1.00  0.00     0.010 A 
ATOM     80  C   UNL A   1      43.652  27.616  27.280  1.00  0.00     0.020 A 
ATOM     81  C   UNL A   1      42.533  25.780  28.410  1.00  0.00     0.020 A 
ATOM     82  C   UNL A   1      43.260  26.274  27.326  1.00  0.00     0.054 A 
BRANCH  82  83
ATOM     83  S   UNL A   1      43.742  25.174  25.966  1.00  0.00     0.124 S 
ATOM     84  O   UNL A   1      44.076  23.943  26.675  1.00  0.00    -0.237 OA
ATOM     85  O   UNL A   1      42.529  25.129  25.152  1.00  0.00    -0.237 OA
ATOM     86  O   UNL A   1      44.871  25.867  25.350  1.00  0.00    -0.744 OA
ENDBRANCH  82  83
ENDBRANCH  54  77
BRANCH  66  87
ATOM     87  C   UNL A   1      45.384  29.511  35.618  1.00  0.00    -0.014 A 
ATOM     88  C   UNL A   1      46.663  30.055  35.398  1.00  0.00     0.010 A 
ATOM     89  C   UNL A   1      45.229  28.493  36.579  1.00  0.00     0.010 A 
ATOM     90  C   UNL A   1      47.768  29.569  36.102  1.00  0.00     0.020 A 
ATOM     91  C   UNL A   1      46.325  28.027  37.306  1.00  0.00     0.020 A 
ATOM     92  C   UNL A   1      47.591  28.558  37.053  1.00  0.00     0.054 A 
BRANCH  92  93
ATOM     93  S   UNL A   1      49.034  27.975  37.984  1.00  0.00     0.124 S 
ATOM     94  O   UNL A   1      48.526  26.752  38.598  1.00  0.00    -0.237 OA
ATOM     95  O   UNL A   1      50.034  27.784  36.935  1.00  0.00    -0.237 OA
ATOM     96  O   UNL A   1      49.314  29.068  38.911  1.00  0.00    -0.744 OA
ENDBRANCH  92  93
ENDBRANCH  66  87
ENDBRANCH  40  41
ENDBRANCH  32  35
ENDBRANCH  30  31
ENDBRANCH  29  30
ENDBRANCH  28  29
ENDBRANCH   1  28
TORSDOF 22
ENDMDL
