MODEL 1
REMARK VINA RESULT:     -10.5      0.000      0.000
REMARK SMILES CCOc1cc(C[NH+]2CCC3(CC2)[C@H](C(=O)NCCCCCCNC(=O)c2ccc(-c4c5nc(c(-c6ccc(S(=O)(=O)[O-])cc6)c6ccc([nH]6)c(-c6ccc(S(=O)(=O)[O-])cc6)c6nc(c(-c7ccc(S(=O)(=O)[O-])cc7)c7ccc4[nH]7)C=C6)C=C5)cc2)CC(=O)N3C)ccc1OC
REMARK SMILES IDX 20 1 19 2 18 3 17 4 15 5 16 6 14 8 8 9 9 10 13 11 10 13
REMARK SMILES IDX 12 14 11 15 90 16 87 17 88 18 91 19 89 20 7 21 6 22 4 23
REMARK SMILES IDX 5 24 94 25 93 26 92 27 3 28 2 29 1 30 95 31 96 32 21 33
REMARK SMILES IDX 22 34 23 35 24 36 25 37 26 39 27 40 28 41 86 42 29 43 85 44
REMARK SMILES IDX 30 45 31 46 32 47 79 48 33 49 84 50 78 51 80 52 34 53 83 54
REMARK SMILES IDX 77 55 76 56 35 58 65 59 46 60 64 61 47 62 50 63 63 64 81 65
REMARK SMILES IDX 48 66 49 67 62 69 82 70 51 71 36 72 37 73 45 74 38 75 44 76
REMARK SMILES IDX 39 77 40 78 41 79 42 80 43 81 66 82 67 83 75 84 68 85 74 86
REMARK SMILES IDX 69 87 70 88 71 89 72 90 73 91 52 92 53 93 61 94 54 95 60 96
REMARK SMILES IDX 55 97 56 98 57 99 58 100 59 101
REMARK H PARENT 17 7 8 12 24 38 80 57 50 68
REMARK Flexibility Score: inf
ROOT
ATOM      1  C   UNL A   1      31.863  32.065  27.257  1.00  0.00     0.002 C 
ENDROOT
BRANCH   1   2
ATOM      2  C   UNL A   1      31.041  31.880  25.981  1.00  0.00     0.021 C 
BRANCH   2   3
ATOM      3  C   UNL A   1      31.194  30.520  25.300  1.00  0.00     0.116 C 
BRANCH   3   4
ATOM      4  N   UNL A   1      32.476  29.945  25.601  1.00  0.00    -0.356 N 
ATOM      5  C   UNL A   1      33.123  28.839  25.199  1.00  0.00     0.226 C 
ATOM      6  O   UNL A   1      34.233  28.701  25.720  1.00  0.00    -0.275 OA
ATOM      7  H   UNL A   1      32.995  30.480  26.244  1.00  0.00     0.163 HD
BRANCH   5   8
ATOM      8  C   UNL A   1      32.662  27.858  24.118  1.00  0.00     0.114 C 
ATOM      9  N   UNL A   1      30.803  24.341  25.650  1.00  0.00    -0.331 N 
ATOM     10  C   UNL A   1      30.278  25.566  26.214  1.00  0.00     0.265 C 
ATOM     11  C   UNL A   1      30.863  24.393  24.201  1.00  0.00     0.265 C 
ATOM     12  H   UNL A   1      30.102  23.622  25.829  1.00  0.00     0.348 HD
ATOM     13  C   UNL A   1      31.016  26.818  25.766  1.00  0.00     0.091 C 
ATOM     14  C   UNL A   1      31.611  25.585  23.586  1.00  0.00     0.091 C 
ATOM     15  C   UNL A   1      31.393  26.960  24.280  1.00  0.00     0.065 C 
ATOM     16  N   UNL A   1      30.423  27.721  23.471  1.00  0.00    -0.339 N 
ATOM     17  C   UNL A   1      32.500  28.595  22.796  1.00  0.00     0.116 C 
ATOM     18  C   UNL A   1      31.016  28.620  22.585  1.00  0.00     0.223 C 
ATOM     19  C   UNL A   1      29.013  27.424  23.359  1.00  0.00     0.147 C 
ATOM     20  O   UNL A   1      30.447  29.291  21.749  1.00  0.00    -0.275 OA
BRANCH   9  21
ATOM     21  C   UNL A   1      31.868  23.658  26.392  1.00  0.00     0.299 C 
BRANCH  21  22
ATOM     22  C   UNL A   1      32.551  22.486  25.718  1.00  0.00     0.010 A 
ATOM     23  C   UNL A   1      34.583  21.218  25.281  1.00  0.00     0.161 A 
ATOM     24  C   UNL A   1      33.949  22.424  25.610  1.00  0.00     0.060 A 
ATOM     25  C   UNL A   1      33.824  20.122  24.854  1.00  0.00     0.160 A 
ATOM     26  C   UNL A   1      32.434  20.247  24.792  1.00  0.00     0.051 A 
ATOM     27  C   UNL A   1      31.798  21.397  25.260  1.00  0.00     0.013 A 
BRANCH  23  28
ATOM     28  O   UNL A   1      35.860  20.989  25.693  1.00  0.00    -0.490 OA
BRANCH  28  29
ATOM     29  C   UNL A   1      36.949  21.233  24.823  1.00  0.00     0.226 C 
ATOM     30  C   UNL A   1      37.681  19.898  24.762  1.00  0.00     0.049 C 
ENDBRANCH  28  29
ENDBRANCH  23  28
BRANCH  25  31
ATOM     31  O   UNL A   1      34.272  18.882  24.483  1.00  0.00    -0.493 OA
ATOM     32  C   UNL A   1      33.392  17.770  24.586  1.00  0.00     0.278 C 
ENDBRANCH  25  31
ENDBRANCH  21  22
ENDBRANCH   9  21
ENDBRANCH   5   8
ENDBRANCH   3   4
ENDBRANCH   2   3
ENDBRANCH   1   2
BRANCH   1  33
ATOM     33  C   UNL A   1      32.471  33.452  27.440  1.00  0.00     0.002 C 
BRANCH  33  34
ATOM     34  C   UNL A   1      33.760  33.482  28.258  1.00  0.00     0.021 C 
BRANCH  34  35
ATOM     35  C   UNL A   1      34.101  34.836  28.858  1.00  0.00     0.116 C 
BRANCH  35  36
ATOM     36  N   UNL A   1      33.133  35.253  29.854  1.00  0.00    -0.352 N 
ATOM     37  C   UNL A   1      33.176  35.015  31.204  1.00  0.00     0.251 C 
ATOM     38  H   UNL A   1      32.358  35.763  29.525  1.00  0.00     0.163 HD
ATOM     39  O   UNL A   1      32.215  35.267  31.920  1.00  0.00    -0.269 OA
BRANCH  37  40
ATOM     40  C   UNL A   1      34.405  34.419  31.761  1.00  0.00     0.039 A 
ATOM     41  C   UNL A   1      34.437  33.047  32.006  1.00  0.00     0.014 A 
ATOM     42  C   UNL A   1      35.542  35.212  31.958  1.00  0.00     0.014 A 
ATOM     43  C   UNL A   1      35.629  32.458  32.423  1.00  0.00     0.010 A 
ATOM     44  C   UNL A   1      36.748  34.608  32.296  1.00  0.00     0.010 A 
ATOM     45  C   UNL A   1      36.798  33.228  32.551  1.00  0.00    -0.014 A 
BRANCH  45  46
ATOM     46  C   UNL A   1      38.075  32.608  32.983  1.00  0.00     0.031 A 
ATOM     47  C   UNL A   1      38.609  32.889  34.362  1.00  0.00     0.074 A 
ATOM     48  C   UNL A   1      38.765  31.827  32.129  1.00  0.00     0.049 A 
ATOM     49  N   UNL A   1      39.713  32.462  34.919  1.00  0.00    -0.248 NA
ATOM     50  C   UNL A   1      37.815  33.787  35.218  1.00  0.00     0.031 C 
ATOM     51  C   UNL A   1      38.366  31.516  30.754  1.00  0.00     0.029 A 
ATOM     52  N   UNL A   1      39.946  31.151  32.292  1.00  0.00    -0.354 N 
ATOM     53  C   UNL A   1      39.752  33.049  36.179  1.00  0.00     0.074 A 
ATOM     54  C   UNL A   1      38.591  33.905  36.285  1.00  0.00     0.031 C 
ATOM     55  C   UNL A   1      39.273  30.688  30.210  1.00  0.00     0.029 A 
ATOM     56  C   UNL A   1      40.335  30.441  31.181  1.00  0.00     0.049 A 
ATOM     57  H   UNL A   1      40.468  31.171  33.127  1.00  0.00     0.167 HD
ATOM     58  C   UNL A   1      40.660  32.873  37.167  1.00  0.00     0.031 A 
ATOM     59  C   UNL A   1      41.426  29.681  30.965  1.00  0.00     0.031 A 
ATOM     60  C   UNL A   1      41.803  32.007  37.060  1.00  0.00     0.049 A 
ATOM     61  C   UNL A   1      42.426  29.507  32.077  1.00  0.00     0.074 A 
ATOM     62  C   UNL A   1      42.750  31.713  38.025  1.00  0.00     0.029 A 
ATOM     63  N   UNL A   1      42.156  31.300  35.921  1.00  0.00    -0.354 N 
ATOM     64  N   UNL A   1      42.404  30.011  33.289  1.00  0.00    -0.248 NA
ATOM     65  C   UNL A   1      43.588  28.652  31.800  1.00  0.00     0.031 C 
ATOM     66  C   UNL A   1      43.709  30.875  37.450  1.00  0.00     0.029 A 
ATOM     67  C   UNL A   1      43.324  30.592  36.149  1.00  0.00     0.049 A 
ATOM     68  H   UNL A   1      41.652  31.302  35.075  1.00  0.00     0.167 HD
ATOM     69  C   UNL A   1      43.535  29.512  33.926  1.00  0.00     0.074 A 
ATOM     70  C   UNL A   1      44.207  28.652  32.971  1.00  0.00     0.031 C 
ATOM     71  C   UNL A   1      43.977  29.741  35.187  1.00  0.00     0.031 A 
BRANCH  58  72
ATOM     72  C   UNL A   1      40.457  33.638  38.448  1.00  0.00    -0.014 A 
ATOM     73  C   UNL A   1      39.647  33.130  39.481  1.00  0.00     0.010 A 
ATOM     74  C   UNL A   1      41.127  34.860  38.644  1.00  0.00     0.010 A 
ATOM     75  C   UNL A   1      39.483  33.847  40.670  1.00  0.00     0.020 A 
ATOM     76  C   UNL A   1      40.990  35.564  39.844  1.00  0.00     0.020 A 
ATOM     77  C   UNL A   1      40.157  35.059  40.843  1.00  0.00     0.054 A 
BRANCH  77  78
ATOM     78  S   UNL A   1      39.955  35.947  42.413  1.00  0.00     0.124 S 
ATOM     79  O   UNL A   1      41.342  36.146  42.827  1.00  0.00    -0.237 OA
ATOM     80  O   UNL A   1      39.241  37.154  42.006  1.00  0.00    -0.237 OA
ATOM     81  O   UNL A   1      39.186  35.020  43.239  1.00  0.00    -0.744 OA
ENDBRANCH  77  78
ENDBRANCH  58  72
BRANCH  59  82
ATOM     82  C   UNL A   1      41.629  29.023  29.644  1.00  0.00    -0.014 A 
ATOM     83  C   UNL A   1      41.361  27.653  29.474  1.00  0.00     0.010 A 
ATOM     84  C   UNL A   1      42.092  29.768  28.543  1.00  0.00     0.010 A 
ATOM     85  C   UNL A   1      41.575  27.036  28.237  1.00  0.00     0.020 A 
ATOM     86  C   UNL A   1      42.278  29.162  27.298  1.00  0.00     0.020 A 
ATOM     87  C   UNL A   1      42.032  27.795  27.156  1.00  0.00     0.054 A 
BRANCH  87  88
ATOM     88  S   UNL A   1      42.267  26.981  25.552  1.00  0.00     0.124 S 
ATOM     89  O   UNL A   1      41.020  26.237  25.404  1.00  0.00    -0.237 OA
ATOM     90  O   UNL A   1      42.441  28.113  24.647  1.00  0.00    -0.237 OA
ATOM     91  O   UNL A   1      43.463  26.165  25.755  1.00  0.00    -0.744 OA
ENDBRANCH  87  88
ENDBRANCH  59  82
BRANCH  71  92
ATOM     92  C   UNL A   1      45.228  29.027  35.626  1.00  0.00    -0.014 A 
ATOM     93  C   UNL A   1      45.176  27.743  36.196  1.00  0.00     0.010 A 
ATOM     94  C   UNL A   1      46.481  29.628  35.403  1.00  0.00     0.010 A 
ATOM     95  C   UNL A   1      46.353  27.087  36.566  1.00  0.00     0.020 A 
ATOM     96  C   UNL A   1      47.661  28.962  35.742  1.00  0.00     0.020 A 
ATOM     97  C   UNL A   1      47.589  27.700  36.334  1.00  0.00     0.054 A 
BRANCH  97  98
ATOM     98  S   UNL A   1      49.103  26.807  36.778  1.00  0.00     0.124 S 
ATOM     99  O   UNL A   1      49.515  26.251  35.492  1.00  0.00    -0.237 OA
ATOM    100  O   UNL A   1      49.957  27.868  37.306  1.00  0.00    -0.237 OA
ATOM    101  O   UNL A   1      48.653  25.829  37.764  1.00  0.00    -0.744 OA
ENDBRANCH  97  98
ENDBRANCH  71  92
ENDBRANCH  45  46
ENDBRANCH  37  40
ENDBRANCH  35  36
ENDBRANCH  34  35
ENDBRANCH  33  34
ENDBRANCH   1  33
TORSDOF 21
ENDMDL
MODEL 2
REMARK VINA RESULT:     -10.3      5.570     11.608
REMARK SMILES CCOc1cc(C[NH+]2CCC3(CC2)[C@H](C(=O)NCCCCCCNC(=O)c2ccc(-c4c5nc(c(-c6ccc(S(=O)(=O)[O-])cc6)c6ccc([nH]6)c(-c6ccc(S(=O)(=O)[O-])cc6)c6nc(c(-c7ccc(S(=O)(=O)[O-])cc7)c7ccc4[nH]7)C=C6)C=C5)cc2)CC(=O)N3C)ccc1OC
REMARK SMILES IDX 20 1 19 2 18 3 17 4 15 5 16 6 14 8 8 9 9 10 13 11 10 13
REMARK SMILES IDX 12 14 11 15 90 16 87 17 88 18 91 19 89 20 7 21 6 22 4 23
REMARK SMILES IDX 5 24 94 25 93 26 92 27 3 28 2 29 1 30 95 31 96 32 21 33
REMARK SMILES IDX 22 34 23 35 24 36 25 37 26 39 27 40 28 41 86 42 29 43 85 44
REMARK SMILES IDX 30 45 31 46 32 47 79 48 33 49 84 50 78 51 80 52 34 53 83 54
REMARK SMILES IDX 77 55 76 56 35 58 65 59 46 60 64 61 47 62 50 63 63 64 81 65
REMARK SMILES IDX 48 66 49 67 62 69 82 70 51 71 36 72 37 73 45 74 38 75 44 76
REMARK SMILES IDX 39 77 40 78 41 79 42 80 43 81 66 82 67 83 75 84 68 85 74 86
REMARK SMILES IDX 69 87 70 88 71 89 72 90 73 91 52 92 53 93 61 94 54 95 60 96
REMARK SMILES IDX 55 97 56 98 57 99 58 100 59 101
REMARK H PARENT 17 7 8 12 24 38 80 57 50 68
REMARK Flexibility Score: inf
ROOT
ATOM      1  C   UNL A   1      47.814  25.724  27.379  1.00  0.00     0.002 C 
ENDROOT
BRANCH   1   2
ATOM      2  C   UNL A   1      47.158  24.489  27.997  1.00  0.00     0.021 C 
BRANCH   2   3
ATOM      3  C   UNL A   1      45.645  24.394  27.810  1.00  0.00     0.116 C 
BRANCH   3   4
ATOM      4  N   UNL A   1      45.016  23.914  29.011  1.00  0.00    -0.356 N 
ATOM      5  C   UNL A   1      43.747  23.637  29.355  1.00  0.00     0.226 C 
ATOM      6  O   UNL A   1      43.628  23.247  30.520  1.00  0.00    -0.275 OA
ATOM      7  H   UNL A   1      45.656  23.752  29.741  1.00  0.00     0.163 HD
BRANCH   5   8
ATOM      8  C   UNL A   1      42.528  23.658  28.431  1.00  0.00     0.114 C 
ATOM      9  N   UNL A   1      40.275  27.271  28.614  1.00  0.00    -0.331 N 
ATOM     10  C   UNL A   1      41.696  27.483  28.441  1.00  0.00     0.265 C 
ATOM     11  C   UNL A   1      39.753  26.298  27.672  1.00  0.00     0.265 C 
ATOM     12  H   UNL A   1      39.821  28.139  28.328  1.00  0.00     0.348 HD
ATOM     13  C   UNL A   1      42.521  26.208  28.497  1.00  0.00     0.091 C 
ATOM     14  C   UNL A   1      40.458  24.935  27.631  1.00  0.00     0.091 C 
ATOM     15  C   UNL A   1      42.009  24.964  27.747  1.00  0.00     0.065 C 
ATOM     16  N   UNL A   1      42.563  24.794  26.392  1.00  0.00    -0.339 N 
ATOM     17  C   UNL A   1      42.716  22.636  27.317  1.00  0.00     0.116 C 
ATOM     18  C   UNL A   1      42.928  23.480  26.096  1.00  0.00     0.223 C 
ATOM     19  C   UNL A   1      42.509  25.780  25.336  1.00  0.00     0.147 C 
ATOM     20  O   UNL A   1      43.316  23.063  25.026  1.00  0.00    -0.275 OA
BRANCH   9  21
ATOM     21  C   UNL A   1      39.749  27.305  29.983  1.00  0.00     0.299 C 
BRANCH  21  22
ATOM     22  C   UNL A   1      39.689  28.650  30.677  1.00  0.00     0.010 A 
ATOM     23  C   UNL A   1      39.054  31.000  30.634  1.00  0.00     0.161 A 
ATOM     24  C   UNL A   1      39.418  29.827  29.960  1.00  0.00     0.060 A 
ATOM     25  C   UNL A   1      39.160  31.069  32.028  1.00  0.00     0.160 A 
ATOM     26  C   UNL A   1      39.603  29.944  32.728  1.00  0.00     0.051 A 
ATOM     27  C   UNL A   1      39.822  28.734  32.069  1.00  0.00     0.013 A 
BRANCH  23  28
ATOM     28  O   UNL A   1      38.287  31.933  30.005  1.00  0.00    -0.490 OA
BRANCH  28  29
ATOM     29  C   UNL A   1      36.904  31.711  29.809  1.00  0.00     0.226 C 
ATOM     30  C   UNL A   1      36.778  31.451  28.313  1.00  0.00     0.049 C 
ENDBRANCH  28  29
ENDBRANCH  23  28
BRANCH  25  31
ATOM     31  O   UNL A   1      38.863  32.130  32.843  1.00  0.00    -0.493 OA
ATOM     32  C   UNL A   1      37.519  32.319  33.269  1.00  0.00     0.278 C 
ENDBRANCH  25  31
ENDBRANCH  21  22
ENDBRANCH   9  21
ENDBRANCH   5   8
ENDBRANCH   3   4
ENDBRANCH   2   3
ENDBRANCH   1   2
BRANCH   1  33
ATOM     33  C   UNL A   1      49.226  25.507  26.841  1.00  0.00     0.002 C 
BRANCH  33  34
ATOM     34  C   UNL A   1      49.413  25.874  25.371  1.00  0.00     0.021 C 
BRANCH  34  35
ATOM     35  C   UNL A   1      48.177  25.686  24.507  1.00  0.00     0.116 C 
BRANCH  35  36
ATOM     36  N   UNL A   1      48.036  26.736  23.518  1.00  0.00    -0.352 N 
ATOM     37  C   UNL A   1      47.339  27.910  23.649  1.00  0.00     0.251 C 
ATOM     38  H   UNL A   1      48.489  26.590  22.657  1.00  0.00     0.163 HD
ATOM     39  O   UNL A   1      47.148  28.641  22.685  1.00  0.00    -0.269 OA
BRANCH  37  40
ATOM     40  C   UNL A   1      46.802  28.251  24.980  1.00  0.00     0.039 A 
ATOM     41  C   UNL A   1      47.578  29.024  25.842  1.00  0.00     0.014 A 
ATOM     42  C   UNL A   1      45.501  27.870  25.328  1.00  0.00     0.014 A 
ATOM     43  C   UNL A   1      47.033  29.446  27.053  1.00  0.00     0.010 A 
ATOM     44  C   UNL A   1      44.934  28.360  26.500  1.00  0.00     0.010 A 
ATOM     45  C   UNL A   1      45.702  29.136  27.383  1.00  0.00    -0.014 A 
BRANCH  45  46
ATOM     46  C   UNL A   1      45.109  29.591  28.664  1.00  0.00     0.031 A 
ATOM     47  C   UNL A   1      44.568  30.990  28.779  1.00  0.00     0.074 A 
ATOM     48  C   UNL A   1      45.090  28.762  29.726  1.00  0.00     0.049 A 
ATOM     49  N   UNL A   1      44.031  31.582  29.815  1.00  0.00    -0.248 NA
ATOM     50  C   UNL A   1      44.665  31.846  27.585  1.00  0.00     0.031 C 
ATOM     51  C   UNL A   1      45.623  27.396  29.746  1.00  0.00     0.029 A 
ATOM     52  N   UNL A   1      44.603  28.945  30.995  1.00  0.00    -0.354 N 
ATOM     53  C   UNL A   1      43.743  32.878  29.402  1.00  0.00     0.074 A 
ATOM     54  C   UNL A   1      44.212  33.004  28.040  1.00  0.00     0.031 C 
ATOM     55  C   UNL A   1      45.407  26.858  30.958  1.00  0.00     0.029 A 
ATOM     56  C   UNL A   1      44.759  27.849  31.811  1.00  0.00     0.049 A 
ATOM     57  H   UNL A   1      44.182  29.783  31.295  1.00  0.00     0.167 HD
ATOM     58  C   UNL A   1      43.121  33.866  30.086  1.00  0.00     0.031 A 
ATOM     59  C   UNL A   1      44.422  27.665  33.103  1.00  0.00     0.031 A 
ATOM     60  C   UNL A   1      42.642  33.728  31.436  1.00  0.00     0.049 A 
ATOM     61  C   UNL A   1      43.739  28.782  33.845  1.00  0.00     0.074 A 
ATOM     62  C   UNL A   1      41.946  34.649  32.198  1.00  0.00     0.029 A 
ATOM     63  N   UNL A   1      42.812  32.600  32.224  1.00  0.00    -0.354 N 
ATOM     64  N   UNL A   1      43.406  29.975  33.411  1.00  0.00    -0.248 NA
ATOM     65  C   UNL A   1      43.374  28.525  35.245  1.00  0.00     0.031 C 
ATOM     66  C   UNL A   1      41.748  34.099  33.468  1.00  0.00     0.029 A 
ATOM     67  C   UNL A   1      42.259  32.811  33.475  1.00  0.00     0.049 A 
ATOM     68  H   UNL A   1      43.260  31.771  31.937  1.00  0.00     0.167 HD
ATOM     69  C   UNL A   1      42.768  30.600  34.477  1.00  0.00     0.074 A 
ATOM     70  C   UNL A   1      42.746  29.646  35.568  1.00  0.00     0.031 C 
ATOM     71  C   UNL A   1      42.245  31.849  34.548  1.00  0.00     0.031 A 
BRANCH  58  72
ATOM     72  C   UNL A   1      42.930  35.188  29.390  1.00  0.00    -0.014 A 
ATOM     73  C   UNL A   1      43.788  36.275  29.642  1.00  0.00     0.010 A 
ATOM     74  C   UNL A   1      41.909  35.331  28.434  1.00  0.00     0.010 A 
ATOM     75  C   UNL A   1      43.605  37.490  28.975  1.00  0.00     0.020 A 
ATOM     76  C   UNL A   1      41.742  36.534  27.742  1.00  0.00     0.020 A 
ATOM     77  C   UNL A   1      42.584  37.611  28.028  1.00  0.00     0.054 A 
BRANCH  77  78
ATOM     78  S   UNL A   1      42.396  39.188  27.151  1.00  0.00     0.124 S 
ATOM     79  O   UNL A   1      41.181  38.956  26.373  1.00  0.00    -0.237 OA
ATOM     80  O   UNL A   1      42.269  40.148  28.244  1.00  0.00    -0.237 OA
ATOM     81  O   UNL A   1      43.624  39.297  26.368  1.00  0.00    -0.744 OA
ENDBRANCH  77  78
ENDBRANCH  58  72
BRANCH  59  82
ATOM     82  C   UNL A   1      44.722  26.370  33.775  1.00  0.00    -0.014 A 
ATOM     83  C   UNL A   1      43.831  25.286  33.678  1.00  0.00     0.010 A 
ATOM     84  C   UNL A   1      45.907  26.213  34.517  1.00  0.00     0.010 A 
ATOM     85  C   UNL A   1      44.106  24.080  34.331  1.00  0.00     0.020 A 
ATOM     86  C   UNL A   1      46.201  25.000  35.145  1.00  0.00     0.020 A 
ATOM     87  C   UNL A   1      45.291  23.944  35.060  1.00  0.00     0.054 A 
BRANCH  87  88
ATOM     88  S   UNL A   1      45.644  22.358  35.867  1.00  0.00     0.124 S 
ATOM     89  O   UNL A   1      44.648  21.481  35.261  1.00  0.00    -0.237 OA
ATOM     90  O   UNL A   1      47.030  22.109  35.477  1.00  0.00    -0.237 OA
ATOM     91  O   UNL A   1      45.446  22.646  37.286  1.00  0.00    -0.744 OA
ENDBRANCH  87  88
ENDBRANCH  59  82
BRANCH  71  92
ATOM     92  C   UNL A   1      41.571  32.250  35.833  1.00  0.00    -0.014 A 
ATOM     93  C   UNL A   1      42.287  32.870  36.872  1.00  0.00     0.010 A 
ATOM     94  C   UNL A   1      40.184  32.058  35.975  1.00  0.00     0.010 A 
ATOM     95  C   UNL A   1      41.632  33.262  38.043  1.00  0.00     0.020 A 
ATOM     96  C   UNL A   1      39.521  32.478  37.130  1.00  0.00     0.020 A 
ATOM     97  C   UNL A   1      40.253  33.065  38.164  1.00  0.00     0.054 A 
BRANCH  97  98
ATOM     98  S   UNL A   1      39.420  33.628  39.673  1.00  0.00     0.124 S 
ATOM     99  O   UNL A   1      39.080  35.008  39.335  1.00  0.00    -0.237 OA
ATOM    100  O   UNL A   1      38.288  32.709  39.775  1.00  0.00    -0.237 OA
ATOM    101  O   UNL A   1      40.437  33.472  40.709  1.00  0.00    -0.744 OA
ENDBRANCH  97  98
ENDBRANCH  71  92
ENDBRANCH  45  46
ENDBRANCH  37  40
ENDBRANCH  35  36
ENDBRANCH  34  35
ENDBRANCH  33  34
ENDBRANCH   1  33
TORSDOF 21
ENDMDL
MODEL 3
REMARK VINA RESULT:     -10.1      5.412      6.597
REMARK SMILES CCOc1cc(C[NH+]2CCC3(CC2)[C@H](C(=O)NCCCCCCNC(=O)c2ccc(-c4c5nc(c(-c6ccc(S(=O)(=O)[O-])cc6)c6ccc([nH]6)c(-c6ccc(S(=O)(=O)[O-])cc6)c6nc(c(-c7ccc(S(=O)(=O)[O-])cc7)c7ccc4[nH]7)C=C6)C=C5)cc2)CC(=O)N3C)ccc1OC
REMARK SMILES IDX 20 1 19 2 18 3 17 4 15 5 16 6 14 8 8 9 9 10 13 11 10 13
REMARK SMILES IDX 12 14 11 15 90 16 87 17 88 18 91 19 89 20 7 21 6 22 4 23
REMARK SMILES IDX 5 24 94 25 93 26 92 27 3 28 2 29 1 30 95 31 96 32 21 33
REMARK SMILES IDX 22 34 23 35 24 36 25 37 26 39 27 40 28 41 86 42 29 43 85 44
REMARK SMILES IDX 30 45 31 46 32 47 79 48 33 49 84 50 78 51 80 52 34 53 83 54
REMARK SMILES IDX 77 55 76 56 35 58 65 59 46 60 64 61 47 62 50 63 63 64 81 65
REMARK SMILES IDX 48 66 49 67 62 69 82 70 51 71 36 72 37 73 45 74 38 75 44 76
REMARK SMILES IDX 39 77 40 78 41 79 42 80 43 81 66 82 67 83 75 84 68 85 74 86
REMARK SMILES IDX 69 87 70 88 71 89 72 90 73 91 52 92 53 93 61 94 54 95 60 96
REMARK SMILES IDX 55 97 56 98 57 99 58 100 59 101
REMARK H PARENT 17 7 8 12 24 38 80 57 50 68
REMARK Flexibility Score: inf
ROOT
ATOM      1  C   UNL A   1      31.843  30.152  26.822  1.00  0.00     0.002 C 
ENDROOT
BRANCH   1   2
ATOM      2  C   UNL A   1      31.333  30.215  25.382  1.00  0.00     0.021 C 
BRANCH   2   3
ATOM      3  C   UNL A   1      32.095  29.344  24.384  1.00  0.00     0.116 C 
BRANCH   3   4
ATOM      4  N   UNL A   1      33.167  28.645  25.039  1.00  0.00    -0.356 N 
ATOM      5  C   UNL A   1      33.567  27.363  25.068  1.00  0.00     0.226 C 
ATOM      6  O   UNL A   1      34.556  27.172  25.783  1.00  0.00    -0.275 OA
ATOM      7  H   UNL A   1      33.734  29.236  25.585  1.00  0.00     0.163 HD
BRANCH   5   8
ATOM      8  C   UNL A   1      32.993  26.211  24.240  1.00  0.00     0.114 C 
ATOM      9  N   UNL A   1      30.833  23.339  26.532  1.00  0.00    -0.331 N 
ATOM     10  C   UNL A   1      30.440  24.705  26.798  1.00  0.00     0.265 C 
ATOM     11  C   UNL A   1      30.871  23.051  25.110  1.00  0.00     0.265 C 
ATOM     12  H   UNL A   1      30.070  22.752  26.868  1.00  0.00     0.348 HD
ATOM     13  C   UNL A   1      31.287  25.742  26.078  1.00  0.00     0.091 C 
ATOM     14  C   UNL A   1      31.718  23.992  24.241  1.00  0.00     0.091 C 
ATOM     15  C   UNL A   1      31.647  25.503  24.599  1.00  0.00     0.065 C 
ATOM     16  N   UNL A   1      30.740  26.150  23.635  1.00  0.00    -0.339 N 
ATOM     17  C   UNL A   1      32.878  26.639  22.783  1.00  0.00     0.116 C 
ATOM     18  C   UNL A   1      31.399  26.761  22.568  1.00  0.00     0.223 C 
ATOM     19  C   UNL A   1      29.305  25.977  23.589  1.00  0.00     0.147 C 
ATOM     20  O   UNL A   1      30.882  27.275  21.599  1.00  0.00    -0.275 OA
BRANCH   9  21
ATOM     21  C   UNL A   1      31.842  22.742  27.415  1.00  0.00     0.299 C 
BRANCH  21  22
ATOM     22  C   UNL A   1      33.188  22.400  26.810  1.00  0.00     0.010 A 
ATOM     23  C   UNL A   1      34.559  20.896  25.474  1.00  0.00     0.161 A 
ATOM     24  C   UNL A   1      33.452  21.117  26.304  1.00  0.00     0.060 A 
ATOM     25  C   UNL A   1      35.524  21.897  25.311  1.00  0.00     0.160 A 
ATOM     26  C   UNL A   1      35.345  23.119  25.965  1.00  0.00     0.051 A 
ATOM     27  C   UNL A   1      34.171  23.387  26.669  1.00  0.00     0.013 A 
BRANCH  23  28
ATOM     28  O   UNL A   1      34.535  19.878  24.569  1.00  0.00    -0.490 OA
BRANCH  28  29
ATOM     29  C   UNL A   1      33.639  18.796  24.731  1.00  0.00     0.226 C 
ATOM     30  C   UNL A   1      32.777  18.838  23.475  1.00  0.00     0.049 C 
ENDBRANCH  28  29
ENDBRANCH  23  28
BRANCH  25  31
ATOM     31  O   UNL A   1      36.666  21.850  24.556  1.00  0.00    -0.493 OA
ATOM     32  C   UNL A   1      36.747  22.640  23.376  1.00  0.00     0.278 C 
ENDBRANCH  25  31
ENDBRANCH  21  22
ENDBRANCH   9  21
ENDBRANCH   5   8
ENDBRANCH   3   4
ENDBRANCH   2   3
ENDBRANCH   1   2
BRANCH   1  33
ATOM     33  C   UNL A   1      32.690  31.343  27.262  1.00  0.00     0.002 C 
BRANCH  33  34
ATOM     34  C   UNL A   1      34.071  30.980  27.803  1.00  0.00     0.021 C 
BRANCH  34  35
ATOM     35  C   UNL A   1      34.814  32.126  28.469  1.00  0.00     0.116 C 
BRANCH  35  36
ATOM     36  N   UNL A   1      34.462  32.268  29.868  1.00  0.00    -0.352 N 
ATOM     37  C   UNL A   1      35.246  31.975  30.954  1.00  0.00     0.251 C 
ATOM     38  H   UNL A   1      33.561  32.613  30.060  1.00  0.00     0.163 HD
ATOM     39  O   UNL A   1      34.780  31.972  32.087  1.00  0.00    -0.269 OA
BRANCH  37  40
ATOM     40  C   UNL A   1      36.661  31.633  30.713  1.00  0.00     0.039 A 
ATOM     41  C   UNL A   1      37.243  30.609  31.458  1.00  0.00     0.014 A 
ATOM     42  C   UNL A   1      37.374  32.276  29.693  1.00  0.00     0.014 A 
ATOM     43  C   UNL A   1      38.542  30.203  31.157  1.00  0.00     0.010 A 
ATOM     44  C   UNL A   1      38.638  31.815  29.345  1.00  0.00     0.010 A 
ATOM     45  C   UNL A   1      39.242  30.787  30.086  1.00  0.00    -0.014 A 
BRANCH  45  46
ATOM     46  C   UNL A   1      40.620  30.354  29.752  1.00  0.00     0.031 A 
ATOM     47  C   UNL A   1      41.756  31.335  29.859  1.00  0.00     0.074 A 
ATOM     48  C   UNL A   1      40.843  29.096  29.321  1.00  0.00     0.049 A 
ATOM     49  N   UNL A   1      43.024  31.158  29.593  1.00  0.00    -0.248 NA
ATOM     50  C   UNL A   1      41.421  32.701  30.297  1.00  0.00     0.031 C 
ATOM     51  C   UNL A   1      39.815  28.068  29.138  1.00  0.00     0.029 A 
ATOM     52  N   UNL A   1      42.007  28.468  28.960  1.00  0.00    -0.354 N 
ATOM     53  C   UNL A   1      43.632  32.389  29.816  1.00  0.00     0.074 A 
ATOM     54  C   UNL A   1      42.588  33.318  30.186  1.00  0.00     0.031 C 
ATOM     55  C   UNL A   1      40.399  26.930  28.727  1.00  0.00     0.029 A 
ATOM     56  C   UNL A   1      41.834  27.158  28.579  1.00  0.00     0.049 A 
ATOM     57  H   UNL A   1      42.886  28.913  28.972  1.00  0.00     0.167 HD
ATOM     58  C   UNL A   1      44.945  32.710  29.742  1.00  0.00     0.031 A 
ATOM     59  C   UNL A   1      42.728  26.245  28.152  1.00  0.00     0.031 A 
ATOM     60  C   UNL A   1      45.980  31.776  29.389  1.00  0.00     0.049 A 
ATOM     61  C   UNL A   1      44.181  26.629  28.071  1.00  0.00     0.074 A 
ATOM     62  C   UNL A   1      47.347  31.987  29.344  1.00  0.00     0.029 A 
ATOM     63  N   UNL A   1      45.763  30.458  29.018  1.00  0.00    -0.354 N 
ATOM     64  N   UNL A   1      44.745  27.778  28.361  1.00  0.00    -0.248 NA
ATOM     65  C   UNL A   1      45.119  25.592  27.621  1.00  0.00     0.031 C 
ATOM     66  C   UNL A   1      47.952  30.812  28.888  1.00  0.00     0.029 A 
ATOM     67  C   UNL A   1      46.969  29.850  28.714  1.00  0.00     0.049 A 
ATOM     68  H   UNL A   1      44.883  30.019  28.976  1.00  0.00     0.167 HD
ATOM     69  C   UNL A   1      46.108  27.592  28.153  1.00  0.00     0.074 A 
ATOM     70  C   UNL A   1      46.283  26.217  27.732  1.00  0.00     0.031 C 
ATOM     71  C   UNL A   1      47.124  28.479  28.298  1.00  0.00     0.031 A 
BRANCH  58  72
ATOM     72  C   UNL A   1      45.335  34.134  30.042  1.00  0.00    -0.014 A 
ATOM     73  C   UNL A   1      45.827  34.504  31.308  1.00  0.00     0.010 A 
ATOM     74  C   UNL A   1      45.256  35.107  29.029  1.00  0.00     0.010 A 
ATOM     75  C   UNL A   1      46.199  35.827  31.563  1.00  0.00     0.020 A 
ATOM     76  C   UNL A   1      45.657  36.423  29.271  1.00  0.00     0.020 A 
ATOM     77  C   UNL A   1      46.113  36.777  30.542  1.00  0.00     0.054 A 
BRANCH  77  78
ATOM     78  S   UNL A   1      46.640  38.478  30.893  1.00  0.00     0.124 S 
ATOM     79  O   UNL A   1      47.709  38.669  29.916  1.00  0.00    -0.237 OA
ATOM     80  O   UNL A   1      45.422  39.246  30.651  1.00  0.00    -0.237 OA
ATOM     81  O   UNL A   1      47.074  38.426  32.287  1.00  0.00    -0.744 OA
ENDBRANCH  77  78
ENDBRANCH  58  72
BRANCH  59  82
ATOM     82  C   UNL A   1      42.276  24.877  27.774  1.00  0.00    -0.014 A 
ATOM     83  C   UNL A   1      41.809  24.606  26.476  1.00  0.00     0.010 A 
ATOM     84  C   UNL A   1      42.311  23.832  28.716  1.00  0.00     0.010 A 
ATOM     85  C   UNL A   1      41.364  23.326  26.133  1.00  0.00     0.020 A 
ATOM     86  C   UNL A   1      41.896  22.543  28.370  1.00  0.00     0.020 A 
ATOM     87  C   UNL A   1      41.411  22.301  27.083  1.00  0.00     0.054 A 
BRANCH  87  88
ATOM     88  S   UNL A   1      40.863  20.639  26.605  1.00  0.00     0.124 S 
ATOM     89  O   UNL A   1      39.565  20.911  25.997  1.00  0.00    -0.237 OA
ATOM     90  O   UNL A   1      41.916  20.213  25.687  1.00  0.00    -0.237 OA
ATOM     91  O   UNL A   1      40.822  19.915  27.874  1.00  0.00    -0.744 OA
ENDBRANCH  87  88
ENDBRANCH  59  82
BRANCH  71  92
ATOM     92  C   UNL A   1      48.521  27.984  28.037  1.00  0.00    -0.014 A 
ATOM     93  C   UNL A   1      49.314  27.451  29.069  1.00  0.00     0.010 A 
ATOM     94  C   UNL A   1      49.024  27.995  26.722  1.00  0.00     0.010 A 
ATOM     95  C   UNL A   1      50.597  26.968  28.795  1.00  0.00     0.020 A 
ATOM     96  C   UNL A   1      50.292  27.483  26.440  1.00  0.00     0.020 A 
ATOM     97  C   UNL A   1      51.077  26.986  27.482  1.00  0.00     0.054 A 
BRANCH  97  98
ATOM     98  S   UNL A   1      52.725  26.308  27.146  1.00  0.00     0.124 S 
ATOM     99  O   UNL A   1      52.406  24.981  26.626  1.00  0.00    -0.237 OA
ATOM    100  O   UNL A   1      53.266  27.252  26.171  1.00  0.00    -0.237 OA
ATOM    101  O   UNL A   1      53.380  26.325  28.451  1.00  0.00    -0.744 OA
ENDBRANCH  97  98
ENDBRANCH  71  92
ENDBRANCH  45  46
ENDBRANCH  37  40
ENDBRANCH  35  36
ENDBRANCH  34  35
ENDBRANCH  33  34
ENDBRANCH   1  33
TORSDOF 21
ENDMDL
