MODEL 1
REMARK VINA RESULT:     -13.1      0.000      0.000
REMARK SMILES C[C@]12C(=O)N(c3ccc(C(=O)NCCCCCCNC(=O)c4ccc(-c5c6nc(c(-c7ccc(S(=O)(=O)[O-])cc7)c7ccc([nH]7)c(-c7ccc(S(=O)(=O)[O-])cc7)c7nc(c(-c8ccc(S(=O)(=O)[O-])cc8)c8ccc5[nH]8)C=C7)C=C6)cc4)cc3)C(=O)[C@H]1[C@H]1c3ccccc3[C@@H]2c2ccccc21
REMARK SMILES IDX 16 1 15 2 14 3 13 4 12 5 10 6 11 7 9 9 6 10 7 11 83 12 8 13
REMARK SMILES IDX 82 14 5 15 1 16 2 17 3 18 86 19 94 20 4 21 84 22 87 23 93 24
REMARK SMILES IDX 95 25 85 26 88 27 100 28 92 29 96 30 89 31 99 32 91 33 97 34
REMARK SMILES IDX 90 35 98 36 17 37 18 38 19 39 20 40 21 42 22 43 23 44 81 45
REMARK SMILES IDX 24 46 80 47 25 48 26 49 27 50 74 51 28 52 79 53 73 54 75 55
REMARK SMILES IDX 29 56 78 57 72 58 71 59 30 61 60 62 41 63 59 64 42 65 45 66
REMARK SMILES IDX 58 67 76 68 43 69 44 70 57 72 77 73 46 74 31 75 32 76 40 77
REMARK SMILES IDX 33 78 39 79 34 80 35 81 36 82 37 83 38 84 61 85 62 86 70 87
REMARK SMILES IDX 63 88 69 89 64 90 65 91 66 92 67 93 68 94 47 95 48 96 56 97
REMARK SMILES IDX 49 98 55 99 50 100 51 101 52 102 53 103 54 104
REMARK H PARENT 12 8 19 41 75 60 45 71
REMARK Flexibility Score: inf
ROOT
ATOM      1  C   UNL A   1      34.724  23.670  26.131  1.00  0.00     0.002 C 
ENDROOT
BRANCH   1   2
ATOM      2  C   UNL A   1      34.054  22.998  27.333  1.00  0.00     0.002 C 
BRANCH   2   3
ATOM      3  C   UNL A   1      33.761  21.501  27.215  1.00  0.00     0.021 C 
BRANCH   3   4
ATOM      4  C   UNL A   1      34.568  20.728  26.180  1.00  0.00     0.116 C 
BRANCH   4   5
ATOM      5  N   UNL A   1      33.759  19.872  25.338  1.00  0.00    -0.352 N 
ATOM      6  C   UNL A   1      32.980  20.180  24.253  1.00  0.00     0.251 C 
ATOM      7  O   UNL A   1      32.326  19.289  23.711  1.00  0.00    -0.269 OA
ATOM      8  H   UNL A   1      33.770  18.919  25.584  1.00  0.00     0.163 HD
BRANCH   6   9
ATOM      9  C   UNL A   1      32.860  21.573  23.755  1.00  0.00     0.039 A 
ATOM     10  C   UNL A   1      32.788  24.238  22.764  1.00  0.00     0.052 A 
ATOM     11  C   UNL A   1      33.915  23.413  22.588  1.00  0.00     0.027 A 
ATOM     12  C   UNL A   1      31.693  23.690  23.449  1.00  0.00     0.027 A 
ATOM     13  C   UNL A   1      33.956  22.104  23.079  1.00  0.00     0.016 A 
ATOM     14  C   UNL A   1      31.745  22.385  23.972  1.00  0.00     0.016 A 
BRANCH  10  15
ATOM     15  N   UNL A   1      32.853  25.646  22.488  1.00  0.00    -0.250 N 
ATOM     16  C   UNL A   1      33.339  28.877  22.730  1.00  0.00     0.024 C 
ATOM     17  C   UNL A   1      32.540  27.758  23.429  1.00  0.00     0.071 C 
ATOM     18  C   UNL A   1      33.404  26.525  23.405  1.00  0.00     0.241 C 
ATOM     19  C   UNL A   1      31.298  27.323  22.607  1.00  0.00     0.107 C 
ATOM     20  C   UNL A   1      32.073  28.105  24.878  1.00  0.00     0.066 C 
ATOM     21  O   UNL A   1      34.422  26.419  24.076  1.00  0.00    -0.273 OA
ATOM     22  C   UNL A   1      31.920  26.319  21.667  1.00  0.00     0.238 C 
ATOM     23  C   UNL A   1      29.981  27.900  23.244  1.00  0.00     0.063 C 
ATOM     24  C   UNL A   1      31.050  27.041  25.329  1.00  0.00    -0.036 A 
ATOM     25  C   UNL A   1      31.282  29.401  24.729  1.00  0.00    -0.036 A 
ATOM     26  O   UNL A   1      31.601  26.102  20.512  1.00  0.00    -0.274 OA
ATOM     27  C   UNL A   1      29.857  27.000  24.531  1.00  0.00    -0.036 A 
ATOM     28  C   UNL A   1      30.197  29.307  23.813  1.00  0.00    -0.036 A 
ATOM     29  C   UNL A   1      31.292  26.049  26.268  1.00  0.00     0.005 A 
ATOM     30  C   UNL A   1      31.526  30.561  25.450  1.00  0.00     0.005 A 
ATOM     31  C   UNL A   1      28.922  25.984  24.684  1.00  0.00     0.004 A 
ATOM     32  C   UNL A   1      29.345  30.389  23.647  1.00  0.00     0.004 A 
ATOM     33  C   UNL A   1      30.352  25.022  26.409  1.00  0.00     0.000 A 
ATOM     34  C   UNL A   1      30.670  31.644  25.271  1.00  0.00     0.000 A 
ATOM     35  C   UNL A   1      29.181  24.992  25.633  1.00  0.00     0.000 A 
ATOM     36  C   UNL A   1      29.588  31.558  24.380  1.00  0.00     0.000 A 
ENDBRANCH  10  15
ENDBRANCH   6   9
ENDBRANCH   4   5
ENDBRANCH   3   4
ENDBRANCH   2   3
ENDBRANCH   1   2
BRANCH   1  37
ATOM     37  C   UNL A   1      36.231  23.906  26.224  1.00  0.00     0.021 C 
BRANCH  37  38
ATOM     38  C   UNL A   1      37.071  23.331  25.093  1.00  0.00     0.116 C 
BRANCH  38  39
ATOM     39  N   UNL A   1      38.132  22.450  25.550  1.00  0.00    -0.352 N 
ATOM     40  C   UNL A   1      39.240  22.749  26.311  1.00  0.00     0.251 C 
ATOM     41  H   UNL A   1      38.047  21.508  25.278  1.00  0.00     0.163 HD
ATOM     42  O   UNL A   1      40.093  21.892  26.519  1.00  0.00    -0.269 OA
BRANCH  40  43
ATOM     43  C   UNL A   1      39.423  24.122  26.835  1.00  0.00     0.039 A 
ATOM     44  C   UNL A   1      40.049  25.108  26.068  1.00  0.00     0.014 A 
ATOM     45  C   UNL A   1      39.005  24.411  28.137  1.00  0.00     0.014 A 
ATOM     46  C   UNL A   1      40.423  26.310  26.663  1.00  0.00     0.010 A 
ATOM     47  C   UNL A   1      39.306  25.653  28.705  1.00  0.00     0.010 A 
ATOM     48  C   UNL A   1      40.071  26.591  27.993  1.00  0.00    -0.014 A 
BRANCH  48  49
ATOM     49  C   UNL A   1      40.537  27.851  28.634  1.00  0.00     0.031 A 
ATOM     50  C   UNL A   1      41.986  28.028  29.009  1.00  0.00     0.074 A 
ATOM     51  C   UNL A   1      39.667  28.863  28.827  1.00  0.00     0.049 A 
ATOM     52  N   UNL A   1      42.571  29.058  29.569  1.00  0.00    -0.248 NA
ATOM     53  C   UNL A   1      42.901  26.911  28.720  1.00  0.00     0.031 C 
ATOM     54  C   UNL A   1      38.247  28.827  28.471  1.00  0.00     0.029 A 
ATOM     55  N   UNL A   1      39.850  30.122  29.341  1.00  0.00    -0.354 N 
ATOM     56  C   UNL A   1      43.910  28.710  29.709  1.00  0.00     0.074 A 
ATOM     57  C   UNL A   1      44.049  27.361  29.210  1.00  0.00     0.031 C 
ATOM     58  C   UNL A   1      37.702  30.026  28.724  1.00  0.00     0.029 A 
ATOM     59  C   UNL A   1      38.712  30.894  29.325  1.00  0.00     0.049 A 
ATOM     60  H   UNL A   1      40.714  30.443  29.688  1.00  0.00     0.167 HD
ATOM     61  C   UNL A   1      44.932  29.453  30.195  1.00  0.00     0.031 A 
ATOM     62  C   UNL A   1      38.492  32.154  29.753  1.00  0.00     0.031 A 
ATOM     63  C   UNL A   1      44.791  30.802  30.678  1.00  0.00     0.049 A 
ATOM     64  C   UNL A   1      39.627  32.936  30.349  1.00  0.00     0.074 A 
ATOM     65  C   UNL A   1      45.774  31.635  31.183  1.00  0.00     0.029 A 
ATOM     66  N   UNL A   1      43.604  31.518  30.710  1.00  0.00    -0.354 N 
ATOM     67  N   UNL A   1      40.883  32.584  30.482  1.00  0.00    -0.248 NA
ATOM     68  C   UNL A   1      39.322  34.281  30.855  1.00  0.00     0.031 C 
ATOM     69  C   UNL A   1      45.171  32.831  31.579  1.00  0.00     0.029 A 
ATOM     70  C   UNL A   1      43.826  32.773  31.251  1.00  0.00     0.049 A 
ATOM     71  H   UNL A   1      42.733  31.183  30.395  1.00  0.00     0.167 HD
ATOM     72  C   UNL A   1      41.521  33.667  31.074  1.00  0.00     0.074 A 
ATOM     73  C   UNL A   1      40.517  34.695  31.258  1.00  0.00     0.031 C 
ATOM     74  C   UNL A   1      42.822  33.793  31.432  1.00  0.00     0.031 A 
BRANCH  61  75
ATOM     75  C   UNL A   1      46.310  28.840  30.233  1.00  0.00    -0.014 A 
ATOM     76  C   UNL A   1      47.122  28.871  29.084  1.00  0.00     0.010 A 
ATOM     77  C   UNL A   1      46.754  28.131  31.364  1.00  0.00     0.010 A 
ATOM     78  C   UNL A   1      48.337  28.180  29.052  1.00  0.00     0.020 A 
ATOM     79  C   UNL A   1      47.983  27.462  31.345  1.00  0.00     0.020 A 
ATOM     80  C   UNL A   1      48.755  27.473  30.181  1.00  0.00     0.054 A 
BRANCH  80  81
ATOM     81  S   UNL A   1      50.325  26.565  30.116  1.00  0.00     0.124 S 
ATOM     82  O   UNL A   1      51.115  27.377  29.197  1.00  0.00    -0.237 OA
ATOM     83  O   UNL A   1      50.761  26.581  31.511  1.00  0.00    -0.237 OA
ATOM     84  O   UNL A   1      49.936  25.249  29.612  1.00  0.00    -0.744 OA
ENDBRANCH  80  81
ENDBRANCH  61  75
BRANCH  62  85
ATOM     85  C   UNL A   1      37.131  32.740  29.602  1.00  0.00    -0.014 A 
ATOM     86  C   UNL A   1      36.743  33.336  28.386  1.00  0.00     0.010 A 
ATOM     87  C   UNL A   1      36.255  32.796  30.699  1.00  0.00     0.010 A 
ATOM     88  C   UNL A   1      35.538  34.037  28.292  1.00  0.00     0.020 A 
ATOM     89  C   UNL A   1      35.034  33.470  30.600  1.00  0.00     0.020 A 
ATOM     90  C   UNL A   1      34.700  34.115  29.406  1.00  0.00     0.054 A 
BRANCH  90  91
ATOM     91  S   UNL A   1      33.177  35.093  29.282  1.00  0.00     0.124 S 
ATOM     92  O   UNL A   1      33.693  36.397  28.873  1.00  0.00    -0.237 OA
ATOM     93  O   UNL A   1      32.415  34.370  28.267  1.00  0.00    -0.237 OA
ATOM     94  O   UNL A   1      32.623  35.035  30.633  1.00  0.00    -0.744 OA
ENDBRANCH  90  91
ENDBRANCH  62  85
BRANCH  74  95
ATOM     95  C   UNL A   1      43.269  35.085  32.065  1.00  0.00    -0.014 A 
ATOM     96  C   UNL A   1      43.014  35.316  33.430  1.00  0.00     0.010 A 
ATOM     97  C   UNL A   1      43.797  36.124  31.281  1.00  0.00     0.010 A 
ATOM     98  C   UNL A   1      43.231  36.576  33.989  1.00  0.00     0.020 A 
ATOM     99  C   UNL A   1      44.044  37.381  31.845  1.00  0.00     0.020 A 
ATOM    100  C   UNL A   1      43.731  37.606  33.188  1.00  0.00     0.054 A 
BRANCH 100 101
ATOM    101  S   UNL A   1      43.953  39.252  33.916  1.00  0.00     0.124 S 
ATOM    102  O   UNL A   1      42.693  39.909  33.580  1.00  0.00    -0.237 OA
ATOM    103  O   UNL A   1      44.148  38.953  35.333  1.00  0.00    -0.237 OA
ATOM    104  O   UNL A   1      45.132  39.775  33.231  1.00  0.00    -0.744 OA
ENDBRANCH 100 101
ENDBRANCH  74  95
ENDBRANCH  48  49
ENDBRANCH  40  43
ENDBRANCH  38  39
ENDBRANCH  37  38
ENDBRANCH   1  37
TORSDOF 17
ENDMDL
MODEL 2
REMARK VINA RESULT:     -12.7      3.747      4.610
REMARK SMILES C[C@]12C(=O)N(c3ccc(C(=O)NCCCCCCNC(=O)c4ccc(-c5c6nc(c(-c7ccc(S(=O)(=O)[O-])cc7)c7ccc([nH]7)c(-c7ccc(S(=O)(=O)[O-])cc7)c7nc(c(-c8ccc(S(=O)(=O)[O-])cc8)c8ccc5[nH]8)C=C7)C=C6)cc4)cc3)C(=O)[C@H]1[C@H]1c3ccccc3[C@@H]2c2ccccc21
REMARK SMILES IDX 16 1 15 2 14 3 13 4 12 5 10 6 11 7 9 9 6 10 7 11 83 12 8 13
REMARK SMILES IDX 82 14 5 15 1 16 2 17 3 18 86 19 94 20 4 21 84 22 87 23 93 24
REMARK SMILES IDX 95 25 85 26 88 27 100 28 92 29 96 30 89 31 99 32 91 33 97 34
REMARK SMILES IDX 90 35 98 36 17 37 18 38 19 39 20 40 21 42 22 43 23 44 81 45
REMARK SMILES IDX 24 46 80 47 25 48 26 49 27 50 74 51 28 52 79 53 73 54 75 55
REMARK SMILES IDX 29 56 78 57 72 58 71 59 30 61 60 62 41 63 59 64 42 65 45 66
REMARK SMILES IDX 58 67 76 68 43 69 44 70 57 72 77 73 46 74 31 75 32 76 40 77
REMARK SMILES IDX 33 78 39 79 34 80 35 81 36 82 37 83 38 84 61 85 62 86 70 87
REMARK SMILES IDX 63 88 69 89 64 90 65 91 66 92 67 93 68 94 47 95 48 96 56 97
REMARK SMILES IDX 49 98 55 99 50 100 51 101 52 102 53 103 54 104
REMARK H PARENT 12 8 19 41 75 60 45 71
REMARK Flexibility Score: inf
ROOT
ATOM      1  C   UNL A   1      40.169  22.404  27.220  1.00  0.00     0.002 C 
ENDROOT
BRANCH   1   2
ATOM      2  C   UNL A   1      39.435  21.579  26.159  1.00  0.00     0.002 C 
BRANCH   2   3
ATOM      3  C   UNL A   1      38.191  22.209  25.529  1.00  0.00     0.021 C 
BRANCH   3   4
ATOM      4  C   UNL A   1      37.178  21.248  24.918  1.00  0.00     0.116 C 
BRANCH   4   5
ATOM      5  N   UNL A   1      36.027  21.009  25.764  1.00  0.00    -0.352 N 
ATOM      6  C   UNL A   1      34.835  21.682  25.845  1.00  0.00     0.251 C 
ATOM      7  O   UNL A   1      34.005  21.333  26.684  1.00  0.00    -0.269 OA
ATOM      8  H   UNL A   1      36.114  20.244  26.376  1.00  0.00     0.163 HD
BRANCH   6   9
ATOM      9  C   UNL A   1      34.548  22.857  24.986  1.00  0.00     0.039 A 
ATOM     10  C   UNL A   1      33.991  25.201  23.474  1.00  0.00     0.052 A 
ATOM     11  C   UNL A   1      34.290  25.261  24.848  1.00  0.00     0.027 A 
ATOM     12  C   UNL A   1      33.982  23.933  22.874  1.00  0.00     0.027 A 
ATOM     13  C   UNL A   1      34.559  24.109  25.596  1.00  0.00     0.016 A 
ATOM     14  C   UNL A   1      34.219  22.771  23.631  1.00  0.00     0.016 A 
BRANCH  10  15
ATOM     15  N   UNL A   1      33.469  26.346  22.781  1.00  0.00    -0.250 N 
ATOM     16  C   UNL A   1      32.497  29.378  22.007  1.00  0.00     0.024 C 
ATOM     17  C   UNL A   1      32.198  28.283  23.053  1.00  0.00     0.071 C 
ATOM     18  C   UNL A   1      33.506  27.604  23.359  1.00  0.00     0.241 C 
ATOM     19  C   UNL A   1      31.341  27.130  22.467  1.00  0.00     0.107 C 
ATOM     20  C   UNL A   1      31.502  28.803  24.350  1.00  0.00     0.066 C 
ATOM     21  O   UNL A   1      34.407  28.155  23.977  1.00  0.00    -0.273 OA
ATOM     22  C   UNL A   1      32.414  26.271  21.844  1.00  0.00     0.238 C 
ATOM     23  C   UNL A   1      29.854  27.236  22.965  1.00  0.00     0.063 C 
ATOM     24  C   UNL A   1      30.999  27.584  25.155  1.00  0.00    -0.036 A 
ATOM     25  C   UNL A   1      30.247  29.517  23.856  1.00  0.00    -0.036 A 
ATOM     26  O   UNL A   1      32.323  25.606  20.827  1.00  0.00    -0.274 OA
ATOM     27  C   UNL A   1      30.015  26.796  24.469  1.00  0.00    -0.036 A 
ATOM     28  C   UNL A   1      29.393  28.694  23.069  1.00  0.00    -0.036 A 
ATOM     29  C   UNL A   1      31.560  27.123  26.336  1.00  0.00     0.005 A 
ATOM     30  C   UNL A   1      29.905  30.822  24.178  1.00  0.00     0.005 A 
ATOM     31  C   UNL A   1      29.598  25.569  24.971  1.00  0.00     0.004 A 
ATOM     32  C   UNL A   1      28.177  29.195  22.627  1.00  0.00     0.004 A 
ATOM     33  C   UNL A   1      31.144  25.882  26.831  1.00  0.00     0.000 A 
ATOM     34  C   UNL A   1      28.686  31.318  23.723  1.00  0.00     0.000 A 
ATOM     35  C   UNL A   1      30.173  25.118  26.161  1.00  0.00     0.000 A 
ATOM     36  C   UNL A   1      27.829  30.511  22.958  1.00  0.00     0.000 A 
ENDBRANCH  10  15
ENDBRANCH   6   9
ENDBRANCH   4   5
ENDBRANCH   3   4
ENDBRANCH   2   3
ENDBRANCH   1   2
BRANCH   1  37
ATOM     37  C   UNL A   1      41.656  22.109  27.417  1.00  0.00     0.021 C 
BRANCH  37  38
ATOM     38  C   UNL A   1      42.610  23.263  27.149  1.00  0.00     0.116 C 
BRANCH  38  39
ATOM     39  N   UNL A   1      42.188  24.121  26.056  1.00  0.00    -0.352 N 
ATOM     40  C   UNL A   1      41.674  25.398  26.104  1.00  0.00     0.251 C 
ATOM     41  H   UNL A   1      42.282  23.736  25.155  1.00  0.00     0.163 HD
ATOM     42  O   UNL A   1      41.272  25.938  25.077  1.00  0.00    -0.269 OA
BRANCH  40  43
ATOM     43  C   UNL A   1      41.562  26.096  27.405  1.00  0.00     0.039 A 
ATOM     44  C   UNL A   1      40.481  25.860  28.257  1.00  0.00     0.014 A 
ATOM     45  C   UNL A   1      42.531  27.042  27.751  1.00  0.00     0.014 A 
ATOM     46  C   UNL A   1      40.271  26.696  29.352  1.00  0.00     0.010 A 
ATOM     47  C   UNL A   1      42.362  27.822  28.899  1.00  0.00     0.010 A 
ATOM     48  C   UNL A   1      41.200  27.697  29.677  1.00  0.00    -0.014 A 
BRANCH  48  49
ATOM     49  C   UNL A   1      40.926  28.624  30.809  1.00  0.00     0.031 A 
ATOM     50  C   UNL A   1      41.807  28.619  32.032  1.00  0.00     0.074 A 
ATOM     51  C   UNL A   1      39.917  29.513  30.714  1.00  0.00     0.049 A 
ATOM     52  N   UNL A   1      41.722  29.358  33.110  1.00  0.00    -0.248 NA
ATOM     53  C   UNL A   1      42.930  27.666  32.053  1.00  0.00     0.031 C 
ATOM     54  C   UNL A   1      39.018  29.642  29.566  1.00  0.00     0.029 A 
ATOM     55  N   UNL A   1      39.495  30.492  31.579  1.00  0.00    -0.354 N 
ATOM     56  C   UNL A   1      42.764  28.953  33.936  1.00  0.00     0.074 A 
ATOM     57  C   UNL A   1      43.450  27.879  33.255  1.00  0.00     0.031 C 
ATOM     58  C   UNL A   1      38.190  30.676  29.772  1.00  0.00     0.029 A 
ATOM     59  C   UNL A   1      38.448  31.240  31.094  1.00  0.00     0.049 A 
ATOM     60  H   UNL A   1      39.903  30.644  32.462  1.00  0.00     0.167 HD
ATOM     61  C   UNL A   1      43.127  29.444  35.145  1.00  0.00     0.031 A 
ATOM     62  C   UNL A   1      37.760  32.260  31.647  1.00  0.00     0.031 A 
ATOM     63  C   UNL A   1      42.449  30.524  35.813  1.00  0.00     0.049 A 
ATOM     64  C   UNL A   1      38.138  32.744  33.018  1.00  0.00     0.074 A 
ATOM     65  C   UNL A   1      42.750  31.092  37.040  1.00  0.00     0.029 A 
ATOM     66  N   UNL A   1      41.348  31.205  35.317  1.00  0.00    -0.354 N 
ATOM     67  N   UNL A   1      39.121  32.340  33.786  1.00  0.00    -0.248 NA
ATOM     68  C   UNL A   1      37.320  33.816  33.600  1.00  0.00     0.031 C 
ATOM     69  C   UNL A   1      41.793  32.073  37.313  1.00  0.00     0.029 A 
ATOM     70  C   UNL A   1      40.941  32.169  36.224  1.00  0.00     0.049 A 
ATOM     71  H   UNL A   1      40.919  31.028  34.448  1.00  0.00     0.167 HD
ATOM     72  C   UNL A   1      39.047  33.116  34.936  1.00  0.00     0.074 A 
ATOM     73  C   UNL A   1      37.935  34.026  34.757  1.00  0.00     0.031 C 
ATOM     74  C   UNL A   1      39.833  33.073  36.039  1.00  0.00     0.031 A 
BRANCH  61  75
ATOM     75  C   UNL A   1      44.315  28.829  35.842  1.00  0.00    -0.014 A 
ATOM     76  C   UNL A   1      44.139  27.693  36.654  1.00  0.00     0.010 A 
ATOM     77  C   UNL A   1      45.579  29.443  35.792  1.00  0.00     0.010 A 
ATOM     78  C   UNL A   1      45.194  27.199  37.426  1.00  0.00     0.020 A 
ATOM     79  C   UNL A   1      46.646  28.934  36.541  1.00  0.00     0.020 A 
ATOM     80  C   UNL A   1      46.439  27.829  37.371  1.00  0.00     0.054 A 
BRANCH  80  81
ATOM     81  S   UNL A   1      47.794  27.188  38.394  1.00  0.00     0.124 S 
ATOM     82  O   UNL A   1      47.166  27.082  39.707  1.00  0.00    -0.237 OA
ATOM     83  O   UNL A   1      48.116  25.921  37.741  1.00  0.00    -0.237 OA
ATOM     84  O   UNL A   1      48.826  28.217  38.276  1.00  0.00    -0.744 OA
ENDBRANCH  80  81
ENDBRANCH  61  75
BRANCH  62  85
ATOM     85  C   UNL A   1      36.656  32.890  30.870  1.00  0.00    -0.014 A 
ATOM     86  C   UNL A   1      36.936  33.884  29.913  1.00  0.00     0.010 A 
ATOM     87  C   UNL A   1      35.317  32.574  31.154  1.00  0.00     0.010 A 
ATOM     88  C   UNL A   1      35.900  34.600  29.308  1.00  0.00     0.020 A 
ATOM     89  C   UNL A   1      34.276  33.266  30.526  1.00  0.00     0.020 A 
ATOM     90  C   UNL A   1      34.576  34.297  29.634  1.00  0.00     0.054 A 
BRANCH  90  91
ATOM     91  S   UNL A   1      33.250  35.288  28.891  1.00  0.00     0.124 S 
ATOM     92  O   UNL A   1      32.570  34.299  28.059  1.00  0.00    -0.237 OA
ATOM     93  O   UNL A   1      32.504  35.751  30.058  1.00  0.00    -0.237 OA
ATOM     94  O   UNL A   1      33.970  36.330  28.162  1.00  0.00    -0.744 OA
ENDBRANCH  90  91
ENDBRANCH  62  85
BRANCH  74  95
ATOM     95  C   UNL A   1      39.542  34.032  37.165  1.00  0.00    -0.014 A 
ATOM     96  C   UNL A   1      40.170  35.291  37.186  1.00  0.00     0.010 A 
ATOM     97  C   UNL A   1      38.776  33.629  38.272  1.00  0.00     0.010 A 
ATOM     98  C   UNL A   1      40.079  36.111  38.312  1.00  0.00     0.020 A 
ATOM     99  C   UNL A   1      38.659  34.460  39.391  1.00  0.00     0.020 A 
ATOM    100  C   UNL A   1      39.335  35.683  39.415  1.00  0.00     0.054 A 
BRANCH 100 101
ATOM    101  S   UNL A   1      39.276  36.734  40.892  1.00  0.00     0.124 S 
ATOM    102  O   UNL A   1      40.689  36.862  41.234  1.00  0.00    -0.237 OA
ATOM    103  O   UNL A   1      38.636  37.950  40.394  1.00  0.00    -0.237 OA
ATOM    104  O   UNL A   1      38.473  35.958  41.833  1.00  0.00    -0.744 OA
ENDBRANCH 100 101
ENDBRANCH  74  95
ENDBRANCH  48  49
ENDBRANCH  40  43
ENDBRANCH  38  39
ENDBRANCH  37  38
ENDBRANCH   1  37
TORSDOF 17
ENDMDL
MODEL 3
REMARK VINA RESULT:     -12.7      3.893      5.060
REMARK SMILES C[C@]12C(=O)N(c3ccc(C(=O)NCCCCCCNC(=O)c4ccc(-c5c6nc(c(-c7ccc(S(=O)(=O)[O-])cc7)c7ccc([nH]7)c(-c7ccc(S(=O)(=O)[O-])cc7)c7nc(c(-c8ccc(S(=O)(=O)[O-])cc8)c8ccc5[nH]8)C=C7)C=C6)cc4)cc3)C(=O)[C@H]1[C@H]1c3ccccc3[C@@H]2c2ccccc21
REMARK SMILES IDX 16 1 15 2 14 3 13 4 12 5 10 6 11 7 9 9 6 10 7 11 83 12 8 13
REMARK SMILES IDX 82 14 5 15 1 16 2 17 3 18 86 19 94 20 4 21 84 22 87 23 93 24
REMARK SMILES IDX 95 25 85 26 88 27 100 28 92 29 96 30 89 31 99 32 91 33 97 34
REMARK SMILES IDX 90 35 98 36 17 37 18 38 19 39 20 40 21 42 22 43 23 44 81 45
REMARK SMILES IDX 24 46 80 47 25 48 26 49 27 50 74 51 28 52 79 53 73 54 75 55
REMARK SMILES IDX 29 56 78 57 72 58 71 59 30 61 60 62 41 63 59 64 42 65 45 66
REMARK SMILES IDX 58 67 76 68 43 69 44 70 57 72 77 73 46 74 31 75 32 76 40 77
REMARK SMILES IDX 33 78 39 79 34 80 35 81 36 82 37 83 38 84 61 85 62 86 70 87
REMARK SMILES IDX 63 88 69 89 64 90 65 91 66 92 67 93 68 94 47 95 48 96 56 97
REMARK SMILES IDX 49 98 55 99 50 100 51 101 52 102 53 103 54 104
REMARK H PARENT 12 8 19 41 75 60 45 71
REMARK Flexibility Score: inf
ROOT
ATOM      1  C   UNL A   1      40.723  22.106  27.584  1.00  0.00     0.002 C 
ENDROOT
BRANCH   1   2
ATOM      2  C   UNL A   1      39.611  22.330  26.557  1.00  0.00     0.002 C 
BRANCH   2   3
ATOM      3  C   UNL A   1      38.899  23.685  26.589  1.00  0.00     0.021 C 
BRANCH   3   4
ATOM      4  C   UNL A   1      37.585  23.781  25.824  1.00  0.00     0.116 C 
BRANCH   4   5
ATOM      5  N   UNL A   1      37.120  22.508  25.314  1.00  0.00    -0.352 N 
ATOM      6  C   UNL A   1      35.870  22.125  24.902  1.00  0.00     0.251 C 
ATOM      7  O   UNL A   1      35.685  20.960  24.549  1.00  0.00    -0.269 OA
ATOM      8  H   UNL A   1      37.809  21.809  25.253  1.00  0.00     0.163 HD
BRANCH   6   9
ATOM      9  C   UNL A   1      34.722  23.065  24.928  1.00  0.00     0.039 A 
ATOM     10  C   UNL A   1      32.472  24.795  25.116  1.00  0.00     0.052 A 
ATOM     11  C   UNL A   1      32.821  23.919  26.161  1.00  0.00     0.027 A 
ATOM     12  C   UNL A   1      33.284  24.784  23.972  1.00  0.00     0.027 A 
ATOM     13  C   UNL A   1      33.924  23.063  26.070  1.00  0.00     0.016 A 
ATOM     14  C   UNL A   1      34.373  23.900  23.864  1.00  0.00     0.016 A 
BRANCH  10  15
ATOM     15  N   UNL A   1      31.206  25.474  25.112  1.00  0.00    -0.250 N 
ATOM     16  C   UNL A   1      28.366  26.824  24.191  1.00  0.00     0.024 C 
ATOM     17  C   UNL A   1      29.875  26.954  23.895  1.00  0.00     0.071 C 
ATOM     18  C   UNL A   1      30.452  25.565  23.954  1.00  0.00     0.241 C 
ATOM     19  C   UNL A   1      30.634  27.689  25.031  1.00  0.00     0.107 C 
ATOM     20  C   UNL A   1      30.210  27.660  22.544  1.00  0.00     0.066 C 
ATOM     21  O   UNL A   1      30.210  24.714  23.109  1.00  0.00    -0.273 OA
ATOM     22  C   UNL A   1      30.898  26.545  25.980  1.00  0.00     0.238 C 
ATOM     23  C   UNL A   1      30.987  29.160  24.601  1.00  0.00     0.063 C 
ATOM     24  C   UNL A   1      31.719  27.986  22.524  1.00  0.00    -0.036 A 
ATOM     25  C   UNL A   1      29.498  29.007  22.624  1.00  0.00    -0.036 A 
ATOM     26  O   UNL A   1      30.927  26.594  27.196  1.00  0.00    -0.274 OA
ATOM     27  C   UNL A   1      32.135  28.894  23.556  1.00  0.00    -0.036 A 
ATOM     28  C   UNL A   1      29.873  29.785  23.754  1.00  0.00    -0.036 A 
ATOM     29  C   UNL A   1      32.667  27.332  21.750  1.00  0.00     0.005 A 
ATOM     30  C   UNL A   1      28.614  29.489  21.669  1.00  0.00     0.005 A 
ATOM     31  C   UNL A   1      33.481  29.145  23.794  1.00  0.00     0.004 A 
ATOM     32  C   UNL A   1      29.363  31.068  23.903  1.00  0.00     0.004 A 
ATOM     33  C   UNL A   1      34.020  27.581  22.003  1.00  0.00     0.000 A 
ATOM     34  C   UNL A   1      28.102  30.774  21.831  1.00  0.00     0.000 A 
ATOM     35  C   UNL A   1      34.422  28.478  23.008  1.00  0.00     0.000 A 
ATOM     36  C   UNL A   1      28.475  31.556  22.936  1.00  0.00     0.000 A 
ENDBRANCH  10  15
ENDBRANCH   6   9
ENDBRANCH   4   5
ENDBRANCH   3   4
ENDBRANCH   2   3
ENDBRANCH   1   2
BRANCH   1  37
ATOM     37  C   UNL A   1      42.149  21.998  27.045  1.00  0.00     0.021 C 
BRANCH  37  38
ATOM     38  C   UNL A   1      42.966  23.282  27.047  1.00  0.00     0.116 C 
BRANCH  38  39
ATOM     39  N   UNL A   1      42.634  24.180  25.955  1.00  0.00    -0.352 N 
ATOM     40  C   UNL A   1      42.173  25.477  26.008  1.00  0.00     0.251 C 
ATOM     41  H   UNL A   1      42.755  23.811  25.050  1.00  0.00     0.163 HD
ATOM     42  O   UNL A   1      41.844  26.056  24.976  1.00  0.00    -0.269 OA
BRANCH  40  43
ATOM     43  C   UNL A   1      42.027  26.152  27.318  1.00  0.00     0.039 A 
ATOM     44  C   UNL A   1      41.020  25.781  28.211  1.00  0.00     0.014 A 
ATOM     45  C   UNL A   1      42.885  27.210  27.632  1.00  0.00     0.014 A 
ATOM     46  C   UNL A   1      40.752  26.581  29.319  1.00  0.00     0.010 A 
ATOM     47  C   UNL A   1      42.667  27.960  28.792  1.00  0.00     0.010 A 
ATOM     48  C   UNL A   1      41.562  27.689  29.615  1.00  0.00    -0.014 A 
BRANCH  48  49
ATOM     49  C   UNL A   1      41.222  28.571  30.764  1.00  0.00     0.031 A 
ATOM     50  C   UNL A   1      42.072  28.569  32.009  1.00  0.00     0.074 A 
ATOM     51  C   UNL A   1      40.178  29.419  30.668  1.00  0.00     0.049 A 
ATOM     52  N   UNL A   1      41.929  29.273  33.104  1.00  0.00    -0.248 NA
ATOM     53  C   UNL A   1      43.233  27.664  32.033  1.00  0.00     0.031 C 
ATOM     54  C   UNL A   1      39.302  29.542  29.501  1.00  0.00     0.029 A 
ATOM     55  N   UNL A   1      39.693  30.355  31.548  1.00  0.00    -0.354 N 
ATOM     56  C   UNL A   1      42.967  28.890  33.945  1.00  0.00     0.074 A 
ATOM     57  C   UNL A   1      43.715  27.865  33.253  1.00  0.00     0.031 C 
ATOM     58  C   UNL A   1      38.426  30.535  29.714  1.00  0.00     0.029 A 
ATOM     59  C   UNL A   1      38.628  31.072  31.058  1.00  0.00     0.049 A 
ATOM     60  H   UNL A   1      40.072  30.499  32.445  1.00  0.00     0.167 HD
ATOM     61  C   UNL A   1      43.279  29.361  35.176  1.00  0.00     0.031 A 
ATOM     62  C   UNL A   1      37.883  32.046  31.620  1.00  0.00     0.031 A 
ATOM     63  C   UNL A   1      42.540  30.393  35.856  1.00  0.00     0.049 A 
ATOM     64  C   UNL A   1      38.207  32.506  33.012  1.00  0.00     0.074 A 
ATOM     65  C   UNL A   1      42.786  30.938  37.104  1.00  0.00     0.029 A 
ATOM     66  N   UNL A   1      41.423  31.040  35.350  1.00  0.00    -0.354 N 
ATOM     67  N   UNL A   1      39.187  32.122  33.794  1.00  0.00    -0.248 NA
ATOM     68  C   UNL A   1      37.329  33.526  33.602  1.00  0.00     0.031 C 
ATOM     69  C   UNL A   1      41.782  31.869  37.379  1.00  0.00     0.029 A 
ATOM     70  C   UNL A   1      40.954  31.960  36.273  1.00  0.00     0.049 A 
ATOM     71  H   UNL A   1      41.023  30.870  34.467  1.00  0.00     0.167 HD
ATOM     72  C   UNL A   1      39.052  32.862  34.963  1.00  0.00     0.074 A 
ATOM     73  C   UNL A   1      37.907  33.729  34.780  1.00  0.00     0.031 C 
ATOM     74  C   UNL A   1      39.812  32.821  36.084  1.00  0.00     0.031 A 
BRANCH  61  75
ATOM     75  C   UNL A   1      44.475  28.778  35.886  1.00  0.00    -0.014 A 
ATOM     76  C   UNL A   1      44.305  27.691  36.765  1.00  0.00     0.010 A 
ATOM     77  C   UNL A   1      45.743  29.377  35.778  1.00  0.00     0.010 A 
ATOM     78  C   UNL A   1      45.372  27.234  37.546  1.00  0.00     0.020 A 
ATOM     79  C   UNL A   1      46.819  28.903  36.536  1.00  0.00     0.020 A 
ATOM     80  C   UNL A   1      46.620  27.849  37.432  1.00  0.00     0.054 A 
BRANCH  80  81
ATOM     81  S   UNL A   1      47.988  27.257  38.467  1.00  0.00     0.124 S 
ATOM     82  O   UNL A   1      49.139  27.432  37.587  1.00  0.00    -0.237 OA
ATOM     83  O   UNL A   1      47.928  28.153  39.619  1.00  0.00    -0.237 OA
ATOM     84  O   UNL A   1      47.623  25.869  38.751  1.00  0.00    -0.744 OA
ENDBRANCH  80  81
ENDBRANCH  61  75
BRANCH  62  85
ATOM     85  C   UNL A   1      36.773  32.650  30.833  1.00  0.00    -0.014 A 
ATOM     86  C   UNL A   1      37.021  33.729  29.963  1.00  0.00     0.010 A 
ATOM     87  C   UNL A   1      35.448  32.219  31.024  1.00  0.00     0.010 A 
ATOM     88  C   UNL A   1      35.963  34.411  29.356  1.00  0.00     0.020 A 
ATOM     89  C   UNL A   1      34.389  32.879  30.393  1.00  0.00     0.020 A 
ATOM     90  C   UNL A   1      34.652  33.992  29.591  1.00  0.00     0.054 A 
BRANCH  90  91
ATOM     91  S   UNL A   1      33.292  34.936  28.851  1.00  0.00     0.124 S 
ATOM     92  O   UNL A   1      32.735  33.969  27.909  1.00  0.00    -0.237 OA
ATOM     93  O   UNL A   1      32.452  35.247  30.005  1.00  0.00    -0.237 OA
ATOM     94  O   UNL A   1      33.963  36.084  28.246  1.00  0.00    -0.744 OA
ENDBRANCH  90  91
ENDBRANCH  62  85
BRANCH  74  95
ATOM     95  C   UNL A   1      39.453  33.735  37.227  1.00  0.00    -0.014 A 
ATOM     96  C   UNL A   1      39.991  35.035  37.275  1.00  0.00     0.010 A 
ATOM     97  C   UNL A   1      38.716  33.257  38.324  1.00  0.00     0.010 A 
ATOM     98  C   UNL A   1      39.841  35.823  38.416  1.00  0.00     0.020 A 
ATOM     99  C   UNL A   1      38.539  34.056  39.459  1.00  0.00     0.020 A 
ATOM    100  C   UNL A   1      39.128  35.322  39.509  1.00  0.00     0.054 A 
BRANCH 100 101
ATOM    101  S   UNL A   1      38.993  36.338  41.006  1.00  0.00     0.124 S 
ATOM    102  O   UNL A   1      38.686  37.655  40.457  1.00  0.00    -0.237 OA
ATOM    103  O   UNL A   1      37.905  35.691  41.735  1.00  0.00    -0.237 OA
ATOM    104  O   UNL A   1      40.310  36.211  41.626  1.00  0.00    -0.744 OA
ENDBRANCH 100 101
ENDBRANCH  74  95
ENDBRANCH  48  49
ENDBRANCH  40  43
ENDBRANCH  38  39
ENDBRANCH  37  38
ENDBRANCH   1  37
TORSDOF 17
ENDMDL
