MODEL 1
REMARK VINA RESULT:     -11.8      0.000      0.000
REMARK SMILES Cc1ccc(C)c([C@@H](O)[C@@H](C)[C@@H](C)C(=O)NCCCCCCNC(=O)c2ccc(-c3c4nc(c(-c5ccc(S(=O)(=O)[O-])cc5)c5ccc([nH]5)c(-c5ccc(S(=O)(=O)[O-])cc5)c5nc(c(-c6ccc(S(=O)(=O)[O-])cc6)c6ccc3[nH]6)C=C5)C=C4)cc2)c1
REMARK SMILES IDX 19 1 18 2 17 3 16 4 14 5 15 6 12 8 13 9 10 10 11 11 8 12
REMARK SMILES IDX 7 13 1 14 2 15 3 16 86 17 4 18 5 19 6 20 9 21 20 23 21 24
REMARK SMILES IDX 22 25 23 26 24 27 25 29 26 30 27 31 85 32 28 33 84 34 29 35
REMARK SMILES IDX 30 36 31 37 78 38 32 39 83 40 77 41 79 42 33 43 82 44 76 45
REMARK SMILES IDX 75 46 34 48 64 49 45 50 63 51 46 52 49 53 62 54 80 55 47 56
REMARK SMILES IDX 48 57 61 59 81 60 50 61 35 62 36 63 44 64 37 65 43 66 38 67
REMARK SMILES IDX 39 68 40 69 41 70 42 71 65 72 66 73 74 74 67 75 73 76 68 77
REMARK SMILES IDX 69 78 70 79 71 80 72 81 51 82 52 83 60 84 53 85 59 86 54 87
REMARK SMILES IDX 55 88 56 89 57 90 58 91
REMARK H PARENT 16 7 9 22 23 28 79 47 49 58
REMARK Flexibility Score: inf
ROOT
ATOM      1  C   UNL A   1      34.360  22.656  24.337  1.00  0.00     0.002 C 
ENDROOT
BRANCH   1   2
ATOM      2  C   UNL A   1      33.172  21.973  23.659  1.00  0.00     0.021 C 
BRANCH   2   3
ATOM      3  C   UNL A   1      32.117  22.947  23.137  1.00  0.00     0.116 C 
BRANCH   3   4
ATOM      4  N   UNL A   1      32.606  23.707  22.003  1.00  0.00    -0.356 N 
ATOM      5  C   UNL A   1      32.714  25.049  21.804  1.00  0.00     0.223 C 
ATOM      6  O   UNL A   1      33.218  25.423  20.742  1.00  0.00    -0.275 OA
ATOM      7  H   UNL A   1      32.912  23.157  21.245  1.00  0.00     0.163 HD
BRANCH   5   8
ATOM      8  C   UNL A   1      32.290  26.066  22.869  1.00  0.00     0.081 C 
ATOM      9  C   UNL A   1      31.153  26.907  22.281  1.00  0.00     0.018 C 
BRANCH   8  10
ATOM     10  C   UNL A   1      33.510  26.799  23.513  1.00  0.00     0.031 C 
ATOM     11  C   UNL A   1      33.688  26.308  24.965  1.00  0.00     0.011 C 
BRANCH  10  12
ATOM     12  C   UNL A   1      33.464  28.355  23.480  1.00  0.00     0.148 C 
BRANCH  12  13
ATOM     13  C   UNL A   1      33.255  29.024  24.837  1.00  0.00    -0.016 A 
ATOM     14  C   UNL A   1      35.343  29.489  28.017  1.00  0.00     0.044 C 
ATOM     15  C   UNL A   1      34.224  29.579  27.023  1.00  0.00    -0.051 A 
ATOM     16  C   UNL A   1      33.049  30.237  27.377  1.00  0.00     0.004 A 
ATOM     17  C   UNL A   1      34.334  29.014  25.744  1.00  0.00     0.010 A 
ATOM     18  C   UNL A   1      31.966  30.242  26.509  1.00  0.00     0.004 A 
ATOM     19  C   UNL A   1      32.030  29.588  25.265  1.00  0.00    -0.045 A 
ATOM     20  C   UNL A   1      30.749  29.542  24.483  1.00  0.00     0.045 C 
ENDBRANCH  12  13
BRANCH  12  21
ATOM     21  O   UNL A   1      34.656  28.923  22.935  1.00  0.00    -0.388 OA
ATOM     22  H   UNL A   1      35.421  28.392  23.208  1.00  0.00     0.211 HD
ENDBRANCH  12  21
ENDBRANCH  10  12
ENDBRANCH   8  10
ENDBRANCH   5   8
ENDBRANCH   3   4
ENDBRANCH   2   3
ENDBRANCH   1   2
BRANCH   1  23
ATOM     23  C   UNL A   1      35.500  23.113  23.417  1.00  0.00     0.002 C 
BRANCH  23  24
ATOM     24  C   UNL A   1      36.947  22.830  23.851  1.00  0.00     0.021 C 
BRANCH  24  25
ATOM     25  C   UNL A   1      37.258  23.030  25.330  1.00  0.00     0.116 C 
BRANCH  25  26
ATOM     26  N   UNL A   1      38.092  21.963  25.906  1.00  0.00    -0.352 N 
ATOM     27  C   UNL A   1      39.357  21.977  26.465  1.00  0.00     0.251 C 
ATOM     28  H   UNL A   1      37.671  21.072  25.889  1.00  0.00     0.163 HD
ATOM     29  O   UNL A   1      39.984  20.912  26.570  1.00  0.00    -0.269 OA
BRANCH  27  30
ATOM     30  C   UNL A   1      39.963  23.227  26.963  1.00  0.00     0.039 A 
ATOM     31  C   UNL A   1      41.318  23.417  27.241  1.00  0.00     0.014 A 
ATOM     32  C   UNL A   1      39.098  24.214  27.373  1.00  0.00     0.014 A 
ATOM     33  C   UNL A   1      41.694  24.555  27.977  1.00  0.00     0.010 A 
ATOM     34  C   UNL A   1      39.530  25.476  27.593  1.00  0.00     0.010 A 
ATOM     35  C   UNL A   1      40.741  25.548  28.235  1.00  0.00    -0.014 A 
BRANCH  35  36
ATOM     36  C   UNL A   1      40.989  26.836  28.851  1.00  0.00     0.031 A 
ATOM     37  C   UNL A   1      42.091  27.560  28.187  1.00  0.00     0.074 A 
ATOM     38  C   UNL A   1      40.114  27.452  29.677  1.00  0.00     0.049 A 
ATOM     39  N   UNL A   1      43.336  27.505  28.517  1.00  0.00    -0.248 NA
ATOM     40  C   UNL A   1      41.849  28.159  26.858  1.00  0.00     0.031 C 
ATOM     41  C   UNL A   1      38.792  27.010  30.132  1.00  0.00     0.029 A 
ATOM     42  N   UNL A   1      40.213  28.692  30.230  1.00  0.00    -0.354 N 
ATOM     43  C   UNL A   1      43.974  28.326  27.603  1.00  0.00     0.074 A 
ATOM     44  C   UNL A   1      43.104  28.377  26.458  1.00  0.00     0.031 C 
ATOM     45  C   UNL A   1      38.148  28.043  30.735  1.00  0.00     0.029 A 
ATOM     46  C   UNL A   1      39.048  29.182  30.818  1.00  0.00     0.049 A 
ATOM     47  H   UNL A   1      41.052  29.208  30.216  1.00  0.00     0.167 HD
ATOM     48  C   UNL A   1      44.934  29.206  28.002  1.00  0.00     0.031 A 
ATOM     49  C   UNL A   1      38.857  30.438  31.311  1.00  0.00     0.031 A 
ATOM     50  C   UNL A   1      45.292  28.988  29.386  1.00  0.00     0.049 A 
ATOM     51  C   UNL A   1      40.213  31.002  31.553  1.00  0.00     0.074 A 
ATOM     52  C   UNL A   1      45.733  27.901  30.116  1.00  0.00     0.029 A 
ATOM     53  N   UNL A   1      44.772  29.878  30.301  1.00  0.00    -0.354 N 
ATOM     54  N   UNL A   1      41.020  30.548  32.472  1.00  0.00    -0.248 NA
ATOM     55  C   UNL A   1      40.858  31.738  30.474  1.00  0.00     0.031 C 
ATOM     56  C   UNL A   1      45.047  27.989  31.362  1.00  0.00     0.029 A 
ATOM     57  C   UNL A   1      44.301  29.169  31.375  1.00  0.00     0.049 A 
ATOM     58  H   UNL A   1      44.742  30.857  30.199  1.00  0.00     0.167 HD
ATOM     59  C   UNL A   1      42.270  30.532  31.871  1.00  0.00     0.074 A 
ATOM     60  C   UNL A   1      42.128  31.375  30.683  1.00  0.00     0.031 C 
ATOM     61  C   UNL A   1      43.208  29.602  32.223  1.00  0.00     0.031 A 
BRANCH  48  62
ATOM     62  C   UNL A   1      45.205  30.526  27.318  1.00  0.00    -0.014 A 
ATOM     63  C   UNL A   1      46.546  30.869  27.053  1.00  0.00     0.010 A 
ATOM     64  C   UNL A   1      44.243  31.542  27.146  1.00  0.00     0.010 A 
ATOM     65  C   UNL A   1      46.907  32.177  26.714  1.00  0.00     0.020 A 
ATOM     66  C   UNL A   1      44.585  32.837  26.764  1.00  0.00     0.020 A 
ATOM     67  C   UNL A   1      45.922  33.155  26.582  1.00  0.00     0.054 A 
BRANCH  67  68
ATOM     68  S   UNL A   1      46.402  34.858  26.224  1.00  0.00     0.124 S 
ATOM     69  O   UNL A   1      46.335  34.887  24.766  1.00  0.00    -0.237 OA
ATOM     70  O   UNL A   1      45.374  35.620  26.925  1.00  0.00    -0.237 OA
ATOM     71  O   UNL A   1      47.745  34.960  26.792  1.00  0.00    -0.744 OA
ENDBRANCH  67  68
ENDBRANCH  48  62
BRANCH  49  72
ATOM     72  C   UNL A   1      37.626  31.270  31.453  1.00  0.00    -0.014 A 
ATOM     73  C   UNL A   1      37.007  31.445  32.710  1.00  0.00     0.010 A 
ATOM     74  C   UNL A   1      37.195  32.109  30.408  1.00  0.00     0.010 A 
ATOM     75  C   UNL A   1      36.048  32.454  32.929  1.00  0.00     0.020 A 
ATOM     76  C   UNL A   1      36.228  33.108  30.613  1.00  0.00     0.020 A 
ATOM     77  C   UNL A   1      35.676  33.295  31.879  1.00  0.00     0.054 A 
BRANCH  77  78
ATOM     78  S   UNL A   1      34.534  34.678  32.199  1.00  0.00     0.124 S 
ATOM     79  O   UNL A   1      33.452  34.037  32.938  1.00  0.00    -0.237 OA
ATOM     80  O   UNL A   1      35.361  35.602  32.974  1.00  0.00    -0.237 OA
ATOM     81  O   UNL A   1      34.175  35.152  30.863  1.00  0.00    -0.744 OA
ENDBRANCH  77  78
ENDBRANCH  49  72
BRANCH  61  82
ATOM     82  C   UNL A   1      42.995  28.804  33.491  1.00  0.00    -0.014 A 
ATOM     83  C   UNL A   1      42.251  27.610  33.565  1.00  0.00     0.010 A 
ATOM     84  C   UNL A   1      43.721  29.210  34.625  1.00  0.00     0.010 A 
ATOM     85  C   UNL A   1      42.216  26.860  34.752  1.00  0.00     0.020 A 
ATOM     86  C   UNL A   1      43.707  28.459  35.801  1.00  0.00     0.020 A 
ATOM     87  C   UNL A   1      42.947  27.292  35.864  1.00  0.00     0.054 A 
BRANCH  87  88
ATOM     88  S   UNL A   1      42.939  26.301  37.386  1.00  0.00     0.124 S 
ATOM     89  O   UNL A   1      41.534  26.338  37.780  1.00  0.00    -0.237 OA
ATOM     90  O   UNL A   1      43.433  25.003  36.932  1.00  0.00    -0.237 OA
ATOM     91  O   UNL A   1      43.848  27.024  38.275  1.00  0.00    -0.744 OA
ENDBRANCH  87  88
ENDBRANCH  61  82
ENDBRANCH  35  36
ENDBRANCH  27  30
ENDBRANCH  25  26
ENDBRANCH  24  25
ENDBRANCH  23  24
ENDBRANCH   1  23
TORSDOF 20
ENDMDL
MODEL 2
REMARK VINA RESULT:     -11.7      2.598      9.369
REMARK SMILES Cc1ccc(C)c([C@@H](O)[C@@H](C)[C@@H](C)C(=O)NCCCCCCNC(=O)c2ccc(-c3c4nc(c(-c5ccc(S(=O)(=O)[O-])cc5)c5ccc([nH]5)c(-c5ccc(S(=O)(=O)[O-])cc5)c5nc(c(-c6ccc(S(=O)(=O)[O-])cc6)c6ccc3[nH]6)C=C5)C=C4)cc2)c1
REMARK SMILES IDX 19 1 18 2 17 3 16 4 14 5 15 6 12 8 13 9 10 10 11 11 8 12
REMARK SMILES IDX 7 13 1 14 2 15 3 16 86 17 4 18 5 19 6 20 9 21 20 23 21 24
REMARK SMILES IDX 22 25 23 26 24 27 25 29 26 30 27 31 85 32 28 33 84 34 29 35
REMARK SMILES IDX 30 36 31 37 78 38 32 39 83 40 77 41 79 42 33 43 82 44 76 45
REMARK SMILES IDX 75 46 34 48 64 49 45 50 63 51 46 52 49 53 62 54 80 55 47 56
REMARK SMILES IDX 48 57 61 59 81 60 50 61 35 62 36 63 44 64 37 65 43 66 38 67
REMARK SMILES IDX 39 68 40 69 41 70 42 71 65 72 66 73 74 74 67 75 73 76 68 77
REMARK SMILES IDX 69 78 70 79 71 80 72 81 51 82 52 83 60 84 53 85 59 86 54 87
REMARK SMILES IDX 55 88 56 89 57 90 58 91
REMARK H PARENT 16 7 9 22 23 28 79 47 49 58
REMARK Flexibility Score: inf
ROOT
ATOM      1  C   UNL A   1      33.913  27.301  25.058  1.00  0.00     0.002 C 
ENDROOT
BRANCH   1   2
ATOM      2  C   UNL A   1      32.722  26.497  25.580  1.00  0.00     0.021 C 
BRANCH   2   3
ATOM      3  C   UNL A   1      32.627  25.088  24.998  1.00  0.00     0.116 C 
BRANCH   3   4
ATOM      4  N   UNL A   1      32.758  25.097  23.554  1.00  0.00    -0.356 N 
ATOM      5  C   UNL A   1      33.367  24.225  22.705  1.00  0.00     0.223 C 
ATOM      6  O   UNL A   1      33.281  24.460  21.497  1.00  0.00    -0.275 OA
ATOM      7  H   UNL A   1      32.333  25.867  23.111  1.00  0.00     0.163 HD
BRANCH   5   8
ATOM      8  C   UNL A   1      34.082  22.965  23.206  1.00  0.00     0.081 C 
ATOM      9  C   UNL A   1      33.047  22.103  23.936  1.00  0.00     0.018 C 
BRANCH   8  10
ATOM     10  C   UNL A   1      35.429  23.290  23.926  1.00  0.00     0.031 C 
ATOM     11  C   UNL A   1      36.596  23.077  22.938  1.00  0.00     0.011 C 
BRANCH  10  12
ATOM     12  C   UNL A   1      35.702  22.510  25.245  1.00  0.00     0.148 C 
BRANCH  12  13
ATOM     13  C   UNL A   1      37.149  22.546  25.730  1.00  0.00    -0.016 A 
ATOM     14  C   UNL A   1      39.451  25.178  27.299  1.00  0.00     0.044 C 
ATOM     15  C   UNL A   1      38.936  23.877  26.761  1.00  0.00    -0.051 A 
ATOM     16  C   UNL A   1      39.789  22.778  26.704  1.00  0.00     0.004 A 
ATOM     17  C   UNL A   1      37.614  23.743  26.314  1.00  0.00     0.010 A 
ATOM     18  C   UNL A   1      39.360  21.595  26.116  1.00  0.00     0.004 A 
ATOM     19  C   UNL A   1      38.069  21.483  25.568  1.00  0.00    -0.045 A 
ATOM     20  C   UNL A   1      37.778  20.207  24.833  1.00  0.00     0.045 C 
ENDBRANCH  12  13
BRANCH  12  21
ATOM     21  O   UNL A   1      34.905  22.983  26.331  1.00  0.00    -0.388 OA
ATOM     22  H   UNL A   1      34.966  23.951  26.379  1.00  0.00     0.211 HD
ENDBRANCH  12  21
ENDBRANCH  10  12
ENDBRANCH   8  10
ENDBRANCH   5   8
ENDBRANCH   3   4
ENDBRANCH   2   3
ENDBRANCH   1   2
BRANCH   1  23
ATOM     23  C   UNL A   1      33.703  28.815  24.913  1.00  0.00     0.002 C 
BRANCH  23  24
ATOM     24  C   UNL A   1      32.664  29.499  25.815  1.00  0.00     0.021 C 
BRANCH  24  25
ATOM     25  C   UNL A   1      33.099  29.782  27.249  1.00  0.00     0.116 C 
BRANCH  25  26
ATOM     26  N   UNL A   1      33.430  31.194  27.495  1.00  0.00    -0.352 N 
ATOM     27  C   UNL A   1      34.557  31.802  28.018  1.00  0.00     0.251 C 
ATOM     28  H   UNL A   1      32.716  31.823  27.242  1.00  0.00     0.163 HD
ATOM     29  O   UNL A   1      34.474  32.965  28.442  1.00  0.00    -0.269 OA
BRANCH  27  30
ATOM     30  C   UNL A   1      35.858  31.107  28.057  1.00  0.00     0.039 A 
ATOM     31  C   UNL A   1      36.102  29.814  27.592  1.00  0.00     0.014 A 
ATOM     32  C   UNL A   1      36.856  31.705  28.790  1.00  0.00     0.014 A 
ATOM     33  C   UNL A   1      37.306  29.189  27.959  1.00  0.00     0.010 A 
ATOM     34  C   UNL A   1      38.143  31.301  28.679  1.00  0.00     0.010 A 
ATOM     35  C   UNL A   1      38.296  29.940  28.606  1.00  0.00    -0.014 A 
BRANCH  35  36
ATOM     36  C   UNL A   1      39.637  29.494  28.928  1.00  0.00     0.031 A 
ATOM     37  C   UNL A   1      39.828  29.332  30.383  1.00  0.00     0.074 A 
ATOM     38  C   UNL A   1      40.483  28.952  28.024  1.00  0.00     0.049 A 
ATOM     39  N   UNL A   1      40.264  30.238  31.191  1.00  0.00    -0.248 NA
ATOM     40  C   UNL A   1      39.201  28.178  31.059  1.00  0.00     0.031 C 
ATOM     41  C   UNL A   1      40.283  28.701  26.593  1.00  0.00     0.029 A 
ATOM     42  N   UNL A   1      41.719  28.424  28.242  1.00  0.00    -0.354 N 
ATOM     43  C   UNL A   1      40.250  29.629  32.434  1.00  0.00     0.074 A 
ATOM     44  C   UNL A   1      39.283  28.568  32.333  1.00  0.00     0.031 C 
ATOM     45  C   UNL A   1      41.281  27.908  26.125  1.00  0.00     0.029 A 
ATOM     46  C   UNL A   1      42.255  27.692  27.184  1.00  0.00     0.049 A 
ATOM     47  H   UNL A   1      42.201  28.551  29.091  1.00  0.00     0.167 HD
ATOM     48  C   UNL A   1      41.296  29.768  33.295  1.00  0.00     0.031 A 
ATOM     49  C   UNL A   1      43.403  26.959  27.207  1.00  0.00     0.031 A 
ATOM     50  C   UNL A   1      42.234  30.758  32.812  1.00  0.00     0.049 A 
ATOM     51  C   UNL A   1      44.201  27.468  28.356  1.00  0.00     0.074 A 
ATOM     52  C   UNL A   1      42.139  32.083  32.432  1.00  0.00     0.029 A 
ATOM     53  N   UNL A   1      43.392  30.276  32.238  1.00  0.00    -0.354 N 
ATOM     54  N   UNL A   1      44.727  28.662  28.385  1.00  0.00    -0.248 NA
ATOM     55  C   UNL A   1      44.011  26.846  29.658  1.00  0.00     0.031 C 
ATOM     56  C   UNL A   1      42.984  32.200  31.290  1.00  0.00     0.029 A 
ATOM     57  C   UNL A   1      43.627  30.978  31.086  1.00  0.00     0.049 A 
ATOM     58  H   UNL A   1      43.952  29.549  32.595  1.00  0.00     0.167 HD
ATOM     59  C   UNL A   1      44.507  29.115  29.678  1.00  0.00     0.074 A 
ATOM     60  C   UNL A   1      44.162  27.917  30.444  1.00  0.00     0.031 C 
ATOM     61  C   UNL A   1      44.330  30.446  29.935  1.00  0.00     0.031 A 
BRANCH  48  62
ATOM     62  C   UNL A   1      41.709  28.717  34.298  1.00  0.00    -0.014 A 
ATOM     63  C   UNL A   1      41.932  29.125  35.628  1.00  0.00     0.010 A 
ATOM     64  C   UNL A   1      42.122  27.413  33.956  1.00  0.00     0.010 A 
ATOM     65  C   UNL A   1      42.603  28.301  36.539  1.00  0.00     0.020 A 
ATOM     66  C   UNL A   1      42.750  26.565  34.866  1.00  0.00     0.020 A 
ATOM     67  C   UNL A   1      43.016  27.029  36.144  1.00  0.00     0.054 A 
BRANCH  67  68
ATOM     68  S   UNL A   1      43.952  26.002  37.297  1.00  0.00     0.124 S 
ATOM     69  O   UNL A   1      45.324  26.411  37.014  1.00  0.00    -0.237 OA
ATOM     70  O   UNL A   1      43.414  26.421  38.587  1.00  0.00    -0.237 OA
ATOM     71  O   UNL A   1      43.610  24.639  36.896  1.00  0.00    -0.744 OA
ENDBRANCH  67  68
ENDBRANCH  48  62
BRANCH  49  72
ATOM     72  C   UNL A   1      43.823  25.753  26.435  1.00  0.00    -0.014 A 
ATOM     73  C   UNL A   1      45.098  25.174  26.625  1.00  0.00     0.010 A 
ATOM     74  C   UNL A   1      42.887  25.003  25.697  1.00  0.00     0.010 A 
ATOM     75  C   UNL A   1      45.402  23.882  26.153  1.00  0.00     0.020 A 
ATOM     76  C   UNL A   1      43.187  23.719  25.210  1.00  0.00     0.020 A 
ATOM     77  C   UNL A   1      44.435  23.152  25.462  1.00  0.00     0.054 A 
BRANCH  77  78
ATOM     78  S   UNL A   1      44.788  21.434  24.969  1.00  0.00     0.124 S 
ATOM     79  O   UNL A   1      44.651  21.482  23.518  1.00  0.00    -0.237 OA
ATOM     80  O   UNL A   1      46.149  21.234  25.463  1.00  0.00    -0.237 OA
ATOM     81  O   UNL A   1      43.764  20.653  25.662  1.00  0.00    -0.744 OA
ENDBRANCH  77  78
ENDBRANCH  49  72
BRANCH  61  82
ATOM     82  C   UNL A   1      44.698  31.447  28.860  1.00  0.00    -0.014 A 
ATOM     83  C   UNL A   1      43.787  31.988  27.932  1.00  0.00     0.010 A 
ATOM     84  C   UNL A   1      46.000  31.975  28.904  1.00  0.00     0.010 A 
ATOM     85  C   UNL A   1      44.182  33.012  27.055  1.00  0.00     0.020 A 
ATOM     86  C   UNL A   1      46.393  33.006  28.051  1.00  0.00     0.020 A 
ATOM     87  C   UNL A   1      45.486  33.514  27.122  1.00  0.00     0.054 A 
BRANCH  87  88
ATOM     88  S   UNL A   1      45.986  34.869  26.020  1.00  0.00     0.124 S 
ATOM     89  O   UNL A   1      47.434  34.906  26.204  1.00  0.00    -0.237 OA
ATOM     90  O   UNL A   1      45.528  34.410  24.711  1.00  0.00    -0.237 OA
ATOM     91  O   UNL A   1      45.267  36.029  26.547  1.00  0.00    -0.744 OA
ENDBRANCH  87  88
ENDBRANCH  61  82
ENDBRANCH  35  36
ENDBRANCH  27  30
ENDBRANCH  25  26
ENDBRANCH  24  25
ENDBRANCH  23  24
ENDBRANCH   1  23
TORSDOF 20
ENDMDL
MODEL 3
REMARK VINA RESULT:     -11.4      1.529      2.215
REMARK SMILES Cc1ccc(C)c([C@@H](O)[C@@H](C)[C@@H](C)C(=O)NCCCCCCNC(=O)c2ccc(-c3c4nc(c(-c5ccc(S(=O)(=O)[O-])cc5)c5ccc([nH]5)c(-c5ccc(S(=O)(=O)[O-])cc5)c5nc(c(-c6ccc(S(=O)(=O)[O-])cc6)c6ccc3[nH]6)C=C5)C=C4)cc2)c1
REMARK SMILES IDX 19 1 18 2 17 3 16 4 14 5 15 6 12 8 13 9 10 10 11 11 8 12
REMARK SMILES IDX 7 13 1 14 2 15 3 16 86 17 4 18 5 19 6 20 9 21 20 23 21 24
REMARK SMILES IDX 22 25 23 26 24 27 25 29 26 30 27 31 85 32 28 33 84 34 29 35
REMARK SMILES IDX 30 36 31 37 78 38 32 39 83 40 77 41 79 42 33 43 82 44 76 45
REMARK SMILES IDX 75 46 34 48 64 49 45 50 63 51 46 52 49 53 62 54 80 55 47 56
REMARK SMILES IDX 48 57 61 59 81 60 50 61 35 62 36 63 44 64 37 65 43 66 38 67
REMARK SMILES IDX 39 68 40 69 41 70 42 71 65 72 66 73 74 74 67 75 73 76 68 77
REMARK SMILES IDX 69 78 70 79 71 80 72 81 51 82 52 83 60 84 53 85 59 86 54 87
REMARK SMILES IDX 55 88 56 89 57 90 58 91
REMARK H PARENT 16 7 9 22 23 28 79 47 49 58
REMARK Flexibility Score: inf
ROOT
ATOM      1  C   UNL A   1      35.476  24.276  25.304  1.00  0.00     0.002 C 
ENDROOT
BRANCH   1   2
ATOM      2  C   UNL A   1      34.227  23.871  26.088  1.00  0.00     0.021 C 
BRANCH   2   3
ATOM      3  C   UNL A   1      33.700  22.482  25.732  1.00  0.00     0.116 C 
BRANCH   3   4
ATOM      4  N   UNL A   1      32.335  22.297  26.181  1.00  0.00    -0.356 N 
ATOM      5  C   UNL A   1      31.148  22.474  25.538  1.00  0.00     0.223 C 
ATOM      6  O   UNL A   1      30.121  22.191  26.160  1.00  0.00    -0.275 OA
ATOM      7  H   UNL A   1      32.250  21.991  27.113  1.00  0.00     0.163 HD
BRANCH   5   8
ATOM      8  C   UNL A   1      31.074  22.946  24.081  1.00  0.00     0.081 C 
ATOM      9  C   UNL A   1      32.120  22.159  23.285  1.00  0.00     0.018 C 
BRANCH   8  10
ATOM     10  C   UNL A   1      31.052  24.502  23.959  1.00  0.00     0.031 C 
ATOM     11  C   UNL A   1      32.344  24.974  23.258  1.00  0.00     0.011 C 
BRANCH  10  12
ATOM     12  C   UNL A   1      30.853  25.287  25.289  1.00  0.00     0.148 C 
BRANCH  12  13
ATOM     13  C   UNL A   1      31.295  26.748  25.250  1.00  0.00    -0.016 A 
ATOM     14  C   UNL A   1      33.750  28.925  27.231  1.00  0.00     0.044 C 
ATOM     15  C   UNL A   1      32.747  28.479  26.209  1.00  0.00    -0.051 A 
ATOM     16  C   UNL A   1      32.249  29.405  25.296  1.00  0.00     0.004 A 
ATOM     17  C   UNL A   1      32.299  27.152  26.154  1.00  0.00     0.010 A 
ATOM     18  C   UNL A   1      31.245  29.036  24.410  1.00  0.00     0.004 A 
ATOM     19  C   UNL A   1      30.714  27.733  24.417  1.00  0.00    -0.045 A 
ATOM     20  C   UNL A   1      29.537  27.501  23.514  1.00  0.00     0.045 C 
ENDBRANCH  12  13
BRANCH  12  21
ATOM     21  O   UNL A   1      29.491  25.293  25.718  1.00  0.00    -0.388 OA
ATOM     22  H   UNL A   1      28.962  25.832  25.108  1.00  0.00     0.211 HD
ENDBRANCH  12  21
ENDBRANCH  10  12
ENDBRANCH   8  10
ENDBRANCH   5   8
ENDBRANCH   3   4
ENDBRANCH   2   3
ENDBRANCH   1   2
BRANCH   1  23
ATOM     23  C   UNL A   1      35.877  23.362  24.139  1.00  0.00     0.002 C 
BRANCH  23  24
ATOM     24  C   UNL A   1      37.014  22.351  24.361  1.00  0.00     0.021 C 
BRANCH  24  25
ATOM     25  C   UNL A   1      37.363  22.039  25.812  1.00  0.00     0.116 C 
BRANCH  25  26
ATOM     26  N   UNL A   1      38.719  21.495  25.987  1.00  0.00    -0.352 N 
ATOM     27  C   UNL A   1      39.919  22.093  26.328  1.00  0.00     0.251 C 
ATOM     28  H   UNL A   1      38.785  20.524  25.832  1.00  0.00     0.163 HD
ATOM     29  O   UNL A   1      40.981  21.500  26.084  1.00  0.00    -0.269 OA
BRANCH  27  30
ATOM     30  C   UNL A   1      39.960  23.406  26.998  1.00  0.00     0.039 A 
ATOM     31  C   UNL A   1      38.965  24.383  26.932  1.00  0.00     0.014 A 
ATOM     32  C   UNL A   1      41.157  23.774  27.566  1.00  0.00     0.014 A 
ATOM     33  C   UNL A   1      39.273  25.681  27.378  1.00  0.00     0.010 A 
ATOM     34  C   UNL A   1      41.235  24.819  28.421  1.00  0.00     0.010 A 
ATOM     35  C   UNL A   1      40.484  25.904  28.046  1.00  0.00    -0.014 A 
BRANCH  35  36
ATOM     36  C   UNL A   1      40.894  27.137  28.687  1.00  0.00     0.031 A 
ATOM     37  C   UNL A   1      42.060  27.745  28.015  1.00  0.00     0.074 A 
ATOM     38  C   UNL A   1      40.115  27.830  29.547  1.00  0.00     0.049 A 
ATOM     39  N   UNL A   1      43.297  27.535  28.315  1.00  0.00    -0.248 NA
ATOM     40  C   UNL A   1      41.865  28.402  26.707  1.00  0.00     0.031 C 
ATOM     41  C   UNL A   1      38.758  27.534  30.022  1.00  0.00     0.029 A 
ATOM     42  N   UNL A   1      40.370  29.035  30.127  1.00  0.00    -0.354 N 
ATOM     43  C   UNL A   1      44.008  28.299  27.407  1.00  0.00     0.074 A 
ATOM     44  C   UNL A   1      43.128  28.483  26.284  1.00  0.00     0.031 C 
ATOM     45  C   UNL A   1      38.253  28.619  30.663  1.00  0.00     0.029 A 
ATOM     46  C   UNL A   1      39.283  29.642  30.753  1.00  0.00     0.049 A 
ATOM     47  H   UNL A   1      41.263  29.449  30.106  1.00  0.00     0.167 HD
ATOM     48  C   UNL A   1      45.073  29.051  27.805  1.00  0.00     0.031 A 
ATOM     49  C   UNL A   1      39.251  30.899  31.280  1.00  0.00     0.031 A 
ATOM     50  C   UNL A   1      45.431  28.755  29.175  1.00  0.00     0.049 A 
ATOM     51  C   UNL A   1      40.668  31.293  31.505  1.00  0.00     0.074 A 
ATOM     52  C   UNL A   1      45.755  27.605  29.869  1.00  0.00     0.029 A 
ATOM     53  N   UNL A   1      45.037  29.676  30.122  1.00  0.00    -0.354 N 
ATOM     54  N   UNL A   1      41.434  30.724  32.394  1.00  0.00    -0.248 NA
ATOM     55  C   UNL A   1      41.373  31.976  30.429  1.00  0.00     0.031 C 
ATOM     56  C   UNL A   1      45.109  27.741  31.132  1.00  0.00     0.029 A 
ATOM     57  C   UNL A   1      44.507  28.999  31.189  1.00  0.00     0.049 A 
ATOM     58  H   UNL A   1      45.120  30.654  30.044  1.00  0.00     0.167 HD
ATOM     59  C   UNL A   1      42.661  30.578  31.764  1.00  0.00     0.074 A 
ATOM     60  C   UNL A   1      42.596  31.462  30.600  1.00  0.00     0.031 C 
ATOM     61  C   UNL A   1      43.490  29.535  32.073  1.00  0.00     0.031 A 
BRANCH  48  62
ATOM     62  C   UNL A   1      45.484  30.347  27.147  1.00  0.00    -0.014 A 
ATOM     63  C   UNL A   1      46.860  30.579  26.949  1.00  0.00     0.010 A 
ATOM     64  C   UNL A   1      44.618  31.439  26.938  1.00  0.00     0.010 A 
ATOM     65  C   UNL A   1      47.343  31.856  26.639  1.00  0.00     0.020 A 
ATOM     66  C   UNL A   1      45.083  32.704  26.584  1.00  0.00     0.020 A 
ATOM     67  C   UNL A   1      46.449  32.911  26.469  1.00  0.00     0.054 A 
BRANCH  67  68
ATOM     68  S   UNL A   1      47.084  34.571  26.150  1.00  0.00     0.124 S 
ATOM     69  O   UNL A   1      47.350  35.054  27.501  1.00  0.00    -0.237 OA
ATOM     70  O   UNL A   1      48.257  34.297  25.327  1.00  0.00    -0.237 OA
ATOM     71  O   UNL A   1      45.980  35.231  25.455  1.00  0.00    -0.744 OA
ENDBRANCH  67  68
ENDBRANCH  48  62
BRANCH  49  72
ATOM     72  C   UNL A   1      38.129  31.865  31.469  1.00  0.00    -0.014 A 
ATOM     73  C   UNL A   1      36.981  31.818  30.647  1.00  0.00     0.010 A 
ATOM     74  C   UNL A   1      38.055  32.671  32.621  1.00  0.00     0.010 A 
ATOM     75  C   UNL A   1      35.795  32.495  30.992  1.00  0.00     0.020 A 
ATOM     76  C   UNL A   1      36.880  33.363  32.964  1.00  0.00     0.020 A 
ATOM     77  C   UNL A   1      35.745  33.252  32.163  1.00  0.00     0.054 A 
BRANCH  77  78
ATOM     78  S   UNL A   1      34.173  34.018  32.671  1.00  0.00     0.124 S 
ATOM     79  O   UNL A   1      34.596  34.979  33.684  1.00  0.00    -0.237 OA
ATOM     80  O   UNL A   1      33.683  34.600  31.422  1.00  0.00    -0.237 OA
ATOM     81  O   UNL A   1      33.383  32.896  33.175  1.00  0.00    -0.744 OA
ENDBRANCH  77  78
ENDBRANCH  49  72
BRANCH  61  82
ATOM     82  C   UNL A   1      43.210  28.734  33.326  1.00  0.00    -0.014 A 
ATOM     83  C   UNL A   1      43.455  29.193  34.635  1.00  0.00     0.010 A 
ATOM     84  C   UNL A   1      42.519  27.520  33.162  1.00  0.00     0.010 A 
ATOM     85  C   UNL A   1      43.041  28.441  35.747  1.00  0.00     0.020 A 
ATOM     86  C   UNL A   1      42.087  26.779  34.262  1.00  0.00     0.020 A 
ATOM     87  C   UNL A   1      42.358  27.237  35.551  1.00  0.00     0.054 A 
BRANCH  87  88
ATOM     88  S   UNL A   1      41.782  26.285  36.986  1.00  0.00     0.124 S 
ATOM     89  O   UNL A   1      40.583  27.014  37.389  1.00  0.00    -0.237 OA
ATOM     90  O   UNL A   1      41.553  24.956  36.425  1.00  0.00    -0.237 OA
ATOM     91  O   UNL A   1      42.899  26.366  37.927  1.00  0.00    -0.744 OA
ENDBRANCH  87  88
ENDBRANCH  61  82
ENDBRANCH  35  36
ENDBRANCH  27  30
ENDBRANCH  25  26
ENDBRANCH  24  25
ENDBRANCH  23  24
ENDBRANCH   1  23
TORSDOF 20
ENDMDL
