MODEL 1
REMARK VINA RESULT:     -11.9      0.000      0.000
REMARK SMILES COc1cc2c(cc1OC)[C@H](C(=O)NCCCCCCNC(=O)c1ccc(-c3c4nc(c(-c5ccc(S(=O)(=O)[O-])cc5)c5ccc([nH]5)c(-c5ccc(S(=O)(=O)[O-])cc5)c5nc(c(-c6ccc(S(=O)(=O)[O-])cc6)c6ccc3[nH]6)C=C5)C=C4)cc1)[C@H](c1cccc(Cl)c1)N(C)C2=O
REMARK SMILES IDX 18 1 17 2 16 3 15 4 14 5 12 6 13 7 11 9 3 10 4 11 8 12 5 13
REMARK SMILES IDX 7 14 6 15 94 16 92 17 95 18 84 19 93 20 2 21 1 22 9 23 10 24
REMARK SMILES IDX 85 25 86 26 91 27 87 28 89 29 88 30 90 31 19 32 20 33 21 34
REMARK SMILES IDX 22 35 23 37 24 38 25 39 83 40 26 41 82 42 27 43 28 44 29 45
REMARK SMILES IDX 76 46 30 47 81 48 75 49 77 50 31 51 80 52 74 53 73 54 32 56
REMARK SMILES IDX 62 57 43 58 61 59 44 60 47 61 60 62 78 63 45 64 46 65 59 67
REMARK SMILES IDX 79 68 48 69 33 70 34 71 42 72 35 73 41 74 36 75 37 76 38 77
REMARK SMILES IDX 39 78 40 79 63 80 64 81 72 82 65 83 71 84 66 85 67 86 68 87
REMARK SMILES IDX 69 88 70 89 49 90 50 91 58 92 51 93 57 94 52 95 53 96 54 97
REMARK SMILES IDX 55 98 56 99
REMARK H PARENT 14 8 21 36 77 55 47 66
REMARK Flexibility Score: inf
ROOT
ATOM      1  C   UNL A   1      35.098  33.131  28.769  1.00  0.00     0.002 C 
ENDROOT
BRANCH   1   2
ATOM      2  C   UNL A   1      35.061  31.952  27.794  1.00  0.00     0.002 C 
BRANCH   2   3
ATOM      3  C   UNL A   1      34.095  30.830  28.161  1.00  0.00     0.021 C 
BRANCH   3   4
ATOM      4  C   UNL A   1      34.094  29.644  27.206  1.00  0.00     0.116 C 
BRANCH   4   5
ATOM      5  N   UNL A   1      32.960  28.763  27.437  1.00  0.00    -0.355 N 
ATOM      6  C   UNL A   1      32.531  27.657  26.762  1.00  0.00     0.230 C 
ATOM      7  O   UNL A   1      31.585  27.037  27.263  1.00  0.00    -0.274 OA
ATOM      8  H   UNL A   1      32.407  29.004  28.215  1.00  0.00     0.163 HD
BRANCH   6   9
ATOM      9  C   UNL A   1      33.189  27.121  25.487  1.00  0.00     0.136 C 
ATOM     10  C   UNL A   1      32.381  22.977  24.715  1.00  0.00     0.161 A 
ATOM     11  C   UNL A   1      32.685  23.841  23.657  1.00  0.00     0.064 A 
ATOM     12  C   UNL A   1      32.607  23.383  26.034  1.00  0.00     0.161 A 
ATOM     13  C   UNL A   1      33.089  25.155  23.924  1.00  0.00     0.048 A 
ATOM     14  C   UNL A   1      33.038  24.695  26.278  1.00  0.00     0.056 A 
ATOM     15  C   UNL A   1      33.110  25.628  25.238  1.00  0.00    -0.016 A 
ATOM     16  C   UNL A   1      33.523  26.047  22.810  1.00  0.00     0.254 C 
ATOM     17  N   UNL A   1      33.498  27.420  23.059  1.00  0.00    -0.333 N 
ATOM     18  O   UNL A   1      33.887  25.559  21.747  1.00  0.00    -0.269 OA
ATOM     19  C   UNL A   1      32.780  27.957  24.230  1.00  0.00     0.132 C 
ATOM     20  C   UNL A   1      33.924  28.329  22.010  1.00  0.00     0.147 C 
BRANCH  10  21
ATOM     21  O   UNL A   1      31.751  21.792  24.454  1.00  0.00    -0.493 OA
ATOM     22  C   UNL A   1      32.610  20.668  24.606  1.00  0.00     0.278 C 
ENDBRANCH  10  21
BRANCH  12  23
ATOM     23  O   UNL A   1      32.437  22.649  27.176  1.00  0.00    -0.493 OA
ATOM     24  C   UNL A   1      33.613  22.263  27.878  1.00  0.00     0.278 C 
ENDBRANCH  12  23
BRANCH  19  25
ATOM     25  C   UNL A   1      31.280  28.133  23.939  1.00  0.00    -0.023 A 
ATOM     26  C   UNL A   1      30.436  27.006  23.885  1.00  0.00     0.006 A 
ATOM     27  C   UNL A   1      30.686  29.390  23.710  1.00  0.00     0.026 A 
ATOM     28  C   UNL A   1      29.089  27.124  23.522  1.00  0.00     0.002 A 
ATOM     29  C   UNL A   1      29.338  29.506  23.366  1.00  0.00     0.041 A 
ATOM     30  C   UNL A   1      28.541  28.375  23.249  1.00  0.00     0.020 A 
ATOM     31  Cl  UNL A   1      28.670  31.063  23.071  1.00  0.00    -0.084 Cl
ENDBRANCH  19  25
ENDBRANCH   6   9
ENDBRANCH   4   5
ENDBRANCH   3   4
ENDBRANCH   2   3
ENDBRANCH   1   2
BRANCH   1  32
ATOM     32  C   UNL A   1      36.487  33.524  29.278  1.00  0.00     0.021 C 
BRANCH  32  33
ATOM     33  C   UNL A   1      36.782  33.159  30.730  1.00  0.00     0.116 C 
BRANCH  33  34
ATOM     34  N   UNL A   1      36.213  31.874  31.108  1.00  0.00    -0.352 N 
ATOM     35  C   UNL A   1      36.717  30.611  30.930  1.00  0.00     0.251 C 
ATOM     36  H   UNL A   1      35.337  31.920  31.556  1.00  0.00     0.163 HD
ATOM     37  O   UNL A   1      36.014  29.630  31.153  1.00  0.00    -0.269 OA
BRANCH  35  38
ATOM     38  C   UNL A   1      38.099  30.441  30.442  1.00  0.00     0.039 A 
ATOM     39  C   UNL A   1      39.135  30.340  31.373  1.00  0.00     0.014 A 
ATOM     40  C   UNL A   1      38.366  30.353  29.072  1.00  0.00     0.014 A 
ATOM     41  C   UNL A   1      40.431  30.068  30.933  1.00  0.00     0.010 A 
ATOM     42  C   UNL A   1      39.646  30.017  28.640  1.00  0.00     0.010 A 
ATOM     43  C   UNL A   1      40.687  29.858  29.568  1.00  0.00    -0.014 A 
BRANCH  43  44
ATOM     44  C   UNL A   1      42.024  29.417  29.096  1.00  0.00     0.031 A 
ATOM     45  C   UNL A   1      43.152  30.404  28.968  1.00  0.00     0.074 A 
ATOM     46  C   UNL A   1      42.196  28.137  28.708  1.00  0.00     0.049 A 
ATOM     47  N   UNL A   1      44.360  30.214  28.505  1.00  0.00    -0.248 NA
ATOM     48  C   UNL A   1      42.880  31.785  29.398  1.00  0.00     0.031 C 
ATOM     49  C   UNL A   1      41.167  27.095  28.750  1.00  0.00     0.029 A 
ATOM     50  N   UNL A   1      43.293  27.496  28.189  1.00  0.00    -0.354 N 
ATOM     51  C   UNL A   1      44.990  31.451  28.576  1.00  0.00     0.074 A 
ATOM     52  C   UNL A   1      44.016  32.393  29.085  1.00  0.00     0.031 C 
ATOM     53  C   UNL A   1      41.687  25.944  28.296  1.00  0.00     0.029 A 
ATOM     54  C   UNL A   1      43.068  26.174  27.884  1.00  0.00     0.049 A 
ATOM     55  H   UNL A   1      44.160  27.941  28.048  1.00  0.00     0.167 HD
ATOM     56  C   UNL A   1      46.268  31.771  28.257  1.00  0.00     0.031 A 
ATOM     57  C   UNL A   1      43.871  25.253  27.318  1.00  0.00     0.031 A 
ATOM     58  C   UNL A   1      47.230  30.828  27.748  1.00  0.00     0.049 A 
ATOM     59  C   UNL A   1      45.272  25.642  26.933  1.00  0.00     0.074 A 
ATOM     60  C   UNL A   1      48.565  31.039  27.453  1.00  0.00     0.029 A 
ATOM     61  N   UNL A   1      46.959  29.502  27.444  1.00  0.00    -0.354 N 
ATOM     62  N   UNL A   1      45.875  26.798  27.084  1.00  0.00    -0.248 NA
ATOM     63  C   UNL A   1      46.101  24.606  26.302  1.00  0.00     0.031 C 
ATOM     64  C   UNL A   1      49.085  29.861  26.910  1.00  0.00     0.029 A 
ATOM     65  C   UNL A   1      48.091  28.894  26.927  1.00  0.00     0.049 A 
ATOM     66  H   UNL A   1      46.090  29.058  27.578  1.00  0.00     0.167 HD
ATOM     67  C   UNL A   1      47.158  26.623  26.581  1.00  0.00     0.074 A 
ATOM     68  C   UNL A   1      47.252  25.245  26.142  1.00  0.00     0.031 C 
ATOM     69  C   UNL A   1      48.167  27.524  26.486  1.00  0.00     0.031 A 
BRANCH  56  70
ATOM     70  C   UNL A   1      46.698  33.203  28.435  1.00  0.00    -0.014 A 
ATOM     71  C   UNL A   1      47.278  33.645  29.637  1.00  0.00     0.010 A 
ATOM     72  C   UNL A   1      46.567  34.110  27.367  1.00  0.00     0.010 A 
ATOM     73  C   UNL A   1      47.682  34.974  29.783  1.00  0.00     0.020 A 
ATOM     74  C   UNL A   1      46.997  35.434  27.498  1.00  0.00     0.020 A 
ATOM     75  C   UNL A   1      47.538  35.861  28.712  1.00  0.00     0.054 A 
BRANCH  75  76
ATOM     76  S   UNL A   1      48.093  37.575  28.924  1.00  0.00     0.124 S 
ATOM     77  O   UNL A   1      47.150  38.304  28.079  1.00  0.00    -0.237 OA
ATOM     78  O   UNL A   1      47.941  37.785  30.361  1.00  0.00    -0.237 OA
ATOM     79  O   UNL A   1      49.473  37.555  28.441  1.00  0.00    -0.744 OA
ENDBRANCH  75  76
ENDBRANCH  56  70
BRANCH  57  80
ATOM     80  C   UNL A   1      43.364  23.874  27.074  1.00  0.00    -0.014 A 
ATOM     81  C   UNL A   1      43.321  22.933  28.117  1.00  0.00     0.010 A 
ATOM     82  C   UNL A   1      42.902  23.500  25.798  1.00  0.00     0.010 A 
ATOM     83  C   UNL A   1      42.838  21.641  27.888  1.00  0.00     0.020 A 
ATOM     84  C   UNL A   1      42.392  22.220  25.571  1.00  0.00     0.020 A 
ATOM     85  C   UNL A   1      42.371  21.295  26.616  1.00  0.00     0.054 A 
BRANCH  85  86
ATOM     86  S   UNL A   1      41.694  19.631  26.358  1.00  0.00     0.124 S 
ATOM     87  O   UNL A   1      42.425  19.186  25.175  1.00  0.00    -0.237 OA
ATOM     88  O   UNL A   1      42.037  18.954  27.605  1.00  0.00    -0.237 OA
ATOM     89  O   UNL A   1      40.266  19.870  26.161  1.00  0.00    -0.744 OA
ENDBRANCH  85  86
ENDBRANCH  57  80
BRANCH  69  90
ATOM     90  C   UNL A   1      49.468  27.053  25.891  1.00  0.00    -0.014 A 
ATOM     91  C   UNL A   1      49.783  27.312  24.545  1.00  0.00     0.010 A 
ATOM     92  C   UNL A   1      50.418  26.416  26.708  1.00  0.00     0.010 A 
ATOM     93  C   UNL A   1      51.021  26.929  24.024  1.00  0.00     0.020 A 
ATOM     94  C   UNL A   1      51.669  26.055  26.198  1.00  0.00     0.020 A 
ATOM     95  C   UNL A   1      51.959  26.308  24.856  1.00  0.00     0.054 A 
BRANCH  95  96
ATOM     96  S   UNL A   1      53.585  25.888  24.171  1.00  0.00     0.124 S 
ATOM     97  O   UNL A   1      53.817  24.559  24.729  1.00  0.00    -0.237 OA
ATOM     98  O   UNL A   1      53.346  25.933  22.731  1.00  0.00    -0.237 OA
ATOM     99  O   UNL A   1      54.461  26.940  24.684  1.00  0.00    -0.744 OA
ENDBRANCH  95  96
ENDBRANCH  69  90
ENDBRANCH  43  44
ENDBRANCH  35  38
ENDBRANCH  33  34
ENDBRANCH  32  33
ENDBRANCH   1  32
TORSDOF 19
ENDMDL
MODEL 2
REMARK VINA RESULT:     -11.4      5.864      8.094
REMARK SMILES COc1cc2c(cc1OC)[C@H](C(=O)NCCCCCCNC(=O)c1ccc(-c3c4nc(c(-c5ccc(S(=O)(=O)[O-])cc5)c5ccc([nH]5)c(-c5ccc(S(=O)(=O)[O-])cc5)c5nc(c(-c6ccc(S(=O)(=O)[O-])cc6)c6ccc3[nH]6)C=C5)C=C4)cc1)[C@H](c1cccc(Cl)c1)N(C)C2=O
REMARK SMILES IDX 18 1 17 2 16 3 15 4 14 5 12 6 13 7 11 9 3 10 4 11 8 12 5 13
REMARK SMILES IDX 7 14 6 15 94 16 92 17 95 18 84 19 93 20 2 21 1 22 9 23 10 24
REMARK SMILES IDX 85 25 86 26 91 27 87 28 89 29 88 30 90 31 19 32 20 33 21 34
REMARK SMILES IDX 22 35 23 37 24 38 25 39 83 40 26 41 82 42 27 43 28 44 29 45
REMARK SMILES IDX 76 46 30 47 81 48 75 49 77 50 31 51 80 52 74 53 73 54 32 56
REMARK SMILES IDX 62 57 43 58 61 59 44 60 47 61 60 62 78 63 45 64 46 65 59 67
REMARK SMILES IDX 79 68 48 69 33 70 34 71 42 72 35 73 41 74 36 75 37 76 38 77
REMARK SMILES IDX 39 78 40 79 63 80 64 81 72 82 65 83 71 84 66 85 67 86 68 87
REMARK SMILES IDX 69 88 70 89 49 90 50 91 58 92 51 93 57 94 52 95 53 96 54 97
REMARK SMILES IDX 55 98 56 99
REMARK H PARENT 14 8 21 36 77 55 47 66
REMARK Flexibility Score: inf
ROOT
ATOM      1  C   UNL A   1      34.471  33.255  28.011  1.00  0.00     0.002 C 
ENDROOT
BRANCH   1   2
ATOM      2  C   UNL A   1      34.272  31.798  28.432  1.00  0.00     0.002 C 
BRANCH   2   3
ATOM      3  C   UNL A   1      33.837  30.849  27.320  1.00  0.00     0.021 C 
BRANCH   3   4
ATOM      4  C   UNL A   1      34.141  29.378  27.573  1.00  0.00     0.116 C 
BRANCH   4   5
ATOM      5  N   UNL A   1      32.928  28.578  27.642  1.00  0.00    -0.355 N 
ATOM      6  C   UNL A   1      32.465  27.580  26.835  1.00  0.00     0.230 C 
ATOM      7  O   UNL A   1      31.440  26.997  27.210  1.00  0.00    -0.274 OA
ATOM      8  H   UNL A   1      32.340  28.792  28.402  1.00  0.00     0.163 HD
BRANCH   6   9
ATOM      9  C   UNL A   1      33.171  27.112  25.559  1.00  0.00     0.136 C 
ATOM     10  C   UNL A   1      32.474  22.988  24.593  1.00  0.00     0.161 A 
ATOM     11  C   UNL A   1      32.790  23.902  23.581  1.00  0.00     0.064 A 
ATOM     12  C   UNL A   1      32.653  23.343  25.933  1.00  0.00     0.161 A 
ATOM     13  C   UNL A   1      33.158  25.211  23.913  1.00  0.00     0.048 A 
ATOM     14  C   UNL A   1      33.049  24.651  26.244  1.00  0.00     0.056 A 
ATOM     15  C   UNL A   1      33.131  25.629  25.246  1.00  0.00    -0.016 A 
ATOM     16  C   UNL A   1      33.604  26.158  22.850  1.00  0.00     0.254 C 
ATOM     17  N   UNL A   1      33.543  27.518  23.156  1.00  0.00    -0.333 N 
ATOM     18  O   UNL A   1      34.009  25.722  21.780  1.00  0.00    -0.269 OA
ATOM     19  C   UNL A   1      32.780  27.991  24.326  1.00  0.00     0.132 C 
ATOM     20  C   UNL A   1      33.979  28.479  22.158  1.00  0.00     0.147 C 
BRANCH  10  21
ATOM     21  O   UNL A   1      31.876  21.802  24.264  1.00  0.00    -0.493 OA
ATOM     22  C   UNL A   1      32.142  21.407  22.923  1.00  0.00     0.278 C 
ENDBRANCH  10  21
BRANCH  12  23
ATOM     23  O   UNL A   1      32.466  22.557  27.038  1.00  0.00    -0.493 OA
ATOM     24  C   UNL A   1      33.627  22.190  27.775  1.00  0.00     0.278 C 
ENDBRANCH  12  23
BRANCH  19  25
ATOM     25  C   UNL A   1      31.286  28.149  23.998  1.00  0.00    -0.023 A 
ATOM     26  C   UNL A   1      30.461  27.010  23.908  1.00  0.00     0.006 A 
ATOM     27  C   UNL A   1      30.679  29.400  23.770  1.00  0.00     0.026 A 
ATOM     28  C   UNL A   1      29.121  27.113  23.511  1.00  0.00     0.002 A 
ATOM     29  C   UNL A   1      29.338  29.500  23.393  1.00  0.00     0.041 A 
ATOM     30  C   UNL A   1      28.562  28.360  23.240  1.00  0.00     0.020 A 
ATOM     31  Cl  UNL A   1      28.655  31.051  23.101  1.00  0.00    -0.084 Cl
ENDBRANCH  19  25
ENDBRANCH   6   9
ENDBRANCH   4   5
ENDBRANCH   3   4
ENDBRANCH   2   3
ENDBRANCH   1   2
BRANCH   1  32
ATOM     32  C   UNL A   1      33.256  34.168  28.193  1.00  0.00     0.021 C 
BRANCH  32  33
ATOM     33  C   UNL A   1      33.550  35.542  28.787  1.00  0.00     0.116 C 
BRANCH  33  34
ATOM     34  N   UNL A   1      32.778  35.806  29.991  1.00  0.00    -0.352 N 
ATOM     35  C   UNL A   1      32.936  35.304  31.257  1.00  0.00     0.251 C 
ATOM     36  H   UNL A   1      32.031  36.438  29.879  1.00  0.00     0.163 HD
ATOM     37  O   UNL A   1      32.078  35.503  32.111  1.00  0.00    -0.269 OA
BRANCH  35  38
ATOM     38  C   UNL A   1      34.132  34.499  31.576  1.00  0.00     0.039 A 
ATOM     39  C   UNL A   1      35.395  35.069  31.400  1.00  0.00     0.014 A 
ATOM     40  C   UNL A   1      34.005  33.199  32.074  1.00  0.00     0.014 A 
ATOM     41  C   UNL A   1      36.530  34.363  31.801  1.00  0.00     0.010 A 
ATOM     42  C   UNL A   1      35.132  32.524  32.534  1.00  0.00     0.010 A 
ATOM     43  C   UNL A   1      36.403  33.105  32.414  1.00  0.00    -0.014 A 
BRANCH  43  44
ATOM     44  C   UNL A   1      37.583  32.408  32.986  1.00  0.00     0.031 A 
ATOM     45  C   UNL A   1      38.179  32.863  34.289  1.00  0.00     0.074 A 
ATOM     46  C   UNL A   1      38.163  31.413  32.286  1.00  0.00     0.049 A 
ATOM     47  N   UNL A   1      39.248  32.423  34.901  1.00  0.00    -0.248 NA
ATOM     48  C   UNL A   1      37.497  33.966  34.986  1.00  0.00     0.031 C 
ATOM     49  C   UNL A   1      37.699  30.907  30.990  1.00  0.00     0.029 A 
ATOM     50  N   UNL A   1      39.276  30.656  32.554  1.00  0.00    -0.354 N 
ATOM     51  C   UNL A   1      39.375  33.201  36.046  1.00  0.00     0.074 A 
ATOM     52  C   UNL A   1      38.299  34.168  36.021  1.00  0.00     0.031 C 
ATOM     53  C   UNL A   1      38.508  29.914  30.590  1.00  0.00     0.029 A 
ATOM     54  C   UNL A   1      39.575  29.743  31.570  1.00  0.00     0.049 A 
ATOM     55  H   UNL A   1      39.810  30.757  33.375  1.00  0.00     0.167 HD
ATOM     56  C   UNL A   1      40.298  33.109  37.034  1.00  0.00     0.031 A 
ATOM     57  C   UNL A   1      40.602  28.880  31.455  1.00  0.00     0.031 A 
ATOM     58  C   UNL A   1      41.367  32.145  37.050  1.00  0.00     0.049 A 
ATOM     59  C   UNL A   1      41.638  28.826  32.544  1.00  0.00     0.074 A 
ATOM     60  C   UNL A   1      42.316  31.932  38.034  1.00  0.00     0.029 A 
ATOM     61  N   UNL A   1      41.641  31.246  36.029  1.00  0.00    -0.354 N 
ATOM     62  N   UNL A   1      41.694  29.514  33.659  1.00  0.00    -0.248 NA
ATOM     63  C   UNL A   1      42.748  27.880  32.361  1.00  0.00     0.031 C 
ATOM     64  C   UNL A   1      43.202  30.949  37.582  1.00  0.00     0.029 A 
ATOM     65  C   UNL A   1      42.768  30.504  36.342  1.00  0.00     0.049 A 
ATOM     66  H   UNL A   1      41.112  31.149  35.205  1.00  0.00     0.167 HD
ATOM     67  C   UNL A   1      42.836  29.074  34.318  1.00  0.00     0.074 A 
ATOM     68  C   UNL A   1      43.428  28.045  33.487  1.00  0.00     0.031 C 
ATOM     69  C   UNL A   1      43.351  29.488  35.501  1.00  0.00     0.031 A 
BRANCH  56  70
ATOM     70  C   UNL A   1      40.201  34.086  38.177  1.00  0.00    -0.014 A 
ATOM     71  C   UNL A   1      39.371  33.832  39.283  1.00  0.00     0.010 A 
ATOM     72  C   UNL A   1      40.991  35.250  38.168  1.00  0.00     0.010 A 
ATOM     73  C   UNL A   1      39.302  34.743  40.340  1.00  0.00     0.020 A 
ATOM     74  C   UNL A   1      40.946  36.151  39.238  1.00  0.00     0.020 A 
ATOM     75  C   UNL A   1      40.089  35.897  40.310  1.00  0.00     0.054 A 
BRANCH  75  76
ATOM     76  S   UNL A   1      39.994  37.049  41.709  1.00  0.00     0.124 S 
ATOM     77  O   UNL A   1      39.273  36.257  42.702  1.00  0.00    -0.237 OA
ATOM     78  O   UNL A   1      41.400  37.304  42.009  1.00  0.00    -0.237 OA
ATOM     79  O   UNL A   1      39.257  38.190  41.169  1.00  0.00    -0.744 OA
ENDBRANCH  75  76
ENDBRANCH  56  70
BRANCH  57  80
ATOM     80  C   UNL A   1      40.704  28.003  30.256  1.00  0.00    -0.014 A 
ATOM     81  C   UNL A   1      39.654  27.133  29.915  1.00  0.00     0.010 A 
ATOM     82  C   UNL A   1      41.847  28.048  29.435  1.00  0.00     0.010 A 
ATOM     83  C   UNL A   1      39.749  26.315  28.785  1.00  0.00     0.020 A 
ATOM     84  C   UNL A   1      41.934  27.254  28.288  1.00  0.00     0.020 A 
ATOM     85  C   UNL A   1      40.887  26.385  27.976  1.00  0.00     0.054 A 
BRANCH  85  86
ATOM     86  S   UNL A   1      40.961  25.358  26.482  1.00  0.00     0.124 S 
ATOM     87  O   UNL A   1      42.106  24.496  26.761  1.00  0.00    -0.237 OA
ATOM     88  O   UNL A   1      39.657  24.698  26.488  1.00  0.00    -0.237 OA
ATOM     89  O   UNL A   1      41.153  26.329  25.407  1.00  0.00    -0.744 OA
ENDBRANCH  85  86
ENDBRANCH  57  80
BRANCH  69  90
ATOM     90  C   UNL A   1      44.616  28.827  35.980  1.00  0.00    -0.014 A 
ATOM     91  C   UNL A   1      44.571  27.653  36.753  1.00  0.00     0.010 A 
ATOM     92  C   UNL A   1      45.864  29.340  35.585  1.00  0.00     0.010 A 
ATOM     93  C   UNL A   1      45.753  27.012  37.134  1.00  0.00     0.020 A 
ATOM     94  C   UNL A   1      47.048  28.688  35.940  1.00  0.00     0.020 A 
ATOM     95  C   UNL A   1      46.984  27.530  36.719  1.00  0.00     0.054 A 
BRANCH  95  96
ATOM     96  S   UNL A   1      48.498  26.637  37.166  1.00  0.00     0.124 S 
ATOM     97  O   UNL A   1      48.247  26.294  38.564  1.00  0.00    -0.237 OA
ATOM     98  O   UNL A   1      48.494  25.514  36.232  1.00  0.00    -0.237 OA
ATOM     99  O   UNL A   1      49.558  27.618  36.948  1.00  0.00    -0.744 OA
ENDBRANCH  95  96
ENDBRANCH  69  90
ENDBRANCH  43  44
ENDBRANCH  35  38
ENDBRANCH  33  34
ENDBRANCH  32  33
ENDBRANCH   1  32
TORSDOF 19
ENDMDL
MODEL 3
REMARK VINA RESULT:     -11.3      0.537      7.816
REMARK SMILES COc1cc2c(cc1OC)[C@H](C(=O)NCCCCCCNC(=O)c1ccc(-c3c4nc(c(-c5ccc(S(=O)(=O)[O-])cc5)c5ccc([nH]5)c(-c5ccc(S(=O)(=O)[O-])cc5)c5nc(c(-c6ccc(S(=O)(=O)[O-])cc6)c6ccc3[nH]6)C=C5)C=C4)cc1)[C@H](c1cccc(Cl)c1)N(C)C2=O
REMARK SMILES IDX 18 1 17 2 16 3 15 4 14 5 12 6 13 7 11 9 3 10 4 11 8 12 5 13
REMARK SMILES IDX 7 14 6 15 94 16 92 17 95 18 84 19 93 20 2 21 1 22 9 23 10 24
REMARK SMILES IDX 85 25 86 26 91 27 87 28 89 29 88 30 90 31 19 32 20 33 21 34
REMARK SMILES IDX 22 35 23 37 24 38 25 39 83 40 26 41 82 42 27 43 28 44 29 45
REMARK SMILES IDX 76 46 30 47 81 48 75 49 77 50 31 51 80 52 74 53 73 54 32 56
REMARK SMILES IDX 62 57 43 58 61 59 44 60 47 61 60 62 78 63 45 64 46 65 59 67
REMARK SMILES IDX 79 68 48 69 33 70 34 71 42 72 35 73 41 74 36 75 37 76 38 77
REMARK SMILES IDX 39 78 40 79 63 80 64 81 72 82 65 83 71 84 66 85 67 86 68 87
REMARK SMILES IDX 69 88 70 89 49 90 50 91 58 92 51 93 57 94 52 95 53 96 54 97
REMARK SMILES IDX 55 98 56 99
REMARK H PARENT 14 8 21 36 77 55 47 66
REMARK Flexibility Score: inf
ROOT
ATOM      1  C   UNL A   1      34.886  31.993  28.670  1.00  0.00     0.002 C 
ENDROOT
BRANCH   1   2
ATOM      2  C   UNL A   1      33.723  32.320  27.732  1.00  0.00     0.002 C 
BRANCH   2   3
ATOM      3  C   UNL A   1      33.023  31.114  27.113  1.00  0.00     0.021 C 
BRANCH   3   4
ATOM      4  C   UNL A   1      33.542  29.760  27.576  1.00  0.00     0.116 C 
BRANCH   4   5
ATOM      5  N   UNL A   1      32.473  28.781  27.697  1.00  0.00    -0.355 N 
ATOM      6  C   UNL A   1      32.183  27.673  26.955  1.00  0.00     0.230 C 
ATOM      7  O   UNL A   1      31.262  26.958  27.368  1.00  0.00    -0.274 OA
ATOM      8  H   UNL A   1      31.852  28.945  28.443  1.00  0.00     0.163 HD
BRANCH   6   9
ATOM      9  C   UNL A   1      32.965  27.246  25.710  1.00  0.00     0.136 C 
ATOM     10  C   UNL A   1      32.389  23.136  24.613  1.00  0.00     0.161 A 
ATOM     11  C   UNL A   1      32.745  24.078  23.641  1.00  0.00     0.064 A 
ATOM     12  C   UNL A   1      32.488  23.462  25.969  1.00  0.00     0.161 A 
ATOM     13  C   UNL A   1      33.073  25.384  24.023  1.00  0.00     0.048 A 
ATOM     14  C   UNL A   1      32.845  24.768  26.331  1.00  0.00     0.056 A 
ATOM     15  C   UNL A   1      32.966  25.771  25.362  1.00  0.00    -0.016 A 
ATOM     16  C   UNL A   1      33.561  26.363  23.008  1.00  0.00     0.254 C 
ATOM     17  N   UNL A   1      33.461  27.714  23.341  1.00  0.00    -0.333 N 
ATOM     18  O   UNL A   1      34.031  25.958  21.952  1.00  0.00    -0.269 OA
ATOM     19  C   UNL A   1      32.628  28.148  24.478  1.00  0.00     0.132 C 
ATOM     20  C   UNL A   1      33.936  28.704  22.391  1.00  0.00     0.147 C 
BRANCH  10  21
ATOM     21  O   UNL A   1      31.829  21.950  24.225  1.00  0.00    -0.493 OA
ATOM     22  C   UNL A   1      32.292  21.516  22.952  1.00  0.00     0.278 C 
ENDBRANCH  10  21
BRANCH  12  23
ATOM     23  O   UNL A   1      32.253  22.648  27.044  1.00  0.00    -0.493 OA
ATOM     24  C   UNL A   1      33.363  21.919  27.558  1.00  0.00     0.278 C 
ENDBRANCH  12  23
BRANCH  19  25
ATOM     25  C   UNL A   1      31.152  28.291  24.071  1.00  0.00    -0.023 A 
ATOM     26  C   UNL A   1      30.396  27.147  23.747  1.00  0.00     0.006 A 
ATOM     27  C   UNL A   1      30.495  29.536  23.996  1.00  0.00     0.026 A 
ATOM     28  C   UNL A   1      29.082  27.254  23.276  1.00  0.00     0.002 A 
ATOM     29  C   UNL A   1      29.178  29.637  23.544  1.00  0.00     0.041 A 
ATOM     30  C   UNL A   1      28.475  28.502  23.161  1.00  0.00     0.020 A 
ATOM     31  Cl  UNL A   1      28.432  31.183  23.446  1.00  0.00    -0.084 Cl
ENDBRANCH  19  25
ENDBRANCH   6   9
ENDBRANCH   4   5
ENDBRANCH   3   4
ENDBRANCH   2   3
ENDBRANCH   1   2
BRANCH   1  32
ATOM     32  C   UNL A   1      35.798  33.169  29.029  1.00  0.00     0.021 C 
BRANCH  32  33
ATOM     33  C   UNL A   1      36.516  33.057  30.371  1.00  0.00     0.116 C 
BRANCH  33  34
ATOM     34  N   UNL A   1      36.148  31.853  31.101  1.00  0.00    -0.352 N 
ATOM     35  C   UNL A   1      36.788  30.642  31.166  1.00  0.00     0.251 C 
ATOM     36  H   UNL A   1      35.316  31.919  31.624  1.00  0.00     0.163 HD
ATOM     37  O   UNL A   1      36.236  29.681  31.692  1.00  0.00    -0.269 OA
BRANCH  35  38
ATOM     38  C   UNL A   1      38.133  30.497  30.575  1.00  0.00     0.039 A 
ATOM     39  C   UNL A   1      39.237  30.407  31.425  1.00  0.00     0.014 A 
ATOM     40  C   UNL A   1      38.298  30.422  29.188  1.00  0.00     0.014 A 
ATOM     41  C   UNL A   1      40.501  30.159  30.888  1.00  0.00     0.010 A 
ATOM     42  C   UNL A   1      39.547  30.109  28.660  1.00  0.00     0.010 A 
ATOM     43  C   UNL A   1      40.657  29.961  29.505  1.00  0.00    -0.014 A 
BRANCH  43  44
ATOM     44  C   UNL A   1      41.962  29.544  28.932  1.00  0.00     0.031 A 
ATOM     45  C   UNL A   1      42.176  28.128  28.475  1.00  0.00     0.074 A 
ATOM     46  C   UNL A   1      42.979  30.429  28.900  1.00  0.00     0.049 A 
ATOM     47  N   UNL A   1      43.267  27.568  28.019  1.00  0.00    -0.248 NA
ATOM     48  C   UNL A   1      41.021  27.220  28.557  1.00  0.00     0.031 C 
ATOM     49  C   UNL A   1      42.905  31.822  29.350  1.00  0.00     0.029 A 
ATOM     50  N   UNL A   1      44.279  30.287  28.482  1.00  0.00    -0.354 N 
ATOM     51  C   UNL A   1      42.936  26.242  27.772  1.00  0.00     0.074 A 
ATOM     52  C   UNL A   1      41.555  26.070  28.169  1.00  0.00     0.031 C 
ATOM     53  C   UNL A   1      44.097  32.408  29.166  1.00  0.00     0.029 A 
ATOM     54  C   UNL A   1      45.035  31.426  28.633  1.00  0.00     0.049 A 
ATOM     55  H   UNL A   1      44.636  29.449  28.109  1.00  0.00     0.167 HD
ATOM     56  C   UNL A   1      43.709  25.259  27.250  1.00  0.00     0.031 A 
ATOM     57  C   UNL A   1      46.341  31.653  28.391  1.00  0.00     0.031 A 
ATOM     58  C   UNL A   1      45.083  25.438  26.860  1.00  0.00     0.049 A 
ATOM     59  C   UNL A   1      47.189  30.534  27.852  1.00  0.00     0.074 A 
ATOM     60  C   UNL A   1      45.933  24.522  26.265  1.00  0.00     0.029 A 
ATOM     61  N   UNL A   1      45.815  26.603  27.038  1.00  0.00    -0.354 N 
ATOM     62  N   UNL A   1      46.837  29.308  27.547  1.00  0.00    -0.248 NA
ATOM     63  C   UNL A   1      48.611  30.828  27.622  1.00  0.00     0.031 C 
ATOM     64  C   UNL A   1      47.195  25.111  26.143  1.00  0.00     0.029 A 
ATOM     65  C   UNL A   1      47.116  26.416  26.603  1.00  0.00     0.049 A 
ATOM     66  H   UNL A   1      45.460  27.440  27.418  1.00  0.00     0.167 HD
ATOM     67  C   UNL A   1      47.988  28.689  27.077  1.00  0.00     0.074 A 
ATOM     68  C   UNL A   1      49.043  29.681  27.116  1.00  0.00     0.031 C 
ATOM     69  C   UNL A   1      48.158  27.411  26.656  1.00  0.00     0.031 A 
BRANCH  56  70
ATOM     70  C   UNL A   1      43.092  23.895  27.082  1.00  0.00    -0.014 A 
ATOM     71  C   UNL A   1      43.024  22.990  28.155  1.00  0.00     0.010 A 
ATOM     72  C   UNL A   1      42.525  23.534  25.846  1.00  0.00     0.010 A 
ATOM     73  C   UNL A   1      42.437  21.733  27.986  1.00  0.00     0.020 A 
ATOM     74  C   UNL A   1      41.910  22.288  25.680  1.00  0.00     0.020 A 
ATOM     75  C   UNL A   1      41.885  21.390  26.748  1.00  0.00     0.054 A 
BRANCH  75  76
ATOM     76  S   UNL A   1      41.109  19.760  26.566  1.00  0.00     0.124 S 
ATOM     77  O   UNL A   1      42.149  19.008  25.867  1.00  0.00    -0.237 OA
ATOM     78  O   UNL A   1      40.871  19.363  27.951  1.00  0.00    -0.237 OA
ATOM     79  O   UNL A   1      39.907  20.033  25.782  1.00  0.00    -0.744 OA
ENDBRANCH  75  76
ENDBRANCH  56  70
BRANCH  57  80
ATOM     80  C   UNL A   1      46.925  32.994  28.666  1.00  0.00    -0.014 A 
ATOM     81  C   UNL A   1      47.000  33.964  27.651  1.00  0.00     0.010 A 
ATOM     82  C   UNL A   1      47.393  33.317  29.954  1.00  0.00     0.010 A 
ATOM     83  C   UNL A   1      47.543  35.225  27.914  1.00  0.00     0.020 A 
ATOM     84  C   UNL A   1      47.910  34.585  30.229  1.00  0.00     0.020 A 
ATOM     85  C   UNL A   1      47.990  35.529  29.204  1.00  0.00     0.054 A 
BRANCH  85  86
ATOM     86  S   UNL A   1      48.635  37.192  29.535  1.00  0.00     0.124 S 
ATOM     87  O   UNL A   1      49.168  37.049  30.886  1.00  0.00    -0.237 OA
ATOM     88  O   UNL A   1      49.629  37.361  28.477  1.00  0.00    -0.237 OA
ATOM     89  O   UNL A   1      47.457  38.048  29.412  1.00  0.00    -0.744 OA
ENDBRANCH  85  86
ENDBRANCH  57  80
BRANCH  69  90
ATOM     90  C   UNL A   1      49.533  27.008  26.194  1.00  0.00    -0.014 A 
ATOM     91  C   UNL A   1      50.363  26.211  27.003  1.00  0.00     0.010 A 
ATOM     92  C   UNL A   1      49.967  27.361  24.903  1.00  0.00     0.010 A 
ATOM     93  C   UNL A   1      51.610  25.788  26.535  1.00  0.00     0.020 A 
ATOM     94  C   UNL A   1      51.202  26.917  24.421  1.00  0.00     0.020 A 
ATOM     95  C   UNL A   1      52.018  26.138  25.243  1.00  0.00     0.054 A 
BRANCH  95  96
ATOM     96  S   UNL A   1      53.609  25.513  24.636  1.00  0.00     0.124 S 
ATOM     97  O   UNL A   1      54.547  26.495  25.172  1.00  0.00    -0.237 OA
ATOM     98  O   UNL A   1      53.680  24.183  25.235  1.00  0.00    -0.237 OA
ATOM     99  O   UNL A   1      53.456  25.528  23.182  1.00  0.00    -0.744 OA
ENDBRANCH  95  96
ENDBRANCH  69  90
ENDBRANCH  43  44
ENDBRANCH  35  38
ENDBRANCH  33  34
ENDBRANCH  32  33
ENDBRANCH   1  32
TORSDOF 19
ENDMDL
