MODEL 1
REMARK VINA RESULT:     -10.9      0.000      0.000
REMARK SMILES O=C(NCCCCCCNC(=O)c1ccc(-c2ccc(Cl)c3ccccc23)o1)c1ccc(-c2c3nc(c(-c4ccc(S(=O)(=O)[O-])cc4)c4ccc([nH]4)c(-c4ccc(S(=O)(=O)[O-])cc4)c4nc(c(-c5ccc(S(=O)(=O)[O-])cc5)c5ccc2[nH]5)C=C4)C=C3)cc1
REMARK SMILES IDX 5 1 4 2 3 3 1 4 2 5 29 7 30 8 88 9 31 10 87 11 32 12 33 13
REMARK SMILES IDX 34 14 81 15 35 16 86 17 80 18 82 19 36 20 85 21 79 22 78 23
REMARK SMILES IDX 37 25 67 26 48 27 66 28 49 29 52 30 65 31 83 32 50 33 51 34
REMARK SMILES IDX 64 36 84 37 53 38 38 39 39 40 47 41 40 42 46 43 41 44 42 45
REMARK SMILES IDX 43 46 44 47 45 48 68 49 69 50 77 51 70 52 76 53 71 54 72 55
REMARK SMILES IDX 73 56 74 57 75 58 54 59 55 60 63 61 56 62 62 63 57 64 58 65
REMARK SMILES IDX 59 66 60 67 61 68 6 69 7 70 8 71 9 72 10 73 11 74 12 76
REMARK SMILES IDX 13 77 14 78 28 79 15 80 16 81 17 82 18 83 27 84 19 85 22 86
REMARK SMILES IDX 26 87 20 88 23 89 25 90 21 91 24 92
REMARK H PARENT 3 6 82 24 52 35 10 75
REMARK Flexibility Score: inf
ROOT
ATOM      1  C   UNL A   1      34.596  32.367  28.425  1.00  0.00     0.021 C 
ENDROOT
BRANCH   1   2
ATOM      2  C   UNL A   1      35.814  31.587  28.907  1.00  0.00     0.116 C 
BRANCH   2   3
ATOM      3  N   UNL A   1      35.705  31.187  30.299  1.00  0.00    -0.352 N 
ATOM      4  O   UNL A   1      36.262  30.077  32.182  1.00  0.00    -0.269 OA
ATOM      5  C   UNL A   1      36.590  30.466  31.065  1.00  0.00     0.251 C 
ATOM      6  H   UNL A   1      34.882  31.472  30.759  1.00  0.00     0.163 HD
BRANCH   5   7
ATOM      7  C   UNL A   1      37.930  30.142  30.527  1.00  0.00     0.039 A 
ATOM      8  C   UNL A   1      38.202  30.270  29.162  1.00  0.00     0.014 A 
ATOM      9  C   UNL A   1      38.931  29.713  31.403  1.00  0.00     0.014 A 
ATOM     10  C   UNL A   1      39.425  29.844  28.658  1.00  0.00     0.010 A 
ATOM     11  C   UNL A   1      40.189  29.363  30.903  1.00  0.00     0.010 A 
ATOM     12  C   UNL A   1      40.439  29.401  29.523  1.00  0.00    -0.014 A 
BRANCH  12  13
ATOM     13  C   UNL A   1      41.774  29.061  28.967  1.00  0.00     0.031 A 
ATOM     14  C   UNL A   1      42.878  30.079  28.897  1.00  0.00     0.074 A 
ATOM     15  C   UNL A   1      41.986  27.800  28.535  1.00  0.00     0.049 A 
ATOM     16  N   UNL A   1      44.103  29.930  28.461  1.00  0.00    -0.248 NA
ATOM     17  C   UNL A   1      42.571  31.438  29.369  1.00  0.00     0.031 C 
ATOM     18  C   UNL A   1      40.985  26.729  28.540  1.00  0.00     0.029 A 
ATOM     19  N   UNL A   1      43.109  27.203  28.026  1.00  0.00    -0.354 N 
ATOM     20  C   UNL A   1      44.708  31.175  28.585  1.00  0.00     0.074 A 
ATOM     21  C   UNL A   1      43.708  32.075  29.120  1.00  0.00     0.031 C 
ATOM     22  C   UNL A   1      41.551  25.597  28.099  1.00  0.00     0.029 A 
ATOM     23  C   UNL A   1      42.932  25.874  27.722  1.00  0.00     0.049 A 
ATOM     24  H   UNL A   1      43.961  27.678  27.892  1.00  0.00     0.167 HD
ATOM     25  C   UNL A   1      45.979  31.534  28.281  1.00  0.00     0.031 A 
ATOM     26  C   UNL A   1      43.777  24.976  27.183  1.00  0.00     0.031 A 
ATOM     27  C   UNL A   1      46.969  30.632  27.749  1.00  0.00     0.049 A 
ATOM     28  C   UNL A   1      45.174  25.403  26.840  1.00  0.00     0.074 A 
ATOM     29  C   UNL A   1      48.295  30.892  27.446  1.00  0.00     0.029 A 
ATOM     30  N   UNL A   1      46.742  29.301  27.430  1.00  0.00    -0.354 N 
ATOM     31  N   UNL A   1      45.737  26.576  27.004  1.00  0.00    -0.248 NA
ATOM     32  C   UNL A   1      46.049  24.386  26.244  1.00  0.00     0.031 C 
ATOM     33  C   UNL A   1      48.855  29.734  26.896  1.00  0.00     0.029 A 
ATOM     34  C   UNL A   1      47.895  28.735  26.911  1.00  0.00     0.049 A 
ATOM     35  H   UNL A   1      45.888  28.828  27.556  1.00  0.00     0.167 HD
ATOM     36  C   UNL A   1      47.039  26.436  26.542  1.00  0.00     0.074 A 
ATOM     37  C   UNL A   1      47.185  25.059  26.113  1.00  0.00     0.031 C 
ATOM     38  C   UNL A   1      48.023  27.366  26.477  1.00  0.00     0.031 A 
BRANCH  25  39
ATOM     39  C   UNL A   1      46.373  32.973  28.492  1.00  0.00    -0.014 A 
ATOM     40  C   UNL A   1      46.885  33.419  29.722  1.00  0.00     0.010 A 
ATOM     41  C   UNL A   1      46.284  33.882  27.420  1.00  0.00     0.010 A 
ATOM     42  C   UNL A   1      47.269  34.753  29.889  1.00  0.00     0.020 A 
ATOM     43  C   UNL A   1      46.689  35.211  27.575  1.00  0.00     0.020 A 
ATOM     44  C   UNL A   1      47.164  35.642  28.814  1.00  0.00     0.054 A 
BRANCH  44  45
ATOM     45  S   UNL A   1      47.690  37.362  29.053  1.00  0.00     0.124 S 
ATOM     46  O   UNL A   1      46.412  38.045  29.231  1.00  0.00    -0.237 OA
ATOM     47  O   UNL A   1      48.527  37.279  30.247  1.00  0.00    -0.237 OA
ATOM     48  O   UNL A   1      48.402  37.683  27.818  1.00  0.00    -0.744 OA
ENDBRANCH  44  45
ENDBRANCH  25  39
BRANCH  26  49
ATOM     49  C   UNL A   1      43.304  23.589  26.924  1.00  0.00    -0.014 A 
ATOM     50  C   UNL A   1      43.066  23.145  25.613  1.00  0.00     0.010 A 
ATOM     51  C   UNL A   1      43.134  22.691  27.995  1.00  0.00     0.010 A 
ATOM     52  C   UNL A   1      42.660  21.829  25.377  1.00  0.00     0.020 A 
ATOM     53  C   UNL A   1      42.757  21.367  27.761  1.00  0.00     0.020 A 
ATOM     54  C   UNL A   1      42.514  20.947  26.453  1.00  0.00     0.054 A 
BRANCH  54  55
ATOM     55  S   UNL A   1      42.057  19.223  26.118  1.00  0.00     0.124 S 
ATOM     56  O   UNL A   1      42.961  18.877  25.027  1.00  0.00    -0.237 OA
ATOM     57  O   UNL A   1      42.325  18.569  27.397  1.00  0.00    -0.237 OA
ATOM     58  O   UNL A   1      40.643  19.310  25.758  1.00  0.00    -0.744 OA
ENDBRANCH  54  55
ENDBRANCH  26  49
BRANCH  38  59
ATOM     59  C   UNL A   1      49.356  26.918  25.940  1.00  0.00    -0.014 A 
ATOM     60  C   UNL A   1      49.709  27.136  24.597  1.00  0.00     0.010 A 
ATOM     61  C   UNL A   1      50.281  26.303  26.803  1.00  0.00     0.010 A 
ATOM     62  C   UNL A   1      50.954  26.720  24.119  1.00  0.00     0.020 A 
ATOM     63  C   UNL A   1      51.536  25.910  26.335  1.00  0.00     0.020 A 
ATOM     64  C   UNL A   1      51.859  26.106  24.991  1.00  0.00     0.054 A 
BRANCH  64  65
ATOM     65  S   UNL A   1      53.483  25.607  24.356  1.00  0.00     0.124 S 
ATOM     66  O   UNL A   1      53.498  24.177  24.654  1.00  0.00    -0.237 OA
ATOM     67  O   UNL A   1      53.396  25.953  22.939  1.00  0.00    -0.237 OA
ATOM     68  O   UNL A   1      54.421  26.415  25.132  1.00  0.00    -0.744 OA
ENDBRANCH  64  65
ENDBRANCH  38  59
ENDBRANCH  12  13
ENDBRANCH   5   7
ENDBRANCH   2   3
ENDBRANCH   1   2
BRANCH   1  69
ATOM     69  C   UNL A   1      34.327  33.672  29.175  1.00  0.00     0.002 C 
BRANCH  69  70
ATOM     70  C   UNL A   1      34.778  34.950  28.458  1.00  0.00     0.002 C 
BRANCH  70  71
ATOM     71  C   UNL A   1      33.846  36.156  28.608  1.00  0.00     0.021 C 
BRANCH  71  72
ATOM     72  C   UNL A   1      32.903  36.096  29.809  1.00  0.00     0.116 C 
BRANCH  72  73
ATOM     73  N   UNL A   1      33.238  37.099  30.804  1.00  0.00    -0.349 N 
ATOM     74  C   UNL A   1      33.679  36.911  32.094  1.00  0.00     0.287 C 
ATOM     75  H   UNL A   1      33.135  38.035  30.520  1.00  0.00     0.163 HD
ATOM     76  O   UNL A   1      33.678  37.886  32.849  1.00  0.00    -0.266 OA
BRANCH  74  77
ATOM     77  C   UNL A   1      34.129  35.594  32.483  1.00  0.00     0.192 A 
ATOM     78  C   UNL A   1      33.438  34.462  32.876  1.00  0.00     0.057 A 
ATOM     79  O   UNL A   1      35.473  35.331  32.485  1.00  0.00    -0.451 OA
ATOM     80  C   UNL A   1      34.406  33.478  33.175  1.00  0.00     0.052 A 
ATOM     81  C   UNL A   1      35.636  34.057  32.940  1.00  0.00     0.135 A 
BRANCH  81  82
ATOM     82  C   UNL A   1      37.003  33.556  33.037  1.00  0.00     0.025 A 
ATOM     83  C   UNL A   1      37.392  33.032  34.280  1.00  0.00     0.014 A 
ATOM     84  C   UNL A   1      37.944  33.637  31.967  1.00  0.00    -0.006 A 
ATOM     85  C   UNL A   1      38.691  32.589  34.488  1.00  0.00     0.022 A 
ATOM     86  C   UNL A   1      39.281  33.193  32.186  1.00  0.00     0.001 A 
ATOM     87  C   UNL A   1      37.623  34.162  30.689  1.00  0.00     0.009 A 
ATOM     88  C   UNL A   1      39.626  32.672  33.459  1.00  0.00     0.048 A 
ATOM     89  C   UNL A   1      40.214  33.303  31.126  1.00  0.00     0.010 A 
ATOM     90  C   UNL A   1      38.565  34.250  29.662  1.00  0.00     0.001 A 
ATOM     91  Cl  UNL A   1      41.227  32.114  33.830  1.00  0.00    -0.084 Cl
ATOM     92  C   UNL A   1      39.863  33.823  29.881  1.00  0.00     0.001 A 
ENDBRANCH  81  82
ENDBRANCH  74  77
ENDBRANCH  72  73
ENDBRANCH  71  72
ENDBRANCH  70  71
ENDBRANCH  69  70
ENDBRANCH   1  69
TORSDOF 17
ENDMDL
MODEL 2
REMARK VINA RESULT:     -10.3      5.625      7.984
REMARK SMILES O=C(NCCCCCCNC(=O)c1ccc(-c2ccc(Cl)c3ccccc23)o1)c1ccc(-c2c3nc(c(-c4ccc(S(=O)(=O)[O-])cc4)c4ccc([nH]4)c(-c4ccc(S(=O)(=O)[O-])cc4)c4nc(c(-c5ccc(S(=O)(=O)[O-])cc5)c5ccc2[nH]5)C=C4)C=C3)cc1
REMARK SMILES IDX 5 1 4 2 3 3 1 4 2 5 29 7 30 8 88 9 31 10 87 11 32 12 33 13
REMARK SMILES IDX 34 14 81 15 35 16 86 17 80 18 82 19 36 20 85 21 79 22 78 23
REMARK SMILES IDX 37 25 67 26 48 27 66 28 49 29 52 30 65 31 83 32 50 33 51 34
REMARK SMILES IDX 64 36 84 37 53 38 38 39 39 40 47 41 40 42 46 43 41 44 42 45
REMARK SMILES IDX 43 46 44 47 45 48 68 49 69 50 77 51 70 52 76 53 71 54 72 55
REMARK SMILES IDX 73 56 74 57 75 58 54 59 55 60 63 61 56 62 62 63 57 64 58 65
REMARK SMILES IDX 59 66 60 67 61 68 6 69 7 70 8 71 9 72 10 73 11 74 12 76
REMARK SMILES IDX 13 77 14 78 28 79 15 80 16 81 17 82 18 83 27 84 19 85 22 86
REMARK SMILES IDX 26 87 20 88 23 89 25 90 21 91 24 92
REMARK H PARENT 3 6 82 24 52 35 10 75
REMARK Flexibility Score: inf
ROOT
ATOM      1  C   UNL A   1      33.182  27.537  25.524  1.00  0.00     0.021 C 
ENDROOT
BRANCH   1   2
ATOM      2  C   UNL A   1      33.742  28.024  26.855  1.00  0.00     0.116 C 
BRANCH   2   3
ATOM      3  N   UNL A   1      33.419  29.415  27.121  1.00  0.00    -0.352 N 
ATOM      4  O   UNL A   1      33.675  31.459  28.039  1.00  0.00    -0.269 OA
ATOM      5  C   UNL A   1      34.173  30.373  27.755  1.00  0.00     0.251 C 
ATOM      6  H   UNL A   1      32.536  29.713  26.804  1.00  0.00     0.163 HD
BRANCH   5   7
ATOM      7  C   UNL A   1      35.579  30.082  28.113  1.00  0.00     0.039 A 
ATOM      8  C   UNL A   1      36.598  30.208  27.165  1.00  0.00     0.014 A 
ATOM      9  C   UNL A   1      35.882  29.686  29.419  1.00  0.00     0.014 A 
ATOM     10  C   UNL A   1      37.892  29.813  27.484  1.00  0.00     0.010 A 
ATOM     11  C   UNL A   1      37.200  29.367  29.760  1.00  0.00     0.010 A 
ATOM     12  C   UNL A   1      38.212  29.403  28.789  1.00  0.00    -0.014 A 
BRANCH  12  13
ATOM     13  C   UNL A   1      39.625  29.095  29.129  1.00  0.00     0.031 A 
ATOM     14  C   UNL A   1      40.496  30.092  29.842  1.00  0.00     0.074 A 
ATOM     15  C   UNL A   1      40.115  27.883  28.798  1.00  0.00     0.049 A 
ATOM     16  N   UNL A   1      41.740  29.965  30.229  1.00  0.00    -0.248 NA
ATOM     17  C   UNL A   1      39.901  31.400  30.157  1.00  0.00     0.031 C 
ATOM     18  C   UNL A   1      39.368  26.838  28.091  1.00  0.00     0.029 A 
ATOM     19  N   UNL A   1      41.343  27.318  29.022  1.00  0.00    -0.354 N 
ATOM     20  C   UNL A   1      42.085  31.177  30.813  1.00  0.00     0.074 A 
ATOM     21  C   UNL A   1      40.925  32.036  30.712  1.00  0.00     0.031 C 
ATOM     22  C   UNL A   1      40.138  25.746  27.980  1.00  0.00     0.029 A 
ATOM     23  C   UNL A   1      41.451  26.032  28.548  1.00  0.00     0.049 A 
ATOM     24  H   UNL A   1      42.078  27.788  29.479  1.00  0.00     0.167 HD
ATOM     25  C   UNL A   1      43.262  31.539  31.380  1.00  0.00     0.031 A 
ATOM     26  C   UNL A   1      42.490  25.178  28.551  1.00  0.00     0.031 A 
ATOM     27  C   UNL A   1      44.413  30.678  31.476  1.00  0.00     0.049 A 
ATOM     28  C   UNL A   1      43.786  25.610  29.171  1.00  0.00     0.074 A 
ATOM     29  C   UNL A   1      45.637  30.941  32.069  1.00  0.00     0.029 A 
ATOM     30  N   UNL A   1      44.490  29.392  30.961  1.00  0.00    -0.354 N 
ATOM     31  N   UNL A   1      44.078  26.748  29.754  1.00  0.00    -0.248 NA
ATOM     32  C   UNL A   1      44.891  24.644  29.136  1.00  0.00     0.031 C 
ATOM     33  C   UNL A   1      46.470  29.835  31.865  1.00  0.00     0.029 A 
ATOM     34  C   UNL A   1      45.746  28.860  31.198  1.00  0.00     0.049 A 
ATOM     35  H   UNL A   1      43.757  28.926  30.495  1.00  0.00     0.167 HD
ATOM     36  C   UNL A   1      45.399  26.631  30.168  1.00  0.00     0.074 A 
ATOM     37  C   UNL A   1      45.840  25.303  29.787  1.00  0.00     0.031 C 
ATOM     38  C   UNL A   1      46.176  27.542  30.803  1.00  0.00     0.031 A 
BRANCH  25  39
ATOM     39  C   UNL A   1      43.379  32.940  31.923  1.00  0.00    -0.014 A 
ATOM     40  C   UNL A   1      43.087  33.231  33.267  1.00  0.00     0.010 A 
ATOM     41  C   UNL A   1      43.846  33.972  31.087  1.00  0.00     0.010 A 
ATOM     42  C   UNL A   1      43.226  34.533  33.756  1.00  0.00     0.020 A 
ATOM     43  C   UNL A   1      44.010  35.271  31.579  1.00  0.00     0.020 A 
ATOM     44  C   UNL A   1      43.684  35.546  32.908  1.00  0.00     0.054 A 
BRANCH  44  45
ATOM     45  S   UNL A   1      43.877  37.221  33.576  1.00  0.00     0.124 S 
ATOM     46  O   UNL A   1      42.654  37.375  34.360  1.00  0.00    -0.237 OA
ATOM     47  O   UNL A   1      45.109  37.117  34.353  1.00  0.00    -0.237 OA
ATOM     48  O   UNL A   1      43.963  38.064  32.386  1.00  0.00    -0.744 OA
ENDBRANCH  44  45
ENDBRANCH  25  39
BRANCH  26  49
ATOM     49  C   UNL A   1      42.337  23.836  27.928  1.00  0.00    -0.014 A 
ATOM     50  C   UNL A   1      42.827  23.586  26.635  1.00  0.00     0.010 A 
ATOM     51  C   UNL A   1      41.737  22.788  28.650  1.00  0.00     0.010 A 
ATOM     52  C   UNL A   1      42.714  22.311  26.074  1.00  0.00     0.020 A 
ATOM     53  C   UNL A   1      41.649  21.506  28.103  1.00  0.00     0.020 A 
ATOM     54  C   UNL A   1      42.130  21.278  26.814  1.00  0.00     0.054 A 
BRANCH  54  55
ATOM     55  S   UNL A   1      42.059  19.614  26.093  1.00  0.00     0.124 S 
ATOM     56  O   UNL A   1      40.646  19.491  25.756  1.00  0.00    -0.237 OA
ATOM     57  O   UNL A   1      42.976  19.720  24.960  1.00  0.00    -0.237 OA
ATOM     58  O   UNL A   1      42.523  18.753  27.179  1.00  0.00    -0.744 OA
ENDBRANCH  54  55
ENDBRANCH  26  49
BRANCH  38  59
ATOM     59  C   UNL A   1      47.580  27.125  31.148  1.00  0.00    -0.014 A 
ATOM     60  C   UNL A   1      48.666  27.482  30.329  1.00  0.00     0.010 A 
ATOM     61  C   UNL A   1      47.819  26.397  32.328  1.00  0.00     0.010 A 
ATOM     62  C   UNL A   1      49.964  27.092  30.669  1.00  0.00     0.020 A 
ATOM     63  C   UNL A   1      49.118  26.029  32.684  1.00  0.00     0.020 A 
ATOM     64  C   UNL A   1      50.181  26.365  31.844  1.00  0.00     0.054 A 
BRANCH  64  65
ATOM     65  S   UNL A   1      51.878  25.901  32.283  1.00  0.00     0.124 S 
ATOM     66  O   UNL A   1      52.331  27.075  33.025  1.00  0.00    -0.237 OA
ATOM     67  O   UNL A   1      51.687  24.690  33.078  1.00  0.00    -0.237 OA
ATOM     68  O   UNL A   1      52.525  25.694  30.990  1.00  0.00    -0.744 OA
ENDBRANCH  64  65
ENDBRANCH  38  59
ENDBRANCH  12  13
ENDBRANCH   5   7
ENDBRANCH   2   3
ENDBRANCH   1   2
BRANCH   1  69
ATOM     69  C   UNL A   1      34.010  27.918  24.296  1.00  0.00     0.002 C 
BRANCH  69  70
ATOM     70  C   UNL A   1      33.375  28.962  23.370  1.00  0.00     0.002 C 
BRANCH  70  71
ATOM     71  C   UNL A   1      31.935  29.359  23.711  1.00  0.00     0.021 C 
BRANCH  71  72
ATOM     72  C   UNL A   1      30.870  28.786  22.775  1.00  0.00     0.116 C 
BRANCH  72  73
ATOM     73  N   UNL A   1      29.999  27.851  23.464  1.00  0.00    -0.349 N 
ATOM     74  C   UNL A   1      30.034  26.476  23.445  1.00  0.00     0.287 C 
ATOM     75  H   UNL A   1      29.290  28.253  24.015  1.00  0.00     0.163 HD
ATOM     76  O   UNL A   1      29.063  25.870  23.903  1.00  0.00    -0.266 OA
BRANCH  74  77
ATOM     77  C   UNL A   1      31.205  25.825  22.905  1.00  0.00     0.192 A 
ATOM     78  C   UNL A   1      31.738  25.794  21.628  1.00  0.00     0.057 A 
ATOM     79  O   UNL A   1      31.993  25.084  23.745  1.00  0.00    -0.451 OA
ATOM     80  C   UNL A   1      32.877  24.960  21.682  1.00  0.00     0.052 A 
ATOM     81  C   UNL A   1      32.986  24.533  22.990  1.00  0.00     0.135 A 
BRANCH  81  82
ATOM     82  C   UNL A   1      33.953  23.687  23.680  1.00  0.00     0.025 A 
ATOM     83  C   UNL A   1      35.168  24.289  24.041  1.00  0.00     0.014 A 
ATOM     84  C   UNL A   1      33.739  22.299  23.935  1.00  0.00    -0.006 A 
ATOM     85  C   UNL A   1      36.176  23.549  24.645  1.00  0.00     0.022 A 
ATOM     86  C   UNL A   1      34.778  21.538  24.543  1.00  0.00     0.001 A 
ATOM     87  C   UNL A   1      32.540  21.623  23.589  1.00  0.00     0.009 A 
ATOM     88  C   UNL A   1      35.988  22.191  24.889  1.00  0.00     0.048 A 
ATOM     89  C   UNL A   1      34.564  20.155  24.767  1.00  0.00     0.010 A 
ATOM     90  C   UNL A   1      32.357  20.259  23.829  1.00  0.00     0.001 A 
ATOM     91  Cl  UNL A   1      37.317  21.353  25.627  1.00  0.00    -0.084 Cl
ATOM     92  C   UNL A   1      33.372  19.523  24.416  1.00  0.00     0.001 A 
ENDBRANCH  81  82
ENDBRANCH  74  77
ENDBRANCH  72  73
ENDBRANCH  71  72
ENDBRANCH  70  71
ENDBRANCH  69  70
ENDBRANCH   1  69
TORSDOF 17
ENDMDL
MODEL 3
REMARK VINA RESULT:     -10.2      0.634      8.133
REMARK SMILES O=C(NCCCCCCNC(=O)c1ccc(-c2ccc(Cl)c3ccccc23)o1)c1ccc(-c2c3nc(c(-c4ccc(S(=O)(=O)[O-])cc4)c4ccc([nH]4)c(-c4ccc(S(=O)(=O)[O-])cc4)c4nc(c(-c5ccc(S(=O)(=O)[O-])cc5)c5ccc2[nH]5)C=C4)C=C3)cc1
REMARK SMILES IDX 5 1 4 2 3 3 1 4 2 5 29 7 30 8 88 9 31 10 87 11 32 12 33 13
REMARK SMILES IDX 34 14 81 15 35 16 86 17 80 18 82 19 36 20 85 21 79 22 78 23
REMARK SMILES IDX 37 25 67 26 48 27 66 28 49 29 52 30 65 31 83 32 50 33 51 34
REMARK SMILES IDX 64 36 84 37 53 38 38 39 39 40 47 41 40 42 46 43 41 44 42 45
REMARK SMILES IDX 43 46 44 47 45 48 68 49 69 50 77 51 70 52 76 53 71 54 72 55
REMARK SMILES IDX 73 56 74 57 75 58 54 59 55 60 63 61 56 62 62 63 57 64 58 65
REMARK SMILES IDX 59 66 60 67 61 68 6 69 7 70 8 71 9 72 10 73 11 74 12 76
REMARK SMILES IDX 13 77 14 78 28 79 15 80 16 81 17 82 18 83 27 84 19 85 22 86
REMARK SMILES IDX 26 87 20 88 23 89 25 90 21 91 24 92
REMARK H PARENT 3 6 82 24 52 35 10 75
REMARK Flexibility Score: inf
ROOT
ATOM      1  C   UNL A   1      36.018  33.234  28.500  1.00  0.00     0.021 C 
ENDROOT
BRANCH   1   2
ATOM      2  C   UNL A   1      35.749  31.770  28.827  1.00  0.00     0.116 C 
BRANCH   2   3
ATOM      3  N   UNL A   1      35.670  31.524  30.257  1.00  0.00    -0.352 N 
ATOM      4  O   UNL A   1      36.272  30.633  32.239  1.00  0.00    -0.269 OA
ATOM      5  C   UNL A   1      36.576  30.901  31.080  1.00  0.00     0.251 C 
ATOM      6  H   UNL A   1      34.851  31.848  30.698  1.00  0.00     0.163 HD
BRANCH   5   7
ATOM      7  C   UNL A   1      37.911  30.535  30.557  1.00  0.00     0.039 A 
ATOM      8  C   UNL A   1      38.152  30.492  29.181  1.00  0.00     0.014 A 
ATOM      9  C   UNL A   1      38.939  30.239  31.457  1.00  0.00     0.014 A 
ATOM     10  C   UNL A   1      39.372  30.028  28.706  1.00  0.00     0.010 A 
ATOM     11  C   UNL A   1      40.193  29.850  30.975  1.00  0.00     0.010 A 
ATOM     12  C   UNL A   1      40.413  29.717  29.597  1.00  0.00    -0.014 A 
BRANCH  12  13
ATOM     13  C   UNL A   1      41.742  29.332  29.057  1.00  0.00     0.031 A 
ATOM     14  C   UNL A   1      42.008  27.944  28.541  1.00  0.00     0.074 A 
ATOM     15  C   UNL A   1      42.716  30.265  29.021  1.00  0.00     0.049 A 
ATOM     16  N   UNL A   1      43.106  27.460  28.018  1.00  0.00    -0.248 NA
ATOM     17  C   UNL A   1      40.907  26.972  28.627  1.00  0.00     0.031 C 
ATOM     18  C   UNL A   1      42.580  31.641  29.507  1.00  0.00     0.029 A 
ATOM     19  N   UNL A   1      43.999  30.207  28.545  1.00  0.00    -0.354 N 
ATOM     20  C   UNL A   1      42.839  26.127  27.731  1.00  0.00     0.074 A 
ATOM     21  C   UNL A   1      41.479  25.872  28.157  1.00  0.00     0.031 C 
ATOM     22  C   UNL A   1      43.717  32.308  29.263  1.00  0.00     0.029 A 
ATOM     23  C   UNL A   1      44.683  31.394  28.664  1.00  0.00     0.049 A 
ATOM     24  H   UNL A   1      44.394  29.394  28.155  1.00  0.00     0.167 HD
ATOM     25  C   UNL A   1      43.653  25.203  27.165  1.00  0.00     0.031 A 
ATOM     26  C   UNL A   1      45.950  31.714  28.345  1.00  0.00     0.031 A 
ATOM     27  C   UNL A   1      45.006  25.465  26.745  1.00  0.00     0.049 A 
ATOM     28  C   UNL A   1      46.835  30.667  27.735  1.00  0.00     0.074 A 
ATOM     29  C   UNL A   1      45.896  24.604  26.125  1.00  0.00     0.029 A 
ATOM     30  N   UNL A   1      45.669  26.673  26.907  1.00  0.00    -0.354 N 
ATOM     31  N   UNL A   1      46.548  29.424  27.436  1.00  0.00    -0.248 NA
ATOM     32  C   UNL A   1      48.211  31.068  27.418  1.00  0.00     0.031 C 
ATOM     33  C   UNL A   1      47.113  25.275  25.961  1.00  0.00     0.029 A 
ATOM     34  C   UNL A   1      46.964  26.571  26.424  1.00  0.00     0.049 A 
ATOM     35  H   UNL A   1      45.277  27.483  27.306  1.00  0.00     0.167 HD
ATOM     36  C   UNL A   1      47.706  28.893  26.882  1.00  0.00     0.074 A 
ATOM     37  C   UNL A   1      48.689  29.959  26.869  1.00  0.00     0.031 C 
ATOM     38  C   UNL A   1      47.935  27.636  26.428  1.00  0.00     0.031 A 
BRANCH  25  39
ATOM     39  C   UNL A   1      43.114  23.806  26.988  1.00  0.00    -0.014 A 
ATOM     40  C   UNL A   1      42.503  23.405  25.788  1.00  0.00     0.010 A 
ATOM     41  C   UNL A   1      43.277  22.863  28.020  1.00  0.00     0.010 A 
ATOM     42  C   UNL A   1      42.033  22.097  25.635  1.00  0.00     0.020 A 
ATOM     43  C   UNL A   1      42.830  21.547  27.863  1.00  0.00     0.020 A 
ATOM     44  C   UNL A   1      42.197  21.177  26.675  1.00  0.00     0.054 A 
BRANCH  44  45
ATOM     45  S   UNL A   1      41.597  19.481  26.440  1.00  0.00     0.124 S 
ATOM     46  O   UNL A   1      40.181  19.699  26.159  1.00  0.00    -0.237 OA
ATOM     47  O   UNL A   1      42.394  19.013  25.309  1.00  0.00    -0.237 OA
ATOM     48  O   UNL A   1      41.886  18.829  27.715  1.00  0.00    -0.744 OA
ENDBRANCH  44  45
ENDBRANCH  25  39
BRANCH  26  49
ATOM     49  C   UNL A   1      46.448  33.089  28.619  1.00  0.00    -0.014 A 
ATOM     50  C   UNL A   1      46.189  34.137  27.721  1.00  0.00     0.010 A 
ATOM     51  C   UNL A   1      47.148  33.361  29.809  1.00  0.00     0.010 A 
ATOM     52  C   UNL A   1      46.626  35.434  28.006  1.00  0.00     0.020 A 
ATOM     53  C   UNL A   1      47.561  34.661  30.111  1.00  0.00     0.020 A 
ATOM     54  C   UNL A   1      47.305  35.688  29.202  1.00  0.00     0.054 A 
BRANCH  54  55
ATOM     55  S   UNL A   1      47.800  37.391  29.585  1.00  0.00     0.124 S 
ATOM     56  O   UNL A   1      49.240  37.253  29.768  1.00  0.00    -0.237 OA
ATOM     57  O   UNL A   1      47.379  38.120  28.390  1.00  0.00    -0.237 OA
ATOM     58  O   UNL A   1      47.039  37.703  30.793  1.00  0.00    -0.744 OA
ENDBRANCH  54  55
ENDBRANCH  26  49
BRANCH  38  59
ATOM     59  C   UNL A   1      49.297  27.351  25.857  1.00  0.00    -0.014 A 
ATOM     60  C   UNL A   1      50.364  26.958  26.685  1.00  0.00     0.010 A 
ATOM     61  C   UNL A   1      49.502  27.440  24.468  1.00  0.00     0.010 A 
ATOM     62  C   UNL A   1      51.621  26.690  26.136  1.00  0.00     0.020 A 
ATOM     63  C   UNL A   1      50.749  27.147  23.913  1.00  0.00     0.020 A 
ATOM     64  C   UNL A   1      51.806  26.789  24.753  1.00  0.00     0.054 A 
BRANCH  64  65
ATOM     65  S   UNL A   1      53.436  26.400  24.059  1.00  0.00     0.124 S 
ATOM     66  O   UNL A   1      54.121  27.686  24.156  1.00  0.00    -0.237 OA
ATOM     67  O   UNL A   1      53.928  25.357  24.956  1.00  0.00    -0.237 OA
ATOM     68  O   UNL A   1      53.136  25.955  22.700  1.00  0.00    -0.744 OA
ENDBRANCH  64  65
ENDBRANCH  38  59
ENDBRANCH  12  13
ENDBRANCH   5   7
ENDBRANCH   2   3
ENDBRANCH   1   2
BRANCH   1  69
ATOM     69  C   UNL A   1      35.117  34.235  29.224  1.00  0.00     0.002 C 
BRANCH  69  70
ATOM     70  C   UNL A   1      34.023  34.878  28.364  1.00  0.00     0.002 C 
BRANCH  70  71
ATOM     71  C   UNL A   1      33.612  36.297  28.771  1.00  0.00     0.021 C 
BRANCH  71  72
ATOM     72  C   UNL A   1      32.756  36.384  30.034  1.00  0.00     0.116 C 
BRANCH  72  73
ATOM     73  N   UNL A   1      33.258  37.389  30.954  1.00  0.00    -0.349 N 
ATOM     74  C   UNL A   1      33.830  37.207  32.191  1.00  0.00     0.287 C 
ATOM     75  H   UNL A   1      33.178  38.322  30.652  1.00  0.00     0.163 HD
ATOM     76  O   UNL A   1      33.969  38.199  32.911  1.00  0.00    -0.266 OA
BRANCH  74  77
ATOM     77  C   UNL A   1      34.244  35.876  32.570  1.00  0.00     0.192 A 
ATOM     78  C   UNL A   1      33.540  34.692  32.697  1.00  0.00     0.057 A 
ATOM     79  O   UNL A   1      35.562  35.657  32.869  1.00  0.00    -0.451 OA
ATOM     80  C   UNL A   1      34.461  33.716  33.138  1.00  0.00     0.052 A 
ATOM     81  C   UNL A   1      35.681  34.352  33.248  1.00  0.00     0.135 A 
BRANCH  81  82
ATOM     82  C   UNL A   1      37.012  33.888  33.624  1.00  0.00     0.025 A 
ATOM     83  C   UNL A   1      37.194  33.535  34.971  1.00  0.00     0.014 A 
ATOM     84  C   UNL A   1      38.112  33.844  32.717  1.00  0.00    -0.006 A 
ATOM     85  C   UNL A   1      38.441  33.142  35.439  1.00  0.00     0.022 A 
ATOM     86  C   UNL A   1      39.394  33.452  33.202  1.00  0.00     0.001 A 
ATOM     87  C   UNL A   1      38.003  34.195  31.347  1.00  0.00     0.009 A 
ATOM     88  C   UNL A   1      39.528  33.106  34.570  1.00  0.00     0.048 A 
ATOM     89  C   UNL A   1      40.485  33.437  32.298  1.00  0.00     0.010 A 
ATOM     90  C   UNL A   1      39.097  34.163  30.479  1.00  0.00     0.001 A 
ATOM     91  Cl  UNL A   1      41.046  32.623  35.259  1.00  0.00    -0.084 Cl
ATOM     92  C   UNL A   1      40.340  33.788  30.956  1.00  0.00     0.001 A 
ENDBRANCH  81  82
ENDBRANCH  74  77
ENDBRANCH  72  73
ENDBRANCH  71  72
ENDBRANCH  70  71
ENDBRANCH  69  70
ENDBRANCH   1  69
TORSDOF 17
ENDMDL
