MODEL 1
REMARK VINA RESULT:     -10.6      0.000      0.000
REMARK SMILES C[C@H]1[C@@H](C)CCC[C@H]1NC(=O)N[C@@](C)(C(=O)NCCCCCCNC(=O)c1ccc(-c2c3nc(c(-c4ccc(S(=O)(=O)[O-])cc4)c4ccc([nH]4)c(-c4ccc(S(=O)(=O)[O-])cc4)c4nc(c(-c5ccc(S(=O)(=O)[O-])cc5)c5ccc2[nH]5)C=C4)C=C3)cc1)C(F)(F)F
REMARK SMILES IDX 21 1 20 2 19 3 18 4 17 5 15 6 16 7 13 9 14 10 12 11 9 12
REMARK SMILES IDX 10 13 11 15 8 17 1 18 2 19 3 20 5 21 4 22 7 23 6 24 87 25
REMARK SMILES IDX 88 26 89 27 90 28 22 29 23 30 24 31 25 32 26 34 27 35 28 36
REMARK SMILES IDX 86 37 29 38 85 39 30 40 31 41 32 42 79 43 33 44 84 45 78 46
REMARK SMILES IDX 80 47 34 48 83 49 77 50 76 51 35 53 65 54 46 55 64 56 47 57
REMARK SMILES IDX 50 58 63 59 81 60 48 61 49 62 62 64 82 65 51 66 36 67 37 68
REMARK SMILES IDX 45 69 38 70 44 71 39 72 40 73 41 74 42 75 43 76 66 77 67 78
REMARK SMILES IDX 75 79 68 80 74 81 69 82 70 83 71 84 72 85 73 86 52 87 53 88
REMARK SMILES IDX 61 89 54 90 60 91 55 92 56 93 57 94 58 95 59 96
REMARK H PARENT 17 8 9 14 12 16 24 33 80 52 50 63
REMARK Flexibility Score: inf
ROOT
ATOM      1  C   UNL A   1      39.031  22.855  26.140  1.00  0.00     0.002 C 
ENDROOT
BRANCH   1   2
ATOM      2  C   UNL A   1      37.607  23.376  25.925  1.00  0.00     0.002 C 
BRANCH   2   3
ATOM      3  C   UNL A   1      37.055  23.185  24.506  1.00  0.00     0.021 C 
BRANCH   3   4
ATOM      4  C   UNL A   1      35.928  22.162  24.397  1.00  0.00     0.116 C 
BRANCH   4   5
ATOM      5  N   UNL A   1      35.498  21.744  25.715  1.00  0.00    -0.354 N 
ATOM      6  C   UNL A   1      34.319  21.348  26.249  1.00  0.00     0.255 C 
ATOM      7  O   UNL A   1      34.323  21.299  27.484  1.00  0.00    -0.272 OA
ATOM      8  H   UNL A   1      36.231  21.750  26.374  1.00  0.00     0.163 HD
BRANCH   6   9
ATOM      9  C   UNL A   1      33.049  21.111  25.411  1.00  0.00     0.213 C 
ATOM     10  C   UNL A   1      33.147  21.637  23.966  1.00  0.00     0.056 C 
BRANCH   9  11
ATOM     11  N   UNL A   1      32.008  21.919  26.149  1.00  0.00    -0.316 N 
ATOM     12  N   UNL A   1      31.934  24.287  25.972  1.00  0.00    -0.335 N 
ATOM     13  C   UNL A   1      31.551  23.118  26.462  1.00  0.00     0.316 C 
ATOM     14  H   UNL A   1      31.438  25.047  26.355  1.00  0.00     0.165 HD
ATOM     15  O   UNL A   1      30.648  23.137  27.306  1.00  0.00    -0.249 OA
ATOM     16  H   UNL A   1      31.412  21.270  26.588  1.00  0.00     0.166 HD
BRANCH  12  17
ATOM     17  C   UNL A   1      32.919  24.687  25.001  1.00  0.00     0.087 C 
ATOM     18  C   UNL A   1      31.233  24.771  23.042  1.00  0.00     0.010 C 
ATOM     19  C   UNL A   1      32.383  25.466  23.780  1.00  0.00     0.011 C 
ATOM     20  C   UNL A   1      32.100  26.952  24.076  1.00  0.00    -0.009 C 
ATOM     21  C   UNL A   1      33.355  27.589  24.698  1.00  0.00     0.004 C 
ATOM     22  C   UNL A   1      30.836  27.215  24.902  1.00  0.00     0.008 C 
ATOM     23  C   UNL A   1      34.092  25.383  25.691  1.00  0.00     0.025 C 
ATOM     24  C   UNL A   1      33.841  26.865  25.949  1.00  0.00     0.002 C 
ENDBRANCH  12  17
ENDBRANCH   9  11
BRANCH   9  25
ATOM     25  C   UNL A   1      33.043  19.569  25.273  1.00  0.00     0.420 C 
ATOM     26  F   UNL A   1      34.242  19.016  25.004  1.00  0.00    -0.168 F 
ATOM     27  F   UNL A   1      32.559  18.978  26.402  1.00  0.00    -0.168 F 
ATOM     28  F   UNL A   1      32.193  19.166  24.289  1.00  0.00    -0.168 F 
ENDBRANCH   9  25
ENDBRANCH   6   9
ENDBRANCH   4   5
ENDBRANCH   3   4
ENDBRANCH   2   3
ENDBRANCH   1   2
BRANCH   1  29
ATOM     29  C   UNL A   1      39.224  21.375  25.816  1.00  0.00     0.021 C 
BRANCH  29  30
ATOM     30  C   UNL A   1      40.005  20.607  26.872  1.00  0.00     0.116 C 
BRANCH  30  31
ATOM     31  N   UNL A   1      40.984  19.715  26.276  1.00  0.00    -0.352 N 
ATOM     32  C   UNL A   1      42.232  20.019  25.792  1.00  0.00     0.251 C 
ATOM     33  H   UNL A   1      40.717  18.769  26.212  1.00  0.00     0.163 HD
ATOM     34  O   UNL A   1      42.855  19.206  25.127  1.00  0.00    -0.269 OA
BRANCH  32  35
ATOM     35  C   UNL A   1      42.793  21.358  26.072  1.00  0.00     0.039 A 
ATOM     36  C   UNL A   1      42.863  22.292  25.039  1.00  0.00     0.014 A 
ATOM     37  C   UNL A   1      43.218  21.691  27.363  1.00  0.00     0.014 A 
ATOM     38  C   UNL A   1      43.320  23.581  25.312  1.00  0.00     0.010 A 
ATOM     39  C   UNL A   1      43.589  22.999  27.649  1.00  0.00     0.010 A 
ATOM     40  C   UNL A   1      43.659  23.953  26.624  1.00  0.00    -0.014 A 
BRANCH  40  41
ATOM     41  C   UNL A   1      44.108  25.332  26.940  1.00  0.00     0.031 A 
ATOM     42  C   UNL A   1      45.539  25.728  26.695  1.00  0.00     0.074 A 
ATOM     43  C   UNL A   1      43.247  26.205  27.495  1.00  0.00     0.049 A 
ATOM     44  N   UNL A   1      46.134  26.864  26.950  1.00  0.00    -0.248 NA
ATOM     45  C   UNL A   1      46.425  24.706  26.110  1.00  0.00     0.031 C 
ATOM     46  C   UNL A   1      41.844  25.926  27.815  1.00  0.00     0.029 A 
ATOM     47  N   UNL A   1      43.423  27.507  27.892  1.00  0.00    -0.354 N 
ATOM     48  C   UNL A   1      47.460  26.690  26.571  1.00  0.00     0.074 A 
ATOM     49  C   UNL A   1      47.598  25.322  26.125  1.00  0.00     0.031 C 
ATOM     50  C   UNL A   1      41.281  27.032  28.329  1.00  0.00     0.029 A 
ATOM     51  C   UNL A   1      42.290  28.083  28.419  1.00  0.00     0.049 A 
ATOM     52  H   UNL A   1      44.280  27.983  27.808  1.00  0.00     0.167 HD
ATOM     53  C   UNL A   1      48.469  27.594  26.574  1.00  0.00     0.031 A 
ATOM     54  C   UNL A   1      42.089  29.314  28.925  1.00  0.00     0.031 A 
ATOM     55  C   UNL A   1      48.324  28.955  27.013  1.00  0.00     0.049 A 
ATOM     56  C   UNL A   1      43.231  30.294  28.938  1.00  0.00     0.074 A 
ATOM     57  C   UNL A   1      49.271  29.965  27.008  1.00  0.00     0.029 A 
ATOM     58  N   UNL A   1      47.162  29.499  27.539  1.00  0.00    -0.354 N 
ATOM     59  N   UNL A   1      44.463  30.130  28.515  1.00  0.00    -0.248 NA
ATOM     60  C   UNL A   1      42.954  31.628  29.487  1.00  0.00     0.031 C 
ATOM     61  C   UNL A   1      48.699  31.101  27.589  1.00  0.00     0.029 A 
ATOM     62  C   UNL A   1      47.375  30.822  27.888  1.00  0.00     0.049 A 
ATOM     63  H   UNL A   1      46.311  29.017  27.647  1.00  0.00     0.167 HD
ATOM     64  C   UNL A   1      45.097  31.351  28.718  1.00  0.00     0.074 A 
ATOM     65  C   UNL A   1      44.111  32.246  29.287  1.00  0.00     0.031 C 
ATOM     66  C   UNL A   1      46.381  31.700  28.455  1.00  0.00     0.031 A 
BRANCH  53  67
ATOM     67  C   UNL A   1      49.821  27.132  26.095  1.00  0.00    -0.014 A 
ATOM     68  C   UNL A   1      50.223  27.315  24.759  1.00  0.00     0.010 A 
ATOM     69  C   UNL A   1      50.720  26.542  27.003  1.00  0.00     0.010 A 
ATOM     70  C   UNL A   1      51.480  26.879  24.330  1.00  0.00     0.020 A 
ATOM     71  C   UNL A   1      51.990  26.134  26.585  1.00  0.00     0.020 A 
ATOM     72  C   UNL A   1      52.356  26.290  25.248  1.00  0.00     0.054 A 
BRANCH  72  73
ATOM     73  S   UNL A   1      53.990  25.758  24.668  1.00  0.00     0.124 S 
ATOM     74  O   UNL A   1      53.942  24.319  24.914  1.00  0.00    -0.237 OA
ATOM     75  O   UNL A   1      53.974  26.155  23.263  1.00  0.00    -0.237 OA
ATOM     76  O   UNL A   1      54.919  26.503  25.514  1.00  0.00    -0.744 OA
ENDBRANCH  72  73
ENDBRANCH  53  67
BRANCH  54  77
ATOM     77  C   UNL A   1      40.747  29.693  29.451  1.00  0.00    -0.014 A 
ATOM     78  C   UNL A   1      39.690  29.989  28.572  1.00  0.00     0.010 A 
ATOM     79  C   UNL A   1      40.519  29.752  30.838  1.00  0.00     0.010 A 
ATOM     80  C   UNL A   1      38.436  30.355  29.070  1.00  0.00     0.020 A 
ATOM     81  C   UNL A   1      39.258  30.088  31.340  1.00  0.00     0.020 A 
ATOM     82  C   UNL A   1      38.227  30.399  30.451  1.00  0.00     0.054 A 
BRANCH  82  83
ATOM     83  S   UNL A   1      36.579  30.832  31.073  1.00  0.00     0.124 S 
ATOM     84  O   UNL A   1      36.163  29.592  31.722  1.00  0.00    -0.237 OA
ATOM     85  O   UNL A   1      36.864  31.951  31.966  1.00  0.00    -0.237 OA
ATOM     86  O   UNL A   1      35.839  31.183  29.862  1.00  0.00    -0.744 OA
ENDBRANCH  82  83
ENDBRANCH  54  77
BRANCH  66  87
ATOM     87  C   UNL A   1      46.788  33.122  28.740  1.00  0.00    -0.014 A 
ATOM     88  C   UNL A   1      46.627  34.137  27.780  1.00  0.00     0.010 A 
ATOM     89  C   UNL A   1      47.288  33.455  30.013  1.00  0.00     0.010 A 
ATOM     90  C   UNL A   1      46.988  35.453  28.079  1.00  0.00     0.020 A 
ATOM     91  C   UNL A   1      47.619  34.776  30.326  1.00  0.00     0.020 A 
ATOM     92  C   UNL A   1      47.481  35.765  29.350  1.00  0.00     0.054 A 
BRANCH  92  93
ATOM     93  S   UNL A   1      47.898  37.489  29.726  1.00  0.00     0.124 S 
ATOM     94  O   UNL A   1      49.305  37.551  29.340  1.00  0.00    -0.237 OA
ATOM     95  O   UNL A   1      46.978  38.234  28.869  1.00  0.00    -0.237 OA
ATOM     96  O   UNL A   1      47.639  37.606  31.158  1.00  0.00    -0.744 OA
ENDBRANCH  92  93
ENDBRANCH  66  87
ENDBRANCH  40  41
ENDBRANCH  32  35
ENDBRANCH  30  31
ENDBRANCH  29  30
ENDBRANCH   1  29
TORSDOF 19
ENDMDL
MODEL 2
REMARK VINA RESULT:     -10.5      6.481     11.877
REMARK SMILES C[C@H]1[C@@H](C)CCC[C@H]1NC(=O)N[C@@](C)(C(=O)NCCCCCCNC(=O)c1ccc(-c2c3nc(c(-c4ccc(S(=O)(=O)[O-])cc4)c4ccc([nH]4)c(-c4ccc(S(=O)(=O)[O-])cc4)c4nc(c(-c5ccc(S(=O)(=O)[O-])cc5)c5ccc2[nH]5)C=C4)C=C3)cc1)C(F)(F)F
REMARK SMILES IDX 21 1 20 2 19 3 18 4 17 5 15 6 16 7 13 9 14 10 12 11 9 12
REMARK SMILES IDX 10 13 11 15 8 17 1 18 2 19 3 20 5 21 4 22 7 23 6 24 87 25
REMARK SMILES IDX 88 26 89 27 90 28 22 29 23 30 24 31 25 32 26 34 27 35 28 36
REMARK SMILES IDX 86 37 29 38 85 39 30 40 31 41 32 42 79 43 33 44 84 45 78 46
REMARK SMILES IDX 80 47 34 48 83 49 77 50 76 51 35 53 65 54 46 55 64 56 47 57
REMARK SMILES IDX 50 58 63 59 81 60 48 61 49 62 62 64 82 65 51 66 36 67 37 68
REMARK SMILES IDX 45 69 38 70 44 71 39 72 40 73 41 74 42 75 43 76 66 77 67 78
REMARK SMILES IDX 75 79 68 80 74 81 69 82 70 83 71 84 72 85 73 86 52 87 53 88
REMARK SMILES IDX 61 89 54 90 60 91 55 92 56 93 57 94 58 95 59 96
REMARK H PARENT 17 8 9 14 12 16 24 33 80 52 50 63
REMARK Flexibility Score: inf
ROOT
ATOM      1  C   UNL A   1      34.432  31.077  27.702  1.00  0.00     0.002 C 
ENDROOT
BRANCH   1   2
ATOM      2  C   UNL A   1      33.931  29.683  27.312  1.00  0.00     0.002 C 
BRANCH   2   3
ATOM      3  C   UNL A   1      32.406  29.519  27.317  1.00  0.00     0.021 C 
BRANCH   3   4
ATOM      4  C   UNL A   1      31.842  28.792  26.099  1.00  0.00     0.116 C 
BRANCH   4   5
ATOM      5  N   UNL A   1      32.576  29.165  24.907  1.00  0.00    -0.354 N 
ATOM      6  C   UNL A   1      32.450  28.886  23.589  1.00  0.00     0.255 C 
ATOM      7  O   UNL A   1      33.432  29.217  22.914  1.00  0.00    -0.272 OA
ATOM      8  H   UNL A   1      33.342  29.754  25.101  1.00  0.00     0.163 HD
BRANCH   6   9
ATOM      9  C   UNL A   1      31.259  28.109  22.998  1.00  0.00     0.213 C 
ATOM     10  C   UNL A   1      30.447  27.322  24.045  1.00  0.00     0.056 C 
BRANCH   9  11
ATOM     11  N   UNL A   1      31.931  27.126  22.070  1.00  0.00    -0.316 N 
ATOM     12  N   UNL A   1      33.132  25.258  22.914  1.00  0.00    -0.335 N 
ATOM     13  C   UNL A   1      32.702  26.059  21.952  1.00  0.00     0.316 C 
ATOM     14  H   UNL A   1      33.691  24.518  22.580  1.00  0.00     0.165 HD
ATOM     15  O   UNL A   1      33.047  25.779  20.799  1.00  0.00    -0.249 OA
ATOM     16  H   UNL A   1      31.691  27.398  21.155  1.00  0.00     0.166 HD
BRANCH  12  17
ATOM     17  C   UNL A   1      32.960  25.234  24.344  1.00  0.00     0.087 C 
ATOM     18  C   UNL A   1      30.968  23.585  24.268  1.00  0.00     0.010 C 
ATOM     19  C   UNL A   1      32.303  23.960  24.921  1.00  0.00     0.011 C 
ATOM     20  C   UNL A   1      33.275  22.768  25.037  1.00  0.00    -0.009 C 
ATOM     21  C   UNL A   1      34.525  23.212  25.817  1.00  0.00     0.004 C 
ATOM     22  C   UNL A   1      33.621  22.087  23.709  1.00  0.00     0.008 C 
ATOM     23  C   UNL A   1      34.267  25.605  25.042  1.00  0.00     0.025 C 
ATOM     24  C   UNL A   1      35.218  24.425  25.203  1.00  0.00     0.002 C 
ENDBRANCH  12  17
ENDBRANCH   9  11
BRANCH   9  25
ATOM     25  C   UNL A   1      30.323  29.258  22.549  1.00  0.00     0.420 C 
ATOM     26  F   UNL A   1      30.052  30.177  23.496  1.00  0.00    -0.168 F 
ATOM     27  F   UNL A   1      30.835  29.913  21.470  1.00  0.00    -0.168 F 
ATOM     28  F   UNL A   1      29.125  28.775  22.116  1.00  0.00    -0.168 F 
ENDBRANCH   9  25
ENDBRANCH   6   9
ENDBRANCH   4   5
ENDBRANCH   3   4
ENDBRANCH   2   3
ENDBRANCH   1   2
BRANCH   1  29
ATOM     29  C   UNL A   1      33.353  32.158  27.731  1.00  0.00     0.021 C 
BRANCH  29  30
ATOM     30  C   UNL A   1      33.899  33.577  27.753  1.00  0.00     0.116 C 
BRANCH  30  31
ATOM     31  N   UNL A   1      33.130  34.437  28.635  1.00  0.00    -0.352 N 
ATOM     32  C   UNL A   1      33.282  34.627  29.986  1.00  0.00     0.251 C 
ATOM     33  H   UNL A   1      32.405  34.951  28.209  1.00  0.00     0.163 HD
ATOM     34  O   UNL A   1      32.428  35.216  30.631  1.00  0.00    -0.269 OA
BRANCH  32  35
ATOM     35  C   UNL A   1      34.489  34.085  30.646  1.00  0.00     0.039 A 
ATOM     36  C   UNL A   1      34.401  32.867  31.321  1.00  0.00     0.014 A 
ATOM     37  C   UNL A   1      35.707  34.768  30.566  1.00  0.00     0.014 A 
ATOM     38  C   UNL A   1      35.551  32.311  31.880  1.00  0.00     0.010 A 
ATOM     39  C   UNL A   1      36.865  34.170  31.048  1.00  0.00     0.010 A 
ATOM     40  C   UNL A   1      36.797  32.943  31.723  1.00  0.00    -0.014 A 
BRANCH  40  41
ATOM     41  C   UNL A   1      38.037  32.345  32.276  1.00  0.00     0.031 A 
ATOM     42  C   UNL A   1      38.456  32.661  33.687  1.00  0.00     0.074 A 
ATOM     43  C   UNL A   1      38.810  31.566  31.496  1.00  0.00     0.049 A 
ATOM     44  N   UNL A   1      39.526  32.277  34.333  1.00  0.00    -0.248 NA
ATOM     45  C   UNL A   1      37.569  33.542  34.466  1.00  0.00     0.031 C 
ATOM     46  C   UNL A   1      38.528  31.218  30.100  1.00  0.00     0.029 A 
ATOM     47  N   UNL A   1      39.994  30.925  31.763  1.00  0.00    -0.354 N 
ATOM     48  C   UNL A   1      39.449  32.880  35.584  1.00  0.00     0.074 A 
ATOM     49  C   UNL A   1      38.259  33.701  35.586  1.00  0.00     0.031 C 
ATOM     50  C   UNL A   1      39.494  30.403  29.646  1.00  0.00     0.029 A 
ATOM     51  C   UNL A   1      40.487  30.208  30.698  1.00  0.00     0.049 A 
ATOM     52  H   UNL A   1      40.447  30.975  32.635  1.00  0.00     0.167 HD
ATOM     53  C   UNL A   1      40.282  32.745  36.642  1.00  0.00     0.031 A 
ATOM     54  C   UNL A   1      41.615  29.482  30.579  1.00  0.00     0.031 A 
ATOM     55  C   UNL A   1      41.461  31.922  36.636  1.00  0.00     0.049 A 
ATOM     56  C   UNL A   1      42.537  29.366  31.763  1.00  0.00     0.074 A 
ATOM     57  C   UNL A   1      42.344  31.678  37.673  1.00  0.00     0.029 A 
ATOM     58  N   UNL A   1      41.926  31.212  35.539  1.00  0.00    -0.354 N 
ATOM     59  N   UNL A   1      42.413  29.891  32.959  1.00  0.00    -0.248 NA
ATOM     60  C   UNL A   1      43.745  28.550  31.585  1.00  0.00     0.031 C 
ATOM     61  C   UNL A   1      43.376  30.870  37.185  1.00  0.00     0.029 A 
ATOM     62  C   UNL A   1      43.098  30.552  35.865  1.00  0.00     0.049 A 
ATOM     63  H   UNL A   1      41.487  31.181  34.659  1.00  0.00     0.167 HD
ATOM     64  C   UNL A   1      43.511  29.443  33.685  1.00  0.00     0.074 A 
ATOM     65  C   UNL A   1      44.278  28.592  32.799  1.00  0.00     0.031 C 
ATOM     66  C   UNL A   1      43.852  29.709  34.970  1.00  0.00     0.031 A 
BRANCH  53  67
ATOM     67  C   UNL A   1      39.949  33.516  37.895  1.00  0.00    -0.014 A 
ATOM     68  C   UNL A   1      39.112  32.971  38.885  1.00  0.00     0.010 A 
ATOM     69  C   UNL A   1      40.514  34.788  38.103  1.00  0.00     0.010 A 
ATOM     70  C   UNL A   1      38.812  33.699  40.040  1.00  0.00     0.020 A 
ATOM     71  C   UNL A   1      40.242  35.506  39.271  1.00  0.00     0.020 A 
ATOM     72  C   UNL A   1      39.379  34.964  40.225  1.00  0.00     0.054 A 
BRANCH  72  73
ATOM     73  S   UNL A   1      38.992  35.874  41.745  1.00  0.00     0.124 S 
ATOM     74  O   UNL A   1      37.669  35.352  42.079  1.00  0.00    -0.237 OA
ATOM     75  O   UNL A   1      40.071  35.470  42.642  1.00  0.00    -0.237 OA
ATOM     76  O   UNL A   1      39.021  37.274  41.329  1.00  0.00    -0.744 OA
ENDBRANCH  72  73
ENDBRANCH  53  67
BRANCH  54  77
ATOM     77  C   UNL A   1      41.929  28.798  29.293  1.00  0.00    -0.014 A 
ATOM     78  C   UNL A   1      42.591  29.485  28.260  1.00  0.00     0.010 A 
ATOM     79  C   UNL A   1      41.574  27.451  29.100  1.00  0.00     0.010 A 
ATOM     80  C   UNL A   1      42.873  28.843  27.050  1.00  0.00     0.020 A 
ATOM     81  C   UNL A   1      41.883  26.796  27.903  1.00  0.00     0.020 A 
ATOM     82  C   UNL A   1      42.520  27.502  26.881  1.00  0.00     0.054 A 
BRANCH  82  83
ATOM     83  S   UNL A   1      42.939  26.677  25.320  1.00  0.00     0.124 S 
ATOM     84  O   UNL A   1      42.843  27.774  24.361  1.00  0.00    -0.237 OA
ATOM     85  O   UNL A   1      44.286  26.178  25.581  1.00  0.00    -0.237 OA
ATOM     86  O   UNL A   1      41.913  25.644  25.194  1.00  0.00    -0.744 OA
ENDBRANCH  82  83
ENDBRANCH  54  77
BRANCH  66  87
ATOM     87  C   UNL A   1      45.089  29.044  35.514  1.00  0.00    -0.014 A 
ATOM     88  C   UNL A   1      46.347  29.667  35.445  1.00  0.00     0.010 A 
ATOM     89  C   UNL A   1      44.976  27.796  36.157  1.00  0.00     0.010 A 
ATOM     90  C   UNL A   1      47.475  29.040  35.981  1.00  0.00     0.020 A 
ATOM     91  C   UNL A   1      46.096  27.182  36.723  1.00  0.00     0.020 A 
ATOM     92  C   UNL A   1      47.342  27.802  36.617  1.00  0.00     0.054 A 
BRANCH  92  93
ATOM     93  S   UNL A   1      48.814  27.032  37.344  1.00  0.00     0.124 S 
ATOM     94  O   UNL A   1      48.241  25.891  38.052  1.00  0.00    -0.237 OA
ATOM     95  O   UNL A   1      49.616  26.704  36.168  1.00  0.00    -0.237 OA
ATOM     96  O   UNL A   1      49.370  28.080  38.198  1.00  0.00    -0.744 OA
ENDBRANCH  92  93
ENDBRANCH  66  87
ENDBRANCH  40  41
ENDBRANCH  32  35
ENDBRANCH  30  31
ENDBRANCH  29  30
ENDBRANCH   1  29
TORSDOF 19
ENDMDL
MODEL 3
REMARK VINA RESULT:     -10.5      1.545      2.249
REMARK SMILES C[C@H]1[C@@H](C)CCC[C@H]1NC(=O)N[C@@](C)(C(=O)NCCCCCCNC(=O)c1ccc(-c2c3nc(c(-c4ccc(S(=O)(=O)[O-])cc4)c4ccc([nH]4)c(-c4ccc(S(=O)(=O)[O-])cc4)c4nc(c(-c5ccc(S(=O)(=O)[O-])cc5)c5ccc2[nH]5)C=C4)C=C3)cc1)C(F)(F)F
REMARK SMILES IDX 21 1 20 2 19 3 18 4 17 5 15 6 16 7 13 9 14 10 12 11 9 12
REMARK SMILES IDX 10 13 11 15 8 17 1 18 2 19 3 20 5 21 4 22 7 23 6 24 87 25
REMARK SMILES IDX 88 26 89 27 90 28 22 29 23 30 24 31 25 32 26 34 27 35 28 36
REMARK SMILES IDX 86 37 29 38 85 39 30 40 31 41 32 42 79 43 33 44 84 45 78 46
REMARK SMILES IDX 80 47 34 48 83 49 77 50 76 51 35 53 65 54 46 55 64 56 47 57
REMARK SMILES IDX 50 58 63 59 81 60 48 61 49 62 62 64 82 65 51 66 36 67 37 68
REMARK SMILES IDX 45 69 38 70 44 71 39 72 40 73 41 74 42 75 43 76 66 77 67 78
REMARK SMILES IDX 75 79 68 80 74 81 69 82 70 83 71 84 72 85 73 86 52 87 53 88
REMARK SMILES IDX 61 89 54 90 60 91 55 92 56 93 57 94 58 95 59 96
REMARK H PARENT 17 8 9 14 12 16 24 33 80 52 50 63
REMARK Flexibility Score: inf
ROOT
ATOM      1  C   UNL A   1      37.374  21.713  24.690  1.00  0.00     0.002 C 
ENDROOT
BRANCH   1   2
ATOM      2  C   UNL A   1      35.911  21.735  25.143  1.00  0.00     0.002 C 
BRANCH   2   3
ATOM      3  C   UNL A   1      35.574  22.805  26.190  1.00  0.00     0.021 C 
BRANCH   3   4
ATOM      4  C   UNL A   1      34.200  22.648  26.836  1.00  0.00     0.116 C 
BRANCH   4   5
ATOM      5  N   UNL A   1      33.385  21.729  26.068  1.00  0.00    -0.354 N 
ATOM      6  C   UNL A   1      32.278  21.856  25.300  1.00  0.00     0.255 C 
ATOM      7  O   UNL A   1      31.752  20.777  25.003  1.00  0.00    -0.272 OA
ATOM      8  H   UNL A   1      33.711  20.800  26.116  1.00  0.00     0.163 HD
BRANCH   6   9
ATOM      9  C   UNL A   1      31.649  23.215  24.940  1.00  0.00     0.213 C 
ATOM     10  C   UNL A   1      30.660  23.152  23.760  1.00  0.00     0.056 C 
BRANCH   9  11
ATOM     11  N   UNL A   1      32.846  24.035  24.523  1.00  0.00    -0.316 N 
ATOM     12  N   UNL A   1      32.632  26.336  23.972  1.00  0.00    -0.335 N 
ATOM     13  C   UNL A   1      33.299  25.198  24.089  1.00  0.00     0.316 C 
ATOM     14  H   UNL A   1      33.188  27.075  23.631  1.00  0.00     0.165 HD
ATOM     15  O   UNL A   1      34.492  25.216  23.767  1.00  0.00    -0.249 OA
ATOM     16  H   UNL A   1      33.631  23.448  24.615  1.00  0.00     0.166 HD
BRANCH  12  17
ATOM     17  C   UNL A   1      31.271  26.726  24.234  1.00  0.00     0.087 C 
ATOM     18  C   UNL A   1      31.686  27.183  26.746  1.00  0.00     0.010 C 
ATOM     19  C   UNL A   1      31.064  27.676  25.435  1.00  0.00     0.011 C 
ATOM     20  C   UNL A   1      31.405  29.146  25.120  1.00  0.00    -0.009 C 
ATOM     21  C   UNL A   1      30.635  29.583  23.862  1.00  0.00     0.004 C 
ATOM     22  C   UNL A   1      32.903  29.455  25.030  1.00  0.00     0.008 C 
ATOM     23  C   UNL A   1      30.605  27.224  22.952  1.00  0.00     0.025 C 
ATOM     24  C   UNL A   1      30.899  28.690  22.654  1.00  0.00     0.002 C 
ENDBRANCH  12  17
ENDBRANCH   9  11
BRANCH   9  25
ATOM     25  C   UNL A   1      30.768  23.496  26.182  1.00  0.00     0.420 C 
ATOM     26  F   UNL A   1      29.844  24.462  26.020  1.00  0.00    -0.168 F 
ATOM     27  F   UNL A   1      30.122  22.367  26.589  1.00  0.00    -0.168 F 
ATOM     28  F   UNL A   1      31.529  23.854  27.253  1.00  0.00    -0.168 F 
ENDBRANCH   9  25
ENDBRANCH   6   9
ENDBRANCH   4   5
ENDBRANCH   3   4
ENDBRANCH   2   3
ENDBRANCH   1   2
BRANCH   1  29
ATOM     29  C   UNL A   1      38.158  20.475  25.125  1.00  0.00     0.021 C 
BRANCH  29  30
ATOM     30  C   UNL A   1      39.292  20.768  26.094  1.00  0.00     0.116 C 
BRANCH  30  31
ATOM     31  N   UNL A   1      40.266  19.692  26.126  1.00  0.00    -0.352 N 
ATOM     32  C   UNL A   1      41.636  19.784  26.168  1.00  0.00     0.251 C 
ATOM     33  H   UNL A   1      39.897  18.779  26.116  1.00  0.00     0.163 HD
ATOM     34  O   UNL A   1      42.330  18.797  25.974  1.00  0.00    -0.269 OA
BRANCH  32  35
ATOM     35  C   UNL A   1      42.250  21.103  26.429  1.00  0.00     0.039 A 
ATOM     36  C   UNL A   1      42.640  21.893  25.347  1.00  0.00     0.014 A 
ATOM     37  C   UNL A   1      42.407  21.563  27.740  1.00  0.00     0.014 A 
ATOM     38  C   UNL A   1      43.150  23.169  25.581  1.00  0.00     0.010 A 
ATOM     39  C   UNL A   1      42.833  22.867  27.965  1.00  0.00     0.010 A 
ATOM     40  C   UNL A   1      43.223  23.678  26.890  1.00  0.00    -0.014 A 
BRANCH  40  41
ATOM     41  C   UNL A   1      43.724  25.049  27.154  1.00  0.00     0.031 A 
ATOM     42  C   UNL A   1      45.184  25.363  26.962  1.00  0.00     0.074 A 
ATOM     43  C   UNL A   1      42.881  25.991  27.617  1.00  0.00     0.049 A 
ATOM     44  N   UNL A   1      45.821  26.483  27.186  1.00  0.00    -0.248 NA
ATOM     45  C   UNL A   1      46.045  24.270  26.479  1.00  0.00     0.031 C 
ATOM     46  C   UNL A   1      41.452  25.798  27.878  1.00  0.00     0.029 A 
ATOM     47  N   UNL A   1      43.102  27.304  27.952  1.00  0.00    -0.354 N 
ATOM     48  C   UNL A   1      47.154  26.225  26.886  1.00  0.00     0.074 A 
ATOM     49  C   UNL A   1      47.245  24.829  26.522  1.00  0.00     0.031 C 
ATOM     50  C   UNL A   1      40.921  26.956  28.302  1.00  0.00     0.029 A 
ATOM     51  C   UNL A   1      41.976  27.961  28.388  1.00  0.00     0.049 A 
ATOM     52  H   UNL A   1      43.985  27.734  27.886  1.00  0.00     0.167 HD
ATOM     53  C   UNL A   1      48.205  27.079  26.893  1.00  0.00     0.031 A 
ATOM     54  C   UNL A   1      41.811  29.227  28.816  1.00  0.00     0.031 A 
ATOM     55  C   UNL A   1      48.107  28.468  27.251  1.00  0.00     0.049 A 
ATOM     56  C   UNL A   1      42.999  30.151  28.836  1.00  0.00     0.074 A 
ATOM     57  C   UNL A   1      49.102  29.430  27.241  1.00  0.00     0.029 A 
ATOM     58  N   UNL A   1      46.949  29.095  27.686  1.00  0.00    -0.354 N 
ATOM     59  N   UNL A   1      44.240  29.906  28.487  1.00  0.00    -0.248 NA
ATOM     60  C   UNL A   1      42.763  31.526  29.298  1.00  0.00     0.031 C 
ATOM     61  C   UNL A   1      48.560  30.623  27.730  1.00  0.00     0.029 A 
ATOM     62  C   UNL A   1      47.210  30.424  27.975  1.00  0.00     0.049 A 
ATOM     63  H   UNL A   1      46.071  28.660  27.776  1.00  0.00     0.167 HD
ATOM     64  C   UNL A   1      44.924  31.105  28.656  1.00  0.00     0.074 A 
ATOM     65  C   UNL A   1      43.957  32.076  29.124  1.00  0.00     0.031 C 
ATOM     66  C   UNL A   1      46.235  31.378  28.442  1.00  0.00     0.031 A 
BRANCH  53  67
ATOM     67  C   UNL A   1      49.555  26.528  26.510  1.00  0.00    -0.014 A 
ATOM     68  C   UNL A   1      49.978  26.503  25.168  1.00  0.00     0.010 A 
ATOM     69  C   UNL A   1      50.429  26.065  27.510  1.00  0.00     0.010 A 
ATOM     70  C   UNL A   1      51.232  25.987  24.830  1.00  0.00     0.020 A 
ATOM     71  C   UNL A   1      51.697  25.578  27.178  1.00  0.00     0.020 A 
ATOM     72  C   UNL A   1      52.084  25.526  25.839  1.00  0.00     0.054 A 
BRANCH  72  73
ATOM     73  S   UNL A   1      53.715  24.886  25.371  1.00  0.00     0.124 S 
ATOM     74  O   UNL A   1      54.066  25.752  24.247  1.00  0.00    -0.237 OA
ATOM     75  O   UNL A   1      54.497  25.089  26.587  1.00  0.00    -0.237 OA
ATOM     76  O   UNL A   1      53.455  23.491  25.024  1.00  0.00    -0.744 OA
ENDBRANCH  72  73
ENDBRANCH  53  67
BRANCH  54  77
ATOM     77  C   UNL A   1      40.466  29.698  29.251  1.00  0.00    -0.014 A 
ATOM     78  C   UNL A   1      39.474  30.005  28.304  1.00  0.00     0.010 A 
ATOM     79  C   UNL A   1      40.169  29.833  30.619  1.00  0.00     0.010 A 
ATOM     80  C   UNL A   1      38.217  30.458  28.716  1.00  0.00     0.020 A 
ATOM     81  C   UNL A   1      38.903  30.255  31.037  1.00  0.00     0.020 A 
ATOM     82  C   UNL A   1      37.938  30.577  30.080  1.00  0.00     0.054 A 
BRANCH  82  83
ATOM     83  S   UNL A   1      36.285  31.121  30.592  1.00  0.00     0.124 S 
ATOM     84  O   UNL A   1      35.899  30.076  31.535  1.00  0.00    -0.237 OA
ATOM     85  O   UNL A   1      36.553  32.433  31.174  1.00  0.00    -0.237 OA
ATOM     86  O   UNL A   1      35.531  31.144  29.340  1.00  0.00    -0.744 OA
ENDBRANCH  82  83
ENDBRANCH  54  77
BRANCH  66  87
ATOM     87  C   UNL A   1      46.698  32.793  28.671  1.00  0.00    -0.014 A 
ATOM     88  C   UNL A   1      47.223  33.201  29.910  1.00  0.00     0.010 A 
ATOM     89  C   UNL A   1      46.658  33.714  27.607  1.00  0.00     0.010 A 
ATOM     90  C   UNL A   1      47.669  34.513  30.089  1.00  0.00     0.020 A 
ATOM     91  C   UNL A   1      47.135  35.016  27.773  1.00  0.00     0.020 A 
ATOM     92  C   UNL A   1      47.624  35.411  29.019  1.00  0.00     0.054 A 
BRANCH  92  93
ATOM     93  S   UNL A   1      48.253  37.094  29.265  1.00  0.00     0.124 S 
ATOM     94  O   UNL A   1      47.089  37.907  28.923  1.00  0.00    -0.237 OA
ATOM     95  O   UNL A   1      48.625  37.092  30.678  1.00  0.00    -0.237 OA
ATOM     96  O   UNL A   1      49.374  37.187  28.333  1.00  0.00    -0.744 OA
ENDBRANCH  92  93
ENDBRANCH  66  87
ENDBRANCH  40  41
ENDBRANCH  32  35
ENDBRANCH  30  31
ENDBRANCH  29  30
ENDBRANCH   1  29
TORSDOF 19
ENDMDL
