MODEL 1
REMARK VINA RESULT:     -10.3      0.000      0.000
REMARK SMILES C[C@@H]1C[N@@H+](C[C@]2(C(=O)NCCCCCCNC(=O)c3ccc(-c4c5nc(c(-c6ccc(S(=O)(=O)[O-])cc6)c6ccc([nH]6)c(-c6ccc(S(=O)(=O)[O-])cc6)c6nc(c(-c7ccc(S(=O)(=O)[O-])cc7)c7ccc4[nH]7)C=C6)C=C5)cc3)CCOC2)C[C@@H]1C
REMARK SMILES IDX 13 1 12 2 11 3 10 4 9 5 7 6 8 7 6 9 79 10 82 11 80 12 81 13
REMARK SMILES IDX 5 14 4 15 1 16 2 17 3 18 84 19 83 20 85 21 14 23 15 24 16 25
REMARK SMILES IDX 17 26 18 28 19 29 20 30 78 31 21 32 77 33 22 34 23 35 24 36
REMARK SMILES IDX 71 37 25 38 76 39 70 40 72 41 26 42 75 43 69 44 68 45 27 47
REMARK SMILES IDX 57 48 38 49 56 50 39 51 42 52 55 53 73 54 40 55 41 56 54 58
REMARK SMILES IDX 74 59 43 60 28 61 29 62 37 63 30 64 36 65 31 66 32 67 33 68
REMARK SMILES IDX 34 69 35 70 58 71 59 72 67 73 60 74 66 75 61 76 62 77 63 78
REMARK SMILES IDX 64 79 65 80 44 81 45 82 53 83 46 84 52 85 47 86 48 87 49 88
REMARK SMILES IDX 50 89 51 90
REMARK H PARENT 9 8 4 22 16 27 72 46 42 57
REMARK Flexibility Score: inf
ROOT
ATOM      1  C   UNL A   1      37.367  21.627  24.328  1.00  0.00     0.002 C 
ENDROOT
BRANCH   1   2
ATOM      2  C   UNL A   1      35.894  21.827  24.695  1.00  0.00     0.002 C 
BRANCH   2   3
ATOM      3  C   UNL A   1      35.609  22.894  25.753  1.00  0.00     0.021 C 
BRANCH   3   4
ATOM      4  C   UNL A   1      34.515  22.542  26.751  1.00  0.00     0.116 C 
BRANCH   4   5
ATOM      5  N   UNL A   1      33.574  23.626  26.983  1.00  0.00    -0.355 N 
ATOM      6  C   UNL A   1      32.360  23.886  26.413  1.00  0.00     0.234 C 
ATOM      7  O   UNL A   1      31.676  24.765  26.943  1.00  0.00    -0.274 OA
ATOM      8  H   UNL A   1      33.858  24.279  27.662  1.00  0.00     0.163 HD
BRANCH   6   9
ATOM      9  C   UNL A   1      31.890  23.128  25.160  1.00  0.00     0.123 C 
ATOM     10  C   UNL A   1      30.578  23.720  24.628  1.00  0.00     0.054 C 
ATOM     11  C   UNL A   1      32.832  23.516  24.019  1.00  0.00     0.183 C 
ATOM     12  C   UNL A   1      30.693  23.641  23.124  1.00  0.00     0.161 C 
ATOM     13  O   UNL A   1      32.082  23.626  22.802  1.00  0.00    -0.380 OA
BRANCH   9  14
ATOM     14  C   UNL A   1      31.712  21.625  25.545  1.00  0.00     0.281 C 
BRANCH  14  15
ATOM     15  N   UNL A   1      32.470  20.558  24.933  1.00  0.00    -0.333 N 
ATOM     16  C   UNL A   1      32.406  18.122  22.150  1.00  0.00     0.014 C 
ATOM     17  C   UNL A   1      32.171  18.762  23.507  1.00  0.00     0.049 C 
ATOM     18  C   UNL A   1      32.402  20.267  23.518  1.00  0.00     0.265 C 
ATOM     19  C   UNL A   1      33.038  18.271  24.677  1.00  0.00     0.049 C 
ATOM     20  C   UNL A   1      32.910  19.412  25.702  1.00  0.00     0.265 C 
ATOM     21  C   UNL A   1      34.498  18.014  24.302  1.00  0.00     0.014 C 
ATOM     22  H   UNL A   1      33.209  21.259  24.994  1.00  0.00     0.348 HD
ENDBRANCH  14  15
ENDBRANCH   9  14
ENDBRANCH   6   9
ENDBRANCH   4   5
ENDBRANCH   3   4
ENDBRANCH   2   3
ENDBRANCH   1   2
BRANCH   1  23
ATOM     23  C   UNL A   1      38.034  20.369  24.893  1.00  0.00     0.021 C 
BRANCH  23  24
ATOM     24  C   UNL A   1      39.063  20.606  25.993  1.00  0.00     0.116 C 
BRANCH  24  25
ATOM     25  N   UNL A   1      40.050  19.545  26.073  1.00  0.00    -0.352 N 
ATOM     26  C   UNL A   1      41.412  19.622  26.226  1.00  0.00     0.251 C 
ATOM     27  H   UNL A   1      39.688  18.633  26.007  1.00  0.00     0.163 HD
ATOM     28  O   UNL A   1      42.090  18.605  26.115  1.00  0.00    -0.269 OA
BRANCH  26  29
ATOM     29  C   UNL A   1      42.066  20.923  26.495  1.00  0.00     0.039 A 
ATOM     30  C   UNL A   1      42.232  21.816  25.433  1.00  0.00     0.014 A 
ATOM     31  C   UNL A   1      42.533  21.261  27.769  1.00  0.00     0.014 A 
ATOM     32  C   UNL A   1      42.814  23.064  25.660  1.00  0.00     0.010 A 
ATOM     33  C   UNL A   1      43.047  22.536  28.008  1.00  0.00     0.010 A 
ATOM     34  C   UNL A   1      43.196  23.450  26.956  1.00  0.00    -0.014 A 
BRANCH  34  35
ATOM     35  C   UNL A   1      43.722  24.817  27.213  1.00  0.00     0.031 A 
ATOM     36  C   UNL A   1      45.173  25.142  26.973  1.00  0.00     0.074 A 
ATOM     37  C   UNL A   1      42.891  25.763  27.698  1.00  0.00     0.049 A 
ATOM     38  N   UNL A   1      45.796  26.282  27.133  1.00  0.00    -0.248 NA
ATOM     39  C   UNL A   1      46.042  24.045  26.516  1.00  0.00     0.031 C 
ATOM     40  C   UNL A   1      41.476  25.558  28.024  1.00  0.00     0.029 A 
ATOM     41  N   UNL A   1      43.111  27.083  28.002  1.00  0.00    -0.354 N 
ATOM     42  C   UNL A   1      47.126  26.038  26.809  1.00  0.00     0.074 A 
ATOM     43  C   UNL A   1      47.230  24.633  26.486  1.00  0.00     0.031 C 
ATOM     44  C   UNL A   1      40.949  26.717  28.450  1.00  0.00     0.029 A 
ATOM     45  C   UNL A   1      41.993  27.737  28.467  1.00  0.00     0.049 A 
ATOM     46  H   UNL A   1      43.985  27.522  27.896  1.00  0.00     0.167 HD
ATOM     47  C   UNL A   1      48.162  26.910  26.768  1.00  0.00     0.031 A 
ATOM     48  C   UNL A   1      41.824  29.011  28.871  1.00  0.00     0.031 A 
ATOM     49  C   UNL A   1      48.051  28.312  27.077  1.00  0.00     0.049 A 
ATOM     50  C   UNL A   1      42.992  29.958  28.809  1.00  0.00     0.074 A 
ATOM     51  C   UNL A   1      49.029  29.289  26.994  1.00  0.00     0.029 A 
ATOM     52  N   UNL A   1      46.902  28.937  27.536  1.00  0.00    -0.354 N 
ATOM     53  N   UNL A   1      44.221  29.726  28.411  1.00  0.00    -0.248 NA
ATOM     54  C   UNL A   1      42.747  31.342  29.238  1.00  0.00     0.031 C 
ATOM     55  C   UNL A   1      48.489  30.490  27.464  1.00  0.00     0.029 A 
ATOM     56  C   UNL A   1      47.156  30.278  27.773  1.00  0.00     0.049 A 
ATOM     57  H   UNL A   1      46.034  28.493  27.673  1.00  0.00     0.167 HD
ATOM     58  C   UNL A   1      44.888  30.942  28.519  1.00  0.00     0.074 A 
ATOM     59  C   UNL A   1      43.920  31.909  28.994  1.00  0.00     0.031 C 
ATOM     60  C   UNL A   1      46.186  31.230  28.254  1.00  0.00     0.031 A 
BRANCH  47  61
ATOM     61  C   UNL A   1      49.519  26.380  26.378  1.00  0.00    -0.014 A 
ATOM     62  C   UNL A   1      50.009  26.525  25.067  1.00  0.00     0.010 A 
ATOM     63  C   UNL A   1      50.348  25.805  27.358  1.00  0.00     0.010 A 
ATOM     64  C   UNL A   1      51.294  26.084  24.740  1.00  0.00     0.020 A 
ATOM     65  C   UNL A   1      51.645  25.387  27.041  1.00  0.00     0.020 A 
ATOM     66  C   UNL A   1      52.106  25.522  25.731  1.00  0.00     0.054 A 
BRANCH  66  67
ATOM     67  S   UNL A   1      53.790  25.011  25.288  1.00  0.00     0.124 S 
ATOM     68  O   UNL A   1      54.585  25.657  26.329  1.00  0.00    -0.237 OA
ATOM     69  O   UNL A   1      53.712  23.555  25.370  1.00  0.00    -0.237 OA
ATOM     70  O   UNL A   1      53.974  25.547  23.942  1.00  0.00    -0.744 OA
ENDBRANCH  66  67
ENDBRANCH  47  61
BRANCH  48  71
ATOM     71  C   UNL A   1      40.498  29.468  29.374  1.00  0.00    -0.014 A 
ATOM     72  C   UNL A   1      39.493  29.886  28.486  1.00  0.00     0.010 A 
ATOM     73  C   UNL A   1      40.240  29.494  30.757  1.00  0.00     0.010 A 
ATOM     74  C   UNL A   1      38.267  30.352  28.970  1.00  0.00     0.020 A 
ATOM     75  C   UNL A   1      39.004  29.928  31.245  1.00  0.00     0.020 A 
ATOM     76  C   UNL A   1      38.031  30.371  30.348  1.00  0.00     0.054 A 
BRANCH  76  77
ATOM     77  S   UNL A   1      36.425  30.954  30.956  1.00  0.00     0.124 S 
ATOM     78  O   UNL A   1      36.765  32.262  31.506  1.00  0.00    -0.237 OA
ATOM     79  O   UNL A   1      35.614  30.969  29.740  1.00  0.00    -0.237 OA
ATOM     80  O   UNL A   1      36.043  29.940  31.936  1.00  0.00    -0.744 OA
ENDBRANCH  76  77
ENDBRANCH  48  71
BRANCH  60  81
ATOM     81  C   UNL A   1      46.630  32.657  28.445  1.00  0.00    -0.014 A 
ATOM     82  C   UNL A   1      46.526  33.599  27.407  1.00  0.00     0.010 A 
ATOM     83  C   UNL A   1      47.129  33.068  29.696  1.00  0.00     0.010 A 
ATOM     84  C   UNL A   1      46.956  34.916  27.601  1.00  0.00     0.020 A 
ATOM     85  C   UNL A   1      47.527  34.390  29.904  1.00  0.00     0.020 A 
ATOM     86  C   UNL A   1      47.456  35.302  28.849  1.00  0.00     0.054 A 
BRANCH  86  87
ATOM     87  S   UNL A   1      47.986  37.020  29.081  1.00  0.00     0.124 S 
ATOM     88  O   UNL A   1      48.922  36.902  30.195  1.00  0.00    -0.237 OA
ATOM     89  O   UNL A   1      48.584  37.348  27.789  1.00  0.00    -0.237 OA
ATOM     90  O   UNL A   1      46.744  37.728  29.384  1.00  0.00    -0.744 OA
ENDBRANCH  86  87
ENDBRANCH  60  81
ENDBRANCH  34  35
ENDBRANCH  26  29
ENDBRANCH  24  25
ENDBRANCH  23  24
ENDBRANCH   1  23
TORSDOF 18
ENDMDL
MODEL 2
REMARK VINA RESULT:     -10.2      2.494      8.861
REMARK SMILES C[C@@H]1C[N@@H+](C[C@]2(C(=O)NCCCCCCNC(=O)c3ccc(-c4c5nc(c(-c6ccc(S(=O)(=O)[O-])cc6)c6ccc([nH]6)c(-c6ccc(S(=O)(=O)[O-])cc6)c6nc(c(-c7ccc(S(=O)(=O)[O-])cc7)c7ccc4[nH]7)C=C6)C=C5)cc3)CCOC2)C[C@@H]1C
REMARK SMILES IDX 13 1 12 2 11 3 10 4 9 5 7 6 8 7 6 9 79 10 82 11 80 12 81 13
REMARK SMILES IDX 5 14 4 15 1 16 2 17 3 18 84 19 83 20 85 21 14 23 15 24 16 25
REMARK SMILES IDX 17 26 18 28 19 29 20 30 78 31 21 32 77 33 22 34 23 35 24 36
REMARK SMILES IDX 71 37 25 38 76 39 70 40 72 41 26 42 75 43 69 44 68 45 27 47
REMARK SMILES IDX 57 48 38 49 56 50 39 51 42 52 55 53 73 54 40 55 41 56 54 58
REMARK SMILES IDX 74 59 43 60 28 61 29 62 37 63 30 64 36 65 31 66 32 67 33 68
REMARK SMILES IDX 34 69 35 70 58 71 59 72 67 73 60 74 66 75 61 76 62 77 63 78
REMARK SMILES IDX 64 79 65 80 44 81 45 82 53 83 46 84 52 85 47 86 48 87 49 88
REMARK SMILES IDX 50 89 51 90
REMARK H PARENT 9 8 4 22 16 27 72 46 42 57
REMARK Flexibility Score: inf
ROOT
ATOM      1  C   UNL A   1      34.429  32.597  28.207  1.00  0.00     0.002 C 
ENDROOT
BRANCH   1   2
ATOM      2  C   UNL A   1      33.843  31.303  27.635  1.00  0.00     0.002 C 
BRANCH   2   3
ATOM      3  C   UNL A   1      34.818  30.133  27.498  1.00  0.00     0.021 C 
BRANCH   3   4
ATOM      4  C   UNL A   1      34.261  28.901  26.798  1.00  0.00     0.116 C 
BRANCH   4   5
ATOM      5  N   UNL A   1      34.017  29.103  25.379  1.00  0.00    -0.355 N 
ATOM      6  C   UNL A   1      33.264  28.383  24.495  1.00  0.00     0.234 C 
ATOM      7  O   UNL A   1      33.067  28.895  23.391  1.00  0.00    -0.274 OA
ATOM      8  H   UNL A   1      34.468  29.887  24.992  1.00  0.00     0.163 HD
BRANCH   6   9
ATOM      9  C   UNL A   1      32.714  26.995  24.864  1.00  0.00     0.123 C 
ATOM     10  C   UNL A   1      31.822  27.080  26.112  1.00  0.00     0.054 C 
ATOM     11  C   UNL A   1      31.659  26.636  23.816  1.00  0.00     0.183 C 
ATOM     12  C   UNL A   1      30.704  26.095  25.862  1.00  0.00     0.161 C 
ATOM     13  O   UNL A   1      30.576  25.942  24.451  1.00  0.00    -0.380 OA
BRANCH   9  14
ATOM     14  C   UNL A   1      33.928  26.043  25.106  1.00  0.00     0.281 C 
BRANCH  14  15
ATOM     15  N   UNL A   1      33.868  24.616  24.883  1.00  0.00    -0.333 N 
ATOM     16  C   UNL A   1      32.473  22.045  22.619  1.00  0.00     0.014 C 
ATOM     17  C   UNL A   1      32.598  23.050  23.751  1.00  0.00     0.049 C 
ATOM     18  C   UNL A   1      33.741  24.038  23.564  1.00  0.00     0.265 C 
ATOM     19  C   UNL A   1      32.850  22.494  25.161  1.00  0.00     0.049 C 
ATOM     20  C   UNL A   1      33.405  23.714  25.918  1.00  0.00     0.265 C 
ATOM     21  C   UNL A   1      33.826  21.317  25.200  1.00  0.00     0.014 C 
ATOM     22  H   UNL A   1      34.876  24.713  25.003  1.00  0.00     0.348 HD
ENDBRANCH  14  15
ENDBRANCH   9  14
ENDBRANCH   6   9
ENDBRANCH   4   5
ENDBRANCH   3   4
ENDBRANCH   2   3
ENDBRANCH   1   2
BRANCH   1  23
ATOM     23  C   UNL A   1      35.949  32.748  28.102  1.00  0.00     0.021 C 
BRANCH  23  24
ATOM     24  C   UNL A   1      36.697  32.829  29.429  1.00  0.00     0.116 C 
BRANCH  24  25
ATOM     25  N   UNL A   1      36.174  31.908  30.421  1.00  0.00    -0.352 N 
ATOM     26  C   UNL A   1      36.653  30.688  30.827  1.00  0.00     0.251 C 
ATOM     27  H   UNL A   1      35.350  32.204  30.872  1.00  0.00     0.163 HD
ATOM     28  O   UNL A   1      35.975  29.991  31.576  1.00  0.00    -0.269 OA
BRANCH  26  29
ATOM     29  C   UNL A   1      37.966  30.198  30.347  1.00  0.00     0.039 A 
ATOM     30  C   UNL A   1      38.152  30.038  28.971  1.00  0.00     0.014 A 
ATOM     31  C   UNL A   1      38.999  29.877  31.232  1.00  0.00     0.014 A 
ATOM     32  C   UNL A   1      39.388  29.611  28.484  1.00  0.00     0.010 A 
ATOM     33  C   UNL A   1      40.255  29.522  30.739  1.00  0.00     0.010 A 
ATOM     34  C   UNL A   1      40.463  29.381  29.360  1.00  0.00    -0.014 A 
BRANCH  34  35
ATOM     35  C   UNL A   1      41.806  29.024  28.831  1.00  0.00     0.031 A 
ATOM     36  C   UNL A   1      42.889  30.065  28.713  1.00  0.00     0.074 A 
ATOM     37  C   UNL A   1      42.039  27.760  28.423  1.00  0.00     0.049 A 
ATOM     38  N   UNL A   1      44.118  29.925  28.286  1.00  0.00    -0.248 NA
ATOM     39  C   UNL A   1      42.545  31.442  29.104  1.00  0.00     0.031 C 
ATOM     40  C   UNL A   1      41.055  26.673  28.436  1.00  0.00     0.029 A 
ATOM     41  N   UNL A   1      43.173  27.172  27.921  1.00  0.00    -0.354 N 
ATOM     42  C   UNL A   1      44.689  31.192  28.344  1.00  0.00     0.074 A 
ATOM     43  C   UNL A   1      43.659  32.096  28.806  1.00  0.00     0.031 C 
ATOM     44  C   UNL A   1      41.636  25.547  27.995  1.00  0.00     0.029 A 
ATOM     45  C   UNL A   1      43.019  25.836  27.629  1.00  0.00     0.049 A 
ATOM     46  H   UNL A   1      44.016  27.659  27.783  1.00  0.00     0.167 HD
ATOM     47  C   UNL A   1      45.959  31.564  28.056  1.00  0.00     0.031 A 
ATOM     48  C   UNL A   1      43.889  24.942  27.119  1.00  0.00     0.031 A 
ATOM     49  C   UNL A   1      46.984  30.657  27.608  1.00  0.00     0.049 A 
ATOM     50  C   UNL A   1      45.294  25.383  26.813  1.00  0.00     0.074 A 
ATOM     51  C   UNL A   1      48.319  30.927  27.360  1.00  0.00     0.029 A 
ATOM     52  N   UNL A   1      46.792  29.312  27.333  1.00  0.00    -0.354 N 
ATOM     53  N   UNL A   1      45.838  26.568  26.964  1.00  0.00    -0.248 NA
ATOM     54  C   UNL A   1      46.208  24.363  26.281  1.00  0.00     0.031 C 
ATOM     55  C   UNL A   1      48.919  29.761  26.874  1.00  0.00     0.029 A 
ATOM     56  C   UNL A   1      47.975  28.747  26.885  1.00  0.00     0.049 A 
ATOM     57  H   UNL A   1      45.941  28.829  27.441  1.00  0.00     0.167 HD
ATOM     58  C   UNL A   1      47.164  26.427  26.567  1.00  0.00     0.074 A 
ATOM     59  C   UNL A   1      47.345  25.039  26.197  1.00  0.00     0.031 C 
ATOM     60  C   UNL A   1      48.141  27.365  26.511  1.00  0.00     0.031 A 
BRANCH  47  61
ATOM     61  C   UNL A   1      46.323  33.019  28.208  1.00  0.00    -0.014 A 
ATOM     62  C   UNL A   1      46.855  33.516  29.412  1.00  0.00     0.010 A 
ATOM     63  C   UNL A   1      46.210  33.883  27.102  1.00  0.00     0.010 A 
ATOM     64  C   UNL A   1      47.245  34.854  29.513  1.00  0.00     0.020 A 
ATOM     65  C   UNL A   1      46.625  35.215  27.192  1.00  0.00     0.020 A 
ATOM     66  C   UNL A   1      47.132  35.694  28.401  1.00  0.00     0.054 A 
BRANCH  66  67
ATOM     67  S   UNL A   1      47.700  37.411  28.548  1.00  0.00     0.124 S 
ATOM     68  O   UNL A   1      46.563  38.049  29.207  1.00  0.00    -0.237 OA
ATOM     69  O   UNL A   1      48.905  37.279  29.362  1.00  0.00    -0.237 OA
ATOM     70  O   UNL A   1      47.927  37.822  27.165  1.00  0.00    -0.744 OA
ENDBRANCH  66  67
ENDBRANCH  47  61
BRANCH  48  71
ATOM     71  C   UNL A   1      43.456  23.540  26.860  1.00  0.00    -0.014 A 
ATOM     72  C   UNL A   1      43.058  22.700  27.913  1.00  0.00     0.010 A 
ATOM     73  C   UNL A   1      43.449  23.036  25.546  1.00  0.00     0.010 A 
ATOM     74  C   UNL A   1      42.694  21.373  27.664  1.00  0.00     0.020 A 
ATOM     75  C   UNL A   1      43.054  21.721  25.288  1.00  0.00     0.020 A 
ATOM     76  C   UNL A   1      42.695  20.891  26.352  1.00  0.00     0.054 A 
BRANCH  76  77
ATOM     77  S   UNL A   1      42.194  19.176  26.046  1.00  0.00     0.124 S 
ATOM     78  O   UNL A   1      40.772  19.323  25.751  1.00  0.00    -0.237 OA
ATOM     79  O   UNL A   1      43.040  18.796  24.916  1.00  0.00    -0.237 OA
ATOM     80  O   UNL A   1      42.507  18.499  27.303  1.00  0.00    -0.744 OA
ENDBRANCH  76  77
ENDBRANCH  48  71
BRANCH  60  81
ATOM     81  C   UNL A   1      49.506  26.914  26.056  1.00  0.00    -0.014 A 
ATOM     82  C   UNL A   1      49.941  27.121  24.735  1.00  0.00     0.010 A 
ATOM     83  C   UNL A   1      50.377  26.303  26.976  1.00  0.00     0.010 A 
ATOM     84  C   UNL A   1      51.205  26.684  24.330  1.00  0.00     0.020 A 
ATOM     85  C   UNL A   1      51.655  25.895  26.584  1.00  0.00     0.020 A 
ATOM     86  C   UNL A   1      52.053  26.071  25.258  1.00  0.00     0.054 A 
BRANCH  86  87
ATOM     87  S   UNL A   1      53.696  25.533  24.713  1.00  0.00     0.124 S 
ATOM     88  O   UNL A   1      54.569  26.188  25.683  1.00  0.00    -0.237 OA
ATOM     89  O   UNL A   1      53.611  24.079  24.825  1.00  0.00    -0.237 OA
ATOM     90  O   UNL A   1      53.792  26.041  23.346  1.00  0.00    -0.744 OA
ENDBRANCH  86  87
ENDBRANCH  60  81
ENDBRANCH  34  35
ENDBRANCH  26  29
ENDBRANCH  24  25
ENDBRANCH  23  24
ENDBRANCH   1  23
TORSDOF 18
ENDMDL
MODEL 3
REMARK VINA RESULT:     -10.1      6.773     12.268
REMARK SMILES C[C@@H]1C[N@@H+](C[C@]2(C(=O)NCCCCCCNC(=O)c3ccc(-c4c5nc(c(-c6ccc(S(=O)(=O)[O-])cc6)c6ccc([nH]6)c(-c6ccc(S(=O)(=O)[O-])cc6)c6nc(c(-c7ccc(S(=O)(=O)[O-])cc7)c7ccc4[nH]7)C=C6)C=C5)cc3)CCOC2)C[C@@H]1C
REMARK SMILES IDX 13 1 12 2 11 3 10 4 9 5 7 6 8 7 6 9 79 10 82 11 80 12 81 13
REMARK SMILES IDX 5 14 4 15 1 16 2 17 3 18 84 19 83 20 85 21 14 23 15 24 16 25
REMARK SMILES IDX 17 26 18 28 19 29 20 30 78 31 21 32 77 33 22 34 23 35 24 36
REMARK SMILES IDX 71 37 25 38 76 39 70 40 72 41 26 42 75 43 69 44 68 45 27 47
REMARK SMILES IDX 57 48 38 49 56 50 39 51 42 52 55 53 73 54 40 55 41 56 54 58
REMARK SMILES IDX 74 59 43 60 28 61 29 62 37 63 30 64 36 65 31 66 32 67 33 68
REMARK SMILES IDX 34 69 35 70 58 71 59 72 67 73 60 74 66 75 61 76 62 77 63 78
REMARK SMILES IDX 64 79 65 80 44 81 45 82 53 83 46 84 52 85 47 86 48 87 49 88
REMARK SMILES IDX 50 89 51 90
REMARK H PARENT 9 8 4 22 16 27 72 46 42 57
REMARK Flexibility Score: inf
ROOT
ATOM      1  C   UNL A   1      34.705  33.319  28.004  1.00  0.00     0.002 C 
ENDROOT
BRANCH   1   2
ATOM      2  C   UNL A   1      34.917  31.944  28.643  1.00  0.00     0.002 C 
BRANCH   2   3
ATOM      3  C   UNL A   1      34.781  30.744  27.705  1.00  0.00     0.021 C 
BRANCH   3   4
ATOM      4  C   UNL A   1      33.459  30.652  26.955  1.00  0.00     0.116 C 
BRANCH   4   5
ATOM      5  N   UNL A   1      32.550  29.660  27.505  1.00  0.00    -0.355 N 
ATOM      6  C   UNL A   1      31.908  28.613  26.907  1.00  0.00     0.234 C 
ATOM      7  O   UNL A   1      31.353  27.804  27.654  1.00  0.00    -0.274 OA
ATOM      8  H   UNL A   1      32.367  29.758  28.468  1.00  0.00     0.163 HD
BRANCH   6   9
ATOM      9  C   UNL A   1      31.869  28.474  25.375  1.00  0.00     0.123 C 
ATOM     10  C   UNL A   1      30.913  27.348  24.957  1.00  0.00     0.054 C 
ATOM     11  C   UNL A   1      31.102  29.681  24.833  1.00  0.00     0.183 C 
ATOM     12  C   UNL A   1      30.250  27.846  23.694  1.00  0.00     0.161 C 
ATOM     13  O   UNL A   1      30.297  29.270  23.719  1.00  0.00    -0.380 OA
BRANCH   9  14
ATOM     14  C   UNL A   1      33.323  28.189  24.880  1.00  0.00     0.281 C 
BRANCH  14  15
ATOM     15  N   UNL A   1      33.840  26.855  24.679  1.00  0.00    -0.333 N 
ATOM     16  C   UNL A   1      33.260  23.725  22.796  1.00  0.00     0.014 C 
ATOM     17  C   UNL A   1      33.169  24.796  23.868  1.00  0.00     0.049 C 
ATOM     18  C   UNL A   1      33.708  26.149  23.424  1.00  0.00     0.265 C 
ATOM     19  C   UNL A   1      33.920  24.541  25.184  1.00  0.00     0.049 C 
ATOM     20  C   UNL A   1      34.036  25.950  25.793  1.00  0.00     0.265 C 
ATOM     21  C   UNL A   1      35.293  23.893  25.000  1.00  0.00     0.014 C 
ATOM     22  H   UNL A   1      34.709  27.378  24.565  1.00  0.00     0.348 HD
ENDBRANCH  14  15
ENDBRANCH   9  14
ENDBRANCH   6   9
ENDBRANCH   4   5
ENDBRANCH   3   4
ENDBRANCH   2   3
ENDBRANCH   1   2
BRANCH   1  23
ATOM     23  C   UNL A   1      33.394  34.028  28.358  1.00  0.00     0.021 C 
BRANCH  23  24
ATOM     24  C   UNL A   1      33.526  35.495  28.754  1.00  0.00     0.116 C 
BRANCH  24  25
ATOM     25  N   UNL A   1      32.753  35.825  29.938  1.00  0.00    -0.352 N 
ATOM     26  C   UNL A   1      32.919  35.417  31.237  1.00  0.00     0.251 C 
ATOM     27  H   UNL A   1      31.997  36.435  29.785  1.00  0.00     0.163 HD
ATOM     28  O   UNL A   1      32.060  35.690  32.071  1.00  0.00    -0.269 OA
BRANCH  26  29
ATOM     29  C   UNL A   1      34.109  34.627  31.631  1.00  0.00     0.039 A 
ATOM     30  C   UNL A   1      35.374  35.134  31.325  1.00  0.00     0.014 A 
ATOM     31  C   UNL A   1      33.990  33.391  32.275  1.00  0.00     0.014 A 
ATOM     32  C   UNL A   1      36.516  34.431  31.713  1.00  0.00     0.010 A 
ATOM     33  C   UNL A   1      35.131  32.727  32.726  1.00  0.00     0.010 A 
ATOM     34  C   UNL A   1      36.406  33.237  32.447  1.00  0.00    -0.014 A 
BRANCH  34  35
ATOM     35  C   UNL A   1      37.623  32.543  32.947  1.00  0.00     0.031 A 
ATOM     36  C   UNL A   1      38.275  32.963  34.238  1.00  0.00     0.074 A 
ATOM     37  C   UNL A   1      38.162  31.549  32.211  1.00  0.00     0.049 A 
ATOM     38  N   UNL A   1      39.330  32.460  34.826  1.00  0.00    -0.248 NA
ATOM     39  C   UNL A   1      37.680  34.105  34.952  1.00  0.00     0.031 C 
ATOM     40  C   UNL A   1      37.656  31.086  30.915  1.00  0.00     0.029 A 
ATOM     41  N   UNL A   1      39.252  30.747  32.445  1.00  0.00    -0.354 N 
ATOM     42  C   UNL A   1      39.534  33.229  35.967  1.00  0.00     0.074 A 
ATOM     43  C   UNL A   1      38.518  34.258  35.967  1.00  0.00     0.031 C 
ATOM     44  C   UNL A   1      38.413  30.063  30.487  1.00  0.00     0.029 A 
ATOM     45  C   UNL A   1      39.481  29.823  31.452  1.00  0.00     0.049 A 
ATOM     46  H   UNL A   1      39.815  30.826  33.248  1.00  0.00     0.167 HD
ATOM     47  C   UNL A   1      40.470  33.078  36.935  1.00  0.00     0.031 A 
ATOM     48  C   UNL A   1      40.445  28.890  31.325  1.00  0.00     0.031 A 
ATOM     49  C   UNL A   1      41.470  32.043  36.937  1.00  0.00     0.049 A 
ATOM     50  C   UNL A   1      41.468  28.743  32.418  1.00  0.00     0.074 A 
ATOM     51  C   UNL A   1      42.416  31.766  37.909  1.00  0.00     0.029 A 
ATOM     52  N   UNL A   1      41.665  31.122  35.918  1.00  0.00    -0.354 N 
ATOM     53  N   UNL A   1      41.584  29.422  33.535  1.00  0.00    -0.248 NA
ATOM     54  C   UNL A   1      42.481  27.694  32.241  1.00  0.00     0.031 C 
ATOM     55  C   UNL A   1      43.223  30.719  37.451  1.00  0.00     0.029 A 
ATOM     56  C   UNL A   1      42.736  30.298  36.224  1.00  0.00     0.049 A 
ATOM     57  H   UNL A   1      41.121  31.062  35.100  1.00  0.00     0.167 HD
ATOM     58  C   UNL A   1      42.670  28.866  34.203  1.00  0.00     0.074 A 
ATOM     59  C   UNL A   1      43.157  27.779  33.379  1.00  0.00     0.031 C 
ATOM     60  C   UNL A   1      43.217  29.225  35.390  1.00  0.00     0.031 A 
BRANCH  47  61
ATOM     61  C   UNL A   1      40.468  34.058  38.081  1.00  0.00    -0.014 A 
ATOM     62  C   UNL A   1      41.206  35.254  38.018  1.00  0.00     0.010 A 
ATOM     63  C   UNL A   1      39.650  33.817  39.200  1.00  0.00     0.010 A 
ATOM     64  C   UNL A   1      41.143  36.180  39.063  1.00  0.00     0.020 A 
ATOM     65  C   UNL A   1      39.562  34.754  40.234  1.00  0.00     0.020 A 
ATOM     66  C   UNL A   1      40.317  35.926  40.163  1.00  0.00     0.054 A 
BRANCH  66  67
ATOM     67  S   UNL A   1      40.212  37.172  41.477  1.00  0.00     0.124 S 
ATOM     68  O   UNL A   1      39.730  36.381  42.607  1.00  0.00    -0.237 OA
ATOM     69  O   UNL A   1      41.591  37.641  41.582  1.00  0.00    -0.237 OA
ATOM     70  O   UNL A   1      39.262  38.151  40.954  1.00  0.00    -0.744 OA
ENDBRANCH  66  67
ENDBRANCH  47  61
BRANCH  48  71
ATOM     71  C   UNL A   1      40.492  28.023  30.114  1.00  0.00    -0.014 A 
ATOM     72  C   UNL A   1      39.544  27.005  29.916  1.00  0.00     0.010 A 
ATOM     73  C   UNL A   1      41.502  28.210  29.152  1.00  0.00     0.010 A 
ATOM     74  C   UNL A   1      39.623  26.170  28.798  1.00  0.00     0.020 A 
ATOM     75  C   UNL A   1      41.565  27.400  28.016  1.00  0.00     0.020 A 
ATOM     76  C   UNL A   1      40.634  26.372  27.854  1.00  0.00     0.054 A 
BRANCH  76  77
ATOM     77  S   UNL A   1      40.704  25.296  26.396  1.00  0.00     0.124 S 
ATOM     78  O   UNL A   1      41.202  26.206  25.370  1.00  0.00    -0.237 OA
ATOM     79  O   UNL A   1      41.632  24.249  26.821  1.00  0.00    -0.237 OA
ATOM     80  O   UNL A   1      39.319  24.859  26.229  1.00  0.00    -0.744 OA
ENDBRANCH  76  77
ENDBRANCH  48  71
BRANCH  60  81
ATOM     81  C   UNL A   1      44.390  28.418  35.884  1.00  0.00    -0.014 A 
ATOM     82  C   UNL A   1      44.205  27.256  36.653  1.00  0.00     0.010 A 
ATOM     83  C   UNL A   1      45.697  28.812  35.542  1.00  0.00     0.010 A 
ATOM     84  C   UNL A   1      45.307  26.528  37.112  1.00  0.00     0.020 A 
ATOM     85  C   UNL A   1      46.800  28.068  35.969  1.00  0.00     0.020 A 
ATOM     86  C   UNL A   1      46.598  26.942  36.768  1.00  0.00     0.054 A 
BRANCH  86  87
ATOM     87  S   UNL A   1      48.010  25.968  37.357  1.00  0.00     0.124 S 
ATOM     88  O   UNL A   1      47.406  24.658  37.579  1.00  0.00    -0.237 OA
ATOM     89  O   UNL A   1      48.944  26.048  36.236  1.00  0.00    -0.237 OA
ATOM     90  O   UNL A   1      48.435  26.671  38.566  1.00  0.00    -0.744 OA
ENDBRANCH  86  87
ENDBRANCH  60  81
ENDBRANCH  34  35
ENDBRANCH  26  29
ENDBRANCH  24  25
ENDBRANCH  23  24
ENDBRANCH   1  23
TORSDOF 18
ENDMDL
