MODEL 1
REMARK VINA RESULT:     -10.7      0.000      0.000
REMARK SMILES O=C(NCCCCCCNC(=O)c1cccc2cccc([S@](=O)c3ccccc3CO)c12)c1ccc(-c2c3nc(c(-c4ccc(S(=O)(=O)[O-])cc4)c4ccc([nH]4)c(-c4ccc(S(=O)(=O)[O-])cc4)c4nc(c(-c5ccc(S(=O)(=O)[O-])cc5)c5ccc2[nH]5)C=C4)C=C3)cc1
REMARK SMILES IDX 7 1 6 2 5 3 4 4 3 5 1 6 2 7 33 9 34 10 92 11 35 12 91 13
REMARK SMILES IDX 36 14 37 15 38 16 85 17 39 18 90 19 84 20 86 21 40 22 89 23
REMARK SMILES IDX 83 24 82 25 41 27 71 28 52 29 70 30 53 31 56 32 69 33 87 34
REMARK SMILES IDX 54 35 55 36 68 38 88 39 57 40 42 41 43 42 51 43 44 44 50 45
REMARK SMILES IDX 45 46 46 47 47 48 48 49 49 50 72 51 73 52 81 53 74 54 80 55
REMARK SMILES IDX 75 56 76 57 77 58 78 59 79 60 58 61 59 62 67 63 60 64 66 65
REMARK SMILES IDX 61 66 62 67 63 68 64 69 65 70 8 71 9 72 10 73 11 74 12 76
REMARK SMILES IDX 13 77 14 78 32 79 15 80 17 81 21 82 16 83 18 84 20 85 19 86
REMARK SMILES IDX 22 87 23 88 24 89 25 90 29 91 26 92 28 93 27 94 30 95 31 96
REMARK H PARENT 3 8 86 26 56 37 10 75 31 97
REMARK Flexibility Score: inf
ROOT
ATOM      1  C   UNL A   1      31.884  28.022  24.787  1.00  0.00     0.002 C 
ENDROOT
BRANCH   1   2
ATOM      2  C   UNL A   1      32.386  27.206  25.982  1.00  0.00     0.002 C 
BRANCH   2   3
ATOM      3  C   UNL A   1      33.192  27.972  27.032  1.00  0.00     0.021 C 
BRANCH   3   4
ATOM      4  C   UNL A   1      34.235  28.939  26.483  1.00  0.00     0.116 C 
BRANCH   4   5
ATOM      5  N   UNL A   1      33.911  30.329  26.755  1.00  0.00    -0.352 N 
ATOM      6  O   UNL A   1      34.000  32.310  27.825  1.00  0.00    -0.269 OA
ATOM      7  C   UNL A   1      34.511  31.214  27.622  1.00  0.00     0.251 C 
ATOM      8  H   UNL A   1      33.153  30.692  26.243  1.00  0.00     0.163 HD
BRANCH   7   9
ATOM      9  C   UNL A   1      35.759  30.838  28.327  1.00  0.00     0.039 A 
ATOM     10  C   UNL A   1      36.939  31.559  28.136  1.00  0.00     0.014 A 
ATOM     11  C   UNL A   1      35.740  29.758  29.215  1.00  0.00     0.014 A 
ATOM     12  C   UNL A   1      38.123  31.125  28.727  1.00  0.00     0.010 A 
ATOM     13  C   UNL A   1      36.914  29.371  29.873  1.00  0.00     0.010 A 
ATOM     14  C   UNL A   1      38.121  30.037  29.615  1.00  0.00    -0.014 A 
BRANCH  14  15
ATOM     15  C   UNL A   1      39.378  29.670  30.317  1.00  0.00     0.031 A 
ATOM     16  C   UNL A   1      39.801  30.362  31.584  1.00  0.00     0.074 A 
ATOM     17  C   UNL A   1      40.132  28.674  29.808  1.00  0.00     0.049 A 
ATOM     18  N   UNL A   1      40.848  30.129  32.335  1.00  0.00    -0.248 NA
ATOM     19  C   UNL A   1      38.945  31.454  32.072  1.00  0.00     0.031 C 
ATOM     20  C   UNL A   1      39.833  27.937  28.576  1.00  0.00     0.029 A 
ATOM     21  N   UNL A   1      41.288  28.096  30.265  1.00  0.00    -0.354 N 
ATOM     22  C   UNL A   1      40.790  31.052  33.373  1.00  0.00     0.074 A 
ATOM     23  C   UNL A   1      39.613  31.865  33.144  1.00  0.00     0.031 C 
ATOM     24  C   UNL A   1      40.750  26.975  28.404  1.00  0.00     0.029 A 
ATOM     25  C   UNL A   1      41.736  27.064  29.474  1.00  0.00     0.049 A 
ATOM     26  H   UNL A   1      41.753  28.391  31.082  1.00  0.00     0.167 HD
ATOM     27  C   UNL A   1      41.635  31.204  34.421  1.00  0.00     0.031 A 
ATOM     28  C   UNL A   1      42.826  26.282  29.585  1.00  0.00     0.031 A 
ATOM     29  C   UNL A   1      42.806  30.394  34.643  1.00  0.00     0.049 A 
ATOM     30  C   UNL A   1      43.759  26.490  30.742  1.00  0.00     0.074 A 
ATOM     31  C   UNL A   1      43.707  30.454  35.693  1.00  0.00     0.029 A 
ATOM     32  N   UNL A   1      43.244  29.383  33.801  1.00  0.00    -0.354 N 
ATOM     33  N   UNL A   1      43.662  27.344  31.732  1.00  0.00    -0.248 NA
ATOM     34  C   UNL A   1      44.946  25.627  30.798  1.00  0.00     0.031 C 
ATOM     35  C   UNL A   1      44.716  29.512  35.460  1.00  0.00     0.029 A 
ATOM     36  C   UNL A   1      44.414  28.829  34.293  1.00  0.00     0.049 A 
ATOM     37  H   UNL A   1      42.790  29.102  32.973  1.00  0.00     0.167 HD
ATOM     38  C   UNL A   1      44.771  27.115  32.537  1.00  0.00     0.074 A 
ATOM     39  C   UNL A   1      45.510  26.026  31.930  1.00  0.00     0.031 C 
ATOM     40  C   UNL A   1      45.145  27.753  33.673  1.00  0.00     0.031 A 
BRANCH  27  41
ATOM     41  C   UNL A   1      41.339  32.305  35.407  1.00  0.00    -0.014 A 
ATOM     42  C   UNL A   1      41.800  33.617  35.195  1.00  0.00     0.010 A 
ATOM     43  C   UNL A   1      40.532  32.038  36.529  1.00  0.00     0.010 A 
ATOM     44  C   UNL A   1      41.489  34.632  36.105  1.00  0.00     0.020 A 
ATOM     45  C   UNL A   1      40.200  33.056  37.429  1.00  0.00     0.020 A 
ATOM     46  C   UNL A   1      40.694  34.345  37.218  1.00  0.00     0.054 A 
BRANCH  46  47
ATOM     47  S   UNL A   1      40.285  35.688  38.367  1.00  0.00     0.124 S 
ATOM     48  O   UNL A   1      39.934  36.770  37.451  1.00  0.00    -0.237 OA
ATOM     49  O   UNL A   1      39.174  35.129  39.133  1.00  0.00    -0.237 OA
ATOM     50  O   UNL A   1      41.520  35.887  39.122  1.00  0.00    -0.744 OA
ENDBRANCH  46  47
ENDBRANCH  27  41
BRANCH  28  51
ATOM     51  C   UNL A   1      43.095  25.242  28.556  1.00  0.00    -0.014 A 
ATOM     52  C   UNL A   1      42.733  23.902  28.778  1.00  0.00     0.010 A 
ATOM     53  C   UNL A   1      43.691  25.597  27.332  1.00  0.00     0.010 A 
ATOM     54  C   UNL A   1      42.976  22.935  27.800  1.00  0.00     0.020 A 
ATOM     55  C   UNL A   1      43.909  24.638  26.341  1.00  0.00     0.020 A 
ATOM     56  C   UNL A   1      43.561  23.309  26.587  1.00  0.00     0.054 A 
BRANCH  56  57
ATOM     57  S   UNL A   1      43.819  22.048  25.309  1.00  0.00     0.124 S 
ATOM     58  O   UNL A   1      42.753  21.095  25.604  1.00  0.00    -0.237 OA
ATOM     59  O   UNL A   1      43.660  22.812  24.073  1.00  0.00    -0.237 OA
ATOM     60  O   UNL A   1      45.176  21.573  25.566  1.00  0.00    -0.744 OA
ENDBRANCH  56  57
ENDBRANCH  28  51
BRANCH  40  61
ATOM     61  C   UNL A   1      46.403  27.271  34.344  1.00  0.00    -0.014 A 
ATOM     62  C   UNL A   1      46.367  26.241  35.299  1.00  0.00     0.010 A 
ATOM     63  C   UNL A   1      47.640  27.837  33.990  1.00  0.00     0.010 A 
ATOM     64  C   UNL A   1      47.544  25.809  35.916  1.00  0.00     0.020 A 
ATOM     65  C   UNL A   1      48.823  27.390  34.585  1.00  0.00     0.020 A 
ATOM     66  C   UNL A   1      48.765  26.390  35.557  1.00  0.00     0.054 A 
BRANCH  66  67
ATOM     67  S   UNL A   1      50.283  25.792  36.349  1.00  0.00     0.124 S 
ATOM     68  O   UNL A   1      49.839  25.558  37.720  1.00  0.00    -0.237 OA
ATOM     69  O   UNL A   1      50.599  24.594  35.576  1.00  0.00    -0.237 OA
ATOM     70  O   UNL A   1      51.220  26.900  36.178  1.00  0.00    -0.744 OA
ENDBRANCH  66  67
ENDBRANCH  40  61
ENDBRANCH  14  15
ENDBRANCH   7   9
ENDBRANCH   4   5
ENDBRANCH   3   4
ENDBRANCH   2   3
ENDBRANCH   1   2
BRANCH   1  71
ATOM     71  C   UNL A   1      32.462  27.650  23.418  1.00  0.00     0.021 C 
BRANCH  71  72
ATOM     72  C   UNL A   1      33.716  26.780  23.437  1.00  0.00     0.116 C 
BRANCH  72  73
ATOM     73  N   UNL A   1      33.637  25.628  22.553  1.00  0.00    -0.352 N 
ATOM     74  C   UNL A   1      33.098  24.385  22.795  1.00  0.00     0.251 C 
ATOM     75  H   UNL A   1      34.024  25.755  21.657  1.00  0.00     0.163 HD
ATOM     76  O   UNL A   1      33.047  23.529  21.917  1.00  0.00    -0.269 OA
BRANCH  74  77
ATOM     77  C   UNL A   1      32.450  24.127  24.095  1.00  0.00     0.048 A 
ATOM     78  C   UNL A   1      31.063  24.400  24.073  1.00  0.00     0.014 A 
ATOM     79  C   UNL A   1      33.118  23.572  25.248  1.00  0.00     0.011 A 
ATOM     80  C   UNL A   1      30.286  24.204  25.197  1.00  0.00     0.001 A 
ATOM     81  C   UNL A   1      32.245  23.344  26.364  1.00  0.00    -0.016 A 
ATOM     82  C   UNL A   1      34.508  23.222  25.468  1.00  0.00     0.052 A 
ATOM     83  C   UNL A   1      30.880  23.678  26.330  1.00  0.00     0.009 A 
ATOM     84  C   UNL A   1      32.704  22.779  27.561  1.00  0.00     0.009 A 
ATOM     85  C   UNL A   1      34.920  22.660  26.703  1.00  0.00     0.019 A 
ATOM     86  C   UNL A   1      34.028  22.424  27.732  1.00  0.00     0.002 A 
BRANCH  82  87
ATOM     87  S   UNL A   1      35.937  23.546  24.396  1.00  0.00     0.086 S 
ATOM     88  O   UNL A   1      35.883  22.624  23.226  1.00  0.00    -0.249 OA
BRANCH  87  89
ATOM     89  C   UNL A   1      37.333  23.127  25.494  1.00  0.00     0.049 A 
ATOM     90  C   UNL A   1      37.929  24.134  26.284  1.00  0.00     0.018 A 
ATOM     91  C   UNL A   1      37.988  21.873  25.430  1.00  0.00    -0.006 A 
ATOM     92  C   UNL A   1      39.131  23.930  26.970  1.00  0.00     0.001 A 
ATOM     93  C   UNL A   1      39.215  21.696  26.113  1.00  0.00     0.007 A 
ATOM     94  C   UNL A   1      39.785  22.713  26.871  1.00  0.00     0.000 A 
BRANCH  91  95
ATOM     95  C   UNL A   1      37.508  20.685  24.637  1.00  0.00     0.192 C 
BRANCH  95  96
ATOM     96  O   UNL A   1      36.359  20.133  25.269  1.00  0.00    -0.392 OA
ATOM     97  H   UNL A   1      36.203  19.238  24.930  1.00  0.00     0.211 HD
ENDBRANCH  95  96
ENDBRANCH  91  95
ENDBRANCH  87  89
ENDBRANCH  82  87
ENDBRANCH  74  77
ENDBRANCH  72  73
ENDBRANCH  71  72
ENDBRANCH   1  71
TORSDOF 20
ENDMDL
MODEL 2
REMARK VINA RESULT:     -10.4      0.414      7.976
REMARK SMILES O=C(NCCCCCCNC(=O)c1cccc2cccc([S@](=O)c3ccccc3CO)c12)c1ccc(-c2c3nc(c(-c4ccc(S(=O)(=O)[O-])cc4)c4ccc([nH]4)c(-c4ccc(S(=O)(=O)[O-])cc4)c4nc(c(-c5ccc(S(=O)(=O)[O-])cc5)c5ccc2[nH]5)C=C4)C=C3)cc1
REMARK SMILES IDX 7 1 6 2 5 3 4 4 3 5 1 6 2 7 33 9 34 10 92 11 35 12 91 13
REMARK SMILES IDX 36 14 37 15 38 16 85 17 39 18 90 19 84 20 86 21 40 22 89 23
REMARK SMILES IDX 83 24 82 25 41 27 71 28 52 29 70 30 53 31 56 32 69 33 87 34
REMARK SMILES IDX 54 35 55 36 68 38 88 39 57 40 42 41 43 42 51 43 44 44 50 45
REMARK SMILES IDX 45 46 46 47 47 48 48 49 49 50 72 51 73 52 81 53 74 54 80 55
REMARK SMILES IDX 75 56 76 57 77 58 78 59 79 60 58 61 59 62 67 63 60 64 66 65
REMARK SMILES IDX 61 66 62 67 63 68 64 69 65 70 8 71 9 72 10 73 11 74 12 76
REMARK SMILES IDX 13 77 14 78 32 79 15 80 17 81 21 82 16 83 18 84 20 85 19 86
REMARK SMILES IDX 22 87 23 88 24 89 25 90 29 91 26 92 28 93 27 94 30 95 31 96
REMARK H PARENT 3 8 86 26 56 37 10 75 31 97
REMARK Flexibility Score: inf
ROOT
ATOM      1  C   UNL A   1      31.880  28.025  24.804  1.00  0.00     0.002 C 
ENDROOT
BRANCH   1   2
ATOM      2  C   UNL A   1      32.375  27.194  25.992  1.00  0.00     0.002 C 
BRANCH   2   3
ATOM      3  C   UNL A   1      33.177  27.947  27.054  1.00  0.00     0.021 C 
BRANCH   3   4
ATOM      4  C   UNL A   1      34.259  28.879  26.522  1.00  0.00     0.116 C 
BRANCH   4   5
ATOM      5  N   UNL A   1      33.959  30.281  26.759  1.00  0.00    -0.352 N 
ATOM      6  O   UNL A   1      34.077  32.285  27.782  1.00  0.00    -0.269 OA
ATOM      7  C   UNL A   1      34.569  31.176  27.608  1.00  0.00     0.251 C 
ATOM      8  H   UNL A   1      33.211  30.645  26.233  1.00  0.00     0.163 HD
BRANCH   7   9
ATOM      9  C   UNL A   1      35.806  30.794  28.331  1.00  0.00     0.039 A 
ATOM     10  C   UNL A   1      35.807  29.742  29.249  1.00  0.00     0.014 A 
ATOM     11  C   UNL A   1      36.991  31.487  28.066  1.00  0.00     0.014 A 
ATOM     12  C   UNL A   1      36.953  29.468  29.992  1.00  0.00     0.010 A 
ATOM     13  C   UNL A   1      38.164  31.157  28.755  1.00  0.00     0.010 A 
ATOM     14  C   UNL A   1      38.149  30.162  29.742  1.00  0.00    -0.014 A 
BRANCH  14  15
ATOM     15  C   UNL A   1      39.382  29.769  30.472  1.00  0.00     0.031 A 
ATOM     16  C   UNL A   1      40.274  28.666  29.971  1.00  0.00     0.074 A 
ATOM     17  C   UNL A   1      39.709  30.444  31.593  1.00  0.00     0.049 A 
ATOM     18  N   UNL A   1      41.403  28.232  30.473  1.00  0.00    -0.248 NA
ATOM     19  C   UNL A   1      39.847  27.955  28.756  1.00  0.00     0.031 C 
ATOM     20  C   UNL A   1      38.915  31.525  32.186  1.00  0.00     0.029 A 
ATOM     21  N   UNL A   1      40.796  30.340  32.421  1.00  0.00    -0.354 N 
ATOM     22  C   UNL A   1      41.815  27.191  29.649  1.00  0.00     0.074 A 
ATOM     23  C   UNL A   1      40.801  27.042  28.625  1.00  0.00     0.031 C 
ATOM     24  C   UNL A   1      39.565  32.016  33.250  1.00  0.00     0.029 A 
ATOM     25  C   UNL A   1      40.787  31.248  33.454  1.00  0.00     0.049 A 
ATOM     26  H   UNL A   1      41.514  29.679  32.290  1.00  0.00     0.167 HD
ATOM     27  C   UNL A   1      42.935  26.433  29.736  1.00  0.00     0.031 A 
ATOM     28  C   UNL A   1      41.657  31.438  34.464  1.00  0.00     0.031 A 
ATOM     29  C   UNL A   1      43.939  26.584  30.759  1.00  0.00     0.049 A 
ATOM     30  C   UNL A   1      42.876  30.567  34.550  1.00  0.00     0.074 A 
ATOM     31  C   UNL A   1      45.124  25.883  30.912  1.00  0.00     0.029 A 
ATOM     32  N   UNL A   1      43.876  27.492  31.806  1.00  0.00    -0.354 N 
ATOM     33  N   UNL A   1      43.264  29.613  33.738  1.00  0.00    -0.248 NA
ATOM     34  C   UNL A   1      43.775  30.799  35.688  1.00  0.00     0.031 C 
ATOM     35  C   UNL A   1      45.753  26.333  32.079  1.00  0.00     0.029 A 
ATOM     36  C   UNL A   1      44.987  27.352  32.622  1.00  0.00     0.049 A 
ATOM     37  H   UNL A   1      43.148  28.140  31.949  1.00  0.00     0.167 HD
ATOM     38  C   UNL A   1      44.460  29.138  34.260  1.00  0.00     0.074 A 
ATOM     39  C   UNL A   1      44.743  29.926  35.443  1.00  0.00     0.031 C 
ATOM     40  C   UNL A   1      45.250  28.135  33.803  1.00  0.00     0.031 A 
BRANCH  27  41
ATOM     41  C   UNL A   1      43.132  25.351  28.705  1.00  0.00    -0.014 A 
ATOM     42  C   UNL A   1      42.780  24.017  28.974  1.00  0.00     0.010 A 
ATOM     43  C   UNL A   1      43.615  25.685  27.427  1.00  0.00     0.010 A 
ATOM     44  C   UNL A   1      42.941  23.031  27.996  1.00  0.00     0.020 A 
ATOM     45  C   UNL A   1      43.756  24.707  26.438  1.00  0.00     0.020 A 
ATOM     46  C   UNL A   1      43.431  23.382  26.734  1.00  0.00     0.054 A 
BRANCH  46  47
ATOM     47  S   UNL A   1      43.603  22.086  25.475  1.00  0.00     0.124 S 
ATOM     48  O   UNL A   1      42.689  21.061  25.972  1.00  0.00    -0.237 OA
ATOM     49  O   UNL A   1      43.179  22.767  24.254  1.00  0.00    -0.237 OA
ATOM     50  O   UNL A   1      45.020  21.736  25.530  1.00  0.00    -0.744 OA
ENDBRANCH  46  47
ENDBRANCH  27  41
BRANCH  28  51
ATOM     51  C   UNL A   1      41.388  32.490  35.481  1.00  0.00    -0.014 A 
ATOM     52  C   UNL A   1      41.875  33.797  35.308  1.00  0.00     0.010 A 
ATOM     53  C   UNL A   1      40.615  32.191  36.618  1.00  0.00     0.010 A 
ATOM     54  C   UNL A   1      41.605  34.782  36.261  1.00  0.00     0.020 A 
ATOM     55  C   UNL A   1      40.319  33.181  37.558  1.00  0.00     0.020 A 
ATOM     56  C   UNL A   1      40.827  34.468  37.379  1.00  0.00     0.054 A 
BRANCH  56  57
ATOM     57  S   UNL A   1      40.443  35.775  38.577  1.00  0.00     0.124 S 
ATOM     58  O   UNL A   1      39.710  36.733  37.756  1.00  0.00    -0.237 OA
ATOM     59  O   UNL A   1      39.651  35.064  39.579  1.00  0.00    -0.237 OA
ATOM     60  O   UNL A   1      41.757  36.216  39.035  1.00  0.00    -0.744 OA
ENDBRANCH  56  57
ENDBRANCH  28  51
BRANCH  40  61
ATOM     61  C   UNL A   1      46.508  27.850  34.577  1.00  0.00    -0.014 A 
ATOM     62  C   UNL A   1      47.710  28.515  34.279  1.00  0.00     0.010 A 
ATOM     63  C   UNL A   1      46.478  26.926  35.637  1.00  0.00     0.010 A 
ATOM     64  C   UNL A   1      48.870  28.234  35.005  1.00  0.00     0.020 A 
ATOM     65  C   UNL A   1      47.630  26.662  36.382  1.00  0.00     0.020 A 
ATOM     66  C   UNL A   1      48.823  27.305  36.050  1.00  0.00     0.054 A 
BRANCH  66  67
ATOM     67  S   UNL A   1      50.334  26.980  36.999  1.00  0.00     0.124 S 
ATOM     68  O   UNL A   1      51.360  27.019  35.959  1.00  0.00    -0.237 OA
ATOM     69  O   UNL A   1      50.362  28.086  37.952  1.00  0.00    -0.237 OA
ATOM     70  O   UNL A   1      50.095  25.665  37.588  1.00  0.00    -0.744 OA
ENDBRANCH  66  67
ENDBRANCH  40  61
ENDBRANCH  14  15
ENDBRANCH   7   9
ENDBRANCH   4   5
ENDBRANCH   3   4
ENDBRANCH   2   3
ENDBRANCH   1   2
BRANCH   1  71
ATOM     71  C   UNL A   1      32.458  27.664  23.433  1.00  0.00     0.021 C 
BRANCH  71  72
ATOM     72  C   UNL A   1      33.716  26.798  23.446  1.00  0.00     0.116 C 
BRANCH  72  73
ATOM     73  N   UNL A   1      33.643  25.655  22.549  1.00  0.00    -0.352 N 
ATOM     74  C   UNL A   1      33.101  24.410  22.775  1.00  0.00     0.251 C 
ATOM     75  H   UNL A   1      34.037  25.791  21.658  1.00  0.00     0.163 HD
ATOM     76  O   UNL A   1      33.057  23.563  21.888  1.00  0.00    -0.269 OA
BRANCH  74  77
ATOM     77  C   UNL A   1      32.443  24.139  24.067  1.00  0.00     0.048 A 
ATOM     78  C   UNL A   1      31.057  24.415  24.037  1.00  0.00     0.014 A 
ATOM     79  C   UNL A   1      33.101  23.571  25.219  1.00  0.00     0.011 A 
ATOM     80  C   UNL A   1      30.271  24.208  25.153  1.00  0.00     0.001 A 
ATOM     81  C   UNL A   1      32.220  23.333  26.326  1.00  0.00    -0.016 A 
ATOM     82  C   UNL A   1      34.489  23.217  25.446  1.00  0.00     0.052 A 
ATOM     83  C   UNL A   1      30.856  23.669  26.285  1.00  0.00     0.009 A 
ATOM     84  C   UNL A   1      32.669  22.755  27.521  1.00  0.00     0.009 A 
ATOM     85  C   UNL A   1      34.891  22.641  26.678  1.00  0.00     0.019 A 
ATOM     86  C   UNL A   1      33.991  22.395  27.698  1.00  0.00     0.002 A 
BRANCH  82  87
ATOM     87  S   UNL A   1      35.927  23.550  24.388  1.00  0.00     0.086 S 
ATOM     88  O   UNL A   1      35.901  22.615  23.228  1.00  0.00    -0.249 OA
BRANCH  87  89
ATOM     89  C   UNL A   1      37.315  23.163  25.508  1.00  0.00     0.049 A 
ATOM     90  C   UNL A   1      37.873  24.182  26.310  1.00  0.00     0.018 A 
ATOM     91  C   UNL A   1      38.001  21.926  25.453  1.00  0.00    -0.006 A 
ATOM     92  C   UNL A   1      39.068  24.006  27.015  1.00  0.00     0.001 A 
ATOM     93  C   UNL A   1      39.221  21.776  26.155  1.00  0.00     0.007 A 
ATOM     94  C   UNL A   1      39.753  22.806  26.924  1.00  0.00     0.000 A 
BRANCH  91  95
ATOM     95  C   UNL A   1      37.564  20.728  24.649  1.00  0.00     0.192 C 
BRANCH  95  96
ATOM     96  O   UNL A   1      36.431  20.133  25.273  1.00  0.00    -0.392 OA
ATOM     97  H   UNL A   1      35.839  20.829  25.599  1.00  0.00     0.211 HD
ENDBRANCH  95  96
ENDBRANCH  91  95
ENDBRANCH  87  89
ENDBRANCH  82  87
ENDBRANCH  74  77
ENDBRANCH  72  73
ENDBRANCH  71  72
ENDBRANCH   1  71
TORSDOF 20
ENDMDL
MODEL 3
REMARK VINA RESULT:     -10.1      2.600      9.104
REMARK SMILES O=C(NCCCCCCNC(=O)c1cccc2cccc([S@](=O)c3ccccc3CO)c12)c1ccc(-c2c3nc(c(-c4ccc(S(=O)(=O)[O-])cc4)c4ccc([nH]4)c(-c4ccc(S(=O)(=O)[O-])cc4)c4nc(c(-c5ccc(S(=O)(=O)[O-])cc5)c5ccc2[nH]5)C=C4)C=C3)cc1
REMARK SMILES IDX 7 1 6 2 5 3 4 4 3 5 1 6 2 7 33 9 34 10 92 11 35 12 91 13
REMARK SMILES IDX 36 14 37 15 38 16 85 17 39 18 90 19 84 20 86 21 40 22 89 23
REMARK SMILES IDX 83 24 82 25 41 27 71 28 52 29 70 30 53 31 56 32 69 33 87 34
REMARK SMILES IDX 54 35 55 36 68 38 88 39 57 40 42 41 43 42 51 43 44 44 50 45
REMARK SMILES IDX 45 46 46 47 47 48 48 49 49 50 72 51 73 52 81 53 74 54 80 55
REMARK SMILES IDX 75 56 76 57 77 58 78 59 79 60 58 61 59 62 67 63 60 64 66 65
REMARK SMILES IDX 61 66 62 67 63 68 64 69 65 70 8 71 9 72 10 73 11 74 12 76
REMARK SMILES IDX 13 77 14 78 32 79 15 80 17 81 21 82 16 83 18 84 20 85 19 86
REMARK SMILES IDX 22 87 23 88 24 89 25 90 29 91 26 92 28 93 27 94 30 95 31 96
REMARK H PARENT 3 8 86 26 56 37 10 75 31 97
REMARK Flexibility Score: inf
ROOT
ATOM      1  C   UNL A   1      38.775  22.839  26.559  1.00  0.00     0.002 C 
ENDROOT
BRANCH   1   2
ATOM      2  C   UNL A   1      40.105  22.094  26.403  1.00  0.00     0.002 C 
BRANCH   2   3
ATOM      3  C   UNL A   1      41.027  22.099  27.623  1.00  0.00     0.021 C 
BRANCH   3   4
ATOM      4  C   UNL A   1      42.313  22.904  27.473  1.00  0.00     0.116 C 
BRANCH   4   5
ATOM      5  N   UNL A   1      42.337  23.703  26.259  1.00  0.00    -0.352 N 
ATOM      6  O   UNL A   1      41.995  25.507  24.955  1.00  0.00    -0.269 OA
ATOM      7  C   UNL A   1      42.068  25.041  26.086  1.00  0.00     0.251 C 
ATOM      8  H   UNL A   1      42.585  23.215  25.440  1.00  0.00     0.163 HD
BRANCH   7   9
ATOM      9  C   UNL A   1      41.843  25.915  27.263  1.00  0.00     0.039 A 
ATOM     10  C   UNL A   1      40.720  25.750  28.076  1.00  0.00     0.014 A 
ATOM     11  C   UNL A   1      42.786  26.899  27.570  1.00  0.00     0.014 A 
ATOM     12  C   UNL A   1      40.475  26.648  29.112  1.00  0.00     0.010 A 
ATOM     13  C   UNL A   1      42.580  27.750  28.662  1.00  0.00     0.010 A 
ATOM     14  C   UNL A   1      41.410  27.647  29.428  1.00  0.00    -0.014 A 
BRANCH  14  15
ATOM     15  C   UNL A   1      41.173  28.516  30.610  1.00  0.00     0.031 A 
ATOM     16  C   UNL A   1      42.045  28.431  31.834  1.00  0.00     0.074 A 
ATOM     17  C   UNL A   1      40.168  29.413  30.558  1.00  0.00     0.049 A 
ATOM     18  N   UNL A   1      41.991  29.146  32.929  1.00  0.00    -0.248 NA
ATOM     19  C   UNL A   1      43.108  27.415  31.834  1.00  0.00     0.031 C 
ATOM     20  C   UNL A   1      39.246  29.579  29.430  1.00  0.00     0.029 A 
ATOM     21  N   UNL A   1      39.763  30.364  31.459  1.00  0.00    -0.354 N 
ATOM     22  C   UNL A   1      42.999  28.661  33.755  1.00  0.00     0.074 A 
ATOM     23  C   UNL A   1      43.635  27.572  33.042  1.00  0.00     0.031 C 
ATOM     24  C   UNL A   1      38.418  30.603  29.685  1.00  0.00     0.029 A 
ATOM     25  C   UNL A   1      38.706  31.124  31.016  1.00  0.00     0.049 A 
ATOM     26  H   UNL A   1      40.187  30.490  32.339  1.00  0.00     0.167 HD
ATOM     27  C   UNL A   1      43.362  29.085  34.990  1.00  0.00     0.031 A 
ATOM     28  C   UNL A   1      38.031  32.124  31.615  1.00  0.00     0.031 A 
ATOM     29  C   UNL A   1      42.723  30.167  35.696  1.00  0.00     0.049 A 
ATOM     30  C   UNL A   1      38.439  32.556  32.993  1.00  0.00     0.074 A 
ATOM     31  C   UNL A   1      43.040  30.689  36.939  1.00  0.00     0.029 A 
ATOM     32  N   UNL A   1      41.635  30.888  35.228  1.00  0.00    -0.354 N 
ATOM     33  N   UNL A   1      39.419  32.107  33.739  1.00  0.00    -0.248 NA
ATOM     34  C   UNL A   1      37.650  33.631  33.609  1.00  0.00     0.031 C 
ATOM     35  C   UNL A   1      42.113  31.693  37.243  1.00  0.00     0.029 A 
ATOM     36  C   UNL A   1      41.252  31.833  36.166  1.00  0.00     0.049 A 
ATOM     37  H   UNL A   1      41.197  30.749  34.356  1.00  0.00     0.167 HD
ATOM     38  C   UNL A   1      39.373  32.852  34.910  1.00  0.00     0.074 A 
ATOM     39  C   UNL A   1      38.284  33.797  34.762  1.00  0.00     0.031 C 
ATOM     40  C   UNL A   1      40.159  32.759  36.010  1.00  0.00     0.031 A 
BRANCH  27  41
ATOM     41  C   UNL A   1      44.495  28.365  35.674  1.00  0.00    -0.014 A 
ATOM     42  C   UNL A   1      45.825  28.801  35.535  1.00  0.00     0.010 A 
ATOM     43  C   UNL A   1      44.219  27.275  36.521  1.00  0.00     0.010 A 
ATOM     44  C   UNL A   1      46.860  28.139  36.202  1.00  0.00     0.020 A 
ATOM     45  C   UNL A   1      45.249  26.625  37.207  1.00  0.00     0.020 A 
ATOM     46  C   UNL A   1      46.567  27.053  37.031  1.00  0.00     0.054 A 
BRANCH  46  47
ATOM     47  S   UNL A   1      47.928  26.231  37.905  1.00  0.00     0.124 S 
ATOM     48  O   UNL A   1      48.545  25.452  36.835  1.00  0.00    -0.237 OA
ATOM     49  O   UNL A   1      48.719  27.356  38.398  1.00  0.00    -0.237 OA
ATOM     50  O   UNL A   1      47.254  25.447  38.938  1.00  0.00    -0.744 OA
ENDBRANCH  46  47
ENDBRANCH  27  41
BRANCH  28  51
ATOM     51  C   UNL A   1      36.889  32.767  30.911  1.00  0.00    -0.014 A 
ATOM     52  C   UNL A   1      35.571  32.341  31.146  1.00  0.00     0.010 A 
ATOM     53  C   UNL A   1      37.117  33.834  30.023  1.00  0.00     0.010 A 
ATOM     54  C   UNL A   1      34.502  32.960  30.491  1.00  0.00     0.020 A 
ATOM     55  C   UNL A   1      36.050  34.474  29.390  1.00  0.00     0.020 A 
ATOM     56  C   UNL A   1      34.749  34.025  29.620  1.00  0.00     0.054 A 
BRANCH  56  57
ATOM     57  S   UNL A   1      33.345  34.851  28.822  1.00  0.00     0.124 S 
ATOM     58  O   UNL A   1      32.848  33.810  27.929  1.00  0.00    -0.237 OA
ATOM     59  O   UNL A   1      32.482  35.177  29.957  1.00  0.00    -0.237 OA
ATOM     60  O   UNL A   1      33.955  36.004  28.165  1.00  0.00    -0.744 OA
ENDBRANCH  56  57
ENDBRANCH  28  51
BRANCH  40  61
ATOM     61  C   UNL A   1      39.879  33.721  37.133  1.00  0.00    -0.014 A 
ATOM     62  C   UNL A   1      40.392  35.030  37.112  1.00  0.00     0.010 A 
ATOM     63  C   UNL A   1      39.068  33.317  38.208  1.00  0.00     0.010 A 
ATOM     64  C   UNL A   1      40.126  35.908  38.166  1.00  0.00     0.020 A 
ATOM     65  C   UNL A   1      38.778  34.202  39.251  1.00  0.00     0.020 A 
ATOM     66  C   UNL A   1      39.323  35.487  39.231  1.00  0.00     0.054 A 
BRANCH  66  67
ATOM     67  S   UNL A   1      38.966  36.654  40.572  1.00  0.00     0.124 S 
ATOM     68  O   UNL A   1      40.273  36.793  41.209  1.00  0.00    -0.237 OA
ATOM     69  O   UNL A   1      38.487  37.833  39.855  1.00  0.00    -0.237 OA
ATOM     70  O   UNL A   1      37.955  35.965  41.369  1.00  0.00    -0.744 OA
ENDBRANCH  66  67
ENDBRANCH  40  61
ENDBRANCH  14  15
ENDBRANCH   7   9
ENDBRANCH   4   5
ENDBRANCH   3   4
ENDBRANCH   2   3
ENDBRANCH   1   2
BRANCH   1  71
ATOM     71  C   UNL A   1      37.674  22.480  25.557  1.00  0.00     0.021 C 
BRANCH  71  72
ATOM     72  C   UNL A   1      36.439  23.377  25.572  1.00  0.00     0.116 C 
BRANCH  72  73
ATOM     73  N   UNL A   1      35.628  23.230  26.771  1.00  0.00    -0.352 N 
ATOM     74  C   UNL A   1      34.372  22.684  26.906  1.00  0.00     0.251 C 
ATOM     75  H   UNL A   1      36.035  23.569  27.600  1.00  0.00     0.163 HD
ATOM     76  O   UNL A   1      33.840  22.570  28.006  1.00  0.00    -0.269 OA
BRANCH  74  77
ATOM     77  C   UNL A   1      33.712  22.104  25.721  1.00  0.00     0.048 A 
ATOM     78  C   UNL A   1      34.129  20.779  25.462  1.00  0.00     0.014 A 
ATOM     79  C   UNL A   1      32.687  22.765  24.949  1.00  0.00     0.011 A 
ATOM     80  C   UNL A   1      33.608  20.068  24.400  1.00  0.00     0.001 A 
ATOM     81  C   UNL A   1      32.150  21.955  23.892  1.00  0.00    -0.016 A 
ATOM     82  C   UNL A   1      32.124  24.097  25.054  1.00  0.00     0.052 A 
ATOM     83  C   UNL A   1      32.624  20.659  23.626  1.00  0.00     0.009 A 
ATOM     84  C   UNL A   1      31.122  22.411  23.057  1.00  0.00     0.009 A 
ATOM     85  C   UNL A   1      31.089  24.511  24.176  1.00  0.00     0.019 A 
ATOM     86  C   UNL A   1      30.580  23.674  23.200  1.00  0.00     0.002 A 
BRANCH  82  87
ATOM     87  S   UNL A   1      32.668  25.473  26.105  1.00  0.00     0.086 S 
ATOM     88  O   UNL A   1      31.613  25.752  27.121  1.00  0.00    -0.249 OA
BRANCH  87  89
ATOM     89  C   UNL A   1      32.793  26.840  24.901  1.00  0.00     0.049 A 
ATOM     90  C   UNL A   1      31.968  27.977  25.045  1.00  0.00     0.018 A 
ATOM     91  C   UNL A   1      33.534  26.717  23.702  1.00  0.00    -0.006 A 
ATOM     92  C   UNL A   1      31.856  28.947  24.043  1.00  0.00     0.001 A 
ATOM     93  C   UNL A   1      33.388  27.698  22.692  1.00  0.00     0.007 A 
ATOM     94  C   UNL A   1      32.555  28.799  22.857  1.00  0.00     0.000 A 
BRANCH  91  95
ATOM     95  C   UNL A   1      34.459  25.575  23.368  1.00  0.00     0.192 C 
BRANCH  95  96
ATOM     96  O   UNL A   1      34.026  24.958  22.161  1.00  0.00    -0.392 OA
ATOM     97  H   UNL A   1      33.348  25.509  21.742  1.00  0.00     0.211 HD
ENDBRANCH  95  96
ENDBRANCH  91  95
ENDBRANCH  87  89
ENDBRANCH  82  87
ENDBRANCH  74  77
ENDBRANCH  72  73
ENDBRANCH  71  72
ENDBRANCH   1  71
TORSDOF 20
ENDMDL
