MODEL 1
REMARK VINA RESULT:     -13.9      0.000      0.000
REMARK SMILES Cc1ccccc1[C@@H]1[NH2+][C@@H](C(=O)NCCCCCCNC(=O)c2ccc(-c3c4nc(c(-c5ccc(S(=O)(=O)[O-])cc5)c5ccc([nH]5)c(-c5ccc(S(=O)(=O)[O-])cc5)c5nc(c(-c6ccc(S(=O)(=O)[O-])cc6)c6ccc3[nH]6)C=C5)C=C4)cc2)CC2=c3ccccc3=N[C@H]21
REMARK SMILES IDX 17 1 16 2 15 3 14 4 13 5 11 6 12 7 10 9 8 10 9 11 92 12
REMARK SMILES IDX 84 15 91 16 83 17 85 18 90 19 86 20 89 21 87 22 88 23 7 24
REMARK SMILES IDX 1 25 2 26 3 27 4 28 6 29 5 30 18 31 19 32 20 33 21 34 22 36
REMARK SMILES IDX 23 37 24 38 82 39 25 40 81 41 26 42 27 43 28 44 75 45 29 46
REMARK SMILES IDX 80 47 74 48 76 49 30 50 79 51 73 52 72 53 31 55 61 56 42 57
REMARK SMILES IDX 60 58 43 59 46 60 59 61 77 62 44 63 45 64 58 66 78 67 47 68
REMARK SMILES IDX 32 69 33 70 41 71 34 72 40 73 35 74 36 75 37 76 38 77 39 78
REMARK SMILES IDX 62 79 63 80 71 81 64 82 70 83 65 84 66 85 67 86 68 87 69 88
REMARK SMILES IDX 48 89 49 90 57 91 50 92 56 93 51 94 52 95 53 96 54 97 55 98
REMARK H PARENT 13 8 9 13 9 14 20 35 76 54 46 65
REMARK Flexibility Score: inf
ROOT
ATOM      1  C   UNL A   1      32.771  29.788  25.480  1.00  0.00     0.002 C 
ENDROOT
BRANCH   1   2
ATOM      2  C   UNL A   1      31.444  29.210  24.950  1.00  0.00     0.002 C 
BRANCH   2   3
ATOM      3  C   UNL A   1      31.431  28.601  23.539  1.00  0.00     0.021 C 
BRANCH   3   4
ATOM      4  C   UNL A   1      32.757  28.632  22.779  1.00  0.00     0.116 C 
BRANCH   4   5
ATOM      5  N   UNL A   1      33.112  27.432  22.036  1.00  0.00    -0.351 N 
ATOM      6  C   UNL A   1      33.414  26.167  22.461  1.00  0.00     0.278 C 
ATOM      7  O   UNL A   1      33.104  25.245  21.690  1.00  0.00    -0.268 OA
ATOM      8  H   UNL A   1      33.141  27.551  21.059  1.00  0.00     0.163 HD
BRANCH   6   9
ATOM      9  C   UNL A   1      34.286  25.875  23.721  1.00  0.00     0.277 C 
ATOM     10  C   UNL A   1      34.449  23.454  24.612  1.00  0.00     0.243 C 
ATOM     11  N   UNL A   1      34.857  24.490  23.626  1.00  0.00    -0.327 N 
ATOM     12  C   UNL A   1      33.803  23.917  25.956  1.00  0.00     0.196 C 
ATOM     13  H   UNL A   1      34.613  24.132  22.703  1.00  0.00     0.347 HD
ATOM     14  H   UNL A   1      35.848  24.629  23.824  1.00  0.00     0.347 HD
ATOM     15  C   UNL A   1      32.981  25.134  25.697  1.00  0.00    -0.024 C 
ATOM     16  N   UNL A   1      32.835  22.917  26.506  1.00  0.00    -0.270 NA
ATOM     17  C   UNL A   1      33.723  26.260  25.090  1.00  0.00     0.109 C 
ATOM     18  C   UNL A   1      31.705  24.947  25.997  1.00  0.00     0.002 A 
ATOM     19  C   UNL A   1      31.715  23.575  26.534  1.00  0.00     0.066 A 
ATOM     20  C   UNL A   1      30.502  25.695  25.860  1.00  0.00     0.010 A 
ATOM     21  C   UNL A   1      30.427  23.072  27.056  1.00  0.00     0.028 A 
ATOM     22  C   UNL A   1      29.353  25.147  26.292  1.00  0.00     0.001 A 
ATOM     23  C   UNL A   1      29.331  23.841  26.931  1.00  0.00     0.002 A 
BRANCH  10  24
ATOM     24  C   UNL A   1      35.635  22.523  24.921  1.00  0.00     0.015 A 
ATOM     25  C   UNL A   1      34.288  20.344  24.600  1.00  0.00     0.045 C 
ATOM     26  C   UNL A   1      35.554  21.108  24.883  1.00  0.00    -0.042 A 
ATOM     27  C   UNL A   1      36.728  20.345  25.040  1.00  0.00     0.004 A 
ATOM     28  C   UNL A   1      37.959  20.952  25.275  1.00  0.00     0.000 A 
ATOM     29  C   UNL A   1      36.891  23.112  25.178  1.00  0.00     0.010 A 
ATOM     30  C   UNL A   1      38.039  22.335  25.358  1.00  0.00     0.001 A 
ENDBRANCH  10  24
ENDBRANCH   6   9
ENDBRANCH   4   5
ENDBRANCH   3   4
ENDBRANCH   2   3
ENDBRANCH   1   2
BRANCH   1  31
ATOM     31  C   UNL A   1      32.989  29.783  26.996  1.00  0.00     0.021 C 
BRANCH  31  32
ATOM     32  C   UNL A   1      34.424  29.526  27.436  1.00  0.00     0.116 C 
BRANCH  32  33
ATOM     33  N   UNL A   1      35.341  30.635  27.213  1.00  0.00    -0.352 N 
ATOM     34  C   UNL A   1      36.448  30.862  28.035  1.00  0.00     0.251 C 
ATOM     35  H   UNL A   1      35.176  31.244  26.457  1.00  0.00     0.163 HD
ATOM     36  O   UNL A   1      36.711  31.920  28.561  1.00  0.00    -0.269 OA
BRANCH  34  37
ATOM     37  C   UNL A   1      37.340  29.689  28.191  1.00  0.00     0.039 A 
ATOM     38  C   UNL A   1      37.388  29.022  29.418  1.00  0.00     0.014 A 
ATOM     39  C   UNL A   1      38.293  29.454  27.204  1.00  0.00     0.014 A 
ATOM     40  C   UNL A   1      38.502  28.240  29.723  1.00  0.00     0.010 A 
ATOM     41  C   UNL A   1      39.439  28.774  27.548  1.00  0.00     0.010 A 
ATOM     42  C   UNL A   1      39.564  28.200  28.820  1.00  0.00    -0.014 A 
BRANCH  42  43
ATOM     43  C   UNL A   1      40.882  27.646  29.105  1.00  0.00     0.031 A 
ATOM     44  C   UNL A   1      41.209  26.268  28.680  1.00  0.00     0.074 A 
ATOM     45  C   UNL A   1      41.862  28.450  29.576  1.00  0.00     0.049 A 
ATOM     46  N   UNL A   1      42.228  25.597  29.100  1.00  0.00    -0.248 NA
ATOM     47  C   UNL A   1      40.370  25.511  27.757  1.00  0.00     0.031 C 
ATOM     48  C   UNL A   1      43.299  28.194  29.540  1.00  0.00     0.029 A 
ATOM     49  N   UNL A   1      41.747  29.583  30.381  1.00  0.00    -0.354 N 
ATOM     50  C   UNL A   1      42.366  24.500  28.281  1.00  0.00     0.074 A 
ATOM     51  C   UNL A   1      41.133  24.438  27.532  1.00  0.00     0.031 C 
ATOM     52  C   UNL A   1      43.886  28.917  30.505  1.00  0.00     0.029 A 
ATOM     53  C   UNL A   1      42.823  29.525  31.287  1.00  0.00     0.049 A 
ATOM     54  H   UNL A   1      41.056  30.281  30.326  1.00  0.00     0.167 HD
ATOM     55  C   UNL A   1      43.563  23.848  28.230  1.00  0.00     0.031 A 
ATOM     56  C   UNL A   1      42.662  29.400  32.639  1.00  0.00     0.031 A 
ATOM     57  C   UNL A   1      44.514  24.369  29.217  1.00  0.00     0.049 A 
ATOM     58  C   UNL A   1      43.299  28.143  33.213  1.00  0.00     0.074 A 
ATOM     59  C   UNL A   1      45.669  25.132  29.161  1.00  0.00     0.029 A 
ATOM     60  N   UNL A   1      44.163  24.314  30.556  1.00  0.00    -0.354 N 
ATOM     61  N   UNL A   1      43.953  27.260  32.509  1.00  0.00    -0.248 NA
ATOM     62  C   UNL A   1      43.162  27.731  34.612  1.00  0.00     0.031 C 
ATOM     63  C   UNL A   1      46.001  25.536  30.488  1.00  0.00     0.029 A 
ATOM     64  C   UNL A   1      45.057  25.006  31.347  1.00  0.00     0.049 A 
ATOM     65  H   UNL A   1      43.372  23.841  30.901  1.00  0.00     0.167 HD
ATOM     66  C   UNL A   1      44.249  26.172  33.285  1.00  0.00     0.074 A 
ATOM     67  C   UNL A   1      43.754  26.522  34.604  1.00  0.00     0.031 C 
ATOM     68  C   UNL A   1      44.825  25.042  32.781  1.00  0.00     0.031 A 
BRANCH  55  69
ATOM     69  C   UNL A   1      43.955  22.876  27.135  1.00  0.00    -0.014 A 
ATOM     70  C   UNL A   1      43.022  21.922  26.680  1.00  0.00     0.010 A 
ATOM     71  C   UNL A   1      45.232  22.811  26.544  1.00  0.00     0.010 A 
ATOM     72  C   UNL A   1      43.369  20.907  25.774  1.00  0.00     0.020 A 
ATOM     73  C   UNL A   1      45.606  21.786  25.663  1.00  0.00     0.020 A 
ATOM     74  C   UNL A   1      44.672  20.827  25.293  1.00  0.00     0.054 A 
BRANCH  74  75
ATOM     75  S   UNL A   1      45.134  19.466  24.193  1.00  0.00     0.124 S 
ATOM     76  O   UNL A   1      44.444  19.815  22.954  1.00  0.00    -0.237 OA
ATOM     77  O   UNL A   1      46.590  19.570  24.157  1.00  0.00    -0.237 OA
ATOM     78  O   UNL A   1      44.614  18.280  24.872  1.00  0.00    -0.744 OA
ENDBRANCH  74  75
ENDBRANCH  55  69
BRANCH  56  79
ATOM     79  C   UNL A   1      41.422  30.056  33.149  1.00  0.00    -0.014 A 
ATOM     80  C   UNL A   1      41.464  31.459  33.313  1.00  0.00     0.010 A 
ATOM     81  C   UNL A   1      40.174  29.428  32.992  1.00  0.00     0.010 A 
ATOM     82  C   UNL A   1      40.320  32.232  33.102  1.00  0.00     0.020 A 
ATOM     83  C   UNL A   1      39.022  30.204  32.796  1.00  0.00     0.020 A 
ATOM     84  C   UNL A   1      39.125  31.599  32.762  1.00  0.00     0.054 A 
BRANCH  84  85
ATOM     85  S   UNL A   1      37.771  32.614  32.088  1.00  0.00     0.124 S 
ATOM     86  O   UNL A   1      38.397  33.250  30.935  1.00  0.00    -0.237 OA
ATOM     87  O   UNL A   1      36.752  31.606  31.781  1.00  0.00    -0.237 OA
ATOM     88  O   UNL A   1      37.441  33.503  33.197  1.00  0.00    -0.744 OA
ENDBRANCH  84  85
ENDBRANCH  56  79
BRANCH  68  89
ATOM     89  C   UNL A   1      45.172  23.830  33.603  1.00  0.00    -0.014 A 
ATOM     90  C   UNL A   1      44.247  22.807  33.868  1.00  0.00     0.010 A 
ATOM     91  C   UNL A   1      46.424  23.758  34.257  1.00  0.00     0.010 A 
ATOM     92  C   UNL A   1      44.581  21.733  34.707  1.00  0.00     0.020 A 
ATOM     93  C   UNL A   1      46.759  22.703  35.108  1.00  0.00     0.020 A 
ATOM     94  C   UNL A   1      45.838  21.684  35.316  1.00  0.00     0.054 A 
BRANCH  94  95
ATOM     95  S   UNL A   1      46.238  20.309  36.423  1.00  0.00     0.124 S 
ATOM     96  O   UNL A   1      45.433  19.217  35.882  1.00  0.00    -0.237 OA
ATOM     97  O   UNL A   1      47.681  20.178  36.230  1.00  0.00    -0.237 OA
ATOM     98  O   UNL A   1      45.825  20.788  37.739  1.00  0.00    -0.744 OA
ENDBRANCH  94  95
ENDBRANCH  68  89
ENDBRANCH  42  43
ENDBRANCH  34  37
ENDBRANCH  32  33
ENDBRANCH  31  32
ENDBRANCH   1  31
TORSDOF 17
ENDMDL
MODEL 2
REMARK VINA RESULT:     -13.8      1.470      2.951
REMARK SMILES Cc1ccccc1[C@@H]1[NH2+][C@@H](C(=O)NCCCCCCNC(=O)c2ccc(-c3c4nc(c(-c5ccc(S(=O)(=O)[O-])cc5)c5ccc([nH]5)c(-c5ccc(S(=O)(=O)[O-])cc5)c5nc(c(-c6ccc(S(=O)(=O)[O-])cc6)c6ccc3[nH]6)C=C5)C=C4)cc2)CC2=c3ccccc3=N[C@H]21
REMARK SMILES IDX 17 1 16 2 15 3 14 4 13 5 11 6 12 7 10 9 8 10 9 11 92 12
REMARK SMILES IDX 84 15 91 16 83 17 85 18 90 19 86 20 89 21 87 22 88 23 7 24
REMARK SMILES IDX 1 25 2 26 3 27 4 28 6 29 5 30 18 31 19 32 20 33 21 34 22 36
REMARK SMILES IDX 23 37 24 38 82 39 25 40 81 41 26 42 27 43 28 44 75 45 29 46
REMARK SMILES IDX 80 47 74 48 76 49 30 50 79 51 73 52 72 53 31 55 61 56 42 57
REMARK SMILES IDX 60 58 43 59 46 60 59 61 77 62 44 63 45 64 58 66 78 67 47 68
REMARK SMILES IDX 32 69 33 70 41 71 34 72 40 73 35 74 36 75 37 76 38 77 39 78
REMARK SMILES IDX 62 79 63 80 71 81 64 82 70 83 65 84 66 85 67 86 68 87 69 88
REMARK SMILES IDX 48 89 49 90 57 91 50 92 56 93 51 94 52 95 53 96 54 97 55 98
REMARK H PARENT 13 8 9 13 9 14 20 35 76 54 46 65
REMARK Flexibility Score: inf
ROOT
ATOM      1  C   UNL A   1      32.155  28.639  27.104  1.00  0.00     0.002 C 
ENDROOT
BRANCH   1   2
ATOM      2  C   UNL A   1      32.025  27.276  26.397  1.00  0.00     0.002 C 
BRANCH   2   3
ATOM      3  C   UNL A   1      30.620  26.672  26.237  1.00  0.00     0.021 C 
BRANCH   3   4
ATOM      4  C   UNL A   1      30.557  25.244  25.696  1.00  0.00     0.116 C 
BRANCH   4   5
ATOM      5  N   UNL A   1      30.806  24.173  26.649  1.00  0.00    -0.351 N 
ATOM      6  C   UNL A   1      31.684  23.124  26.616  1.00  0.00     0.278 C 
ATOM      7  O   UNL A   1      32.111  22.737  27.715  1.00  0.00    -0.268 OA
ATOM      8  H   UNL A   1      30.244  24.208  27.457  1.00  0.00     0.163 HD
BRANCH   6   9
ATOM      9  C   UNL A   1      31.984  22.302  25.325  1.00  0.00     0.277 C 
ATOM     10  C   UNL A   1      33.364  20.124  25.504  1.00  0.00     0.243 C 
ATOM     11  N   UNL A   1      32.072  20.843  25.669  1.00  0.00    -0.327 N 
ATOM     12  C   UNL A   1      34.457  20.755  24.587  1.00  0.00     0.196 C 
ATOM     13  H   UNL A   1      31.806  20.754  26.648  1.00  0.00     0.347 HD
ATOM     14  H   UNL A   1      31.465  20.401  24.978  1.00  0.00     0.347 HD
ATOM     15  C   UNL A   1      34.386  22.240  24.708  1.00  0.00    -0.024 C 
ATOM     16  N   UNL A   1      35.847  20.407  25.021  1.00  0.00    -0.270 NA
ATOM     17  C   UNL A   1      33.066  22.820  24.377  1.00  0.00     0.109 C 
ATOM     18  C   UNL A   1      35.515  22.757  25.166  1.00  0.00     0.002 A 
ATOM     19  C   UNL A   1      36.373  21.566  25.283  1.00  0.00     0.066 A 
ATOM     20  C   UNL A   1      35.961  24.050  25.562  1.00  0.00     0.010 A 
ATOM     21  C   UNL A   1      37.771  21.810  25.699  1.00  0.00     0.028 A 
ATOM     22  C   UNL A   1      37.224  24.188  25.997  1.00  0.00     0.001 A 
ATOM     23  C   UNL A   1      38.143  23.060  26.024  1.00  0.00     0.002 A 
BRANCH  10  24
ATOM     24  C   UNL A   1      33.107  18.674  25.056  1.00  0.00     0.015 A 
ATOM     25  C   UNL A   1      32.453  19.308  22.639  1.00  0.00     0.045 C 
ATOM     26  C   UNL A   1      32.720  18.316  23.740  1.00  0.00    -0.042 A 
ATOM     27  C   UNL A   1      32.649  16.953  23.389  1.00  0.00     0.004 A 
ATOM     28  C   UNL A   1      32.907  15.951  24.321  1.00  0.00     0.000 A 
ATOM     29  C   UNL A   1      33.346  17.641  25.986  1.00  0.00     0.010 A 
ATOM     30  C   UNL A   1      33.243  16.294  25.624  1.00  0.00     0.001 A 
ENDBRANCH  10  24
ENDBRANCH   6   9
ENDBRANCH   4   5
ENDBRANCH   3   4
ENDBRANCH   2   3
ENDBRANCH   1   2
BRANCH   1  31
ATOM     31  C   UNL A   1      33.284  29.567  26.648  1.00  0.00     0.021 C 
BRANCH  31  32
ATOM     32  C   UNL A   1      34.485  29.621  27.583  1.00  0.00     0.116 C 
BRANCH  32  33
ATOM     33  N   UNL A   1      35.408  30.720  27.333  1.00  0.00    -0.352 N 
ATOM     34  C   UNL A   1      36.538  30.937  28.125  1.00  0.00     0.251 C 
ATOM     35  H   UNL A   1      35.229  31.329  26.580  1.00  0.00     0.163 HD
ATOM     36  O   UNL A   1      36.826  31.994  28.641  1.00  0.00    -0.269 OA
BRANCH  34  37
ATOM     37  C   UNL A   1      37.422  29.755  28.259  1.00  0.00     0.039 A 
ATOM     38  C   UNL A   1      37.473  29.073  29.478  1.00  0.00     0.014 A 
ATOM     39  C   UNL A   1      38.367  29.525  27.264  1.00  0.00     0.014 A 
ATOM     40  C   UNL A   1      38.582  28.278  29.765  1.00  0.00     0.010 A 
ATOM     41  C   UNL A   1      39.509  28.832  27.590  1.00  0.00     0.010 A 
ATOM     42  C   UNL A   1      39.638  28.241  28.855  1.00  0.00    -0.014 A 
BRANCH  42  43
ATOM     43  C   UNL A   1      40.953  27.672  29.124  1.00  0.00     0.031 A 
ATOM     44  C   UNL A   1      41.259  26.290  28.696  1.00  0.00     0.074 A 
ATOM     45  C   UNL A   1      41.948  28.466  29.580  1.00  0.00     0.049 A 
ATOM     46  N   UNL A   1      42.277  25.608  29.104  1.00  0.00    -0.248 NA
ATOM     47  C   UNL A   1      40.400  25.541  27.785  1.00  0.00     0.031 C 
ATOM     48  C   UNL A   1      43.382  28.194  29.526  1.00  0.00     0.029 A 
ATOM     49  N   UNL A   1      41.857  29.601  30.385  1.00  0.00    -0.354 N 
ATOM     50  C   UNL A   1      42.392  24.509  28.285  1.00  0.00     0.074 A 
ATOM     51  C   UNL A   1      41.148  24.459  27.552  1.00  0.00     0.031 C 
ATOM     52  C   UNL A   1      43.989  28.912  30.483  1.00  0.00     0.029 A 
ATOM     53  C   UNL A   1      42.943  29.533  31.277  1.00  0.00     0.049 A 
ATOM     54  H   UNL A   1      41.172  30.307  30.338  1.00  0.00     0.167 HD
ATOM     55  C   UNL A   1      43.581  23.844  28.220  1.00  0.00     0.031 A 
ATOM     56  C   UNL A   1      42.798  29.411  32.632  1.00  0.00     0.031 A 
ATOM     57  C   UNL A   1      44.550  24.355  29.194  1.00  0.00     0.049 A 
ATOM     58  C   UNL A   1      43.428  28.148  33.199  1.00  0.00     0.074 A 
ATOM     59  C   UNL A   1      45.712  25.105  29.121  1.00  0.00     0.029 A 
ATOM     60  N   UNL A   1      44.216  24.307  30.537  1.00  0.00    -0.354 N 
ATOM     61  N   UNL A   1      44.064  27.257  32.488  1.00  0.00    -0.248 NA
ATOM     62  C   UNL A   1      43.305  27.739  34.600  1.00  0.00     0.031 C 
ATOM     63  C   UNL A   1      46.066  25.508  30.444  1.00  0.00     0.029 A 
ATOM     64  C   UNL A   1      45.127  24.989  31.315  1.00  0.00     0.049 A 
ATOM     65  H   UNL A   1      43.424  23.843  30.893  1.00  0.00     0.167 HD
ATOM     66  C   UNL A   1      44.357  26.166  33.262  1.00  0.00     0.074 A 
ATOM     67  C   UNL A   1      43.883  26.523  34.586  1.00  0.00     0.031 C 
ATOM     68  C   UNL A   1      44.914  25.030  32.752  1.00  0.00     0.031 A 
BRANCH  55  69
ATOM     69  C   UNL A   1      43.948  22.866  27.121  1.00  0.00    -0.014 A 
ATOM     70  C   UNL A   1      43.015  21.892  26.712  1.00  0.00     0.010 A 
ATOM     71  C   UNL A   1      45.203  22.815  26.483  1.00  0.00     0.010 A 
ATOM     72  C   UNL A   1      43.345  20.872  25.804  1.00  0.00     0.020 A 
ATOM     73  C   UNL A   1      45.561  21.786  25.600  1.00  0.00     0.020 A 
ATOM     74  C   UNL A   1      44.630  20.809  25.276  1.00  0.00     0.054 A 
BRANCH  74  75
ATOM     75  S   UNL A   1      45.073  19.443  24.173  1.00  0.00     0.124 S 
ATOM     76  O   UNL A   1      46.532  19.489  24.185  1.00  0.00    -0.237 OA
ATOM     77  O   UNL A   1      44.473  18.292  24.842  1.00  0.00    -0.237 OA
ATOM     78  O   UNL A   1      44.456  19.811  22.900  1.00  0.00    -0.744 OA
ENDBRANCH  74  75
ENDBRANCH  55  69
BRANCH  56  79
ATOM     79  C   UNL A   1      41.572  30.081  33.156  1.00  0.00    -0.014 A 
ATOM     80  C   UNL A   1      41.630  31.485  33.312  1.00  0.00     0.010 A 
ATOM     81  C   UNL A   1      40.316  29.464  33.022  1.00  0.00     0.010 A 
ATOM     82  C   UNL A   1      40.490  32.267  33.114  1.00  0.00     0.020 A 
ATOM     83  C   UNL A   1      39.169  30.250  32.839  1.00  0.00     0.020 A 
ATOM     84  C   UNL A   1      39.284  31.644  32.795  1.00  0.00     0.054 A 
BRANCH  84  85
ATOM     85  S   UNL A   1      37.930  32.668  32.136  1.00  0.00     0.124 S 
ATOM     86  O   UNL A   1      38.558  33.330  31.000  1.00  0.00    -0.237 OA
ATOM     87  O   UNL A   1      36.916  31.663  31.802  1.00  0.00    -0.237 OA
ATOM     88  O   UNL A   1      37.590  33.532  33.262  1.00  0.00    -0.744 OA
ENDBRANCH  84  85
ENDBRANCH  56  79
BRANCH  68  89
ATOM     89  C   UNL A   1      45.259  23.815  33.572  1.00  0.00    -0.014 A 
ATOM     90  C   UNL A   1      44.307  22.840  33.913  1.00  0.00     0.010 A 
ATOM     91  C   UNL A   1      46.545  23.694  34.145  1.00  0.00     0.010 A 
ATOM     92  C   UNL A   1      44.645  21.764  34.748  1.00  0.00     0.020 A 
ATOM     93  C   UNL A   1      46.887  22.638  34.991  1.00  0.00     0.020 A 
ATOM     94  C   UNL A   1      45.935  21.666  35.275  1.00  0.00     0.054 A 
BRANCH  94  95
ATOM     95  S   UNL A   1      46.344  20.290  36.379  1.00  0.00     0.124 S 
ATOM     96  O   UNL A   1      45.662  19.161  35.750  1.00  0.00    -0.237 OA
ATOM     97  O   UNL A   1      47.803  20.264  36.299  1.00  0.00    -0.237 OA
ATOM     98  O   UNL A   1      45.797  20.701  37.669  1.00  0.00    -0.744 OA
ENDBRANCH  94  95
ENDBRANCH  68  89
ENDBRANCH  42  43
ENDBRANCH  34  37
ENDBRANCH  32  33
ENDBRANCH  31  32
ENDBRANCH   1  31
TORSDOF 17
ENDMDL
MODEL 3
REMARK VINA RESULT:     -13.7      1.093      2.294
REMARK SMILES Cc1ccccc1[C@@H]1[NH2+][C@@H](C(=O)NCCCCCCNC(=O)c2ccc(-c3c4nc(c(-c5ccc(S(=O)(=O)[O-])cc5)c5ccc([nH]5)c(-c5ccc(S(=O)(=O)[O-])cc5)c5nc(c(-c6ccc(S(=O)(=O)[O-])cc6)c6ccc3[nH]6)C=C5)C=C4)cc2)CC2=c3ccccc3=N[C@H]21
REMARK SMILES IDX 17 1 16 2 15 3 14 4 13 5 11 6 12 7 10 9 8 10 9 11 92 12
REMARK SMILES IDX 84 15 91 16 83 17 85 18 90 19 86 20 89 21 87 22 88 23 7 24
REMARK SMILES IDX 1 25 2 26 3 27 4 28 6 29 5 30 18 31 19 32 20 33 21 34 22 36
REMARK SMILES IDX 23 37 24 38 82 39 25 40 81 41 26 42 27 43 28 44 75 45 29 46
REMARK SMILES IDX 80 47 74 48 76 49 30 50 79 51 73 52 72 53 31 55 61 56 42 57
REMARK SMILES IDX 60 58 43 59 46 60 59 61 77 62 44 63 45 64 58 66 78 67 47 68
REMARK SMILES IDX 32 69 33 70 41 71 34 72 40 73 35 74 36 75 37 76 38 77 39 78
REMARK SMILES IDX 62 79 63 80 71 81 64 82 70 83 65 84 66 85 67 86 68 87 69 88
REMARK SMILES IDX 48 89 49 90 57 91 50 92 56 93 51 94 52 95 53 96 54 97 55 98
REMARK H PARENT 13 8 9 13 9 14 20 35 76 54 46 65
REMARK Flexibility Score: inf
ROOT
ATOM      1  C   UNL A   1      32.102  29.265  26.175  1.00  0.00     0.002 C 
ENDROOT
BRANCH   1   2
ATOM      2  C   UNL A   1      31.680  27.808  26.449  1.00  0.00     0.002 C 
BRANCH   2   3
ATOM      3  C   UNL A   1      32.548  26.680  25.868  1.00  0.00     0.021 C 
BRANCH   3   4
ATOM      4  C   UNL A   1      32.628  25.397  26.695  1.00  0.00     0.116 C 
BRANCH   4   5
ATOM      5  N   UNL A   1      31.379  24.685  26.920  1.00  0.00    -0.351 N 
ATOM      6  C   UNL A   1      31.083  23.350  26.872  1.00  0.00     0.278 C 
ATOM      7  O   UNL A   1      30.185  22.964  27.635  1.00  0.00    -0.268 OA
ATOM      8  H   UNL A   1      30.615  25.264  27.144  1.00  0.00     0.163 HD
BRANCH   6   9
ATOM      9  C   UNL A   1      31.658  22.386  25.788  1.00  0.00     0.277 C 
ATOM     10  C   UNL A   1      34.081  22.723  24.954  1.00  0.00     0.243 C 
ATOM     11  N   UNL A   1      33.137  22.228  25.992  1.00  0.00    -0.327 N 
ATOM     12  C   UNL A   1      33.537  22.985  23.515  1.00  0.00     0.196 C 
ATOM     13  H   UNL A   1      33.370  22.712  26.858  1.00  0.00     0.347 HD
ATOM     14  H   UNL A   1      33.272  21.217  25.972  1.00  0.00     0.347 HD
ATOM     15  C   UNL A   1      32.136  23.485  23.616  1.00  0.00    -0.024 C 
ATOM     16  N   UNL A   1      34.277  24.076  22.807  1.00  0.00    -0.270 NA
ATOM     17  C   UNL A   1      31.212  22.585  24.339  1.00  0.00     0.109 C 
ATOM     18  C   UNL A   1      32.000  24.695  23.095  1.00  0.00     0.002 A 
ATOM     19  C   UNL A   1      33.353  24.959  22.577  1.00  0.00     0.066 A 
ATOM     20  C   UNL A   1      30.958  25.661  23.012  1.00  0.00     0.010 A 
ATOM     21  C   UNL A   1      33.529  26.227  21.837  1.00  0.00     0.028 A 
ATOM     22  C   UNL A   1      31.209  26.823  22.386  1.00  0.00     0.001 A 
ATOM     23  C   UNL A   1      32.495  27.083  21.760  1.00  0.00     0.002 A 
BRANCH  10  24
ATOM     24  C   UNL A   1      35.304  21.793  24.867  1.00  0.00     0.015 A 
ATOM     25  C   UNL A   1      37.037  23.703  25.000  1.00  0.00     0.045 C 
ATOM     26  C   UNL A   1      36.645  22.251  24.918  1.00  0.00    -0.042 A 
ATOM     27  C   UNL A   1      37.693  21.311  24.974  1.00  0.00     0.004 A 
ATOM     28  C   UNL A   1      37.441  19.942  24.937  1.00  0.00     0.000 A 
ATOM     29  C   UNL A   1      35.076  20.402  24.811  1.00  0.00     0.010 A 
ATOM     30  C   UNL A   1      36.133  19.487  24.841  1.00  0.00     0.001 A 
ENDBRANCH  10  24
ENDBRANCH   6   9
ENDBRANCH   4   5
ENDBRANCH   3   4
ENDBRANCH   2   3
ENDBRANCH   1   2
BRANCH   1  31
ATOM     31  C   UNL A   1      32.948  29.968  27.240  1.00  0.00     0.021 C 
BRANCH  31  32
ATOM     32  C   UNL A   1      34.427  29.606  27.225  1.00  0.00     0.116 C 
BRANCH  32  33
ATOM     33  N   UNL A   1      35.336  30.745  27.232  1.00  0.00    -0.352 N 
ATOM     34  C   UNL A   1      36.340  30.888  28.193  1.00  0.00     0.251 C 
ATOM     35  H   UNL A   1      35.240  31.435  26.537  1.00  0.00     0.163 HD
ATOM     36  O   UNL A   1      36.519  31.881  28.862  1.00  0.00    -0.269 OA
BRANCH  34  37
ATOM     37  C   UNL A   1      37.239  29.715  28.313  1.00  0.00     0.039 A 
ATOM     38  C   UNL A   1      37.293  29.014  29.521  1.00  0.00     0.014 A 
ATOM     39  C   UNL A   1      38.190  29.513  27.318  1.00  0.00     0.014 A 
ATOM     40  C   UNL A   1      38.412  28.229  29.800  1.00  0.00     0.010 A 
ATOM     41  C   UNL A   1      39.340  28.829  27.638  1.00  0.00     0.010 A 
ATOM     42  C   UNL A   1      39.472  28.220  28.894  1.00  0.00    -0.014 A 
BRANCH  42  43
ATOM     43  C   UNL A   1      40.793  27.664  29.159  1.00  0.00     0.031 A 
ATOM     44  C   UNL A   1      41.109  26.282  28.736  1.00  0.00     0.074 A 
ATOM     45  C   UNL A   1      41.783  28.468  29.607  1.00  0.00     0.049 A 
ATOM     46  N   UNL A   1      42.134  25.612  29.142  1.00  0.00    -0.248 NA
ATOM     47  C   UNL A   1      40.252  25.522  27.832  1.00  0.00     0.031 C 
ATOM     48  C   UNL A   1      43.219  28.209  29.548  1.00  0.00     0.029 A 
ATOM     49  N   UNL A   1      41.685  29.607  30.408  1.00  0.00    -0.354 N 
ATOM     50  C   UNL A   1      42.255  24.510  28.328  1.00  0.00     0.074 A 
ATOM     51  C   UNL A   1      41.009  24.446  27.601  1.00  0.00     0.031 C 
ATOM     52  C   UNL A   1      43.824  28.936  30.499  1.00  0.00     0.029 A 
ATOM     53  C   UNL A   1      42.777  29.551  31.295  1.00  0.00     0.049 A 
ATOM     54  H   UNL A   1      40.994  30.306  30.361  1.00  0.00     0.167 HD
ATOM     55  C   UNL A   1      43.450  23.855  28.260  1.00  0.00     0.031 A 
ATOM     56  C   UNL A   1      42.638  29.434  32.651  1.00  0.00     0.031 A 
ATOM     57  C   UNL A   1      44.419  24.379  29.227  1.00  0.00     0.049 A 
ATOM     58  C   UNL A   1      43.282  28.179  33.221  1.00  0.00     0.074 A 
ATOM     59  C   UNL A   1      45.574  25.139  29.146  1.00  0.00     0.029 A 
ATOM     60  N   UNL A   1      44.091  24.333  30.573  1.00  0.00    -0.354 N 
ATOM     61  N   UNL A   1      43.922  27.291  32.511  1.00  0.00    -0.248 NA
ATOM     62  C   UNL A   1      43.169  27.775  34.625  1.00  0.00     0.031 C 
ATOM     63  C   UNL A   1      45.931  25.550  30.465  1.00  0.00     0.029 A 
ATOM     64  C   UNL A   1      45.000  25.027  31.343  1.00  0.00     0.049 A 
ATOM     65  H   UNL A   1      43.305  23.864  30.934  1.00  0.00     0.167 HD
ATOM     66  C   UNL A   1      44.229  26.206  33.289  1.00  0.00     0.074 A 
ATOM     67  C   UNL A   1      43.757  26.565  34.613  1.00  0.00     0.031 C 
ATOM     68  C   UNL A   1      44.793  25.072  32.781  1.00  0.00     0.031 A 
BRANCH  55  69
ATOM     69  C   UNL A   1      43.821  22.876  27.163  1.00  0.00    -0.014 A 
ATOM     70  C   UNL A   1      42.948  21.813  26.852  1.00  0.00     0.010 A 
ATOM     71  C   UNL A   1      45.026  22.910  26.436  1.00  0.00     0.010 A 
ATOM     72  C   UNL A   1      43.300  20.795  25.950  1.00  0.00     0.020 A 
ATOM     73  C   UNL A   1      45.407  21.886  25.556  1.00  0.00     0.020 A 
ATOM     74  C   UNL A   1      44.545  20.823  25.329  1.00  0.00     0.054 A 
BRANCH  74  75
ATOM     75  S   UNL A   1      45.024  19.463  24.234  1.00  0.00     0.124 S 
ATOM     76  O   UNL A   1      44.468  19.881  22.951  1.00  0.00    -0.237 OA
ATOM     77  O   UNL A   1      46.481  19.482  24.328  1.00  0.00    -0.237 OA
ATOM     78  O   UNL A   1      44.381  18.294  24.832  1.00  0.00    -0.744 OA
ENDBRANCH  74  75
ENDBRANCH  55  69
BRANCH  56  79
ATOM     79  C   UNL A   1      41.408  30.096  33.178  1.00  0.00    -0.014 A 
ATOM     80  C   UNL A   1      41.499  31.478  33.458  1.00  0.00     0.010 A 
ATOM     81  C   UNL A   1      40.143  29.533  32.936  1.00  0.00     0.010 A 
ATOM     82  C   UNL A   1      40.392  32.311  33.280  1.00  0.00     0.020 A 
ATOM     83  C   UNL A   1      39.029  30.369  32.772  1.00  0.00     0.020 A 
ATOM     84  C   UNL A   1      39.185  31.757  32.856  1.00  0.00     0.054 A 
BRANCH  84  85
ATOM     85  S   UNL A   1      37.892  32.877  32.231  1.00  0.00     0.124 S 
ATOM     86  O   UNL A   1      37.789  33.867  33.297  1.00  0.00    -0.237 OA
ATOM     87  O   UNL A   1      38.479  33.357  30.976  1.00  0.00    -0.237 OA
ATOM     88  O   UNL A   1      36.739  31.997  32.073  1.00  0.00    -0.744 OA
ENDBRANCH  84  85
ENDBRANCH  56  79
BRANCH  68  89
ATOM     89  C   UNL A   1      45.152  23.864  33.604  1.00  0.00    -0.014 A 
ATOM     90  C   UNL A   1      44.299  22.755  33.729  1.00  0.00     0.010 A 
ATOM     91  C   UNL A   1      46.321  23.876  34.399  1.00  0.00     0.010 A 
ATOM     92  C   UNL A   1      44.630  21.682  34.571  1.00  0.00     0.020 A 
ATOM     93  C   UNL A   1      46.650  22.822  35.254  1.00  0.00     0.020 A 
ATOM     94  C   UNL A   1      45.808  21.720  35.322  1.00  0.00     0.054 A 
BRANCH  94  95
ATOM     95  S   UNL A   1      46.201  20.343  36.430  1.00  0.00     0.124 S 
ATOM     96  O   UNL A   1      47.600  20.066  36.112  1.00  0.00    -0.237 OA
ATOM     97  O   UNL A   1      45.964  20.937  37.744  1.00  0.00    -0.237 OA
ATOM     98  O   UNL A   1      45.260  19.298  36.039  1.00  0.00    -0.744 OA
ENDBRANCH  94  95
ENDBRANCH  68  89
ENDBRANCH  42  43
ENDBRANCH  34  37
ENDBRANCH  32  33
ENDBRANCH  31  32
ENDBRANCH   1  31
TORSDOF 17
ENDMDL
