MODEL 1
REMARK VINA RESULT:     -10.8      0.000      0.000
REMARK SMILES CC[C@H](C)[C@@H](NC(=O)c1csc(NC(C)=O)n1)C(=O)NCCCCCCNC(=O)c1ccc(-c2c3nc(c(-c4ccc(S(=O)(=O)[O-])cc4)c4ccc([nH]4)c(-c4ccc(S(=O)(=O)[O-])cc4)c4nc(c(-c5ccc(S(=O)(=O)[O-])cc5)c5ccc2[nH]5)C=C4)C=C3)cc1
REMARK SMILES IDX 23 1 22 2 21 3 20 4 18 5 19 6 5 8 3 9 4 10 2 11 1 12 6 13
REMARK SMILES IDX 7 14 8 16 9 17 10 18 17 19 11 20 12 21 13 22 14 23 15 25
REMARK SMILES IDX 16 26 24 27 25 28 26 29 27 30 28 31 29 33 30 34 31 35 89 36
REMARK SMILES IDX 32 37 88 38 33 39 34 40 35 41 82 42 36 43 87 44 81 45 83 46
REMARK SMILES IDX 37 47 86 48 80 49 79 50 38 52 68 53 49 54 67 55 50 56 53 57
REMARK SMILES IDX 66 58 84 59 51 60 52 61 65 63 85 64 54 65 39 66 40 67 48 68
REMARK SMILES IDX 41 69 47 70 42 71 43 72 44 73 45 74 46 75 69 76 70 77 78 78
REMARK SMILES IDX 71 79 77 80 72 81 73 82 74 83 75 84 76 85 55 86 56 87 64 88
REMARK SMILES IDX 57 89 63 90 58 91 59 92 60 93 61 94 62 95
REMARK H PARENT 20 7 6 15 13 24 27 32 83 51 53 62
REMARK Flexibility Score: inf
ROOT
ATOM      1  C   UNL A   1      38.197  22.027  25.758  1.00  0.00     0.002 C 
ENDROOT
BRANCH   1   2
ATOM      2  C   UNL A   1      37.798  23.505  25.739  1.00  0.00     0.021 C 
BRANCH   2   3
ATOM      3  C   UNL A   1      36.302  23.728  25.915  1.00  0.00     0.116 C 
BRANCH   3   4
ATOM      4  N   UNL A   1      35.719  22.629  26.655  1.00  0.00    -0.354 N 
ATOM      5  C   UNL A   1      34.427  22.208  26.734  1.00  0.00     0.242 C 
ATOM      6  O   UNL A   1      34.178  21.282  27.518  1.00  0.00    -0.273 OA
ATOM      7  H   UNL A   1      36.358  22.101  27.186  1.00  0.00     0.163 HD
BRANCH   5   8
ATOM      8  C   UNL A   1      33.291  22.954  25.994  1.00  0.00     0.174 C 
BRANCH   8   9
ATOM      9  C   UNL A   1      32.936  22.147  24.689  1.00  0.00     0.018 C 
ATOM     10  C   UNL A   1      34.099  22.099  23.687  1.00  0.00     0.010 C 
BRANCH   9  11
ATOM     11  C   UNL A   1      32.440  20.700  24.946  1.00  0.00     0.002 C 
ATOM     12  C   UNL A   1      32.599  19.824  23.705  1.00  0.00     0.004 C 
ENDBRANCH   9  11
ENDBRANCH   8   9
BRANCH   8  13
ATOM     13  N   UNL A   1      32.063  23.176  26.798  1.00  0.00    -0.339 N 
ATOM     14  C   UNL A   1      31.038  24.092  26.695  1.00  0.00     0.271 C 
ATOM     15  H   UNL A   1      31.960  22.549  27.549  1.00  0.00     0.164 HD
ATOM     16  O   UNL A   1      30.010  23.872  27.335  1.00  0.00    -0.267 OA
BRANCH  14  17
ATOM     17  C   UNL A   1      31.248  25.361  26.002  1.00  0.00     0.141 A 
ATOM     18  C   UNL A   1      30.914  25.546  24.670  1.00  0.00     0.102 A 
ATOM     19  N   UNL A   1      31.729  26.503  26.624  1.00  0.00    -0.215 NA
ATOM     20  S   UNL A   1      30.989  27.213  24.276  1.00  0.00    -0.104 S 
ATOM     21  C   UNL A   1      31.487  27.547  25.866  1.00  0.00     0.190 A 
BRANCH  21  22
ATOM     22  N   UNL A   1      31.607  28.815  26.372  1.00  0.00    -0.302 N 
ATOM     23  C   UNL A   1      32.767  29.535  26.515  1.00  0.00     0.223 C 
ATOM     24  H   UNL A   1      30.776  29.254  26.662  1.00  0.00     0.172 HD
ATOM     25  C   UNL A   1      32.536  30.902  27.111  1.00  0.00     0.114 C 
ATOM     26  O   UNL A   1      33.900  29.193  26.188  1.00  0.00    -0.275 OA
ENDBRANCH  21  22
ENDBRANCH  14  17
ENDBRANCH   8  13
ENDBRANCH   5   8
ENDBRANCH   3   4
ENDBRANCH   2   3
ENDBRANCH   1   2
BRANCH   1  27
ATOM     27  C   UNL A   1      39.639  21.762  26.200  1.00  0.00     0.002 C 
BRANCH  27  28
ATOM     28  C   UNL A   1      40.085  22.537  27.442  1.00  0.00     0.021 C 
BRANCH  28  29
ATOM     29  C   UNL A   1      41.454  23.202  27.323  1.00  0.00     0.116 C 
BRANCH  29  30
ATOM     30  N   UNL A   1      41.560  24.038  26.139  1.00  0.00    -0.352 N 
ATOM     31  C   UNL A   1      41.409  25.394  26.023  1.00  0.00     0.251 C 
ATOM     32  H   UNL A   1      41.771  23.562  25.303  1.00  0.00     0.163 HD
ATOM     33  O   UNL A   1      41.387  25.917  24.911  1.00  0.00    -0.269 OA
BRANCH  31  34
ATOM     34  C   UNL A   1      41.245  26.220  27.235  1.00  0.00     0.039 A 
ATOM     35  C   UNL A   1      42.233  27.158  27.541  1.00  0.00     0.014 A 
ATOM     36  C   UNL A   1      40.130  26.071  28.067  1.00  0.00     0.014 A 
ATOM     37  C   UNL A   1      42.079  27.982  28.655  1.00  0.00     0.010 A 
ATOM     38  C   UNL A   1      39.948  26.935  29.143  1.00  0.00     0.010 A 
ATOM     39  C   UNL A   1      40.923  27.896  29.450  1.00  0.00    -0.014 A 
BRANCH  39  40
ATOM     40  C   UNL A   1      40.728  28.817  30.596  1.00  0.00     0.031 A 
ATOM     41  C   UNL A   1      41.579  28.688  31.829  1.00  0.00     0.074 A 
ATOM     42  C   UNL A   1      39.759  29.753  30.531  1.00  0.00     0.049 A 
ATOM     43  N   UNL A   1      41.550  29.402  32.925  1.00  0.00    -0.248 NA
ATOM     44  C   UNL A   1      42.579  27.607  31.843  1.00  0.00     0.031 C 
ATOM     45  C   UNL A   1      38.836  29.941  29.409  1.00  0.00     0.029 A 
ATOM     46  N   UNL A   1      39.392  30.722  31.429  1.00  0.00    -0.354 N 
ATOM     47  C   UNL A   1      42.522  28.859  33.757  1.00  0.00     0.074 A 
ATOM     48  C   UNL A   1      43.088  27.724  33.061  1.00  0.00     0.031 C 
ATOM     49  C   UNL A   1      38.028  30.980  29.674  1.00  0.00     0.029 A 
ATOM     50  C   UNL A   1      38.354  31.512  30.993  1.00  0.00     0.049 A 
ATOM     51  H   UNL A   1      39.828  30.841  32.303  1.00  0.00     0.167 HD
ATOM     52  C   UNL A   1      42.926  29.284  34.978  1.00  0.00     0.031 A 
ATOM     53  C   UNL A   1      37.735  32.549  31.588  1.00  0.00     0.031 A 
ATOM     54  C   UNL A   1      42.367  30.419  35.664  1.00  0.00     0.049 A 
ATOM     55  C   UNL A   1      38.208  33.003  32.943  1.00  0.00     0.074 A 
ATOM     56  C   UNL A   1      42.734  30.950  36.889  1.00  0.00     0.029 A 
ATOM     57  N   UNL A   1      41.330  31.201  35.183  1.00  0.00    -0.354 N 
ATOM     58  N   UNL A   1      39.169  32.510  33.686  1.00  0.00    -0.248 NA
ATOM     59  C   UNL A   1      37.523  34.162  33.529  1.00  0.00     0.031 C 
ATOM     60  C   UNL A   1      41.891  32.032  37.166  1.00  0.00     0.029 A 
ATOM     61  C   UNL A   1      41.033  32.204  36.092  1.00  0.00     0.049 A 
ATOM     62  H   UNL A   1      40.871  31.066  34.323  1.00  0.00     0.167 HD
ATOM     63  C   UNL A   1      39.216  33.312  34.821  1.00  0.00     0.074 A 
ATOM     64  C   UNL A   1      38.204  34.335  34.651  1.00  0.00     0.031 C 
ATOM     65  C   UNL A   1      40.018  33.209  35.909  1.00  0.00     0.031 A 
BRANCH  52  66
ATOM     66  C   UNL A   1      44.039  28.522  35.648  1.00  0.00    -0.014 A 
ATOM     67  C   UNL A   1      45.369  28.972  35.565  1.00  0.00     0.010 A 
ATOM     68  C   UNL A   1      43.748  27.383  36.420  1.00  0.00     0.010 A 
ATOM     69  C   UNL A   1      46.392  28.280  36.218  1.00  0.00     0.020 A 
ATOM     70  C   UNL A   1      44.766  26.702  37.095  1.00  0.00     0.020 A 
ATOM     71  C   UNL A   1      46.083  27.150  36.980  1.00  0.00     0.054 A 
BRANCH  71  72
ATOM     72  S   UNL A   1      47.427  26.300  37.855  1.00  0.00     0.124 S 
ATOM     73  O   UNL A   1      47.614  27.155  39.023  1.00  0.00    -0.237 OA
ATOM     74  O   UNL A   1      46.852  24.985  38.125  1.00  0.00    -0.237 OA
ATOM     75  O   UNL A   1      48.527  26.309  36.893  1.00  0.00    -0.744 OA
ENDBRANCH  71  72
ENDBRANCH  52  66
BRANCH  53  76
ATOM     76  C   UNL A   1      36.605  33.237  30.908  1.00  0.00    -0.014 A 
ATOM     77  C   UNL A   1      36.821  33.989  29.740  1.00  0.00     0.010 A 
ATOM     78  C   UNL A   1      35.305  33.154  31.437  1.00  0.00     0.010 A 
ATOM     79  C   UNL A   1      35.765  34.674  29.133  1.00  0.00     0.020 A 
ATOM     80  C   UNL A   1      34.241  33.815  30.818  1.00  0.00     0.020 A 
ATOM     81  C   UNL A   1      34.481  34.586  29.679  1.00  0.00     0.054 A 
BRANCH  81  82
ATOM     82  S   UNL A   1      33.117  35.463  28.866  1.00  0.00     0.124 S 
ATOM     83  O   UNL A   1      33.829  36.454  28.066  1.00  0.00    -0.237 OA
ATOM     84  O   UNL A   1      32.456  34.399  28.116  1.00  0.00    -0.237 OA
ATOM     85  O   UNL A   1      32.343  35.998  29.985  1.00  0.00    -0.744 OA
ENDBRANCH  81  82
ENDBRANCH  53  76
BRANCH  65  86
ATOM     86  C   UNL A   1      39.846  34.244  36.986  1.00  0.00    -0.014 A 
ATOM     87  C   UNL A   1      40.467  35.502  36.889  1.00  0.00     0.010 A 
ATOM     88  C   UNL A   1      39.032  33.964  38.098  1.00  0.00     0.010 A 
ATOM     89  C   UNL A   1      40.315  36.444  37.908  1.00  0.00     0.020 A 
ATOM     90  C   UNL A   1      38.857  34.914  39.107  1.00  0.00     0.020 A 
ATOM     91  C   UNL A   1      39.515  36.141  39.014  1.00  0.00     0.054 A 
BRANCH  91  92
ATOM     92  S   UNL A   1      39.318  37.387  40.318  1.00  0.00     0.124 S 
ATOM     93  O   UNL A   1      38.518  38.406  39.645  1.00  0.00    -0.237 OA
ATOM     94  O   UNL A   1      38.633  36.644  41.373  1.00  0.00    -0.237 OA
ATOM     95  O   UNL A   1      40.690  37.777  40.632  1.00  0.00    -0.744 OA
ENDBRANCH  91  92
ENDBRANCH  65  86
ENDBRANCH  39  40
ENDBRANCH  31  34
ENDBRANCH  29  30
ENDBRANCH  28  29
ENDBRANCH  27  28
ENDBRANCH   1  27
TORSDOF 21
ENDMDL
MODEL 2
REMARK VINA RESULT:     -10.4      1.667      8.726
REMARK SMILES CC[C@H](C)[C@@H](NC(=O)c1csc(NC(C)=O)n1)C(=O)NCCCCCCNC(=O)c1ccc(-c2c3nc(c(-c4ccc(S(=O)(=O)[O-])cc4)c4ccc([nH]4)c(-c4ccc(S(=O)(=O)[O-])cc4)c4nc(c(-c5ccc(S(=O)(=O)[O-])cc5)c5ccc2[nH]5)C=C4)C=C3)cc1
REMARK SMILES IDX 23 1 22 2 21 3 20 4 18 5 19 6 5 8 3 9 4 10 2 11 1 12 6 13
REMARK SMILES IDX 7 14 8 16 9 17 10 18 17 19 11 20 12 21 13 22 14 23 15 25
REMARK SMILES IDX 16 26 24 27 25 28 26 29 27 30 28 31 29 33 30 34 31 35 89 36
REMARK SMILES IDX 32 37 88 38 33 39 34 40 35 41 82 42 36 43 87 44 81 45 83 46
REMARK SMILES IDX 37 47 86 48 80 49 79 50 38 52 68 53 49 54 67 55 50 56 53 57
REMARK SMILES IDX 66 58 84 59 51 60 52 61 65 63 85 64 54 65 39 66 40 67 48 68
REMARK SMILES IDX 41 69 47 70 42 71 43 72 44 73 45 74 46 75 69 76 70 77 78 78
REMARK SMILES IDX 71 79 77 80 72 81 73 82 74 83 75 84 76 85 55 86 56 87 64 88
REMARK SMILES IDX 57 89 63 90 58 91 59 92 60 93 61 94 62 95
REMARK H PARENT 20 7 6 15 13 24 27 32 83 51 53 62
REMARK Flexibility Score: inf
ROOT
ATOM      1  C   UNL A   1      36.561  23.759  25.738  1.00  0.00     0.002 C 
ENDROOT
BRANCH   1   2
ATOM      2  C   UNL A   1      35.519  23.723  24.616  1.00  0.00     0.021 C 
BRANCH   2   3
ATOM      3  C   UNL A   1      34.513  24.863  24.693  1.00  0.00     0.116 C 
BRANCH   3   4
ATOM      4  N   UNL A   1      33.436  24.641  23.750  1.00  0.00    -0.354 N 
ATOM      5  C   UNL A   1      32.104  24.895  23.860  1.00  0.00     0.242 C 
ATOM      6  O   UNL A   1      31.376  24.526  22.929  1.00  0.00    -0.273 OA
ATOM      7  H   UNL A   1      33.711  24.244  22.893  1.00  0.00     0.163 HD
BRANCH   5   8
ATOM      8  C   UNL A   1      31.501  25.481  25.160  1.00  0.00     0.174 C 
BRANCH   8   9
ATOM      9  C   UNL A   1      30.779  26.834  24.805  1.00  0.00     0.018 C 
ATOM     10  C   UNL A   1      31.594  27.705  23.836  1.00  0.00     0.010 C 
BRANCH   9  11
ATOM     11  C   UNL A   1      29.345  26.666  24.237  1.00  0.00     0.002 C 
ATOM     12  C   UNL A   1      29.009  27.763  23.231  1.00  0.00     0.004 C 
ENDBRANCH   9  11
ENDBRANCH   8   9
BRANCH   8  13
ATOM     13  N   UNL A   1      30.560  24.580  25.873  1.00  0.00    -0.339 N 
ATOM     14  C   UNL A   1      30.757  23.481  26.680  1.00  0.00     0.271 C 
ATOM     15  H   UNL A   1      29.612  24.813  25.744  1.00  0.00     0.164 HD
ATOM     16  O   UNL A   1      29.805  23.093  27.356  1.00  0.00    -0.267 OA
BRANCH  14  17
ATOM     17  C   UNL A   1      31.992  22.706  26.584  1.00  0.00     0.141 A 
ATOM     18  C   UNL A   1      32.890  22.604  27.634  1.00  0.00     0.102 A 
ATOM     19  N   UNL A   1      32.339  21.954  25.472  1.00  0.00    -0.215 NA
ATOM     20  S   UNL A   1      34.042  21.379  27.298  1.00  0.00    -0.104 S 
ATOM     21  C   UNL A   1      33.294  21.112  25.796  1.00  0.00     0.190 A 
BRANCH  21  22
ATOM     22  N   UNL A   1      33.617  20.075  24.961  1.00  0.00    -0.302 N 
ATOM     23  C   UNL A   1      33.117  18.797  25.009  1.00  0.00     0.223 C 
ATOM     24  H   UNL A   1      34.275  20.266  24.255  1.00  0.00     0.172 HD
ATOM     25  C   UNL A   1      33.693  17.904  23.937  1.00  0.00     0.114 C 
ATOM     26  O   UNL A   1      32.269  18.359  25.780  1.00  0.00    -0.275 OA
ENDBRANCH  21  22
ENDBRANCH  14  17
ENDBRANCH   8  13
ENDBRANCH   5   8
ENDBRANCH   3   4
ENDBRANCH   2   3
ENDBRANCH   1   2
BRANCH   1  27
ATOM     27  C   UNL A   1      37.543  22.583  25.732  1.00  0.00     0.002 C 
BRANCH  27  28
ATOM     28  C   UNL A   1      38.870  22.848  26.448  1.00  0.00     0.021 C 
BRANCH  28  29
ATOM     29  C   UNL A   1      39.180  24.323  26.691  1.00  0.00     0.116 C 
BRANCH  29  30
ATOM     30  N   UNL A   1      40.227  24.818  25.814  1.00  0.00    -0.352 N 
ATOM     31  C   UNL A   1      41.020  25.927  25.953  1.00  0.00     0.251 C 
ATOM     32  H   UNL A   1      40.391  24.280  25.006  1.00  0.00     0.163 HD
ATOM     33  O   UNL A   1      41.756  26.276  25.034  1.00  0.00    -0.269 OA
BRANCH  31  34
ATOM     34  C   UNL A   1      40.966  26.714  27.201  1.00  0.00     0.039 A 
ATOM     35  C   UNL A   1      41.594  27.960  27.231  1.00  0.00     0.014 A 
ATOM     36  C   UNL A   1      40.303  26.228  28.334  1.00  0.00     0.014 A 
ATOM     37  C   UNL A   1      41.518  28.742  28.382  1.00  0.00     0.010 A 
ATOM     38  C   UNL A   1      40.175  27.036  29.460  1.00  0.00     0.010 A 
ATOM     39  C   UNL A   1      40.785  28.298  29.497  1.00  0.00    -0.014 A 
BRANCH  39  40
ATOM     40  C   UNL A   1      40.647  29.158  30.697  1.00  0.00     0.031 A 
ATOM     41  C   UNL A   1      39.587  30.224  30.753  1.00  0.00     0.074 A 
ATOM     42  C   UNL A   1      41.502  28.994  31.727  1.00  0.00     0.049 A 
ATOM     43  N   UNL A   1      39.320  31.067  31.717  1.00  0.00    -0.248 NA
ATOM     44  C   UNL A   1      38.727  30.376  29.567  1.00  0.00     0.031 C 
ATOM     45  C   UNL A   1      42.604  28.029  31.768  1.00  0.00     0.029 A 
ATOM     46  N   UNL A   1      41.577  29.634  32.938  1.00  0.00    -0.354 N 
ATOM     47  C   UNL A   1      38.266  31.848  31.257  1.00  0.00     0.074 A 
ATOM     48  C   UNL A   1      37.977  31.414  29.908  1.00  0.00     0.031 C 
ATOM     49  C   UNL A   1      43.226  28.121  32.954  1.00  0.00     0.029 A 
ATOM     50  C   UNL A   1      42.589  29.169  33.745  1.00  0.00     0.049 A 
ATOM     51  H   UNL A   1      40.965  30.357  33.204  1.00  0.00     0.167 HD
ATOM     52  C   UNL A   1      37.584  32.821  31.908  1.00  0.00     0.031 A 
ATOM     53  C   UNL A   1      42.961  29.544  34.983  1.00  0.00     0.031 A 
ATOM     54  C   UNL A   1      37.869  33.245  33.253  1.00  0.00     0.049 A 
ATOM     55  C   UNL A   1      42.182  30.623  35.686  1.00  0.00     0.074 A 
ATOM     56  C   UNL A   1      37.211  34.196  34.013  1.00  0.00     0.029 A 
ATOM     57  N   UNL A   1      38.891  32.739  34.042  1.00  0.00    -0.354 N 
ATOM     58  N   UNL A   1      41.151  31.308  35.252  1.00  0.00    -0.248 NA
ATOM     59  C   UNL A   1      42.607  30.966  37.049  1.00  0.00     0.031 C 
ATOM     60  C   UNL A   1      37.860  34.294  35.249  1.00  0.00     0.029 A 
ATOM     61  C   UNL A   1      38.890  33.369  35.276  1.00  0.00     0.049 A 
ATOM     62  H   UNL A   1      39.523  32.037  33.767  1.00  0.00     0.167 HD
ATOM     63  C   UNL A   1      40.793  32.151  36.298  1.00  0.00     0.074 A 
ATOM     64  C   UNL A   1      41.702  31.870  37.391  1.00  0.00     0.031 C 
ATOM     65  C   UNL A   1      39.807  33.080  36.349  1.00  0.00     0.031 A 
BRANCH  52  66
ATOM     66  C   UNL A   1      36.450  33.486  31.176  1.00  0.00    -0.014 A 
ATOM     67  C   UNL A   1      35.209  33.690  31.805  1.00  0.00     0.010 A 
ATOM     68  C   UNL A   1      36.643  33.970  29.869  1.00  0.00     0.010 A 
ATOM     69  C   UNL A   1      34.172  34.339  31.132  1.00  0.00     0.020 A 
ATOM     70  C   UNL A   1      35.615  34.643  29.200  1.00  0.00     0.020 A 
ATOM     71  C   UNL A   1      34.382  34.812  29.834  1.00  0.00     0.054 A 
BRANCH  71  72
ATOM     72  S   UNL A   1      33.031  35.694  29.002  1.00  0.00     0.124 S 
ATOM     73  O   UNL A   1      32.441  34.638  28.185  1.00  0.00    -0.237 OA
ATOM     74  O   UNL A   1      32.212  36.155  30.120  1.00  0.00    -0.237 OA
ATOM     75  O   UNL A   1      33.713  36.749  28.257  1.00  0.00    -0.744 OA
ENDBRANCH  71  72
ENDBRANCH  52  66
BRANCH  53  76
ATOM     76  C   UNL A   1      44.122  28.891  35.646  1.00  0.00    -0.014 A 
ATOM     77  C   UNL A   1      43.943  27.753  36.450  1.00  0.00     0.010 A 
ATOM     78  C   UNL A   1      45.416  29.418  35.484  1.00  0.00     0.010 A 
ATOM     79  C   UNL A   1      45.030  27.173  37.111  1.00  0.00     0.020 A 
ATOM     80  C   UNL A   1      46.510  28.825  36.120  1.00  0.00     0.020 A 
ATOM     81  C   UNL A   1      46.307  27.717  36.944  1.00  0.00     0.054 A 
BRANCH  81  82
ATOM     82  S   UNL A   1      47.711  26.939  37.790  1.00  0.00     0.124 S 
ATOM     83  O   UNL A   1      48.821  27.269  36.902  1.00  0.00    -0.237 OA
ATOM     84  O   UNL A   1      47.715  27.612  39.086  1.00  0.00    -0.237 OA
ATOM     85  O   UNL A   1      47.340  25.526  37.832  1.00  0.00    -0.744 OA
ENDBRANCH  81  82
ENDBRANCH  53  76
BRANCH  65  86
ATOM     86  C   UNL A   1      39.649  33.839  37.637  1.00  0.00    -0.014 A 
ATOM     87  C   UNL A   1      40.382  35.015  37.881  1.00  0.00     0.010 A 
ATOM     88  C   UNL A   1      38.738  33.385  38.607  1.00  0.00     0.010 A 
ATOM     89  C   UNL A   1      40.241  35.696  39.091  1.00  0.00     0.020 A 
ATOM     90  C   UNL A   1      38.575  34.079  39.808  1.00  0.00     0.020 A 
ATOM     91  C   UNL A   1      39.342  35.220  40.050  1.00  0.00     0.054 A 
BRANCH  91  92
ATOM     92  S   UNL A   1      39.162  36.131  41.609  1.00  0.00     0.124 S 
ATOM     93  O   UNL A   1      37.958  35.530  42.173  1.00  0.00    -0.237 OA
ATOM     94  O   UNL A   1      40.407  35.821  42.309  1.00  0.00    -0.237 OA
ATOM     95  O   UNL A   1      39.026  37.521  41.182  1.00  0.00    -0.744 OA
ENDBRANCH  91  92
ENDBRANCH  65  86
ENDBRANCH  39  40
ENDBRANCH  31  34
ENDBRANCH  29  30
ENDBRANCH  28  29
ENDBRANCH  27  28
ENDBRANCH   1  27
TORSDOF 21
ENDMDL
MODEL 3
REMARK VINA RESULT:     -10.4      4.455     10.461
REMARK SMILES CC[C@H](C)[C@@H](NC(=O)c1csc(NC(C)=O)n1)C(=O)NCCCCCCNC(=O)c1ccc(-c2c3nc(c(-c4ccc(S(=O)(=O)[O-])cc4)c4ccc([nH]4)c(-c4ccc(S(=O)(=O)[O-])cc4)c4nc(c(-c5ccc(S(=O)(=O)[O-])cc5)c5ccc2[nH]5)C=C4)C=C3)cc1
REMARK SMILES IDX 23 1 22 2 21 3 20 4 18 5 19 6 5 8 3 9 4 10 2 11 1 12 6 13
REMARK SMILES IDX 7 14 8 16 9 17 10 18 17 19 11 20 12 21 13 22 14 23 15 25
REMARK SMILES IDX 16 26 24 27 25 28 26 29 27 30 28 31 29 33 30 34 31 35 89 36
REMARK SMILES IDX 32 37 88 38 33 39 34 40 35 41 82 42 36 43 87 44 81 45 83 46
REMARK SMILES IDX 37 47 86 48 80 49 79 50 38 52 68 53 49 54 67 55 50 56 53 57
REMARK SMILES IDX 66 58 84 59 51 60 52 61 65 63 85 64 54 65 39 66 40 67 48 68
REMARK SMILES IDX 41 69 47 70 42 71 43 72 44 73 45 74 46 75 69 76 70 77 78 78
REMARK SMILES IDX 71 79 77 80 72 81 73 82 74 83 75 84 76 85 55 86 56 87 64 88
REMARK SMILES IDX 57 89 63 90 58 91 59 92 60 93 61 94 62 95
REMARK H PARENT 20 7 6 15 13 24 27 32 83 51 53 62
REMARK Flexibility Score: inf
ROOT
ATOM      1  C   UNL A   1      30.683  26.513  25.230  1.00  0.00     0.002 C 
ENDROOT
BRANCH   1   2
ATOM      2  C   UNL A   1      30.648  26.178  23.736  1.00  0.00     0.021 C 
BRANCH   2   3
ATOM      3  C   UNL A   1      30.797  24.691  23.448  1.00  0.00     0.116 C 
BRANCH   3   4
ATOM      4  N   UNL A   1      31.700  24.487  22.335  1.00  0.00    -0.354 N 
ATOM      5  C   UNL A   1      32.889  23.829  22.276  1.00  0.00     0.242 C 
ATOM      6  O   UNL A   1      33.512  23.877  21.206  1.00  0.00    -0.273 OA
ATOM      7  H   UNL A   1      31.407  24.887  21.485  1.00  0.00     0.163 HD
BRANCH   5   8
ATOM      8  C   UNL A   1      33.513  23.178  23.534  1.00  0.00     0.174 C 
BRANCH   8   9
ATOM      9  C   UNL A   1      34.703  24.086  24.023  1.00  0.00     0.018 C 
ATOM     10  C   UNL A   1      34.245  25.494  24.435  1.00  0.00     0.010 C 
BRANCH   9  11
ATOM     11  C   UNL A   1      35.540  23.477  25.178  1.00  0.00     0.002 C 
ATOM     12  C   UNL A   1      37.036  23.690  24.958  1.00  0.00     0.004 C 
ENDBRANCH   9  11
ENDBRANCH   8   9
BRANCH   8  13
ATOM     13  N   UNL A   1      32.565  22.944  24.651  1.00  0.00    -0.339 N 
ATOM     14  C   UNL A   1      32.252  21.820  25.385  1.00  0.00     0.271 C 
ATOM     15  H   UNL A   1      32.063  23.747  24.922  1.00  0.00     0.164 HD
ATOM     16  O   UNL A   1      31.626  21.979  26.432  1.00  0.00    -0.267 OA
BRANCH  14  17
ATOM     17  C   UNL A   1      32.494  20.489  24.834  1.00  0.00     0.141 A 
ATOM     18  C   UNL A   1      32.034  20.105  23.585  1.00  0.00     0.102 A 
ATOM     19  N   UNL A   1      33.256  19.523  25.473  1.00  0.00    -0.215 NA
ATOM     20  S   UNL A   1      32.759  18.621  23.127  1.00  0.00    -0.104 S 
ATOM     21  C   UNL A   1      33.582  18.586  24.613  1.00  0.00     0.190 A 
BRANCH  21  22
ATOM     22  N   UNL A   1      34.557  17.672  24.919  1.00  0.00    -0.302 N 
ATOM     23  C   UNL A   1      34.416  16.308  24.972  1.00  0.00     0.223 C 
ATOM     24  H   UNL A   1      35.450  18.033  25.121  1.00  0.00     0.172 HD
ATOM     25  C   UNL A   1      35.697  15.602  25.344  1.00  0.00     0.114 C 
ATOM     26  O   UNL A   1      33.407  15.654  24.724  1.00  0.00    -0.275 OA
ENDBRANCH  21  22
ENDBRANCH  14  17
ENDBRANCH   8  13
ENDBRANCH   5   8
ENDBRANCH   3   4
ENDBRANCH   2   3
ENDBRANCH   1   2
BRANCH   1  27
ATOM     27  C   UNL A   1      31.600  27.684  25.599  1.00  0.00     0.002 C 
BRANCH  27  28
ATOM     28  C   UNL A   1      32.322  27.539  26.941  1.00  0.00     0.021 C 
BRANCH  28  29
ATOM     29  C   UNL A   1      33.655  28.278  27.032  1.00  0.00     0.116 C 
BRANCH  29  30
ATOM     30  N   UNL A   1      33.485  29.679  27.379  1.00  0.00    -0.352 N 
ATOM     31  C   UNL A   1      34.359  30.525  28.009  1.00  0.00     0.251 C 
ATOM     32  H   UNL A   1      32.621  30.076  27.123  1.00  0.00     0.163 HD
ATOM     33  O   UNL A   1      33.988  31.644  28.355  1.00  0.00    -0.269 OA
BRANCH  31  34
ATOM     34  C   UNL A   1      35.736  30.077  28.294  1.00  0.00     0.039 A 
ATOM     35  C   UNL A   1      36.679  30.127  27.266  1.00  0.00     0.014 A 
ATOM     36  C   UNL A   1      36.096  29.609  29.563  1.00  0.00     0.014 A 
ATOM     37  C   UNL A   1      37.998  29.753  27.522  1.00  0.00     0.010 A 
ATOM     38  C   UNL A   1      37.426  29.295  29.832  1.00  0.00     0.010 A 
ATOM     39  C   UNL A   1      38.388  29.360  28.815  1.00  0.00    -0.014 A 
BRANCH  39  40
ATOM     40  C   UNL A   1      39.803  29.026  29.104  1.00  0.00     0.031 A 
ATOM     41  C   UNL A   1      40.712  30.043  29.739  1.00  0.00     0.074 A 
ATOM     42  C   UNL A   1      40.276  27.809  28.765  1.00  0.00     0.049 A 
ATOM     43  N   UNL A   1      41.973  29.929  30.063  1.00  0.00    -0.248 NA
ATOM     44  C   UNL A   1      40.134  31.366  30.030  1.00  0.00     0.031 C 
ATOM     45  C   UNL A   1      39.505  26.756  28.097  1.00  0.00     0.029 A 
ATOM     46  N   UNL A   1      41.517  27.253  28.937  1.00  0.00    -0.354 N 
ATOM     47  C   UNL A   1      42.342  31.159  30.594  1.00  0.00     0.074 A 
ATOM     48  C   UNL A   1      41.185  32.023  30.501  1.00  0.00     0.031 C 
ATOM     49  C   UNL A   1      40.283  25.674  27.942  1.00  0.00     0.029 A 
ATOM     50  C   UNL A   1      41.612  25.962  28.470  1.00  0.00     0.049 A 
ATOM     51  H   UNL A   1      42.269  27.731  29.354  1.00  0.00     0.167 HD
ATOM     52  C   UNL A   1      43.528  31.528  31.135  1.00  0.00     0.031 A 
ATOM     53  C   UNL A   1      42.652  25.108  28.469  1.00  0.00     0.031 A 
ATOM     54  C   UNL A   1      44.674  30.664  31.234  1.00  0.00     0.049 A 
ATOM     55  C   UNL A   1      43.956  25.542  29.082  1.00  0.00     0.074 A 
ATOM     56  C   UNL A   1      45.908  30.934  31.799  1.00  0.00     0.029 A 
ATOM     57  N   UNL A   1      44.724  29.361  30.765  1.00  0.00    -0.354 N 
ATOM     58  N   UNL A   1      44.264  26.692  29.632  1.00  0.00    -0.248 NA
ATOM     59  C   UNL A   1      45.045  24.557  29.088  1.00  0.00     0.031 C 
ATOM     60  C   UNL A   1      46.720  29.806  31.637  1.00  0.00     0.029 A 
ATOM     61  C   UNL A   1      45.974  28.817  31.015  1.00  0.00     0.049 A 
ATOM     62  H   UNL A   1      43.984  28.891  30.321  1.00  0.00     0.167 HD
ATOM     63  C   UNL A   1      45.578  26.562  30.065  1.00  0.00     0.074 A 
ATOM     64  C   UNL A   1      45.995  25.213  29.737  1.00  0.00     0.031 C 
ATOM     65  C   UNL A   1      46.373  27.476  30.675  1.00  0.00     0.031 A 
BRANCH  52  66
ATOM     66  C   UNL A   1      43.641  32.929  31.676  1.00  0.00    -0.014 A 
ATOM     67  C   UNL A   1      44.016  33.994  30.839  1.00  0.00     0.010 A 
ATOM     68  C   UNL A   1      43.309  33.195  33.017  1.00  0.00     0.010 A 
ATOM     69  C   UNL A   1      44.085  35.297  31.339  1.00  0.00     0.020 A 
ATOM     70  C   UNL A   1      43.353  34.501  33.515  1.00  0.00     0.020 A 
ATOM     71  C   UNL A   1      43.752  35.542  32.674  1.00  0.00     0.054 A 
BRANCH  71  72
ATOM     72  S   UNL A   1      43.805  37.251  33.282  1.00  0.00     0.124 S 
ATOM     73  O   UNL A   1      43.763  38.014  32.039  1.00  0.00    -0.237 OA
ATOM     74  O   UNL A   1      42.605  37.334  34.111  1.00  0.00    -0.237 OA
ATOM     75  O   UNL A   1      45.068  37.319  34.012  1.00  0.00    -0.744 OA
ENDBRANCH  71  72
ENDBRANCH  52  66
BRANCH  53  76
ATOM     76  C   UNL A   1      42.506  23.751  27.876  1.00  0.00    -0.014 A 
ATOM     77  C   UNL A   1      42.761  23.532  26.512  1.00  0.00     0.010 A 
ATOM     78  C   UNL A   1      42.095  22.670  28.677  1.00  0.00     0.010 A 
ATOM     79  C   UNL A   1      42.574  22.266  25.950  1.00  0.00     0.020 A 
ATOM     80  C   UNL A   1      41.933  21.397  28.125  1.00  0.00     0.020 A 
ATOM     81  C   UNL A   1      42.156  21.207  26.760  1.00  0.00     0.054 A 
BRANCH  81  82
ATOM     82  S   UNL A   1      41.940  19.565  26.019  1.00  0.00     0.124 S 
ATOM     83  O   UNL A   1      42.823  19.638  24.860  1.00  0.00    -0.237 OA
ATOM     84  O   UNL A   1      42.374  18.672  27.091  1.00  0.00    -0.237 OA
ATOM     85  O   UNL A   1      40.511  19.514  25.719  1.00  0.00    -0.744 OA
ENDBRANCH  81  82
ENDBRANCH  53  76
BRANCH  65  86
ATOM     86  C   UNL A   1      47.762  27.036  31.044  1.00  0.00    -0.014 A 
ATOM     87  C   UNL A   1      48.853  27.291  30.193  1.00  0.00     0.010 A 
ATOM     88  C   UNL A   1      47.984  26.380  32.268  1.00  0.00     0.010 A 
ATOM     89  C   UNL A   1      50.134  26.856  30.540  1.00  0.00     0.020 A 
ATOM     90  C   UNL A   1      49.268  25.967  32.630  1.00  0.00     0.020 A 
ATOM     91  C   UNL A   1      50.333  26.191  31.754  1.00  0.00     0.054 A 
BRANCH  91  92
ATOM     92  S   UNL A   1      52.008  25.650  32.191  1.00  0.00     0.124 S 
ATOM     93  O   UNL A   1      52.415  26.674  33.149  1.00  0.00    -0.237 OA
ATOM     94  O   UNL A   1      51.782  24.319  32.750  1.00  0.00    -0.237 OA
ATOM     95  O   UNL A   1      52.720  25.670  30.916  1.00  0.00    -0.744 OA
ENDBRANCH  91  92
ENDBRANCH  65  86
ENDBRANCH  39  40
ENDBRANCH  31  34
ENDBRANCH  29  30
ENDBRANCH  28  29
ENDBRANCH  27  28
ENDBRANCH   1  27
TORSDOF 21
ENDMDL
