MODEL 1
REMARK VINA RESULT:      -9.7      0.000      0.000
REMARK SMILES CC(C)Cc1ccc([C@H](CF)C(=O)NCCCCCCNC(=O)c2ccc(-c3c4nc(c(-c5ccc(S(=O)(=O)[O-])cc5)c5ccc([nH]5)c(-c5ccc(S(=O)(=O)[O-])cc5)c5nc(c(-c6ccc(S(=O)(=O)[O-])cc6)c6ccc3[nH]6)C=C5)C=C4)cc2)cc1
REMARK SMILES IDX 17 1 16 2 15 3 14 4 12 5 13 6 9 8 8 9 5 10 6 11 85 12 7 13
REMARK SMILES IDX 84 14 4 15 2 16 1 17 3 18 10 19 11 20 18 21 19 22 20 23
REMARK SMILES IDX 21 24 22 25 23 27 24 28 25 29 83 30 26 31 82 32 27 33 28 34
REMARK SMILES IDX 29 35 76 36 30 37 81 38 75 39 77 40 31 41 80 42 74 43 73 44
REMARK SMILES IDX 32 46 62 47 43 48 61 49 44 50 47 51 60 52 78 53 45 54 46 55
REMARK SMILES IDX 59 57 79 58 48 59 33 60 34 61 42 62 35 63 41 64 36 65 37 66
REMARK SMILES IDX 38 67 39 68 40 69 63 70 64 71 72 72 65 73 71 74 66 75 67 76
REMARK SMILES IDX 68 77 69 78 70 79 49 80 50 81 58 82 51 83 57 84 52 85 53 86
REMARK SMILES IDX 54 87 55 88 56 89
REMARK H PARENT 14 7 21 26 77 45 47 56
REMARK Flexibility Score: inf
ROOT
ATOM      1  C   UNL A   1      34.369  25.483  25.765  1.00  0.00     0.002 C 
ENDROOT
BRANCH   1   2
ATOM      2  C   UNL A   1      35.703  24.812  25.418  1.00  0.00     0.021 C 
BRANCH   2   3
ATOM      3  C   UNL A   1      35.603  23.304  25.225  1.00  0.00     0.116 C 
BRANCH   3   4
ATOM      4  N   UNL A   1      34.908  22.672  26.333  1.00  0.00    -0.355 N 
ATOM      5  C   UNL A   1      33.769  21.924  26.345  1.00  0.00     0.230 C 
ATOM      6  O   UNL A   1      33.453  21.398  27.416  1.00  0.00    -0.274 OA
ATOM      7  H   UNL A   1      35.328  22.803  27.214  1.00  0.00     0.163 HD
BRANCH   5   8
ATOM      8  C   UNL A   1      32.895  21.767  25.108  1.00  0.00     0.139 C 
BRANCH   8   9
ATOM      9  C   UNL A   1      31.942  22.921  24.808  1.00  0.00    -0.033 A 
ATOM     10  C   UNL A   1      30.206  25.062  24.168  1.00  0.00    -0.048 A 
ATOM     11  C   UNL A   1      30.535  24.790  25.497  1.00  0.00     0.004 A 
ATOM     12  C   UNL A   1      30.751  24.266  23.159  1.00  0.00     0.004 A 
ATOM     13  C   UNL A   1      31.419  23.757  25.808  1.00  0.00     0.005 A 
ATOM     14  C   UNL A   1      31.610  23.211  23.476  1.00  0.00     0.005 A 
BRANCH  10  15
ATOM     15  C   UNL A   1      29.368  26.271  23.835  1.00  0.00     0.038 C 
BRANCH  15  16
ATOM     16  C   UNL A   1      30.243  27.507  23.542  1.00  0.00    -0.013 C 
ATOM     17  C   UNL A   1      31.024  27.360  22.233  1.00  0.00     0.008 C 
ATOM     18  C   UNL A   1      29.378  28.765  23.498  1.00  0.00     0.008 C 
ENDBRANCH  15  16
ENDBRANCH  10  15
ENDBRANCH   8   9
BRANCH   8  19
ATOM     19  C   UNL A   1      32.233  20.386  25.139  1.00  0.00     0.232 C 
ATOM     20  F   UNL A   1      32.107  19.912  23.865  1.00  0.00    -0.250 F 
ENDBRANCH   8  19
ENDBRANCH   5   8
ENDBRANCH   3   4
ENDBRANCH   2   3
ENDBRANCH   1   2
BRANCH   1  21
ATOM     21  C   UNL A   1      33.799  26.403  24.679  1.00  0.00     0.002 C 
BRANCH  21  22
ATOM     22  C   UNL A   1      33.640  27.869  25.087  1.00  0.00     0.021 C 
BRANCH  22  23
ATOM     23  C   UNL A   1      33.846  28.137  26.573  1.00  0.00     0.116 C 
BRANCH  23  24
ATOM     24  N   UNL A   1      33.549  29.515  26.928  1.00  0.00    -0.352 N 
ATOM     25  C   UNL A   1      34.299  30.392  27.667  1.00  0.00     0.251 C 
ATOM     26  H   UNL A   1      32.692  29.864  26.592  1.00  0.00     0.163 HD
ATOM     27  O   UNL A   1      33.811  31.460  28.033  1.00  0.00    -0.269 OA
BRANCH  25  28
ATOM     28  C   UNL A   1      35.685  30.039  28.037  1.00  0.00     0.039 A 
ATOM     29  C   UNL A   1      35.938  29.539  29.315  1.00  0.00     0.014 A 
ATOM     30  C   UNL A   1      36.730  30.200  27.122  1.00  0.00     0.014 A 
ATOM     31  C   UNL A   1      37.236  29.162  29.663  1.00  0.00     0.010 A 
ATOM     32  C   UNL A   1      38.006  29.748  27.442  1.00  0.00     0.010 A 
ATOM     33  C   UNL A   1      38.276  29.239  28.721  1.00  0.00    -0.014 A 
BRANCH  33  34
ATOM     34  C   UNL A   1      39.661  28.827  29.067  1.00  0.00     0.031 A 
ATOM     35  C   UNL A   1      40.582  29.806  29.750  1.00  0.00     0.074 A 
ATOM     36  C   UNL A   1      40.100  27.596  28.739  1.00  0.00     0.049 A 
ATOM     37  N   UNL A   1      41.842  29.663  30.072  1.00  0.00    -0.248 NA
ATOM     38  C   UNL A   1      40.022  31.124  30.094  1.00  0.00     0.031 C 
ATOM     39  C   UNL A   1      39.313  26.568  28.053  1.00  0.00     0.029 A 
ATOM     40  N   UNL A   1      41.321  27.000  28.936  1.00  0.00    -0.354 N 
ATOM     41  C   UNL A   1      42.222  30.867  30.655  1.00  0.00     0.074 A 
ATOM     42  C   UNL A   1      41.082  31.753  30.580  1.00  0.00     0.031 C 
ATOM     43  C   UNL A   1      40.061  25.461  27.911  1.00  0.00     0.029 A 
ATOM     44  C   UNL A   1      41.392  25.713  28.453  1.00  0.00     0.049 A 
ATOM     45  H   UNL A   1      42.074  27.450  29.381  1.00  0.00     0.167 HD
ATOM     46  C   UNL A   1      43.401  31.197  31.232  1.00  0.00     0.031 A 
ATOM     47  C   UNL A   1      42.418  24.840  28.439  1.00  0.00     0.031 A 
ATOM     48  C   UNL A   1      44.531  30.311  31.316  1.00  0.00     0.049 A 
ATOM     49  C   UNL A   1      43.735  25.250  29.049  1.00  0.00     0.074 A 
ATOM     50  C   UNL A   1      45.767  30.545  31.895  1.00  0.00     0.029 A 
ATOM     51  N   UNL A   1      44.560  29.017  30.820  1.00  0.00    -0.354 N 
ATOM     52  N   UNL A   1      44.059  26.382  29.629  1.00  0.00    -0.248 NA
ATOM     53  C   UNL A   1      44.818  24.258  29.017  1.00  0.00     0.031 C 
ATOM     54  C   UNL A   1      46.558  29.408  31.708  1.00  0.00     0.029 A 
ATOM     55  C   UNL A   1      45.794  28.443  31.072  1.00  0.00     0.049 A 
ATOM     56  H   UNL A   1      43.815  28.572  30.356  1.00  0.00     0.167 HD
ATOM     57  C   UNL A   1      45.368  26.217  30.071  1.00  0.00     0.074 A 
ATOM     58  C   UNL A   1      45.769  24.875  29.705  1.00  0.00     0.031 C 
ATOM     59  C   UNL A   1      46.167  27.097  30.723  1.00  0.00     0.031 A 
BRANCH  46  60
ATOM     60  C   UNL A   1      43.524  32.568  31.844  1.00  0.00    -0.014 A 
ATOM     61  C   UNL A   1      43.989  33.655  31.080  1.00  0.00     0.010 A 
ATOM     62  C   UNL A   1      43.105  32.792  33.167  1.00  0.00     0.010 A 
ATOM     63  C   UNL A   1      44.051  34.935  31.634  1.00  0.00     0.020 A 
ATOM     64  C   UNL A   1      43.138  34.077  33.716  1.00  0.00     0.020 A 
ATOM     65  C   UNL A   1      43.620  35.139  32.948  1.00  0.00     0.054 A 
BRANCH  65  66
ATOM     66  S   UNL A   1      43.657  36.824  33.616  1.00  0.00     0.124 S 
ATOM     67  O   UNL A   1      42.409  36.876  34.372  1.00  0.00    -0.237 OA
ATOM     68  O   UNL A   1      44.878  36.822  34.418  1.00  0.00    -0.237 OA
ATOM     69  O   UNL A   1      43.699  37.670  32.425  1.00  0.00    -0.744 OA
ENDBRANCH  65  66
ENDBRANCH  46  60
BRANCH  47  70
ATOM     70  C   UNL A   1      42.261  23.491  27.824  1.00  0.00    -0.014 A 
ATOM     71  C   UNL A   1      42.162  22.340  28.629  1.00  0.00     0.010 A 
ATOM     72  C   UNL A   1      42.263  23.344  26.425  1.00  0.00     0.010 A 
ATOM     73  C   UNL A   1      42.129  21.069  28.049  1.00  0.00     0.020 A 
ATOM     74  C   UNL A   1      42.192  22.076  25.840  1.00  0.00     0.020 A 
ATOM     75  C   UNL A   1      42.152  20.945  26.657  1.00  0.00     0.054 A 
BRANCH  75  76
ATOM     76  S   UNL A   1      42.126  19.287  25.923  1.00  0.00     0.124 S 
ATOM     77  O   UNL A   1      42.653  18.467  27.010  1.00  0.00    -0.237 OA
ATOM     78  O   UNL A   1      40.710  19.099  25.617  1.00  0.00    -0.237 OA
ATOM     79  O   UNL A   1      42.996  19.415  24.757  1.00  0.00    -0.744 OA
ENDBRANCH  75  76
ENDBRANCH  47  70
BRANCH  59  80
ATOM     80  C   UNL A   1      47.530  26.616  31.151  1.00  0.00    -0.014 A 
ATOM     81  C   UNL A   1      47.752  26.075  32.429  1.00  0.00     0.010 A 
ATOM     82  C   UNL A   1      48.594  26.663  30.232  1.00  0.00     0.010 A 
ATOM     83  C   UNL A   1      49.025  25.627  32.793  1.00  0.00     0.020 A 
ATOM     84  C   UNL A   1      49.859  26.185  30.580  1.00  0.00     0.020 A 
ATOM     85  C   UNL A   1      50.069  25.685  31.866  1.00  0.00     0.054 A 
BRANCH  85  86
ATOM     86  S   UNL A   1      51.702  25.060  32.351  1.00  0.00     0.124 S 
ATOM     87  O   UNL A   1      52.573  25.683  31.357  1.00  0.00    -0.237 OA
ATOM     88  O   UNL A   1      51.844  25.564  33.715  1.00  0.00    -0.237 OA
ATOM     89  O   UNL A   1      51.567  23.609  32.239  1.00  0.00    -0.744 OA
ENDBRANCH  85  86
ENDBRANCH  59  80
ENDBRANCH  33  34
ENDBRANCH  25  28
ENDBRANCH  23  24
ENDBRANCH  22  23
ENDBRANCH  21  22
ENDBRANCH   1  21
TORSDOF 20
ENDMDL
MODEL 2
REMARK VINA RESULT:      -9.7      3.116      9.022
REMARK SMILES CC(C)Cc1ccc([C@H](CF)C(=O)NCCCCCCNC(=O)c2ccc(-c3c4nc(c(-c5ccc(S(=O)(=O)[O-])cc5)c5ccc([nH]5)c(-c5ccc(S(=O)(=O)[O-])cc5)c5nc(c(-c6ccc(S(=O)(=O)[O-])cc6)c6ccc3[nH]6)C=C5)C=C4)cc2)cc1
REMARK SMILES IDX 17 1 16 2 15 3 14 4 12 5 13 6 9 8 8 9 5 10 6 11 85 12 7 13
REMARK SMILES IDX 84 14 4 15 2 16 1 17 3 18 10 19 11 20 18 21 19 22 20 23
REMARK SMILES IDX 21 24 22 25 23 27 24 28 25 29 83 30 26 31 82 32 27 33 28 34
REMARK SMILES IDX 29 35 76 36 30 37 81 38 75 39 77 40 31 41 80 42 74 43 73 44
REMARK SMILES IDX 32 46 62 47 43 48 61 49 44 50 47 51 60 52 78 53 45 54 46 55
REMARK SMILES IDX 59 57 79 58 48 59 33 60 34 61 42 62 35 63 41 64 36 65 37 66
REMARK SMILES IDX 38 67 39 68 40 69 63 70 64 71 72 72 65 73 71 74 66 75 67 76
REMARK SMILES IDX 68 77 69 78 70 79 49 80 50 81 58 82 51 83 57 84 52 85 53 86
REMARK SMILES IDX 54 87 55 88 56 89
REMARK H PARENT 14 7 21 26 77 45 47 56
REMARK Flexibility Score: inf
ROOT
ATOM      1  C   UNL A   1      34.570  21.889  24.018  1.00  0.00     0.002 C 
ENDROOT
BRANCH   1   2
ATOM      2  C   UNL A   1      34.274  20.535  24.673  1.00  0.00     0.021 C 
BRANCH   2   3
ATOM      3  C   UNL A   1      33.017  20.528  25.532  1.00  0.00     0.116 C 
BRANCH   3   4
ATOM      4  N   UNL A   1      33.232  21.215  26.794  1.00  0.00    -0.355 N 
ATOM      5  C   UNL A   1      32.672  22.359  27.278  1.00  0.00     0.230 C 
ATOM      6  O   UNL A   1      32.941  22.668  28.442  1.00  0.00    -0.274 OA
ATOM      7  H   UNL A   1      33.885  20.787  27.394  1.00  0.00     0.163 HD
BRANCH   5   8
ATOM      8  C   UNL A   1      31.779  23.246  26.420  1.00  0.00     0.139 C 
BRANCH   8   9
ATOM      9  C   UNL A   1      32.252  24.684  26.224  1.00  0.00    -0.033 A 
ATOM     10  C   UNL A   1      33.215  27.322  25.875  1.00  0.00    -0.048 A 
ATOM     11  C   UNL A   1      31.868  27.091  26.158  1.00  0.00     0.004 A 
ATOM     12  C   UNL A   1      34.081  26.232  25.772  1.00  0.00     0.004 A 
ATOM     13  C   UNL A   1      31.403  25.793  26.365  1.00  0.00     0.005 A 
ATOM     14  C   UNL A   1      33.606  24.930  25.946  1.00  0.00     0.005 A 
BRANCH  10  15
ATOM     15  C   UNL A   1      33.734  28.736  25.799  1.00  0.00     0.038 C 
BRANCH  15  16
ATOM     16  C   UNL A   1      33.978  29.329  27.201  1.00  0.00    -0.013 C 
ATOM     17  C   UNL A   1      35.472  29.440  27.525  1.00  0.00     0.008 C 
ATOM     18  C   UNL A   1      33.315  30.700  27.316  1.00  0.00     0.008 C 
ENDBRANCH  15  16
ENDBRANCH  10  15
ENDBRANCH   8   9
BRANCH   8  19
ATOM     19  C   UNL A   1      30.332  23.112  26.903  1.00  0.00     0.232 C 
ATOM     20  F   UNL A   1      29.735  22.061  26.269  1.00  0.00    -0.250 F 
ENDBRANCH   8  19
ENDBRANCH   5   8
ENDBRANCH   3   4
ENDBRANCH   2   3
ENDBRANCH   1   2
BRANCH   1  21
ATOM     21  C   UNL A   1      36.057  22.231  23.868  1.00  0.00     0.002 C 
BRANCH  21  22
ATOM     22  C   UNL A   1      36.533  23.435  24.684  1.00  0.00     0.021 C 
BRANCH  22  23
ATOM     23  C   UNL A   1      36.986  23.100  26.100  1.00  0.00     0.116 C 
BRANCH  23  24
ATOM     24  N   UNL A   1      38.021  22.081  26.117  1.00  0.00    -0.352 N 
ATOM     25  C   UNL A   1      39.368  22.227  26.332  1.00  0.00     0.251 C 
ATOM     26  H   UNL A   1      37.714  21.160  25.951  1.00  0.00     0.163 HD
ATOM     27  O   UNL A   1      40.128  21.284  26.123  1.00  0.00    -0.269 OA
BRANCH  25  28
ATOM     28  C   UNL A   1      39.897  23.526  26.796  1.00  0.00     0.039 A 
ATOM     29  C   UNL A   1      40.502  23.601  28.051  1.00  0.00     0.014 A 
ATOM     30  C   UNL A   1      39.796  24.666  25.993  1.00  0.00     0.014 A 
ATOM     31  C   UNL A   1      41.044  24.812  28.484  1.00  0.00     0.010 A 
ATOM     32  C   UNL A   1      40.407  25.850  26.390  1.00  0.00     0.010 A 
ATOM     33  C   UNL A   1      41.024  25.940  27.647  1.00  0.00    -0.014 A 
BRANCH  33  34
ATOM     34  C   UNL A   1      41.610  27.234  28.084  1.00  0.00     0.031 A 
ATOM     35  C   UNL A   1      43.100  27.445  27.999  1.00  0.00     0.074 A 
ATOM     36  C   UNL A   1      40.814  28.198  28.587  1.00  0.00     0.049 A 
ATOM     37  N   UNL A   1      43.810  28.471  28.391  1.00  0.00    -0.248 NA
ATOM     38  C   UNL A   1      43.898  26.351  27.418  1.00  0.00     0.031 C 
ATOM     39  C   UNL A   1      39.360  28.105  28.746  1.00  0.00     0.029 A 
ATOM     40  N   UNL A   1      41.118  29.450  29.063  1.00  0.00    -0.354 N 
ATOM     41  C   UNL A   1      45.131  28.148  28.105  1.00  0.00     0.074 A 
ATOM     42  C   UNL A   1      45.134  26.804  27.570  1.00  0.00     0.031 C 
ATOM     43  C   UNL A   1      38.897  29.258  29.256  1.00  0.00     0.029 A 
ATOM     44  C   UNL A   1      40.021  30.155  29.503  1.00  0.00     0.049 A 
ATOM     45  H   UNL A   1      42.034  29.809  29.087  1.00  0.00     0.167 HD
ATOM     46  C   UNL A   1      46.241  28.911  28.242  1.00  0.00     0.031 A 
ATOM     47  C   UNL A   1      39.933  31.382  30.052  1.00  0.00     0.031 A 
ATOM     48  C   UNL A   1      46.237  30.251  28.764  1.00  0.00     0.049 A 
ATOM     49  C   UNL A   1      41.192  32.193  30.234  1.00  0.00     0.074 A 
ATOM     50  C   UNL A   1      47.307  31.113  28.928  1.00  0.00     0.029 A 
ATOM     51  N   UNL A   1      45.106  30.929  29.192  1.00  0.00    -0.354 N 
ATOM     52  N   UNL A   1      42.428  31.880  29.920  1.00  0.00    -0.248 NA
ATOM     53  C   UNL A   1      41.041  33.528  30.828  1.00  0.00     0.031 C 
ATOM     54  C   UNL A   1      46.829  32.297  29.499  1.00  0.00     0.029 A 
ATOM     55  C   UNL A   1      45.454  32.196  29.628  1.00  0.00     0.049 A 
ATOM     56  H   UNL A   1      44.192  30.564  29.188  1.00  0.00     0.167 HD
ATOM     57  C   UNL A   1      43.191  33.000  30.237  1.00  0.00     0.074 A 
ATOM     58  C   UNL A   1      42.278  33.998  30.752  1.00  0.00     0.031 C 
ATOM     59  C   UNL A   1      44.528  33.186  30.113  1.00  0.00     0.031 A 
BRANCH  46  60
ATOM     60  C   UNL A   1      47.555  28.324  27.797  1.00  0.00    -0.014 A 
ATOM     61  C   UNL A   1      48.398  27.671  28.716  1.00  0.00     0.010 A 
ATOM     62  C   UNL A   1      47.921  28.358  26.440  1.00  0.00     0.010 A 
ATOM     63  C   UNL A   1      49.590  27.083  28.291  1.00  0.00     0.020 A 
ATOM     64  C   UNL A   1      49.099  27.745  26.004  1.00  0.00     0.020 A 
ATOM     65  C   UNL A   1      49.931  27.118  26.935  1.00  0.00     0.054 A 
BRANCH  65  66
ATOM     66  S   UNL A   1      51.455  26.291  26.407  1.00  0.00     0.124 S 
ATOM     67  O   UNL A   1      51.221  24.918  26.846  1.00  0.00    -0.237 OA
ATOM     68  O   UNL A   1      51.446  26.498  24.962  1.00  0.00    -0.237 OA
ATOM     69  O   UNL A   1      52.506  27.004  27.130  1.00  0.00    -0.744 OA
ENDBRANCH  65  66
ENDBRANCH  46  60
BRANCH  47  70
ATOM     70  C   UNL A   1      38.615  31.931  30.482  1.00  0.00    -0.014 A 
ATOM     71  C   UNL A   1      37.766  32.569  29.559  1.00  0.00     0.010 A 
ATOM     72  C   UNL A   1      38.226  31.867  31.832  1.00  0.00     0.010 A 
ATOM     73  C   UNL A   1      36.584  33.181  29.987  1.00  0.00     0.020 A 
ATOM     74  C   UNL A   1      37.027  32.445  32.258  1.00  0.00     0.020 A 
ATOM     75  C   UNL A   1      36.227  33.122  31.336  1.00  0.00     0.054 A 
BRANCH  75  76
ATOM     76  S   UNL A   1      34.699  33.937  31.875  1.00  0.00     0.124 S 
ATOM     77  O   UNL A   1      35.179  34.795  32.954  1.00  0.00    -0.237 OA
ATOM     78  O   UNL A   1      34.262  34.625  30.663  1.00  0.00    -0.237 OA
ATOM     79  O   UNL A   1      33.848  32.825  32.292  1.00  0.00    -0.744 OA
ENDBRANCH  75  76
ENDBRANCH  47  70
BRANCH  59  80
ATOM     80  C   UNL A   1      45.079  34.543  30.468  1.00  0.00    -0.014 A 
ATOM     81  C   UNL A   1      45.545  34.834  31.762  1.00  0.00     0.010 A 
ATOM     82  C   UNL A   1      45.176  35.528  29.468  1.00  0.00     0.010 A 
ATOM     83  C   UNL A   1      46.060  36.099  32.059  1.00  0.00     0.020 A 
ATOM     84  C   UNL A   1      45.722  36.781  29.750  1.00  0.00     0.020 A 
ATOM     85  C   UNL A   1      46.145  37.063  31.050  1.00  0.00     0.054 A 
BRANCH  85  86
ATOM     86  S   UNL A   1      46.855  38.684  31.451  1.00  0.00     0.124 S 
ATOM     87  O   UNL A   1      46.301  38.938  32.778  1.00  0.00    -0.237 OA
ATOM     88  O   UNL A   1      48.292  38.422  31.409  1.00  0.00    -0.237 OA
ATOM     89  O   UNL A   1      46.355  39.555  30.390  1.00  0.00    -0.744 OA
ENDBRANCH  85  86
ENDBRANCH  59  80
ENDBRANCH  33  34
ENDBRANCH  25  28
ENDBRANCH  23  24
ENDBRANCH  22  23
ENDBRANCH  21  22
ENDBRANCH   1  21
TORSDOF 20
ENDMDL
MODEL 3
REMARK VINA RESULT:      -9.7      3.899      8.214
REMARK SMILES CC(C)Cc1ccc([C@H](CF)C(=O)NCCCCCCNC(=O)c2ccc(-c3c4nc(c(-c5ccc(S(=O)(=O)[O-])cc5)c5ccc([nH]5)c(-c5ccc(S(=O)(=O)[O-])cc5)c5nc(c(-c6ccc(S(=O)(=O)[O-])cc6)c6ccc3[nH]6)C=C5)C=C4)cc2)cc1
REMARK SMILES IDX 17 1 16 2 15 3 14 4 12 5 13 6 9 8 8 9 5 10 6 11 85 12 7 13
REMARK SMILES IDX 84 14 4 15 2 16 1 17 3 18 10 19 11 20 18 21 19 22 20 23
REMARK SMILES IDX 21 24 22 25 23 27 24 28 25 29 83 30 26 31 82 32 27 33 28 34
REMARK SMILES IDX 29 35 76 36 30 37 81 38 75 39 77 40 31 41 80 42 74 43 73 44
REMARK SMILES IDX 32 46 62 47 43 48 61 49 44 50 47 51 60 52 78 53 45 54 46 55
REMARK SMILES IDX 59 57 79 58 48 59 33 60 34 61 42 62 35 63 41 64 36 65 37 66
REMARK SMILES IDX 38 67 39 68 40 69 63 70 64 71 72 72 65 73 71 74 66 75 67 76
REMARK SMILES IDX 68 77 69 78 70 79 49 80 50 81 58 82 51 83 57 84 52 85 53 86
REMARK SMILES IDX 54 87 55 88 56 89
REMARK H PARENT 14 7 21 26 77 45 47 56
REMARK Flexibility Score: inf
ROOT
ATOM      1  C   UNL A   1      36.780  22.535  24.869  1.00  0.00     0.002 C 
ENDROOT
BRANCH   1   2
ATOM      2  C   UNL A   1      35.967  23.397  25.843  1.00  0.00     0.021 C 
BRANCH   2   3
ATOM      3  C   UNL A   1      35.062  24.412  25.159  1.00  0.00     0.116 C 
BRANCH   3   4
ATOM      4  N   UNL A   1      34.867  24.090  23.756  1.00  0.00    -0.355 N 
ATOM      5  C   UNL A   1      33.867  23.396  23.144  1.00  0.00     0.230 C 
ATOM      6  O   UNL A   1      33.876  23.366  21.910  1.00  0.00    -0.274 OA
ATOM      7  H   UNL A   1      35.567  24.428  23.152  1.00  0.00     0.163 HD
BRANCH   5   8
ATOM      8  C   UNL A   1      32.798  22.653  23.937  1.00  0.00     0.139 C 
BRANCH   8   9
ATOM      9  C   UNL A   1      32.895  21.130  23.928  1.00  0.00    -0.033 A 
ATOM     10  C   UNL A   1      33.005  18.303  23.854  1.00  0.00    -0.048 A 
ATOM     11  C   UNL A   1      33.590  19.007  24.906  1.00  0.00     0.004 A 
ATOM     12  C   UNL A   1      32.359  19.015  22.840  1.00  0.00     0.004 A 
ATOM     13  C   UNL A   1      33.504  20.398  24.960  1.00  0.00     0.005 A 
ATOM     14  C   UNL A   1      32.303  20.409  22.878  1.00  0.00     0.005 A 
BRANCH  10  15
ATOM     15  C   UNL A   1      32.976  16.795  23.882  1.00  0.00     0.038 C 
BRANCH  15  16
ATOM     16  C   UNL A   1      33.396  16.245  25.260  1.00  0.00    -0.013 C 
ATOM     17  C   UNL A   1      32.490  15.097  25.719  1.00  0.00     0.008 C 
ATOM     18  C   UNL A   1      34.850  15.780  25.221  1.00  0.00     0.008 C 
ENDBRANCH  15  16
ENDBRANCH  10  15
ENDBRANCH   8   9
BRANCH   8  19
ATOM     19  C   UNL A   1      31.422  23.207  23.557  1.00  0.00     0.232 C 
ATOM     20  F   UNL A   1      30.647  23.309  24.676  1.00  0.00    -0.250 F 
ENDBRANCH   8  19
ENDBRANCH   5   8
ENDBRANCH   3   4
ENDBRANCH   2   3
ENDBRANCH   1   2
BRANCH   1  21
ATOM     21  C   UNL A   1      36.634  21.021  25.059  1.00  0.00     0.002 C 
BRANCH  21  22
ATOM     22  C   UNL A   1      37.929  20.219  24.904  1.00  0.00     0.021 C 
BRANCH  22  23
ATOM     23  C   UNL A   1      39.050  20.641  25.844  1.00  0.00     0.116 C 
BRANCH  23  24
ATOM     24  N   UNL A   1      40.067  19.612  25.982  1.00  0.00    -0.352 N 
ATOM     25  C   UNL A   1      41.419  19.758  26.158  1.00  0.00     0.251 C 
ATOM     26  H   UNL A   1      39.740  18.685  25.943  1.00  0.00     0.163 HD
ATOM     27  O   UNL A   1      42.159  18.781  26.066  1.00  0.00    -0.269 OA
BRANCH  25  28
ATOM     28  C   UNL A   1      41.979  21.096  26.440  1.00  0.00     0.039 A 
ATOM     29  C   UNL A   1      42.326  21.422  27.752  1.00  0.00     0.014 A 
ATOM     30  C   UNL A   1      42.162  22.024  25.411  1.00  0.00     0.014 A 
ATOM     31  C   UNL A   1      42.895  22.667  28.025  1.00  0.00     0.010 A 
ATOM     32  C   UNL A   1      42.803  23.230  25.671  1.00  0.00     0.010 A 
ATOM     33  C   UNL A   1      43.162  23.572  26.983  1.00  0.00    -0.014 A 
BRANCH  33  34
ATOM     34  C   UNL A   1      43.782  24.895  27.252  1.00  0.00     0.031 A 
ATOM     35  C   UNL A   1      42.947  26.006  27.834  1.00  0.00     0.074 A 
ATOM     36  C   UNL A   1      45.076  25.108  26.943  1.00  0.00     0.049 A 
ATOM     37  N   UNL A   1      43.282  27.247  28.077  1.00  0.00    -0.248 NA
ATOM     38  C   UNL A   1      41.546  25.688  28.163  1.00  0.00     0.031 C 
ATOM     39  C   UNL A   1      45.983  24.120  26.351  1.00  0.00     0.029 A 
ATOM     40  N   UNL A   1      45.856  26.229  27.081  1.00  0.00    -0.354 N 
ATOM     41  C   UNL A   1      42.140  27.854  28.586  1.00  0.00     0.074 A 
ATOM     42  C   UNL A   1      41.083  26.867  28.554  1.00  0.00     0.031 C 
ATOM     43  C   UNL A   1      47.199  24.671  26.202  1.00  0.00     0.029 A 
ATOM     44  C   UNL A   1      47.150  26.060  26.644  1.00  0.00     0.049 A 
ATOM     45  H   UNL A   1      45.522  27.075  27.457  1.00  0.00     0.167 HD
ATOM     46  C   UNL A   1      41.988  29.109  29.070  1.00  0.00     0.031 A 
ATOM     47  C   UNL A   1      48.177  26.931  26.595  1.00  0.00     0.031 A 
ATOM     48  C   UNL A   1      43.042  30.087  29.113  1.00  0.00     0.049 A 
ATOM     49  C   UNL A   1      47.968  28.337  27.101  1.00  0.00     0.074 A 
ATOM     50  C   UNL A   1      42.994  31.383  29.599  1.00  0.00     0.029 A 
ATOM     51  N   UNL A   1      44.337  29.875  28.666  1.00  0.00    -0.354 N 
ATOM     52  N   UNL A   1      46.888  28.877  27.614  1.00  0.00    -0.248 NA
ATOM     53  C   UNL A   1      49.123  29.243  27.035  1.00  0.00     0.031 C 
ATOM     54  C   UNL A   1      44.248  31.968  29.403  1.00  0.00     0.029 A 
ATOM     55  C   UNL A   1      45.095  31.017  28.858  1.00  0.00     0.049 A 
ATOM     56  H   UNL A   1      44.669  29.037  28.270  1.00  0.00     0.167 HD
ATOM     57  C   UNL A   1      47.249  30.172  27.973  1.00  0.00     0.074 A 
ATOM     58  C   UNL A   1      48.648  30.327  27.633  1.00  0.00     0.031 C 
ATOM     59  C   UNL A   1      46.492  31.145  28.536  1.00  0.00     0.031 A 
BRANCH  46  60
ATOM     60  C   UNL A   1      40.639  29.492  29.619  1.00  0.00    -0.014 A 
ATOM     61  C   UNL A   1      40.389  29.448  31.004  1.00  0.00     0.010 A 
ATOM     62  C   UNL A   1      39.636  29.971  28.759  1.00  0.00     0.010 A 
ATOM     63  C   UNL A   1      39.155  29.854  31.515  1.00  0.00     0.020 A 
ATOM     64  C   UNL A   1      38.409  30.407  29.269  1.00  0.00     0.020 A 
ATOM     65  C   UNL A   1      38.174  30.337  30.644  1.00  0.00     0.054 A 
BRANCH  65  66
ATOM     66  S   UNL A   1      36.605  30.914  31.346  1.00  0.00     0.124 S 
ATOM     67  O   UNL A   1      37.027  32.088  32.104  1.00  0.00    -0.237 OA
ATOM     68  O   UNL A   1      35.805  31.190  30.155  1.00  0.00    -0.237 OA
ATOM     69  O   UNL A   1      36.148  29.784  32.152  1.00  0.00    -0.744 OA
ENDBRANCH  65  66
ENDBRANCH  46  60
BRANCH  47  70
ATOM     70  C   UNL A   1      49.500  26.517  26.045  1.00  0.00    -0.014 A 
ATOM     71  C   UNL A   1      50.373  25.712  26.799  1.00  0.00     0.010 A 
ATOM     72  C   UNL A   1      49.917  26.974  24.781  1.00  0.00     0.010 A 
ATOM     73  C   UNL A   1      51.656  25.420  26.327  1.00  0.00     0.020 A 
ATOM     74  C   UNL A   1      51.185  26.654  24.289  1.00  0.00     0.020 A 
ATOM     75  C   UNL A   1      52.057  25.901  25.078  1.00  0.00     0.054 A 
BRANCH  75  76
ATOM     76  S   UNL A   1      53.731  25.527  24.490  1.00  0.00     0.124 S 
ATOM     77  O   UNL A   1      53.918  24.158  24.962  1.00  0.00    -0.237 OA
ATOM     78  O   UNL A   1      53.602  25.686  23.043  1.00  0.00    -0.237 OA
ATOM     79  O   UNL A   1      54.557  26.535  25.148  1.00  0.00    -0.744 OA
ENDBRANCH  75  76
ENDBRANCH  47  70
BRANCH  59  80
ATOM     80  C   UNL A   1      47.175  32.441  28.891  1.00  0.00    -0.014 A 
ATOM     81  C   UNL A   1      47.734  32.656  30.162  1.00  0.00     0.010 A 
ATOM     82  C   UNL A   1      47.300  33.442  27.909  1.00  0.00     0.010 A 
ATOM     83  C   UNL A   1      48.370  33.864  30.458  1.00  0.00     0.020 A 
ATOM     84  C   UNL A   1      47.965  34.637  28.189  1.00  0.00     0.020 A 
ATOM     85  C   UNL A   1      48.482  34.847  29.469  1.00  0.00     0.054 A 
BRANCH  85  86
ATOM     86  S   UNL A   1      49.347  36.391  29.867  1.00  0.00     0.124 S 
ATOM     87  O   UNL A   1      50.695  35.915  30.166  1.00  0.00    -0.237 OA
ATOM     88  O   UNL A   1      49.211  37.160  28.632  1.00  0.00    -0.237 OA
ATOM     89  O   UNL A   1      48.606  36.920  31.010  1.00  0.00    -0.744 OA
ENDBRANCH  85  86
ENDBRANCH  59  80
ENDBRANCH  33  34
ENDBRANCH  25  28
ENDBRANCH  23  24
ENDBRANCH  22  23
ENDBRANCH  21  22
ENDBRANCH   1  21
TORSDOF 20
ENDMDL
