MODEL 1
REMARK VINA RESULT:     -11.0      0.000      0.000
REMARK SMILES C[C@H]1[NH2+]CC[C@H]1C(=O)N1CCC(C(=O)NCCCCCCNC(=O)c2ccc(-c3c4nc(c(-c5ccc(S(=O)(=O)[O-])cc5)c5ccc([nH]5)c(-c5ccc(S(=O)(=O)[O-])cc5)c5nc(c(-c6ccc(S(=O)(=O)[O-])cc6)c6ccc3[nH]6)C=C5)C=C4)cc2)CC1
REMARK SMILES IDX 19 1 18 2 17 3 16 4 15 5 13 6 14 7 12 9 7 10 8 11 9 12 10 13
REMARK SMILES IDX 86 14 11 15 85 16 6 17 1 18 2 19 3 20 4 21 5 24 20 25 21 26
REMARK SMILES IDX 22 27 23 28 24 30 25 31 26 32 84 33 27 34 83 35 28 36 29 37
REMARK SMILES IDX 30 38 77 39 31 40 82 41 76 42 78 43 32 44 81 45 75 46 74 47
REMARK SMILES IDX 33 49 63 50 44 51 62 52 45 53 48 54 61 55 79 56 46 57 47 58
REMARK SMILES IDX 60 60 80 61 49 62 34 63 35 64 43 65 36 66 42 67 37 68 38 69
REMARK SMILES IDX 39 70 40 71 41 72 64 73 65 74 73 75 66 76 72 77 67 78 68 79
REMARK SMILES IDX 69 80 70 81 71 82 50 83 51 84 59 85 52 86 58 87 53 88 54 89
REMARK SMILES IDX 55 90 56 91 57 92
REMARK H PARENT 15 8 3 22 3 23 22 29 78 48 48 59
REMARK Flexibility Score: inf
ROOT
ATOM      1  C   UNL A   1      33.802  30.145  27.079  1.00  0.00     0.002 C 
ENDROOT
BRANCH   1   2
ATOM      2  C   UNL A   1      32.276  30.027  26.993  1.00  0.00     0.002 C 
BRANCH   2   3
ATOM      3  C   UNL A   1      31.674  30.509  25.669  1.00  0.00     0.021 C 
BRANCH   3   4
ATOM      4  C   UNL A   1      31.435  29.381  24.668  1.00  0.00     0.116 C 
BRANCH   4   5
ATOM      5  N   UNL A   1      32.524  29.322  23.706  1.00  0.00    -0.356 N 
ATOM      6  C   UNL A   1      33.127  28.258  23.112  1.00  0.00     0.223 C 
ATOM      7  O   UNL A   1      34.117  28.472  22.408  1.00  0.00    -0.275 OA
ATOM      8  H   UNL A   1      32.884  30.198  23.440  1.00  0.00     0.163 HD
BRANCH   6   9
ATOM      9  C   UNL A   1      32.563  26.852  23.239  1.00  0.00     0.082 C 
ATOM     10  C   UNL A   1      34.271  23.316  23.544  1.00  0.00     0.231 C 
ATOM     11  O   UNL A   1      35.276  23.776  22.999  1.00  0.00    -0.274 OA
ATOM     12  N   UNL A   1      33.074  24.018  23.530  1.00  0.00    -0.342 N 
ATOM     13  C   UNL A   1      32.541  24.490  22.259  1.00  0.00     0.120 C 
ATOM     14  C   UNL A   1      32.648  24.783  24.684  1.00  0.00     0.120 C 
ATOM     15  C   UNL A   1      32.798  25.974  22.001  1.00  0.00     0.035 C 
ATOM     16  C   UNL A   1      33.034  26.243  24.561  1.00  0.00     0.035 C 
BRANCH  10  17
ATOM     17  C   UNL A   1      34.242  21.873  24.076  1.00  0.00     0.142 C 
ATOM     18  C   UNL A   1      34.694  22.388  26.626  1.00  0.00     0.076 C 
ATOM     19  C   UNL A   1      34.845  21.469  25.425  1.00  0.00     0.192 C 
ATOM     20  N   UNL A   1      34.205  20.175  25.752  1.00  0.00    -0.343 N 
ATOM     21  C   UNL A   1      33.008  20.005  24.934  1.00  0.00     0.261 C 
ATOM     22  H   UNL A   1      33.946  20.165  26.738  1.00  0.00     0.346 HD
ATOM     23  H   UNL A   1      34.857  19.415  25.563  1.00  0.00     0.346 HD
ATOM     24  C   UNL A   1      32.854  21.254  24.089  1.00  0.00     0.081 C 
ENDBRANCH  10  17
ENDBRANCH   6   9
ENDBRANCH   4   5
ENDBRANCH   3   4
ENDBRANCH   2   3
ENDBRANCH   1   2
BRANCH   1  25
ATOM     25  C   UNL A   1      34.306  31.406  27.783  1.00  0.00     0.021 C 
BRANCH  25  26
ATOM     26  C   UNL A   1      35.661  31.244  28.460  1.00  0.00     0.116 C 
BRANCH  26  27
ATOM     27  N   UNL A   1      35.528  31.037  29.894  1.00  0.00    -0.352 N 
ATOM     28  C   UNL A   1      36.418  30.467  30.768  1.00  0.00     0.251 C 
ATOM     29  H   UNL A   1      34.682  31.348  30.292  1.00  0.00     0.163 HD
ATOM     30  O   UNL A   1      36.065  30.173  31.908  1.00  0.00    -0.269 OA
BRANCH  28  31
ATOM     31  C   UNL A   1      37.798  30.196  30.319  1.00  0.00     0.039 A 
ATOM     32  C   UNL A   1      38.773  29.883  31.268  1.00  0.00     0.014 A 
ATOM     33  C   UNL A   1      38.119  30.231  28.959  1.00  0.00     0.014 A 
ATOM     34  C   UNL A   1      40.061  29.549  30.846  1.00  0.00     0.010 A 
ATOM     35  C   UNL A   1      39.379  29.822  28.538  1.00  0.00     0.010 A 
ATOM     36  C   UNL A   1      40.365  29.482  29.476  1.00  0.00    -0.014 A 
BRANCH  36  37
ATOM     37  C   UNL A   1      41.707  29.060  29.001  1.00  0.00     0.031 A 
ATOM     38  C   UNL A   1      42.814  30.073  28.877  1.00  0.00     0.074 A 
ATOM     39  C   UNL A   1      41.908  27.785  28.613  1.00  0.00     0.049 A 
ATOM     40  N   UNL A   1      44.025  29.916  28.409  1.00  0.00    -0.248 NA
ATOM     41  C   UNL A   1      42.512  31.446  29.315  1.00  0.00     0.031 C 
ATOM     42  C   UNL A   1      40.903  26.718  28.651  1.00  0.00     0.029 A 
ATOM     43  N   UNL A   1      43.022  27.170  28.099  1.00  0.00    -0.354 N 
ATOM     44  C   UNL A   1      44.620  31.170  28.476  1.00  0.00     0.074 A 
ATOM     45  C   UNL A   1      43.624  32.086  28.984  1.00  0.00     0.031 C 
ATOM     46  C   UNL A   1      41.454  25.579  28.203  1.00  0.00     0.029 A 
ATOM     47  C   UNL A   1      42.831  25.841  27.799  1.00  0.00     0.049 A 
ATOM     48  H   UNL A   1      43.878  27.637  27.958  1.00  0.00     0.167 HD
ATOM     49  C   UNL A   1      45.889  31.523  28.159  1.00  0.00     0.031 A 
ATOM     50  C   UNL A   1      43.665  24.938  27.247  1.00  0.00     0.031 A 
ATOM     51  C   UNL A   1      46.879  30.605  27.660  1.00  0.00     0.049 A 
ATOM     52  C   UNL A   1      45.063  25.360  26.881  1.00  0.00     0.074 A 
ATOM     53  C   UNL A   1      48.207  30.852  27.363  1.00  0.00     0.029 A 
ATOM     54  N   UNL A   1      46.647  29.267  27.378  1.00  0.00    -0.354 N 
ATOM     55  N   UNL A   1      45.630  26.535  27.016  1.00  0.00    -0.248 NA
ATOM     56  C   UNL A   1      45.936  24.332  26.299  1.00  0.00     0.031 C 
ATOM     57  C   UNL A   1      48.762  29.680  26.841  1.00  0.00     0.029 A 
ATOM     58  C   UNL A   1      47.800  28.682  26.882  1.00  0.00     0.049 A 
ATOM     59  H   UNL A   1      45.790  28.801  27.511  1.00  0.00     0.167 HD
ATOM     60  C   UNL A   1      46.937  26.379  26.565  1.00  0.00     0.074 A 
ATOM     61  C   UNL A   1      47.078  24.994  26.165  1.00  0.00     0.031 C 
ATOM     62  C   UNL A   1      47.929  27.300  26.492  1.00  0.00     0.031 A 
BRANCH  49  63
ATOM     63  C   UNL A   1      46.277  32.969  28.330  1.00  0.00    -0.014 A 
ATOM     64  C   UNL A   1      46.845  33.436  29.531  1.00  0.00     0.010 A 
ATOM     65  C   UNL A   1      46.115  33.866  27.258  1.00  0.00     0.010 A 
ATOM     66  C   UNL A   1      47.204  34.779  29.669  1.00  0.00     0.020 A 
ATOM     67  C   UNL A   1      46.503  35.204  27.381  1.00  0.00     0.020 A 
ATOM     68  C   UNL A   1      47.031  35.655  28.593  1.00  0.00     0.054 A 
BRANCH  68  69
ATOM     69  S   UNL A   1      47.532  37.386  28.794  1.00  0.00     0.124 S 
ATOM     70  O   UNL A   1      46.276  38.093  28.558  1.00  0.00    -0.237 OA
ATOM     71  O   UNL A   1      48.022  37.419  30.170  1.00  0.00    -0.237 OA
ATOM     72  O   UNL A   1      48.554  37.574  27.767  1.00  0.00    -0.744 OA
ENDBRANCH  68  69
ENDBRANCH  49  63
BRANCH  50  73
ATOM     73  C   UNL A   1      43.200  23.543  27.010  1.00  0.00    -0.014 A 
ATOM     74  C   UNL A   1      43.191  22.604  28.056  1.00  0.00     0.010 A 
ATOM     75  C   UNL A   1      42.747  23.150  25.738  1.00  0.00     0.010 A 
ATOM     76  C   UNL A   1      42.758  21.294  27.830  1.00  0.00     0.020 A 
ATOM     77  C   UNL A   1      42.284  21.850  25.514  1.00  0.00     0.020 A 
ATOM     78  C   UNL A   1      42.304  20.926  26.561  1.00  0.00     0.054 A 
BRANCH  78  79
ATOM     79  S   UNL A   1      41.699  19.235  26.305  1.00  0.00     0.124 S 
ATOM     80  O   UNL A   1      42.688  18.695  25.378  1.00  0.00    -0.237 OA
ATOM     81  O   UNL A   1      41.729  18.682  27.656  1.00  0.00    -0.237 OA
ATOM     82  O   UNL A   1      40.361  19.430  25.750  1.00  0.00    -0.744 OA
ENDBRANCH  78  79
ENDBRANCH  50  73
BRANCH  62  83
ATOM     83  C   UNL A   1      49.277  26.839  26.001  1.00  0.00    -0.014 A 
ATOM     84  C   UNL A   1      49.696  27.074  24.680  1.00  0.00     0.010 A 
ATOM     85  C   UNL A   1      50.164  26.224  26.903  1.00  0.00     0.010 A 
ATOM     86  C   UNL A   1      50.972  26.681  24.265  1.00  0.00     0.020 A 
ATOM     87  C   UNL A   1      51.451  25.858  26.501  1.00  0.00     0.020 A 
ATOM     88  C   UNL A   1      51.843  26.080  25.179  1.00  0.00     0.054 A 
BRANCH  88  89
ATOM     89  S   UNL A   1      53.514  25.636  24.629  1.00  0.00     0.124 S 
ATOM     90  O   UNL A   1      53.572  24.213  24.952  1.00  0.00    -0.237 OA
ATOM     91  O   UNL A   1      53.477  25.957  23.205  1.00  0.00    -0.237 OA
ATOM     92  O   UNL A   1      54.382  26.493  25.434  1.00  0.00    -0.744 OA
ENDBRANCH  88  89
ENDBRANCH  62  83
ENDBRANCH  36  37
ENDBRANCH  28  31
ENDBRANCH  26  27
ENDBRANCH  25  26
ENDBRANCH   1  25
TORSDOF 17
ENDMDL
MODEL 2
REMARK VINA RESULT:     -10.9      4.988      6.317
REMARK SMILES C[C@H]1[NH2+]CC[C@H]1C(=O)N1CCC(C(=O)NCCCCCCNC(=O)c2ccc(-c3c4nc(c(-c5ccc(S(=O)(=O)[O-])cc5)c5ccc([nH]5)c(-c5ccc(S(=O)(=O)[O-])cc5)c5nc(c(-c6ccc(S(=O)(=O)[O-])cc6)c6ccc3[nH]6)C=C5)C=C4)cc2)CC1
REMARK SMILES IDX 19 1 18 2 17 3 16 4 15 5 13 6 14 7 12 9 7 10 8 11 9 12 10 13
REMARK SMILES IDX 86 14 11 15 85 16 6 17 1 18 2 19 3 20 4 21 5 24 20 25 21 26
REMARK SMILES IDX 22 27 23 28 24 30 25 31 26 32 84 33 27 34 83 35 28 36 29 37
REMARK SMILES IDX 30 38 77 39 31 40 82 41 76 42 78 43 32 44 81 45 75 46 74 47
REMARK SMILES IDX 33 49 63 50 44 51 62 52 45 53 48 54 61 55 79 56 46 57 47 58
REMARK SMILES IDX 60 60 80 61 49 62 34 63 35 64 43 65 36 66 42 67 37 68 38 69
REMARK SMILES IDX 39 70 40 71 41 72 64 73 65 74 73 75 66 76 72 77 67 78 68 79
REMARK SMILES IDX 69 80 70 81 71 82 50 83 51 84 59 85 52 86 58 87 53 88 54 89
REMARK SMILES IDX 55 90 56 91 57 92
REMARK H PARENT 15 8 3 22 3 23 22 29 78 48 48 59
REMARK Flexibility Score: inf
ROOT
ATOM      1  C   UNL A   1      31.495  27.785  26.115  1.00  0.00     0.002 C 
ENDROOT
BRANCH   1   2
ATOM      2  C   UNL A   1      30.840  26.403  26.021  1.00  0.00     0.002 C 
BRANCH   2   3
ATOM      3  C   UNL A   1      29.940  26.207  24.796  1.00  0.00     0.021 C 
BRANCH   3   4
ATOM      4  C   UNL A   1      30.665  25.583  23.607  1.00  0.00     0.116 C 
BRANCH   4   5
ATOM      5  N   UNL A   1      31.505  26.574  22.952  1.00  0.00    -0.356 N 
ATOM      6  C   UNL A   1      32.852  26.620  22.778  1.00  0.00     0.223 C 
ATOM      7  O   UNL A   1      33.337  27.639  22.279  1.00  0.00    -0.275 OA
ATOM      8  H   UNL A   1      31.016  27.338  22.571  1.00  0.00     0.163 HD
BRANCH   6   9
ATOM      9  C   UNL A   1      33.737  25.429  23.107  1.00  0.00     0.082 C 
ATOM     10  C   UNL A   1      33.011  21.973  24.853  1.00  0.00     0.231 C 
ATOM     11  O   UNL A   1      32.039  22.483  25.414  1.00  0.00    -0.274 OA
ATOM     12  N   UNL A   1      33.958  22.765  24.218  1.00  0.00    -0.342 N 
ATOM     13  C   UNL A   1      34.572  23.865  24.949  1.00  0.00     0.120 C 
ATOM     14  C   UNL A   1      33.940  22.933  22.780  1.00  0.00     0.120 C 
ATOM     15  C   UNL A   1      33.980  25.232  24.610  1.00  0.00     0.035 C 
ATOM     16  C   UNL A   1      33.208  24.196  22.372  1.00  0.00     0.035 C 
BRANCH  10  17
ATOM     17  C   UNL A   1      33.326  20.476  25.006  1.00  0.00     0.142 C 
ATOM     18  C   UNL A   1      32.216  19.613  22.771  1.00  0.00     0.076 C 
ATOM     19  C   UNL A   1      32.585  19.384  24.227  1.00  0.00     0.192 C 
ATOM     20  N   UNL A   1      33.474  18.203  24.296  1.00  0.00    -0.343 N 
ATOM     21  C   UNL A   1      34.817  18.627  24.680  1.00  0.00     0.261 C 
ATOM     22  H   UNL A   1      33.509  17.751  23.382  1.00  0.00     0.346 HD
ATOM     23  H   UNL A   1      33.114  17.545  24.987  1.00  0.00     0.346 HD
ATOM     24  C   UNL A   1      34.795  20.136  24.816  1.00  0.00     0.081 C 
ENDBRANCH  10  17
ENDBRANCH   6   9
ENDBRANCH   4   5
ENDBRANCH   3   4
ENDBRANCH   2   3
ENDBRANCH   1   2
BRANCH   1  25
ATOM     25  C   UNL A   1      32.809  27.817  26.898  1.00  0.00     0.021 C 
BRANCH  25  26
ATOM     26  C   UNL A   1      33.903  28.656  26.250  1.00  0.00     0.116 C 
BRANCH  26  27
ATOM     27  N   UNL A   1      33.736  30.073  26.532  1.00  0.00    -0.352 N 
ATOM     28  C   UNL A   1      34.427  30.862  27.416  1.00  0.00     0.251 C 
ATOM     29  H   UNL A   1      33.030  30.529  26.019  1.00  0.00     0.163 HD
ATOM     30  O   UNL A   1      34.020  31.989  27.689  1.00  0.00    -0.269 OA
BRANCH  28  31
ATOM     31  C   UNL A   1      35.653  30.337  28.047  1.00  0.00     0.039 A 
ATOM     32  C   UNL A   1      36.877  30.494  27.392  1.00  0.00     0.014 A 
ATOM     33  C   UNL A   1      35.593  29.708  29.294  1.00  0.00     0.014 A 
ATOM     34  C   UNL A   1      38.051  30.070  28.017  1.00  0.00     0.010 A 
ATOM     35  C   UNL A   1      36.770  29.358  29.946  1.00  0.00     0.010 A 
ATOM     36  C   UNL A   1      38.011  29.530  29.314  1.00  0.00    -0.014 A 
BRANCH  36  37
ATOM     37  C   UNL A   1      39.252  29.137  30.028  1.00  0.00     0.031 A 
ATOM     38  C   UNL A   1      39.685  29.894  31.255  1.00  0.00     0.074 A 
ATOM     39  C   UNL A   1      40.023  28.150  29.533  1.00  0.00     0.049 A 
ATOM     40  N   UNL A   1      40.773  29.754  31.967  1.00  0.00    -0.248 NA
ATOM     41  C   UNL A   1      38.790  30.964  31.727  1.00  0.00     0.031 C 
ATOM     42  C   UNL A   1      39.728  27.365  28.330  1.00  0.00     0.029 A 
ATOM     43  N   UNL A   1      41.220  27.642  29.972  1.00  0.00    -0.354 N 
ATOM     44  C   UNL A   1      40.704  30.727  32.957  1.00  0.00     0.074 A 
ATOM     45  C   UNL A   1      39.493  31.482  32.725  1.00  0.00     0.031 C 
ATOM     46  C   UNL A   1      40.705  26.463  28.143  1.00  0.00     0.029 A 
ATOM     47  C   UNL A   1      41.719  26.635  29.178  1.00  0.00     0.049 A 
ATOM     48  H   UNL A   1      41.679  27.968  30.780  1.00  0.00     0.167 HD
ATOM     49  C   UNL A   1      41.563  30.960  33.977  1.00  0.00     0.031 A 
ATOM     50  C   UNL A   1      42.870  25.938  29.264  1.00  0.00     0.031 A 
ATOM     51  C   UNL A   1      42.763  30.200  34.207  1.00  0.00     0.049 A 
ATOM     52  C   UNL A   1      43.819  26.232  30.394  1.00  0.00     0.074 A 
ATOM     53  C   UNL A   1      43.670  30.321  35.245  1.00  0.00     0.029 A 
ATOM     54  N   UNL A   1      43.228  29.184  33.386  1.00  0.00    -0.354 N 
ATOM     55  N   UNL A   1      43.704  27.110  31.361  1.00  0.00    -0.248 NA
ATOM     56  C   UNL A   1      45.051  25.431  30.451  1.00  0.00     0.031 C 
ATOM     57  C   UNL A   1      44.715  29.422  35.017  1.00  0.00     0.029 A 
ATOM     58  C   UNL A   1      44.424  28.690  33.876  1.00  0.00     0.049 A 
ATOM     59  H   UNL A   1      42.774  28.862  32.573  1.00  0.00     0.167 HD
ATOM     60  C   UNL A   1      44.831  26.947  32.159  1.00  0.00     0.074 A 
ATOM     61  C   UNL A   1      45.609  25.878  31.568  1.00  0.00     0.031 C 
ATOM     62  C   UNL A   1      45.186  27.620  33.281  1.00  0.00     0.031 A 
BRANCH  49  63
ATOM     63  C   UNL A   1      41.242  32.093  34.918  1.00  0.00    -0.014 A 
ATOM     64  C   UNL A   1      40.445  31.890  36.061  1.00  0.00     0.010 A 
ATOM     65  C   UNL A   1      41.784  33.370  34.683  1.00  0.00     0.010 A 
ATOM     66  C   UNL A   1      40.164  32.951  36.925  1.00  0.00     0.020 A 
ATOM     67  C   UNL A   1      41.531  34.427  35.562  1.00  0.00     0.020 A 
ATOM     68  C   UNL A   1      40.709  34.213  36.671  1.00  0.00     0.054 A 
BRANCH  68  69
ATOM     69  S   UNL A   1      40.347  35.563  37.826  1.00  0.00     0.124 S 
ATOM     70  O   UNL A   1      39.339  34.958  38.692  1.00  0.00    -0.237 OA
ATOM     71  O   UNL A   1      41.646  35.807  38.449  1.00  0.00    -0.237 OA
ATOM     72  O   UNL A   1      39.862  36.638  36.964  1.00  0.00    -0.744 OA
ENDBRANCH  68  69
ENDBRANCH  49  63
BRANCH  50  73
ATOM     73  C   UNL A   1      43.183  24.893  28.251  1.00  0.00    -0.014 A 
ATOM     74  C   UNL A   1      42.798  23.557  28.457  1.00  0.00     0.010 A 
ATOM     75  C   UNL A   1      43.857  25.232  27.063  1.00  0.00     0.010 A 
ATOM     76  C   UNL A   1      43.098  22.577  27.507  1.00  0.00     0.020 A 
ATOM     77  C   UNL A   1      44.132  24.261  26.095  1.00  0.00     0.020 A 
ATOM     78  C   UNL A   1      43.761  22.936  26.330  1.00  0.00     0.054 A 
BRANCH  78  79
ATOM     79  S   UNL A   1      44.094  21.656  25.088  1.00  0.00     0.124 S 
ATOM     80  O   UNL A   1      43.036  20.688  25.358  1.00  0.00    -0.237 OA
ATOM     81  O   UNL A   1      43.973  22.395  23.834  1.00  0.00    -0.237 OA
ATOM     82  O   UNL A   1      45.447  21.210  25.410  1.00  0.00    -0.744 OA
ENDBRANCH  78  79
ENDBRANCH  50  73
BRANCH  62  83
ATOM     83  C   UNL A   1      46.454  27.198  33.978  1.00  0.00    -0.014 A 
ATOM     84  C   UNL A   1      46.453  26.189  34.956  1.00  0.00     0.010 A 
ATOM     85  C   UNL A   1      47.677  27.775  33.589  1.00  0.00     0.010 A 
ATOM     86  C   UNL A   1      47.651  25.781  35.550  1.00  0.00     0.020 A 
ATOM     87  C   UNL A   1      48.880  27.349  34.157  1.00  0.00     0.020 A 
ATOM     88  C   UNL A   1      48.857  26.361  35.143  1.00  0.00     0.054 A 
BRANCH  88  89
ATOM     89  S   UNL A   1      50.403  25.769  35.886  1.00  0.00     0.124 S 
ATOM     90  O   UNL A   1      51.376  26.063  34.838  1.00  0.00    -0.237 OA
ATOM     91  O   UNL A   1      50.511  26.586  37.092  1.00  0.00    -0.237 OA
ATOM     92  O   UNL A   1      50.153  24.349  36.122  1.00  0.00    -0.744 OA
ENDBRANCH  88  89
ENDBRANCH  62  83
ENDBRANCH  36  37
ENDBRANCH  28  31
ENDBRANCH  26  27
ENDBRANCH  25  26
ENDBRANCH   1  25
TORSDOF 17
ENDMDL
MODEL 3
REMARK VINA RESULT:     -10.6      6.169     12.025
REMARK SMILES C[C@H]1[NH2+]CC[C@H]1C(=O)N1CCC(C(=O)NCCCCCCNC(=O)c2ccc(-c3c4nc(c(-c5ccc(S(=O)(=O)[O-])cc5)c5ccc([nH]5)c(-c5ccc(S(=O)(=O)[O-])cc5)c5nc(c(-c6ccc(S(=O)(=O)[O-])cc6)c6ccc3[nH]6)C=C5)C=C4)cc2)CC1
REMARK SMILES IDX 19 1 18 2 17 3 16 4 15 5 13 6 14 7 12 9 7 10 8 11 9 12 10 13
REMARK SMILES IDX 86 14 11 15 85 16 6 17 1 18 2 19 3 20 4 21 5 24 20 25 21 26
REMARK SMILES IDX 22 27 23 28 24 30 25 31 26 32 84 33 27 34 83 35 28 36 29 37
REMARK SMILES IDX 30 38 77 39 31 40 82 41 76 42 78 43 32 44 81 45 75 46 74 47
REMARK SMILES IDX 33 49 63 50 44 51 62 52 45 53 48 54 61 55 79 56 46 57 47 58
REMARK SMILES IDX 60 60 80 61 49 62 34 63 35 64 43 65 36 66 42 67 37 68 38 69
REMARK SMILES IDX 39 70 40 71 41 72 64 73 65 74 73 75 66 76 72 77 67 78 68 79
REMARK SMILES IDX 69 80 70 81 71 82 50 83 51 84 59 85 52 86 58 87 53 88 54 89
REMARK SMILES IDX 55 90 56 91 57 92
REMARK H PARENT 15 8 3 22 3 23 22 29 78 48 48 59
REMARK Flexibility Score: inf
ROOT
ATOM      1  C   UNL A   1      39.335  21.474  26.332  1.00  0.00     0.002 C 
ENDROOT
BRANCH   1   2
ATOM      2  C   UNL A   1      38.076  22.076  25.698  1.00  0.00     0.002 C 
BRANCH   2   3
ATOM      3  C   UNL A   1      37.202  21.071  24.941  1.00  0.00     0.021 C 
BRANCH   3   4
ATOM      4  C   UNL A   1      35.707  21.276  25.170  1.00  0.00     0.116 C 
BRANCH   4   5
ATOM      5  N   UNL A   1      34.990  20.025  24.977  1.00  0.00    -0.356 N 
ATOM      6  C   UNL A   1      33.658  19.768  24.904  1.00  0.00     0.223 C 
ATOM      7  O   UNL A   1      33.298  18.589  24.848  1.00  0.00    -0.275 OA
ATOM      8  H   UNL A   1      35.567  19.233  24.883  1.00  0.00     0.163 HD
BRANCH   6   9
ATOM      9  C   UNL A   1      32.635  20.889  24.813  1.00  0.00     0.082 C 
ATOM     10  C   UNL A   1      32.976  24.757  24.154  1.00  0.00     0.231 C 
ATOM     11  O   UNL A   1      34.137  24.705  24.565  1.00  0.00    -0.274 OA
ATOM     12  N   UNL A   1      32.103  23.697  24.360  1.00  0.00    -0.342 N 
ATOM     13  C   UNL A   1      31.924  23.175  25.708  1.00  0.00     0.120 C 
ATOM     14  C   UNL A   1      31.829  22.745  23.304  1.00  0.00     0.120 C 
ATOM     15  C   UNL A   1      32.704  21.889  25.975  1.00  0.00     0.035 C 
ATOM     16  C   UNL A   1      32.704  21.514  23.418  1.00  0.00     0.035 C 
BRANCH  10  17
ATOM     17  C   UNL A   1      32.389  26.059  23.584  1.00  0.00     0.142 C 
ATOM     18  C   UNL A   1      32.633  25.508  21.014  1.00  0.00     0.076 C 
ATOM     19  C   UNL A   1      32.629  26.524  22.144  1.00  0.00     0.192 C 
ATOM     20  N   UNL A   1      31.552  27.503  21.879  1.00  0.00    -0.343 N 
ATOM     21  C   UNL A   1      30.493  27.339  22.870  1.00  0.00     0.261 C 
ATOM     22  H   UNL A   1      31.172  27.344  20.946  1.00  0.00     0.346 HD
ATOM     23  H   UNL A   1      31.929  28.448  21.937  1.00  0.00     0.346 HD
ATOM     24  C   UNL A   1      30.886  26.186  23.770  1.00  0.00     0.081 C 
ENDBRANCH  10  17
ENDBRANCH   6   9
ENDBRANCH   4   5
ENDBRANCH   3   4
ENDBRANCH   2   3
ENDBRANCH   1   2
BRANCH   1  25
ATOM     25  C   UNL A   1      40.187  22.465  27.126  1.00  0.00     0.021 C 
BRANCH  25  26
ATOM     26  C   UNL A   1      40.369  23.816  26.447  1.00  0.00     0.116 C 
BRANCH  26  27
ATOM     27  N   UNL A   1      41.745  24.026  26.023  1.00  0.00    -0.352 N 
ATOM     28  C   UNL A   1      42.586  25.070  26.315  1.00  0.00     0.251 C 
ATOM     29  H   UNL A   1      42.125  23.324  25.447  1.00  0.00     0.163 HD
ATOM     30  O   UNL A   1      43.644  25.202  25.704  1.00  0.00    -0.269 OA
BRANCH  28  31
ATOM     31  C   UNL A   1      42.199  26.040  27.357  1.00  0.00     0.039 A 
ATOM     32  C   UNL A   1      41.231  25.679  28.298  1.00  0.00     0.014 A 
ATOM     33  C   UNL A   1      42.807  27.297  27.415  1.00  0.00     0.014 A 
ATOM     34  C   UNL A   1      40.916  26.560  29.333  1.00  0.00     0.010 A 
ATOM     35  C   UNL A   1      42.548  28.140  28.490  1.00  0.00     0.010 A 
ATOM     36  C   UNL A   1      41.596  27.783  29.457  1.00  0.00    -0.014 A 
BRANCH  36  37
ATOM     37  C   UNL A   1      41.329  28.706  30.589  1.00  0.00     0.031 A 
ATOM     38  C   UNL A   1      42.139  28.601  31.853  1.00  0.00     0.074 A 
ATOM     39  C   UNL A   1      40.313  29.589  30.506  1.00  0.00     0.049 A 
ATOM     40  N   UNL A   1      42.004  29.260  32.975  1.00  0.00    -0.248 NA
ATOM     41  C   UNL A   1      43.225  27.607  31.867  1.00  0.00     0.031 C 
ATOM     42  C   UNL A   1      39.433  29.763  29.347  1.00  0.00     0.029 A 
ATOM     43  N   UNL A   1      39.841  30.499  31.418  1.00  0.00    -0.354 N 
ATOM     44  C   UNL A   1      42.972  28.748  33.831  1.00  0.00     0.074 A 
ATOM     45  C   UNL A   1      43.654  27.692  33.118  1.00  0.00     0.031 C 
ATOM     46  C   UNL A   1      38.546  30.735  29.610  1.00  0.00     0.029 A 
ATOM     47  C   UNL A   1      38.758  31.220  30.970  1.00  0.00     0.049 A 
ATOM     48  H   UNL A   1      40.241  30.626  32.309  1.00  0.00     0.167 HD
ATOM     49  C   UNL A   1      43.277  29.136  35.092  1.00  0.00     0.031 A 
ATOM     50  C   UNL A   1      38.009  32.154  31.589  1.00  0.00     0.031 A 
ATOM     51  C   UNL A   1      42.600  30.194  35.795  1.00  0.00     0.049 A 
ATOM     52  C   UNL A   1      38.353  32.551  32.999  1.00  0.00     0.074 A 
ATOM     53  C   UNL A   1      42.871  30.700  37.053  1.00  0.00     0.029 A 
ATOM     54  N   UNL A   1      41.514  30.903  35.303  1.00  0.00    -0.354 N 
ATOM     55  N   UNL A   1      39.316  32.105  33.769  1.00  0.00    -0.248 NA
ATOM     56  C   UNL A   1      37.516  33.587  33.620  1.00  0.00     0.031 C 
ATOM     57  C   UNL A   1      41.910  31.670  37.349  1.00  0.00     0.029 A 
ATOM     58  C   UNL A   1      41.084  31.821  36.246  1.00  0.00     0.049 A 
ATOM     59  H   UNL A   1      41.109  30.772  34.415  1.00  0.00     0.167 HD
ATOM     60  C   UNL A   1      39.221  32.827  34.953  1.00  0.00     0.074 A 
ATOM     61  C   UNL A   1      38.114  33.747  34.793  1.00  0.00     0.031 C 
ATOM     62  C   UNL A   1      39.983  32.737  36.071  1.00  0.00     0.031 A 
BRANCH  49  63
ATOM     63  C   UNL A   1      44.387  28.402  35.801  1.00  0.00    -0.014 A 
ATOM     64  C   UNL A   1      44.146  27.194  36.481  1.00  0.00     0.010 A 
ATOM     65  C   UNL A   1      45.701  28.903  35.746  1.00  0.00     0.010 A 
ATOM     66  C   UNL A   1      45.188  26.525  37.127  1.00  0.00     0.020 A 
ATOM     67  C   UNL A   1      46.752  28.220  36.363  1.00  0.00     0.020 A 
ATOM     68  C   UNL A   1      46.486  27.042  37.064  1.00  0.00     0.054 A 
BRANCH  68  69
ATOM     69  S   UNL A   1      47.822  26.136  37.889  1.00  0.00     0.124 S 
ATOM     70  O   UNL A   1      48.108  26.996  39.034  1.00  0.00    -0.237 OA
ATOM     71  O   UNL A   1      47.192  24.857  38.207  1.00  0.00    -0.237 OA
ATOM     72  O   UNL A   1      48.876  26.074  36.880  1.00  0.00    -0.744 OA
ENDBRANCH  68  69
ENDBRANCH  49  63
BRANCH  50  73
ATOM     73  C   UNL A   1      36.862  32.780  30.874  1.00  0.00    -0.014 A 
ATOM     74  C   UNL A   1      35.553  32.305  31.066  1.00  0.00     0.010 A 
ATOM     75  C   UNL A   1      37.071  33.868  30.006  1.00  0.00     0.010 A 
ATOM     76  C   UNL A   1      34.479  32.890  30.390  1.00  0.00     0.020 A 
ATOM     77  C   UNL A   1      35.997  34.477  29.352  1.00  0.00     0.020 A 
ATOM     78  C   UNL A   1      34.707  33.976  29.539  1.00  0.00     0.054 A 
BRANCH  78  79
ATOM     79  S   UNL A   1      33.291  34.752  28.713  1.00  0.00     0.124 S 
ATOM     80  O   UNL A   1      32.425  35.082  29.840  1.00  0.00    -0.237 OA
ATOM     81  O   UNL A   1      33.907  35.888  28.033  1.00  0.00    -0.237 OA
ATOM     82  O   UNL A   1      32.793  33.702  27.828  1.00  0.00    -0.744 OA
ENDBRANCH  78  79
ENDBRANCH  50  73
BRANCH  62  83
ATOM     83  C   UNL A   1      39.682  33.686  37.202  1.00  0.00    -0.014 A 
ATOM     84  C   UNL A   1      38.806  33.333  38.242  1.00  0.00     0.010 A 
ATOM     85  C   UNL A   1      40.348  34.924  37.257  1.00  0.00     0.010 A 
ATOM     86  C   UNL A   1      38.583  34.212  39.306  1.00  0.00     0.020 A 
ATOM     87  C   UNL A   1      40.153  35.792  38.334  1.00  0.00     0.020 A 
ATOM     88  C   UNL A   1      39.262  35.434  39.347  1.00  0.00     0.054 A 
BRANCH  88  89
ATOM     89  S   UNL A   1      39.002  36.529  40.770  1.00  0.00     0.124 S 
ATOM     90  O   UNL A   1      40.344  36.611  41.340  1.00  0.00    -0.237 OA
ATOM     91  O   UNL A   1      38.508  37.753  40.145  1.00  0.00    -0.237 OA
ATOM     92  O   UNL A   1      38.023  35.812  41.585  1.00  0.00    -0.744 OA
ENDBRANCH  88  89
ENDBRANCH  62  83
ENDBRANCH  36  37
ENDBRANCH  28  31
ENDBRANCH  26  27
ENDBRANCH  25  26
ENDBRANCH   1  25
TORSDOF 17
ENDMDL
