MODEL 1
REMARK VINA RESULT:     -12.9      0.000      0.000
REMARK SMILES Cc1nn([C@H]2CCS(=O)(=O)C2)c(C)c1/C=C(\CC(=O)NCCCCCCNC(=O)c1ccc(-c2c3nc(c(-c4ccc(S(=O)(=O)[O-])cc4)c4ccc([nH]4)c(-c4ccc(S(=O)(=O)[O-])cc4)c4nc(c(-c5ccc(S(=O)(=O)[O-])cc5)c5ccc2[nH]5)C=C4)C=C3)cc1)c1nc2ccccc2s1
REMARK SMILES IDX 23 1 22 2 21 3 20 4 18 5 19 6 17 8 16 9 15 10 14 11 1 12
REMARK SMILES IDX 2 13 3 14 4 15 12 16 13 17 5 18 6 19 11 20 7 21 8 22 9 23
REMARK SMILES IDX 10 24 90 25 91 26 98 27 92 28 97 29 93 30 96 31 94 32 95 33
REMARK SMILES IDX 24 34 25 35 26 36 27 37 28 38 29 40 30 41 31 42 89 43 32 44
REMARK SMILES IDX 88 45 33 46 34 47 35 48 82 49 36 50 87 51 81 52 83 53 37 54
REMARK SMILES IDX 86 55 80 56 79 57 38 59 68 60 49 61 67 62 50 63 53 64 66 65
REMARK SMILES IDX 84 66 51 67 52 68 65 70 85 71 54 72 39 73 40 74 48 75 41 76
REMARK SMILES IDX 47 77 42 78 43 79 44 80 45 81 46 82 69 83 70 84 78 85 71 86
REMARK SMILES IDX 77 87 72 88 73 89 74 90 75 91 76 92 55 93 56 94 64 95 57 96
REMARK SMILES IDX 63 97 58 98 59 99 60 100 61 101 62 102
REMARK H PARENT 20 7 27 39 83 58 53 69
REMARK Flexibility Score: inf
ROOT
ATOM      1  C   UNL A   1      38.996  22.709  26.556  1.00  0.00     0.002 C 
ENDROOT
BRANCH   1   2
ATOM      2  C   UNL A   1      38.030  23.812  26.111  1.00  0.00     0.021 C 
BRANCH   2   3
ATOM      3  C   UNL A   1      36.604  23.307  25.915  1.00  0.00     0.116 C 
BRANCH   3   4
ATOM      4  N   UNL A   1      36.126  23.652  24.593  1.00  0.00    -0.356 N 
ATOM      5  C   UNL A   1      34.901  24.138  24.237  1.00  0.00     0.224 C 
ATOM      6  O   UNL A   1      34.597  24.153  23.043  1.00  0.00    -0.275 OA
ATOM      7  H   UNL A   1      36.766  23.520  23.856  1.00  0.00     0.163 HD
BRANCH   5   8
ATOM      8  C   UNL A   1      34.062  24.854  25.283  1.00  0.00     0.138 C 
BRANCH   8   9
ATOM      9  C   UNL A   1      32.576  24.594  25.351  1.00  0.00    -0.002 C 
ATOM     10  C   UNL A   1      31.999  23.375  25.499  1.00  0.00     0.019 C 
BRANCH  10  11
ATOM     11  C   UNL A   1      32.554  22.041  25.474  1.00  0.00     0.019 A 
ATOM     12  C   UNL A   1      33.773  22.129  27.820  1.00  0.00     0.069 C 
ATOM     13  C   UNL A   1      33.317  21.500  26.553  1.00  0.00     0.067 A 
ATOM     14  N   UNL A   1      33.607  20.218  26.352  1.00  0.00    -0.177 NA
ATOM     15  N   UNL A   1      32.997  19.903  25.200  1.00  0.00    -0.265 N 
ATOM     16  C   UNL A   1      32.538  21.013  24.525  1.00  0.00     0.043 A 
ATOM     17  C   UNL A   1      32.174  20.965  23.084  1.00  0.00     0.067 C 
BRANCH  15  18
ATOM     18  C   UNL A   1      32.953  18.479  24.938  1.00  0.00     0.123 C 
ATOM     19  C   UNL A   1      33.760  18.125  23.665  1.00  0.00     0.044 C 
ATOM     20  C   UNL A   1      33.438  17.459  25.960  1.00  0.00     0.164 C 
ATOM     21  C   UNL A   1      33.477  16.655  23.406  1.00  0.00     0.139 C 
ATOM     22  S   UNL A   1      33.374  15.925  25.034  1.00  0.00     0.152 S 
ATOM     23  O   UNL A   1      32.065  15.343  25.198  1.00  0.00    -0.229 OA
ATOM     24  O   UNL A   1      34.592  15.173  25.288  1.00  0.00    -0.229 OA
ENDBRANCH  15  18
ENDBRANCH  10  11
BRANCH   9  25
ATOM     25  C   UNL A   1      31.713  25.738  25.216  1.00  0.00     0.121 A 
ATOM     26  N   UNL A   1      30.406  25.644  25.075  1.00  0.00    -0.236 NA
ATOM     27  S   UNL A   1      32.348  27.316  24.923  1.00  0.00    -0.114 S 
ATOM     28  C   UNL A   1      29.930  26.743  24.385  1.00  0.00     0.082 A 
ATOM     29  C   UNL A   1      30.863  27.756  24.168  1.00  0.00     0.055 A 
ATOM     30  C   UNL A   1      28.641  26.868  23.830  1.00  0.00     0.030 A 
ATOM     31  C   UNL A   1      30.556  28.891  23.400  1.00  0.00     0.021 A 
ATOM     32  C   UNL A   1      28.352  27.955  23.000  1.00  0.00     0.002 A 
ATOM     33  C   UNL A   1      29.302  28.949  22.785  1.00  0.00     0.002 A 
ENDBRANCH   9  25
ENDBRANCH   8   9
ENDBRANCH   5   8
ENDBRANCH   3   4
ENDBRANCH   2   3
ENDBRANCH   1   2
BRANCH   1  34
ATOM     34  C   UNL A   1      38.985  21.446  25.682  1.00  0.00     0.002 C 
BRANCH  34  35
ATOM     35  C   UNL A   1      40.022  20.374  26.049  1.00  0.00     0.021 C 
BRANCH  35  36
ATOM     36  C   UNL A   1      41.265  20.939  26.718  1.00  0.00     0.116 C 
BRANCH  36  37
ATOM     37  N   UNL A   1      42.287  21.309  25.738  1.00  0.00    -0.352 N 
ATOM     38  C   UNL A   1      42.760  22.562  25.406  1.00  0.00     0.251 C 
ATOM     39  H   UNL A   1      42.695  20.560  25.247  1.00  0.00     0.163 HD
ATOM     40  O   UNL A   1      43.341  22.750  24.346  1.00  0.00    -0.269 OA
BRANCH  38  41
ATOM     41  C   UNL A   1      42.561  23.666  26.359  1.00  0.00     0.039 A 
ATOM     42  C   UNL A   1      43.066  23.615  27.663  1.00  0.00     0.014 A 
ATOM     43  C   UNL A   1      41.864  24.781  25.907  1.00  0.00     0.014 A 
ATOM     44  C   UNL A   1      42.925  24.733  28.484  1.00  0.00     0.010 A 
ATOM     45  C   UNL A   1      41.874  25.929  26.648  1.00  0.00     0.010 A 
ATOM     46  C   UNL A   1      42.336  25.890  27.961  1.00  0.00    -0.014 A 
BRANCH  46  47
ATOM     47  C   UNL A   1      42.241  27.126  28.726  1.00  0.00     0.031 A 
ATOM     48  C   UNL A   1      43.342  28.101  28.494  1.00  0.00     0.074 A 
ATOM     49  C   UNL A   1      41.078  27.483  29.312  1.00  0.00     0.049 A 
ATOM     50  N   UNL A   1      44.216  28.542  29.337  1.00  0.00    -0.248 NA
ATOM     51  C   UNL A   1      43.572  28.553  27.110  1.00  0.00     0.031 C 
ATOM     52  C   UNL A   1      39.799  26.755  29.282  1.00  0.00     0.029 A 
ATOM     53  N   UNL A   1      40.738  28.652  29.912  1.00  0.00    -0.354 N 
ATOM     54  C   UNL A   1      44.962  29.496  28.646  1.00  0.00     0.074 A 
ATOM     55  C   UNL A   1      44.670  29.296  27.250  1.00  0.00     0.031 C 
ATOM     56  C   UNL A   1      38.792  27.599  29.595  1.00  0.00     0.029 A 
ATOM     57  C   UNL A   1      39.367  28.860  30.022  1.00  0.00     0.049 A 
ATOM     58  H   UNL A   1      41.406  29.298  30.240  1.00  0.00     0.167 HD
ATOM     59  C   UNL A   1      45.544  30.555  29.279  1.00  0.00     0.031 A 
ATOM     60  C   UNL A   1      38.745  30.006  30.394  1.00  0.00     0.031 A 
ATOM     61  C   UNL A   1      45.545  30.382  30.709  1.00  0.00     0.049 A 
ATOM     62  C   UNL A   1      39.757  30.827  31.103  1.00  0.00     0.074 A 
ATOM     63  C   UNL A   1      46.072  29.454  31.583  1.00  0.00     0.029 A 
ATOM     64  N   UNL A   1      44.568  31.055  31.409  1.00  0.00    -0.354 N 
ATOM     65  N   UNL A   1      40.319  30.466  32.224  1.00  0.00    -0.248 NA
ATOM     66  C   UNL A   1      40.477  31.839  30.347  1.00  0.00     0.031 C 
ATOM     67  C   UNL A   1      45.081  29.300  32.598  1.00  0.00     0.029 A 
ATOM     68  C   UNL A   1      44.035  30.187  32.326  1.00  0.00     0.049 A 
ATOM     69  H   UNL A   1      44.301  31.993  31.275  1.00  0.00     0.167 HD
ATOM     70  C   UNL A   1      41.642  30.868  32.108  1.00  0.00     0.074 A 
ATOM     71  C   UNL A   1      41.649  31.811  30.990  1.00  0.00     0.031 C 
ATOM     72  C   UNL A   1      42.644  30.187  32.738  1.00  0.00     0.031 A 
BRANCH  59  73
ATOM     73  C   UNL A   1      45.720  31.922  28.650  1.00  0.00    -0.014 A 
ATOM     74  C   UNL A   1      46.979  32.555  28.739  1.00  0.00     0.010 A 
ATOM     75  C   UNL A   1      44.640  32.723  28.225  1.00  0.00     0.010 A 
ATOM     76  C   UNL A   1      47.125  33.928  28.495  1.00  0.00     0.020 A 
ATOM     77  C   UNL A   1      44.783  34.080  27.934  1.00  0.00     0.020 A 
ATOM     78  C   UNL A   1      46.019  34.684  28.110  1.00  0.00     0.054 A 
BRANCH  78  79
ATOM     79  S   UNL A   1      46.183  36.475  27.917  1.00  0.00     0.124 S 
ATOM     80  O   UNL A   1      47.313  36.767  28.792  1.00  0.00    -0.237 OA
ATOM     81  O   UNL A   1      46.435  36.611  26.485  1.00  0.00    -0.237 OA
ATOM     82  O   UNL A   1      44.891  36.987  28.368  1.00  0.00    -0.744 OA
ENDBRANCH  78  79
ENDBRANCH  59  73
BRANCH  60  83
ATOM     83  C   UNL A   1      37.445  30.543  29.921  1.00  0.00    -0.014 A 
ATOM     84  C   UNL A   1      36.571  31.205  30.803  1.00  0.00     0.010 A 
ATOM     85  C   UNL A   1      37.181  30.647  28.539  1.00  0.00     0.010 A 
ATOM     86  C   UNL A   1      35.513  31.994  30.317  1.00  0.00     0.020 A 
ATOM     87  C   UNL A   1      36.125  31.426  28.047  1.00  0.00     0.020 A 
ATOM     88  C   UNL A   1      35.310  32.118  28.940  1.00  0.00     0.054 A 
BRANCH  88  89
ATOM     89  S   UNL A   1      34.062  33.288  28.321  1.00  0.00     0.124 S 
ATOM     90  O   UNL A   1      33.567  33.896  29.552  1.00  0.00    -0.237 OA
ATOM     91  O   UNL A   1      34.849  34.164  27.456  1.00  0.00    -0.237 OA
ATOM     92  O   UNL A   1      33.103  32.434  27.622  1.00  0.00    -0.744 OA
ENDBRANCH  88  89
ENDBRANCH  60  83
BRANCH  72  93
ATOM     93  C   UNL A   1      42.267  29.161  33.784  1.00  0.00    -0.014 A 
ATOM     94  C   UNL A   1      41.915  27.830  33.478  1.00  0.00     0.010 A 
ATOM     95  C   UNL A   1      42.453  29.509  35.133  1.00  0.00     0.010 A 
ATOM     96  C   UNL A   1      41.751  26.877  34.496  1.00  0.00     0.020 A 
ATOM     97  C   UNL A   1      42.306  28.561  36.150  1.00  0.00     0.020 A 
ATOM     98  C   UNL A   1      41.954  27.250  35.829  1.00  0.00     0.054 A 
BRANCH  98  99
ATOM     99  S   UNL A   1      41.823  25.998  37.137  1.00  0.00     0.124 S 
ATOM    100  O   UNL A   1      42.858  26.412  38.080  1.00  0.00    -0.237 OA
ATOM    101  O   UNL A   1      40.447  26.155  37.604  1.00  0.00    -0.237 OA
ATOM    102  O   UNL A   1      42.089  24.738  36.441  1.00  0.00    -0.744 OA
ENDBRANCH  98  99
ENDBRANCH  72  93
ENDBRANCH  46  47
ENDBRANCH  38  41
ENDBRANCH  36  37
ENDBRANCH  35  36
ENDBRANCH  34  35
ENDBRANCH   1  34
TORSDOF 20
ENDMDL
MODEL 2
REMARK VINA RESULT:     -12.5      2.946      8.012
REMARK SMILES Cc1nn([C@H]2CCS(=O)(=O)C2)c(C)c1/C=C(\CC(=O)NCCCCCCNC(=O)c1ccc(-c2c3nc(c(-c4ccc(S(=O)(=O)[O-])cc4)c4ccc([nH]4)c(-c4ccc(S(=O)(=O)[O-])cc4)c4nc(c(-c5ccc(S(=O)(=O)[O-])cc5)c5ccc2[nH]5)C=C4)C=C3)cc1)c1nc2ccccc2s1
REMARK SMILES IDX 23 1 22 2 21 3 20 4 18 5 19 6 17 8 16 9 15 10 14 11 1 12
REMARK SMILES IDX 2 13 3 14 4 15 12 16 13 17 5 18 6 19 11 20 7 21 8 22 9 23
REMARK SMILES IDX 10 24 90 25 91 26 98 27 92 28 97 29 93 30 96 31 94 32 95 33
REMARK SMILES IDX 24 34 25 35 26 36 27 37 28 38 29 40 30 41 31 42 89 43 32 44
REMARK SMILES IDX 88 45 33 46 34 47 35 48 82 49 36 50 87 51 81 52 83 53 37 54
REMARK SMILES IDX 86 55 80 56 79 57 38 59 68 60 49 61 67 62 50 63 53 64 66 65
REMARK SMILES IDX 84 66 51 67 52 68 65 70 85 71 54 72 39 73 40 74 48 75 41 76
REMARK SMILES IDX 47 77 42 78 43 79 44 80 45 81 46 82 69 83 70 84 78 85 71 86
REMARK SMILES IDX 77 87 72 88 73 89 74 90 75 91 76 92 55 93 56 94 64 95 57 96
REMARK SMILES IDX 63 97 58 98 59 99 60 100 61 101 62 102
REMARK H PARENT 20 7 27 39 83 58 53 69
REMARK Flexibility Score: inf
ROOT
ATOM      1  C   UNL A   1      33.995  30.466  27.484  1.00  0.00     0.002 C 
ENDROOT
BRANCH   1   2
ATOM      2  C   UNL A   1      34.604  29.130  27.047  1.00  0.00     0.021 C 
BRANCH   2   3
ATOM      3  C   UNL A   1      33.757  28.403  26.009  1.00  0.00     0.116 C 
BRANCH   3   4
ATOM      4  N   UNL A   1      32.698  27.658  26.657  1.00  0.00    -0.356 N 
ATOM      5  C   UNL A   1      31.741  26.874  26.081  1.00  0.00     0.224 C 
ATOM      6  O   UNL A   1      30.787  26.506  26.768  1.00  0.00    -0.275 OA
ATOM      7  H   UNL A   1      32.664  27.725  27.639  1.00  0.00     0.163 HD
BRANCH   5   8
ATOM      8  C   UNL A   1      32.003  26.289  24.701  1.00  0.00     0.138 C 
BRANCH   8   9
ATOM      9  C   UNL A   1      30.853  25.727  23.901  1.00  0.00    -0.002 C 
ATOM     10  C   UNL A   1      30.583  24.407  23.734  1.00  0.00     0.019 C 
BRANCH  10  11
ATOM     11  C   UNL A   1      31.330  23.223  24.092  1.00  0.00     0.019 A 
ATOM     12  C   UNL A   1      30.414  22.969  26.560  1.00  0.00     0.069 C 
ATOM     13  C   UNL A   1      31.201  22.581  25.361  1.00  0.00     0.067 A 
ATOM     14  N   UNL A   1      31.888  21.444  25.405  1.00  0.00    -0.177 NA
ATOM     15  N   UNL A   1      32.407  21.306  24.176  1.00  0.00    -0.265 N 
ATOM     16  C   UNL A   1      32.284  22.451  23.420  1.00  0.00     0.043 A 
ATOM     17  C   UNL A   1      33.093  22.675  22.192  1.00  0.00     0.067 C 
BRANCH  15  18
ATOM     18  C   UNL A   1      32.963  19.991  23.926  1.00  0.00     0.123 C 
ATOM     19  C   UNL A   1      34.077  19.659  24.947  1.00  0.00     0.044 C 
ATOM     20  C   UNL A   1      32.095  18.739  23.927  1.00  0.00     0.164 C 
ATOM     21  C   UNL A   1      34.691  18.357  24.461  1.00  0.00     0.139 C 
ATOM     22  S   UNL A   1      33.312  17.428  23.807  1.00  0.00     0.152 S 
ATOM     23  O   UNL A   1      33.557  17.156  22.412  1.00  0.00    -0.229 OA
ATOM     24  O   UNL A   1      32.963  16.378  24.750  1.00  0.00    -0.229 OA
ENDBRANCH  15  18
ENDBRANCH  10  11
BRANCH   9  25
ATOM     25  C   UNL A   1      29.998  26.679  23.241  1.00  0.00     0.121 A 
ATOM     26  N   UNL A   1      30.447  27.593  22.404  1.00  0.00    -0.236 NA
ATOM     27  S   UNL A   1      28.354  26.898  23.719  1.00  0.00    -0.114 S 
ATOM     28  C   UNL A   1      29.599  28.685  22.407  1.00  0.00     0.082 A 
ATOM     29  C   UNL A   1      28.409  28.510  23.113  1.00  0.00     0.055 A 
ATOM     30  C   UNL A   1      29.881  29.944  21.841  1.00  0.00     0.030 A 
ATOM     31  C   UNL A   1      27.492  29.558  23.287  1.00  0.00     0.021 A 
ATOM     32  C   UNL A   1      29.012  31.014  22.076  1.00  0.00     0.002 A 
ATOM     33  C   UNL A   1      27.836  30.822  22.795  1.00  0.00     0.002 A 
ENDBRANCH   9  25
ENDBRANCH   8   9
ENDBRANCH   5   8
ENDBRANCH   3   4
ENDBRANCH   2   3
ENDBRANCH   1   2
BRANCH   1  34
ATOM     34  C   UNL A   1      32.482  30.595  27.253  1.00  0.00     0.002 C 
BRANCH  34  35
ATOM     35  C   UNL A   1      31.968  32.018  26.988  1.00  0.00     0.021 C 
BRANCH  35  36
ATOM     36  C   UNL A   1      33.058  33.076  27.054  1.00  0.00     0.116 C 
BRANCH  36  37
ATOM     37  N   UNL A   1      32.681  34.188  27.929  1.00  0.00    -0.352 N 
ATOM     38  C   UNL A   1      33.194  34.536  29.162  1.00  0.00     0.251 C 
ATOM     39  H   UNL A   1      31.961  34.769  27.591  1.00  0.00     0.163 HD
ATOM     40  O   UNL A   1      32.559  35.255  29.923  1.00  0.00    -0.269 OA
BRANCH  38  41
ATOM     41  C   UNL A   1      34.525  34.034  29.539  1.00  0.00     0.039 A 
ATOM     42  C   UNL A   1      34.771  33.475  30.798  1.00  0.00     0.014 A 
ATOM     43  C   UNL A   1      35.533  34.118  28.585  1.00  0.00     0.014 A 
ATOM     44  C   UNL A   1      36.028  32.931  31.059  1.00  0.00     0.010 A 
ATOM     45  C   UNL A   1      36.703  33.440  28.780  1.00  0.00     0.010 A 
ATOM     46  C   UNL A   1      36.984  32.910  30.036  1.00  0.00    -0.014 A 
BRANCH  46  47
ATOM     47  C   UNL A   1      38.285  32.275  30.203  1.00  0.00     0.031 A 
ATOM     48  C   UNL A   1      38.335  30.831  29.843  1.00  0.00     0.074 A 
ATOM     49  C   UNL A   1      39.402  33.022  30.332  1.00  0.00     0.049 A 
ATOM     50  N   UNL A   1      38.596  29.821  30.605  1.00  0.00    -0.248 NA
ATOM     51  C   UNL A   1      37.924  30.454  28.479  1.00  0.00     0.031 C 
ATOM     52  C   UNL A   1      39.505  34.491  30.322  1.00  0.00     0.029 A 
ATOM     53  N   UNL A   1      40.703  32.635  30.326  1.00  0.00    -0.354 N 
ATOM     54  C   UNL A   1      38.603  28.706  29.769  1.00  0.00     0.074 A 
ATOM     55  C   UNL A   1      37.974  29.123  28.542  1.00  0.00     0.031 C 
ATOM     56  C   UNL A   1      40.777  34.851  30.046  1.00  0.00     0.029 A 
ATOM     57  C   UNL A   1      41.602  33.659  30.046  1.00  0.00     0.049 A 
ATOM     58  H   UNL A   1      40.986  31.708  30.503  1.00  0.00     0.167 HD
ATOM     59  C   UNL A   1      39.370  27.610  30.034  1.00  0.00     0.031 A 
ATOM     60  C   UNL A   1      42.926  33.530  29.785  1.00  0.00     0.031 A 
ATOM     61  C   UNL A   1      39.890  27.639  31.378  1.00  0.00     0.049 A 
ATOM     62  C   UNL A   1      43.335  32.203  30.306  1.00  0.00     0.074 A 
ATOM     63  C   UNL A   1      39.337  27.670  32.641  1.00  0.00     0.029 A 
ATOM     64  N   UNL A   1      41.195  28.051  31.522  1.00  0.00    -0.354 N 
ATOM     65  N   UNL A   1      43.292  31.881  31.569  1.00  0.00    -0.248 NA
ATOM     66  C   UNL A   1      43.369  31.080  29.382  1.00  0.00     0.031 C 
ATOM     67  C   UNL A   1      40.185  28.534  33.394  1.00  0.00     0.029 A 
ATOM     68  C   UNL A   1      41.245  28.931  32.572  1.00  0.00     0.049 A 
ATOM     69  H   UNL A   1      41.958  27.764  30.970  1.00  0.00     0.167 HD
ATOM     70  C   UNL A   1      42.861  30.563  31.590  1.00  0.00     0.074 A 
ATOM     71  C   UNL A   1      43.044  30.089  30.218  1.00  0.00     0.031 C 
ATOM     72  C   UNL A   1      42.137  30.072  32.639  1.00  0.00     0.031 A 
BRANCH  59  73
ATOM     73  C   UNL A   1      39.999  26.739  28.965  1.00  0.00    -0.014 A 
ATOM     74  C   UNL A   1      39.233  25.698  28.397  1.00  0.00     0.010 A 
ATOM     75  C   UNL A   1      41.383  26.722  28.698  1.00  0.00     0.010 A 
ATOM     76  C   UNL A   1      39.835  24.658  27.675  1.00  0.00     0.020 A 
ATOM     77  C   UNL A   1      41.987  25.718  27.939  1.00  0.00     0.020 A 
ATOM     78  C   UNL A   1      41.214  24.669  27.465  1.00  0.00     0.054 A 
BRANCH  78  79
ATOM     79  S   UNL A   1      42.004  23.266  26.641  1.00  0.00     0.124 S 
ATOM     80  O   UNL A   1      40.895  22.324  26.527  1.00  0.00    -0.237 OA
ATOM     81  O   UNL A   1      42.465  23.861  25.390  1.00  0.00    -0.237 OA
ATOM     82  O   UNL A   1      43.064  22.878  27.569  1.00  0.00    -0.744 OA
ENDBRANCH  78  79
ENDBRANCH  59  73
BRANCH  60  83
ATOM     83  C   UNL A   1      43.768  34.341  28.869  1.00  0.00    -0.014 A 
ATOM     84  C   UNL A   1      44.796  35.162  29.365  1.00  0.00     0.010 A 
ATOM     85  C   UNL A   1      43.739  34.098  27.479  1.00  0.00     0.010 A 
ATOM     86  C   UNL A   1      45.795  35.667  28.514  1.00  0.00     0.020 A 
ATOM     87  C   UNL A   1      44.727  34.603  26.622  1.00  0.00     0.020 A 
ATOM     88  C   UNL A   1      45.767  35.365  27.149  1.00  0.00     0.054 A 
BRANCH  88  89
ATOM     89  S   UNL A   1      47.162  35.862  26.093  1.00  0.00     0.124 S 
ATOM     90  O   UNL A   1      46.748  37.185  25.634  1.00  0.00    -0.237 OA
ATOM     91  O   UNL A   1      48.288  35.840  27.023  1.00  0.00    -0.237 OA
ATOM     92  O   UNL A   1      47.198  34.831  25.058  1.00  0.00    -0.744 OA
ENDBRANCH  88  89
ENDBRANCH  60  83
BRANCH  72  93
ATOM     93  C   UNL A   1      42.050  30.904  33.901  1.00  0.00    -0.014 A 
ATOM     94  C   UNL A   1      41.072  31.898  34.112  1.00  0.00     0.010 A 
ATOM     95  C   UNL A   1      42.873  30.538  34.979  1.00  0.00     0.010 A 
ATOM     96  C   UNL A   1      40.927  32.509  35.367  1.00  0.00     0.020 A 
ATOM     97  C   UNL A   1      42.724  31.132  36.236  1.00  0.00     0.020 A 
ATOM     98  C   UNL A   1      41.753  32.116  36.425  1.00  0.00     0.054 A 
BRANCH  98  99
ATOM     99  S   UNL A   1      41.510  32.847  38.069  1.00  0.00     0.124 S 
ATOM    100  O   UNL A   1      41.939  31.775  38.962  1.00  0.00    -0.237 OA
ATOM    101  O   UNL A   1      42.378  34.023  38.035  1.00  0.00    -0.237 OA
ATOM    102  O   UNL A   1      40.079  33.149  38.107  1.00  0.00    -0.744 OA
ENDBRANCH  98  99
ENDBRANCH  72  93
ENDBRANCH  46  47
ENDBRANCH  38  41
ENDBRANCH  36  37
ENDBRANCH  35  36
ENDBRANCH  34  35
ENDBRANCH   1  34
TORSDOF 20
ENDMDL
MODEL 3
REMARK VINA RESULT:     -12.3      2.591      8.426
REMARK SMILES Cc1nn([C@H]2CCS(=O)(=O)C2)c(C)c1/C=C(\CC(=O)NCCCCCCNC(=O)c1ccc(-c2c3nc(c(-c4ccc(S(=O)(=O)[O-])cc4)c4ccc([nH]4)c(-c4ccc(S(=O)(=O)[O-])cc4)c4nc(c(-c5ccc(S(=O)(=O)[O-])cc5)c5ccc2[nH]5)C=C4)C=C3)cc1)c1nc2ccccc2s1
REMARK SMILES IDX 23 1 22 2 21 3 20 4 18 5 19 6 17 8 16 9 15 10 14 11 1 12
REMARK SMILES IDX 2 13 3 14 4 15 12 16 13 17 5 18 6 19 11 20 7 21 8 22 9 23
REMARK SMILES IDX 10 24 90 25 91 26 98 27 92 28 97 29 93 30 96 31 94 32 95 33
REMARK SMILES IDX 24 34 25 35 26 36 27 37 28 38 29 40 30 41 31 42 89 43 32 44
REMARK SMILES IDX 88 45 33 46 34 47 35 48 82 49 36 50 87 51 81 52 83 53 37 54
REMARK SMILES IDX 86 55 80 56 79 57 38 59 68 60 49 61 67 62 50 63 53 64 66 65
REMARK SMILES IDX 84 66 51 67 52 68 65 70 85 71 54 72 39 73 40 74 48 75 41 76
REMARK SMILES IDX 47 77 42 78 43 79 44 80 45 81 46 82 69 83 70 84 78 85 71 86
REMARK SMILES IDX 77 87 72 88 73 89 74 90 75 91 76 92 55 93 56 94 64 95 57 96
REMARK SMILES IDX 63 97 58 98 59 99 60 100 61 101 62 102
REMARK H PARENT 20 7 27 39 83 58 53 69
REMARK Flexibility Score: inf
ROOT
ATOM      1  C   UNL A   1      34.760  30.581  27.277  1.00  0.00     0.002 C 
ENDROOT
BRANCH   1   2
ATOM      2  C   UNL A   1      34.732  29.050  27.225  1.00  0.00     0.021 C 
BRANCH   2   3
ATOM      3  C   UNL A   1      33.792  28.511  26.152  1.00  0.00     0.116 C 
BRANCH   3   4
ATOM      4  N   UNL A   1      32.711  27.763  26.758  1.00  0.00    -0.356 N 
ATOM      5  C   UNL A   1      31.734  27.038  26.140  1.00  0.00     0.224 C 
ATOM      6  O   UNL A   1      30.767  26.663  26.806  1.00  0.00    -0.275 OA
ATOM      7  H   UNL A   1      32.676  27.781  27.742  1.00  0.00     0.163 HD
BRANCH   5   8
ATOM      8  C   UNL A   1      31.983  26.518  24.733  1.00  0.00     0.138 C 
BRANCH   8   9
ATOM      9  C   UNL A   1      30.837  25.935  23.942  1.00  0.00    -0.002 C 
ATOM     10  C   UNL A   1      30.568  24.612  23.808  1.00  0.00     0.019 C 
BRANCH  10  11
ATOM     11  C   UNL A   1      31.312  23.437  24.202  1.00  0.00     0.019 A 
ATOM     12  C   UNL A   1      30.372  23.243  26.667  1.00  0.00     0.069 C 
ATOM     13  C   UNL A   1      31.171  22.826  25.486  1.00  0.00     0.067 A 
ATOM     14  N   UNL A   1      31.858  21.691  25.564  1.00  0.00    -0.177 NA
ATOM     15  N   UNL A   1      32.389  21.523  24.344  1.00  0.00    -0.265 N 
ATOM     16  C   UNL A   1      32.273  22.649  23.559  1.00  0.00     0.043 A 
ATOM     17  C   UNL A   1      33.093  22.844  22.334  1.00  0.00     0.067 C 
BRANCH  15  18
ATOM     18  C   UNL A   1      32.947  20.203  24.131  1.00  0.00     0.123 C 
ATOM     19  C   UNL A   1      34.289  20.042  24.886  1.00  0.00     0.044 C 
ATOM     20  C   UNL A   1      32.181  18.939  24.497  1.00  0.00     0.164 C 
ATOM     21  C   UNL A   1      34.848  18.705  24.430  1.00  0.00     0.139 C 
ATOM     22  S   UNL A   1      33.411  17.658  24.248  1.00  0.00     0.152 S 
ATOM     23  O   UNL A   1      33.336  17.208  22.881  1.00  0.00    -0.229 OA
ATOM     24  O   UNL A   1      33.358  16.735  25.370  1.00  0.00    -0.229 OA
ENDBRANCH  15  18
ENDBRANCH  10  11
BRANCH   9  25
ATOM     25  C   UNL A   1      29.988  26.870  23.251  1.00  0.00     0.121 A 
ATOM     26  N   UNL A   1      30.445  27.777  22.412  1.00  0.00    -0.236 NA
ATOM     27  S   UNL A   1      28.332  27.079  23.692  1.00  0.00    -0.114 S 
ATOM     28  C   UNL A   1      29.586  28.860  22.382  1.00  0.00     0.082 A 
ATOM     29  C   UNL A   1      28.384  28.683  23.066  1.00  0.00     0.055 A 
ATOM     30  C   UNL A   1      29.868  30.115  21.805  1.00  0.00     0.030 A 
ATOM     31  C   UNL A   1      27.453  29.724  23.206  1.00  0.00     0.021 A 
ATOM     32  C   UNL A   1      28.984  31.179  22.008  1.00  0.00     0.002 A 
ATOM     33  C   UNL A   1      27.795  30.984  22.705  1.00  0.00     0.002 A 
ENDBRANCH   9  25
ENDBRANCH   8   9
ENDBRANCH   5   8
ENDBRANCH   3   4
ENDBRANCH   2   3
ENDBRANCH   1   2
BRANCH   1  34
ATOM     34  C   UNL A   1      33.510  31.232  27.885  1.00  0.00     0.002 C 
BRANCH  34  35
ATOM     35  C   UNL A   1      33.441  32.763  27.784  1.00  0.00     0.021 C 
BRANCH  35  36
ATOM     36  C   UNL A   1      34.464  33.473  28.658  1.00  0.00     0.116 C 
BRANCH  36  37
ATOM     37  N   UNL A   1      34.091  33.429  30.073  1.00  0.00    -0.352 N 
ATOM     38  C   UNL A   1      34.668  32.714  31.102  1.00  0.00     0.251 C 
ATOM     39  H   UNL A   1      33.321  33.988  30.326  1.00  0.00     0.163 HD
ATOM     40  O   UNL A   1      34.050  32.499  32.137  1.00  0.00    -0.269 OA
BRANCH  38  41
ATOM     41  C   UNL A   1      36.046  32.225  30.936  1.00  0.00     0.039 A 
ATOM     42  C   UNL A   1      37.143  33.094  30.948  1.00  0.00     0.014 A 
ATOM     43  C   UNL A   1      36.222  30.854  30.785  1.00  0.00     0.014 A 
ATOM     44  C   UNL A   1      38.427  32.557  30.881  1.00  0.00     0.010 A 
ATOM     45  C   UNL A   1      37.476  30.320  30.888  1.00  0.00     0.010 A 
ATOM     46  C   UNL A   1      38.582  31.166  30.862  1.00  0.00    -0.014 A 
BRANCH  46  47
ATOM     47  C   UNL A   1      39.893  30.530  30.889  1.00  0.00     0.031 A 
ATOM     48  C   UNL A   1      40.449  30.282  32.248  1.00  0.00     0.074 A 
ATOM     49  C   UNL A   1      40.380  29.914  29.791  1.00  0.00     0.049 A 
ATOM     50  N   UNL A   1      41.520  30.770  32.780  1.00  0.00    -0.248 NA
ATOM     51  C   UNL A   1      39.640  29.474  33.178  1.00  0.00     0.031 C 
ATOM     52  C   UNL A   1      39.728  29.775  28.478  1.00  0.00     0.029 A 
ATOM     53  N   UNL A   1      41.480  29.131  29.659  1.00  0.00    -0.354 N 
ATOM     54  C   UNL A   1      41.638  30.157  34.027  1.00  0.00     0.074 A 
ATOM     55  C   UNL A   1      40.359  29.555  34.298  1.00  0.00     0.031 C 
ATOM     56  C   UNL A   1      40.303  28.762  27.794  1.00  0.00     0.029 A 
ATOM     57  C   UNL A   1      41.466  28.312  28.534  1.00  0.00     0.049 A 
ATOM     58  H   UNL A   1      42.224  29.140  30.305  1.00  0.00     0.167 HD
ATOM     59  C   UNL A   1      42.851  29.947  34.615  1.00  0.00     0.031 A 
ATOM     60  C   UNL A   1      42.325  27.301  28.253  1.00  0.00     0.031 A 
ATOM     61  C   UNL A   1      43.895  30.688  33.956  1.00  0.00     0.049 A 
ATOM     62  C   UNL A   1      43.530  27.523  29.088  1.00  0.00     0.074 A 
ATOM     63  C   UNL A   1      44.144  32.023  33.710  1.00  0.00     0.029 A 
ATOM     64  N   UNL A   1      44.686  29.984  33.076  1.00  0.00    -0.354 N 
ATOM     65  N   UNL A   1      44.310  28.562  28.964  1.00  0.00    -0.248 NA
ATOM     66  C   UNL A   1      43.626  26.825  30.360  1.00  0.00     0.031 C 
ATOM     67  C   UNL A   1      44.706  32.058  32.400  1.00  0.00     0.029 A 
ATOM     68  C   UNL A   1      44.832  30.742  31.943  1.00  0.00     0.049 A 
ATOM     69  H   UNL A   1      45.077  29.094  33.233  1.00  0.00     0.167 HD
ATOM     70  C   UNL A   1      44.663  28.902  30.262  1.00  0.00     0.074 A 
ATOM     71  C   UNL A   1      44.314  27.730  31.064  1.00  0.00     0.031 C 
ATOM     72  C   UNL A   1      44.936  30.196  30.604  1.00  0.00     0.031 A 
BRANCH  59  73
ATOM     73  C   UNL A   1      43.166  28.758  35.500  1.00  0.00    -0.014 A 
ATOM     74  C   UNL A   1      43.907  28.968  36.684  1.00  0.00     0.010 A 
ATOM     75  C   UNL A   1      43.008  27.421  35.083  1.00  0.00     0.010 A 
ATOM     76  C   UNL A   1      44.522  27.904  37.359  1.00  0.00     0.020 A 
ATOM     77  C   UNL A   1      43.575  26.349  35.773  1.00  0.00     0.020 A 
ATOM     78  C   UNL A   1      44.363  26.601  36.887  1.00  0.00     0.054 A 
BRANCH  78  79
ATOM     79  S   UNL A   1      45.257  25.246  37.685  1.00  0.00     0.124 S 
ATOM     80  O   UNL A   1      44.787  25.349  39.063  1.00  0.00    -0.237 OA
ATOM     81  O   UNL A   1      44.788  24.083  36.938  1.00  0.00    -0.237 OA
ATOM     82  O   UNL A   1      46.661  25.592  37.473  1.00  0.00    -0.744 OA
ENDBRANCH  78  79
ENDBRANCH  59  73
BRANCH  60  83
ATOM     83  C   UNL A   1      42.047  26.026  27.546  1.00  0.00    -0.014 A 
ATOM     84  C   UNL A   1      43.094  25.223  27.059  1.00  0.00     0.010 A 
ATOM     85  C   UNL A   1      40.755  25.459  27.589  1.00  0.00     0.010 A 
ATOM     86  C   UNL A   1      42.871  23.884  26.692  1.00  0.00     0.020 A 
ATOM     87  C   UNL A   1      40.522  24.127  27.218  1.00  0.00     0.020 A 
ATOM     88  C   UNL A   1      41.588  23.337  26.795  1.00  0.00     0.054 A 
BRANCH  88  89
ATOM     89  S   UNL A   1      41.348  21.559  26.499  1.00  0.00     0.124 S 
ATOM     90  O   UNL A   1      41.755  20.974  27.773  1.00  0.00    -0.237 OA
ATOM     91  O   UNL A   1      39.923  21.477  26.194  1.00  0.00    -0.237 OA
ATOM     92  O   UNL A   1      42.236  21.271  25.374  1.00  0.00    -0.744 OA
ENDBRANCH  88  89
ENDBRANCH  60  83
BRANCH  72  93
ATOM     93  C   UNL A   1      45.120  31.207  29.492  1.00  0.00    -0.014 A 
ATOM     94  C   UNL A   1      46.311  31.340  28.750  1.00  0.00     0.010 A 
ATOM     95  C   UNL A   1      43.985  31.919  29.067  1.00  0.00     0.010 A 
ATOM     96  C   UNL A   1      46.363  32.166  27.616  1.00  0.00     0.020 A 
ATOM     97  C   UNL A   1      44.026  32.731  27.930  1.00  0.00     0.020 A 
ATOM     98  C   UNL A   1      45.215  32.853  27.210  1.00  0.00     0.054 A 
BRANCH  98  99
ATOM     99  S   UNL A   1      45.261  33.855  25.696  1.00  0.00     0.124 S 
ATOM    100  O   UNL A   1      44.671  32.962  24.704  1.00  0.00    -0.237 OA
ATOM    101  O   UNL A   1      44.455  35.021  26.052  1.00  0.00    -0.237 OA
ATOM    102  O   UNL A   1      46.685  34.135  25.507  1.00  0.00    -0.744 OA
ENDBRANCH  98  99
ENDBRANCH  72  93
ENDBRANCH  46  47
ENDBRANCH  38  41
ENDBRANCH  36  37
ENDBRANCH  35  36
ENDBRANCH  34  35
ENDBRANCH   1  34
TORSDOF 20
ENDMDL
