MODEL 1
REMARK VINA RESULT:     -11.0      0.000      0.000
REMARK SMILES CN(C)C(=O)[C@@H]1CC=CC[C@H]1C(=O)N(c1ccccc1)c1ccccc1C(=O)NCCCCCCNC(=O)c1ccc(-c2c3nc(c(-c4ccc(S(=O)(=O)[O-])cc4)c4ccc([nH]4)c(-c4ccc(S(=O)(=O)[O-])cc4)c4nc(c(-c5ccc(S(=O)(=O)[O-])cc5)c5ccc2[nH]5)C=C4)C=C3)cc1
REMARK SMILES IDX 32 1 31 2 30 3 29 4 27 5 28 6 26 8 21 9 22 10 23 11 25 12
REMARK SMILES IDX 24 13 14 14 12 15 13 16 11 17 6 18 7 19 8 20 10 21 9 22 4 23
REMARK SMILES IDX 1 24 2 25 3 26 5 27 15 28 16 29 20 30 17 31 19 32 18 33
REMARK SMILES IDX 33 34 34 35 35 36 36 37 37 38 38 40 39 41 40 42 98 43 41 44
REMARK SMILES IDX 97 45 42 46 43 47 44 48 91 49 45 50 96 51 90 52 92 53 46 54
REMARK SMILES IDX 95 55 89 56 88 57 47 59 77 60 58 61 76 62 59 63 62 64 75 65
REMARK SMILES IDX 93 66 60 67 61 68 74 70 94 71 63 72 48 73 49 74 57 75 50 76
REMARK SMILES IDX 56 77 51 78 52 79 53 80 54 81 55 82 78 83 79 84 87 85 80 86
REMARK SMILES IDX 86 87 81 88 82 89 83 90 84 91 85 92 64 93 65 94 73 95 66 96
REMARK SMILES IDX 72 97 67 98 68 99 69 100 70 101 71 102
REMARK H PARENT 29 7 36 39 92 58 62 69
REMARK Flexibility Score: inf
ROOT
ATOM      1  C   UNL A   1      35.295  20.123  24.641  1.00  0.00     0.002 C 
ENDROOT
BRANCH   1   2
ATOM      2  C   UNL A   1      33.887  19.515  24.848  1.00  0.00     0.021 C 
BRANCH   2   3
ATOM      3  C   UNL A   1      32.692  20.380  25.247  1.00  0.00     0.116 C 
BRANCH   3   4
ATOM      4  N   UNL A   1      32.684  20.949  26.561  1.00  0.00    -0.352 N 
ATOM      5  C   UNL A   1      33.055  22.200  27.008  1.00  0.00     0.253 C 
ATOM      6  O   UNL A   1      32.611  22.481  28.132  1.00  0.00    -0.269 OA
ATOM      7  H   UNL A   1      32.357  20.345  27.266  1.00  0.00     0.163 HD
BRANCH   5   8
ATOM      8  C   UNL A   1      34.050  23.167  26.395  1.00  0.00     0.063 A 
ATOM      9  C   UNL A   1      33.938  24.433  25.764  1.00  0.00     0.062 A 
ATOM     10  C   UNL A   1      35.149  25.087  25.361  1.00  0.00     0.027 A 
ATOM     11  C   UNL A   1      36.416  24.530  25.505  1.00  0.00     0.002 A 
ATOM     12  C   UNL A   1      35.372  22.628  26.509  1.00  0.00     0.016 A 
ATOM     13  C   UNL A   1      36.528  23.283  26.072  1.00  0.00     0.001 A 
BRANCH   9  14
ATOM     14  N   UNL A   1      32.738  25.195  25.482  1.00  0.00    -0.280 N 
BRANCH  14  15
ATOM     15  C   UNL A   1      31.661  24.647  24.777  1.00  0.00     0.235 C 
ATOM     16  O   UNL A   1      30.720  24.098  25.365  1.00  0.00    -0.274 OA
BRANCH  15  17
ATOM     17  C   UNL A   1      31.675  24.570  23.206  1.00  0.00     0.096 C 
ATOM     18  C   UNL A   1      31.950  25.892  22.466  1.00  0.00     0.095 C 
ATOM     19  C   UNL A   1      32.047  25.742  20.940  1.00  0.00     0.041 C 
ATOM     20  C   UNL A   1      33.001  24.654  20.555  1.00  0.00    -0.030 C 
ATOM     21  C   UNL A   1      32.407  23.348  22.582  1.00  0.00     0.041 C 
ATOM     22  C   UNL A   1      33.168  23.569  21.316  1.00  0.00    -0.030 C 
BRANCH  18  23
ATOM     23  C   UNL A   1      31.084  27.066  22.926  1.00  0.00     0.226 C 
ATOM     24  C   UNL A   1      30.754  29.301  23.814  1.00  0.00     0.146 C 
ATOM     25  N   UNL A   1      31.613  28.322  23.163  1.00  0.00    -0.349 N 
ATOM     26  C   UNL A   1      32.932  28.811  22.800  1.00  0.00     0.146 C 
ATOM     27  O   UNL A   1      29.880  26.837  23.098  1.00  0.00    -0.275 OA
ENDBRANCH  18  23
ENDBRANCH  15  17
ENDBRANCH  14  15
BRANCH  14  28
ATOM     28  C   UNL A   1      32.715  26.504  26.074  1.00  0.00     0.049 A 
ATOM     29  C   UNL A   1      31.563  26.942  26.755  1.00  0.00     0.027 A 
ATOM     30  C   UNL A   1      33.841  27.328  26.059  1.00  0.00     0.027 A 
ATOM     31  C   UNL A   1      31.597  28.110  27.520  1.00  0.00     0.002 A 
ATOM     32  C   UNL A   1      33.879  28.489  26.832  1.00  0.00     0.002 A 
ATOM     33  C   UNL A   1      32.766  28.865  27.582  1.00  0.00     0.000 A 
ENDBRANCH  14  28
ENDBRANCH   9  14
ENDBRANCH   5   8
ENDBRANCH   3   4
ENDBRANCH   2   3
ENDBRANCH   1   2
BRANCH   1  34
ATOM     34  C   UNL A   1      36.611  19.409  24.999  1.00  0.00     0.002 C 
BRANCH  34  35
ATOM     35  C   UNL A   1      37.999  19.972  24.642  1.00  0.00     0.021 C 
BRANCH  35  36
ATOM     36  C   UNL A   1      38.969  20.433  25.737  1.00  0.00     0.116 C 
BRANCH  36  37
ATOM     37  N   UNL A   1      40.165  19.617  25.809  1.00  0.00    -0.352 N 
ATOM     38  C   UNL A   1      41.477  19.935  26.081  1.00  0.00     0.251 C 
ATOM     39  H   UNL A   1      40.011  18.661  25.631  1.00  0.00     0.163 HD
ATOM     40  O   UNL A   1      42.321  19.063  25.863  1.00  0.00    -0.269 OA
BRANCH  38  41
ATOM     41  C   UNL A   1      41.940  21.255  26.618  1.00  0.00     0.039 A 
ATOM     42  C   UNL A   1      42.013  22.327  25.714  1.00  0.00     0.014 A 
ATOM     43  C   UNL A   1      42.434  21.455  27.911  1.00  0.00     0.014 A 
ATOM     44  C   UNL A   1      42.566  23.562  26.090  1.00  0.00     0.010 A 
ATOM     45  C   UNL A   1      42.948  22.713  28.302  1.00  0.00     0.010 A 
ATOM     46  C   UNL A   1      43.042  23.779  27.393  1.00  0.00    -0.014 A 
BRANCH  46  47
ATOM     47  C   UNL A   1      43.640  25.108  27.751  1.00  0.00     0.031 A 
ATOM     48  C   UNL A   1      45.092  25.428  27.470  1.00  0.00     0.074 A 
ATOM     49  C   UNL A   1      42.866  26.075  28.291  1.00  0.00     0.049 A 
ATOM     50  N   UNL A   1      45.720  26.577  27.573  1.00  0.00    -0.248 NA
ATOM     51  C   UNL A   1      45.952  24.320  27.033  1.00  0.00     0.031 C 
ATOM     52  C   UNL A   1      41.461  25.920  28.666  1.00  0.00     0.029 A 
ATOM     53  N   UNL A   1      43.147  27.389  28.596  1.00  0.00    -0.354 N 
ATOM     54  C   UNL A   1      47.041  26.332  27.212  1.00  0.00     0.074 A 
ATOM     55  C   UNL A   1      47.135  24.913  26.936  1.00  0.00     0.031 C 
ATOM     56  C   UNL A   1      40.989  27.099  29.104  1.00  0.00     0.029 A 
ATOM     57  C   UNL A   1      42.059  28.094  29.060  1.00  0.00     0.049 A 
ATOM     58  H   UNL A   1      44.042  27.786  28.492  1.00  0.00     0.167 HD
ATOM     59  C   UNL A   1      48.080  27.199  27.096  1.00  0.00     0.031 A 
ATOM     60  C   UNL A   1      41.919  29.394  29.390  1.00  0.00     0.031 A 
ATOM     61  C   UNL A   1      48.009  28.614  27.364  1.00  0.00     0.049 A 
ATOM     62  C   UNL A   1      43.076  30.343  29.235  1.00  0.00     0.074 A 
ATOM     63  C   UNL A   1      49.002  29.570  27.218  1.00  0.00     0.029 A 
ATOM     64  N   UNL A   1      46.891  29.280  27.839  1.00  0.00    -0.354 N 
ATOM     65  N   UNL A   1      44.292  30.100  28.809  1.00  0.00    -0.248 NA
ATOM     66  C   UNL A   1      42.830  31.751  29.585  1.00  0.00     0.031 C 
ATOM     67  C   UNL A   1      48.499  30.804  27.649  1.00  0.00     0.029 A 
ATOM     68  C   UNL A   1      47.175  30.627  28.011  1.00  0.00     0.049 A 
ATOM     69  H   UNL A   1      46.020  28.858  28.026  1.00  0.00     0.167 HD
ATOM     70  C   UNL A   1      44.947  31.327  28.817  1.00  0.00     0.074 A 
ATOM     71  C   UNL A   1      43.988  32.313  29.268  1.00  0.00     0.031 C 
ATOM     72  C   UNL A   1      46.230  31.609  28.478  1.00  0.00     0.031 A 
BRANCH  59  73
ATOM     73  C   UNL A   1      49.409  26.637  26.654  1.00  0.00    -0.014 A 
ATOM     74  C   UNL A   1      50.309  26.086  27.586  1.00  0.00     0.010 A 
ATOM     75  C   UNL A   1      49.741  26.607  25.287  1.00  0.00     0.010 A 
ATOM     76  C   UNL A   1      51.533  25.562  27.164  1.00  0.00     0.020 A 
ATOM     77  C   UNL A   1      50.954  26.059  24.858  1.00  0.00     0.020 A 
ATOM     78  C   UNL A   1      51.851  25.558  25.803  1.00  0.00     0.054 A 
BRANCH  78  79
ATOM     79  S   UNL A   1      53.445  24.862  25.283  1.00  0.00     0.124 S 
ATOM     80  O   UNL A   1      54.317  25.253  26.387  1.00  0.00    -0.237 OA
ATOM     81  O   UNL A   1      53.157  23.435  25.183  1.00  0.00    -0.237 OA
ATOM     82  O   UNL A   1      53.715  25.530  24.010  1.00  0.00    -0.744 OA
ENDBRANCH  78  79
ENDBRANCH  59  73
BRANCH  60  83
ATOM     83  C   UNL A   1      40.600  29.895  29.870  1.00  0.00    -0.014 A 
ATOM     84  C   UNL A   1      39.600  30.271  28.955  1.00  0.00     0.010 A 
ATOM     85  C   UNL A   1      40.340  29.997  31.249  1.00  0.00     0.010 A 
ATOM     86  C   UNL A   1      38.369  30.753  29.411  1.00  0.00     0.020 A 
ATOM     87  C   UNL A   1      39.102  30.452  31.707  1.00  0.00     0.020 A 
ATOM     88  C   UNL A   1      38.127  30.837  30.784  1.00  0.00     0.054 A 
BRANCH  88  89
ATOM     89  S   UNL A   1      36.500  31.403  31.355  1.00  0.00     0.124 S 
ATOM     90  O   UNL A   1      36.854  32.532  32.209  1.00  0.00    -0.237 OA
ATOM     91  O   UNL A   1      35.825  31.742  30.104  1.00  0.00    -0.237 OA
ATOM     92  O   UNL A   1      35.960  30.237  32.048  1.00  0.00    -0.744 OA
ENDBRANCH  88  89
ENDBRANCH  60  83
BRANCH  72  93
ATOM     93  C   UNL A   1      46.667  33.051  28.563  1.00  0.00    -0.014 A 
ATOM     94  C   UNL A   1      46.406  33.958  27.521  1.00  0.00     0.010 A 
ATOM     95  C   UNL A   1      47.351  33.505  29.706  1.00  0.00     0.010 A 
ATOM     96  C   UNL A   1      46.871  35.275  27.593  1.00  0.00     0.020 A 
ATOM     97  C   UNL A   1      47.792  34.829  29.795  1.00  0.00     0.020 A 
ATOM     98  C   UNL A   1      47.571  35.699  28.726  1.00  0.00     0.054 A 
BRANCH  98  99
ATOM     99  S   UNL A   1      48.173  37.410  28.798  1.00  0.00     0.124 S 
ATOM    100  O   UNL A   1      47.953  37.750  30.202  1.00  0.00    -0.237 OA
ATOM    101  O   UNL A   1      49.571  37.279  28.397  1.00  0.00    -0.237 OA
ATOM    102  O   UNL A   1      47.322  38.117  27.845  1.00  0.00    -0.744 OA
ENDBRANCH  98  99
ENDBRANCH  72  93
ENDBRANCH  46  47
ENDBRANCH  38  41
ENDBRANCH  36  37
ENDBRANCH  35  36
ENDBRANCH  34  35
ENDBRANCH   1  34
TORSDOF 21
ENDMDL
MODEL 2
REMARK VINA RESULT:     -10.4      0.899      2.361
REMARK SMILES CN(C)C(=O)[C@@H]1CC=CC[C@H]1C(=O)N(c1ccccc1)c1ccccc1C(=O)NCCCCCCNC(=O)c1ccc(-c2c3nc(c(-c4ccc(S(=O)(=O)[O-])cc4)c4ccc([nH]4)c(-c4ccc(S(=O)(=O)[O-])cc4)c4nc(c(-c5ccc(S(=O)(=O)[O-])cc5)c5ccc2[nH]5)C=C4)C=C3)cc1
REMARK SMILES IDX 32 1 31 2 30 3 29 4 27 5 28 6 26 8 21 9 22 10 23 11 25 12
REMARK SMILES IDX 24 13 14 14 12 15 13 16 11 17 6 18 7 19 8 20 10 21 9 22 4 23
REMARK SMILES IDX 1 24 2 25 3 26 5 27 15 28 16 29 20 30 17 31 19 32 18 33
REMARK SMILES IDX 33 34 34 35 35 36 36 37 37 38 38 40 39 41 40 42 98 43 41 44
REMARK SMILES IDX 97 45 42 46 43 47 44 48 91 49 45 50 96 51 90 52 92 53 46 54
REMARK SMILES IDX 95 55 89 56 88 57 47 59 77 60 58 61 76 62 59 63 62 64 75 65
REMARK SMILES IDX 93 66 60 67 61 68 74 70 94 71 63 72 48 73 49 74 57 75 50 76
REMARK SMILES IDX 56 77 51 78 52 79 53 80 54 81 55 82 78 83 79 84 87 85 80 86
REMARK SMILES IDX 86 87 81 88 82 89 83 90 84 91 85 92 64 93 65 94 73 95 66 96
REMARK SMILES IDX 72 97 67 98 68 99 69 100 70 101 71 102
REMARK H PARENT 29 7 36 39 92 58 62 69
REMARK Flexibility Score: inf
ROOT
ATOM      1  C   UNL A   1      35.574  20.600  24.602  1.00  0.00     0.002 C 
ENDROOT
BRANCH   1   2
ATOM      2  C   UNL A   1      34.033  20.484  24.688  1.00  0.00     0.021 C 
BRANCH   2   3
ATOM      3  C   UNL A   1      33.345  19.811  25.874  1.00  0.00     0.116 C 
BRANCH   3   4
ATOM      4  N   UNL A   1      33.232  20.551  27.095  1.00  0.00    -0.352 N 
ATOM      5  C   UNL A   1      33.423  21.890  27.362  1.00  0.00     0.253 C 
ATOM      6  O   UNL A   1      32.921  22.262  28.434  1.00  0.00    -0.269 OA
ATOM      7  H   UNL A   1      32.974  20.012  27.878  1.00  0.00     0.163 HD
BRANCH   5   8
ATOM      8  C   UNL A   1      34.293  22.889  26.622  1.00  0.00     0.063 A 
ATOM      9  C   UNL A   1      34.029  23.950  25.718  1.00  0.00     0.062 A 
ATOM     10  C   UNL A   1      35.143  24.733  25.267  1.00  0.00     0.027 A 
ATOM     11  C   UNL A   1      36.464  24.481  25.624  1.00  0.00     0.002 A 
ATOM     12  C   UNL A   1      35.668  22.657  26.948  1.00  0.00     0.016 A 
ATOM     13  C   UNL A   1      36.731  23.424  26.461  1.00  0.00     0.001 A 
BRANCH   9  14
ATOM     14  N   UNL A   1      32.753  24.384  25.187  1.00  0.00    -0.280 N 
BRANCH  14  15
ATOM     15  C   UNL A   1      31.798  25.024  25.984  1.00  0.00     0.235 C 
ATOM     16  O   UNL A   1      31.493  24.584  27.101  1.00  0.00    -0.274 OA
BRANCH  15  17
ATOM     17  C   UNL A   1      30.966  26.239  25.434  1.00  0.00     0.096 C 
ATOM     18  C   UNL A   1      31.776  27.383  24.798  1.00  0.00     0.095 C 
ATOM     19  C   UNL A   1      30.909  28.497  24.193  1.00  0.00     0.041 C 
ATOM     20  C   UNL A   1      29.868  27.944  23.270  1.00  0.00    -0.030 C 
ATOM     21  C   UNL A   1      29.670  25.887  24.649  1.00  0.00     0.041 C 
ATOM     22  C   UNL A   1      29.315  26.746  23.479  1.00  0.00    -0.030 C 
BRANCH  18  23
ATOM     23  C   UNL A   1      32.936  27.889  25.656  1.00  0.00     0.226 C 
ATOM     24  C   UNL A   1      33.873  29.065  27.563  1.00  0.00     0.146 C 
ATOM     25  N   UNL A   1      32.743  28.403  26.927  1.00  0.00    -0.349 N 
ATOM     26  C   UNL A   1      31.541  28.329  27.739  1.00  0.00     0.146 C 
ATOM     27  O   UNL A   1      34.066  27.836  25.154  1.00  0.00    -0.275 OA
ENDBRANCH  18  23
ENDBRANCH  15  17
ENDBRANCH  14  15
BRANCH  14  28
ATOM     28  C   UNL A   1      32.607  24.197  23.770  1.00  0.00     0.049 A 
ATOM     29  C   UNL A   1      32.886  25.262  22.892  1.00  0.00     0.027 A 
ATOM     30  C   UNL A   1      32.268  22.954  23.233  1.00  0.00     0.027 A 
ATOM     31  C   UNL A   1      32.963  25.039  21.516  1.00  0.00     0.002 A 
ATOM     32  C   UNL A   1      32.356  22.729  21.859  1.00  0.00     0.002 A 
ATOM     33  C   UNL A   1      32.729  23.765  21.004  1.00  0.00     0.000 A 
ENDBRANCH  14  28
ENDBRANCH   9  14
ENDBRANCH   5   8
ENDBRANCH   3   4
ENDBRANCH   2   3
ENDBRANCH   1   2
BRANCH   1  34
ATOM     34  C   UNL A   1      36.552  19.478  24.990  1.00  0.00     0.002 C 
BRANCH  34  35
ATOM     35  C   UNL A   1      38.065  19.545  24.707  1.00  0.00     0.021 C 
BRANCH  35  36
ATOM     36  C   UNL A   1      39.044  20.063  25.767  1.00  0.00     0.116 C 
BRANCH  36  37
ATOM     37  N   UNL A   1      40.269  19.292  25.827  1.00  0.00    -0.352 N 
ATOM     38  C   UNL A   1      41.576  19.662  26.061  1.00  0.00     0.251 C 
ATOM     39  H   UNL A   1      40.146  18.328  25.671  1.00  0.00     0.163 HD
ATOM     40  O   UNL A   1      42.445  18.816  25.840  1.00  0.00    -0.269 OA
BRANCH  38  41
ATOM     41  C   UNL A   1      42.003  21.008  26.561  1.00  0.00     0.039 A 
ATOM     42  C   UNL A   1      42.197  22.018  25.604  1.00  0.00     0.014 A 
ATOM     43  C   UNL A   1      42.356  21.285  27.886  1.00  0.00     0.014 A 
ATOM     44  C   UNL A   1      42.731  23.267  25.961  1.00  0.00     0.010 A 
ATOM     45  C   UNL A   1      42.848  22.559  28.251  1.00  0.00     0.010 A 
ATOM     46  C   UNL A   1      43.064  23.562  27.291  1.00  0.00    -0.014 A 
BRANCH  46  47
ATOM     47  C   UNL A   1      43.646  24.904  27.628  1.00  0.00     0.031 A 
ATOM     48  C   UNL A   1      45.094  25.238  27.341  1.00  0.00     0.074 A 
ATOM     49  C   UNL A   1      42.861  25.870  28.154  1.00  0.00     0.049 A 
ATOM     50  N   UNL A   1      45.708  26.396  27.427  1.00  0.00    -0.248 NA
ATOM     51  C   UNL A   1      45.967  24.134  26.921  1.00  0.00     0.031 C 
ATOM     52  C   UNL A   1      41.457  25.703  28.532  1.00  0.00     0.029 A 
ATOM     53  N   UNL A   1      43.125  27.192  28.439  1.00  0.00    -0.354 N 
ATOM     54  C   UNL A   1      47.031  26.162  27.068  1.00  0.00     0.074 A 
ATOM     55  C   UNL A   1      47.142  24.740  26.814  1.00  0.00     0.031 C 
ATOM     56  C   UNL A   1      40.971  26.883  28.952  1.00  0.00     0.029 A 
ATOM     57  C   UNL A   1      42.029  27.890  28.892  1.00  0.00     0.049 A 
ATOM     58  H   UNL A   1      44.015  27.598  28.328  1.00  0.00     0.167 HD
ATOM     59  C   UNL A   1      48.059  27.039  26.938  1.00  0.00     0.031 A 
ATOM     60  C   UNL A   1      41.873  29.193  29.202  1.00  0.00     0.031 A 
ATOM     61  C   UNL A   1      47.971  28.457  27.185  1.00  0.00     0.049 A 
ATOM     62  C   UNL A   1      43.018  30.155  29.032  1.00  0.00     0.074 A 
ATOM     63  C   UNL A   1      48.952  29.423  27.023  1.00  0.00     0.029 A 
ATOM     64  N   UNL A   1      46.845  29.117  27.650  1.00  0.00    -0.354 N 
ATOM     65  N   UNL A   1      44.237  29.919  28.608  1.00  0.00    -0.248 NA
ATOM     66  C   UNL A   1      42.755  31.564  29.360  1.00  0.00     0.031 C 
ATOM     67  C   UNL A   1      48.434  30.657  27.435  1.00  0.00     0.029 A 
ATOM     68  C   UNL A   1      47.112  30.469  27.801  1.00  0.00     0.049 A 
ATOM     69  H   UNL A   1      45.979  28.687  27.844  1.00  0.00     0.167 HD
ATOM     70  C   UNL A   1      44.877  31.155  28.597  1.00  0.00     0.074 A 
ATOM     71  C   UNL A   1      43.906  32.136  29.034  1.00  0.00     0.031 C 
ATOM     72  C   UNL A   1      46.156  31.447  28.252  1.00  0.00     0.031 A 
BRANCH  59  73
ATOM     73  C   UNL A   1      49.395  26.487  26.504  1.00  0.00    -0.014 A 
ATOM     74  C   UNL A   1      49.838  26.622  25.175  1.00  0.00     0.010 A 
ATOM     75  C   UNL A   1      50.243  25.875  27.446  1.00  0.00     0.010 A 
ATOM     76  C   UNL A   1      51.080  26.113  24.787  1.00  0.00     0.020 A 
ATOM     77  C   UNL A   1      51.498  25.389  27.068  1.00  0.00     0.020 A 
ATOM     78  C   UNL A   1      51.900  25.493  25.735  1.00  0.00     0.054 A 
BRANCH  78  79
ATOM     79  S   UNL A   1      53.512  24.850  25.204  1.00  0.00     0.124 S 
ATOM     80  O   UNL A   1      53.735  25.586  23.963  1.00  0.00    -0.237 OA
ATOM     81  O   UNL A   1      54.386  25.213  26.315  1.00  0.00    -0.237 OA
ATOM     82  O   UNL A   1      53.276  23.416  25.044  1.00  0.00    -0.744 OA
ENDBRANCH  78  79
ENDBRANCH  59  73
BRANCH  60  83
ATOM     83  C   UNL A   1      40.548  29.685  29.675  1.00  0.00    -0.014 A 
ATOM     84  C   UNL A   1      40.262  29.765  31.050  1.00  0.00     0.010 A 
ATOM     85  C   UNL A   1      39.566  30.080  28.748  1.00  0.00     0.010 A 
ATOM     86  C   UNL A   1      39.013  30.215  31.488  1.00  0.00     0.020 A 
ATOM     87  C   UNL A   1      38.328  30.555  29.183  1.00  0.00     0.020 A 
ATOM     88  C   UNL A   1      38.055  30.610  30.551  1.00  0.00     0.054 A 
BRANCH  88  89
ATOM     89  S   UNL A   1      36.463  31.254  31.142  1.00  0.00     0.124 S 
ATOM     90  O   UNL A   1      36.818  32.607  31.555  1.00  0.00    -0.237 OA
ATOM     91  O   UNL A   1      35.621  31.155  29.952  1.00  0.00    -0.237 OA
ATOM     92  O   UNL A   1      36.109  30.339  32.224  1.00  0.00    -0.744 OA
ENDBRANCH  88  89
ENDBRANCH  60  83
BRANCH  72  93
ATOM     93  C   UNL A   1      46.575  32.895  28.315  1.00  0.00    -0.014 A 
ATOM     94  C   UNL A   1      46.403  33.756  27.216  1.00  0.00     0.010 A 
ATOM     95  C   UNL A   1      47.152  33.403  29.494  1.00  0.00     0.010 A 
ATOM     96  C   UNL A   1      46.851  35.079  27.274  1.00  0.00     0.020 A 
ATOM     97  C   UNL A   1      47.576  34.734  29.566  1.00  0.00     0.020 A 
ATOM     98  C   UNL A   1      47.446  35.557  28.445  1.00  0.00     0.054 A 
BRANCH  98  99
ATOM     99  S   UNL A   1      48.028  37.275  28.498  1.00  0.00     0.124 S 
ATOM    100  O   UNL A   1      47.000  37.968  27.726  1.00  0.00    -0.237 OA
ATOM    101  O   UNL A   1      48.042  37.568  29.929  1.00  0.00    -0.237 OA
ATOM    102  O   UNL A   1      49.345  37.214  27.869  1.00  0.00    -0.744 OA
ENDBRANCH  98  99
ENDBRANCH  72  93
ENDBRANCH  46  47
ENDBRANCH  38  41
ENDBRANCH  36  37
ENDBRANCH  35  36
ENDBRANCH  34  35
ENDBRANCH   1  34
TORSDOF 21
ENDMDL
MODEL 3
REMARK VINA RESULT:     -10.2      2.149      3.399
REMARK SMILES CN(C)C(=O)[C@@H]1CC=CC[C@H]1C(=O)N(c1ccccc1)c1ccccc1C(=O)NCCCCCCNC(=O)c1ccc(-c2c3nc(c(-c4ccc(S(=O)(=O)[O-])cc4)c4ccc([nH]4)c(-c4ccc(S(=O)(=O)[O-])cc4)c4nc(c(-c5ccc(S(=O)(=O)[O-])cc5)c5ccc2[nH]5)C=C4)C=C3)cc1
REMARK SMILES IDX 32 1 31 2 30 3 29 4 27 5 28 6 26 8 21 9 22 10 23 11 25 12
REMARK SMILES IDX 24 13 14 14 12 15 13 16 11 17 6 18 7 19 8 20 10 21 9 22 4 23
REMARK SMILES IDX 1 24 2 25 3 26 5 27 15 28 16 29 20 30 17 31 19 32 18 33
REMARK SMILES IDX 33 34 34 35 35 36 36 37 37 38 38 40 39 41 40 42 98 43 41 44
REMARK SMILES IDX 97 45 42 46 43 47 44 48 91 49 45 50 96 51 90 52 92 53 46 54
REMARK SMILES IDX 95 55 89 56 88 57 47 59 77 60 58 61 76 62 59 63 62 64 75 65
REMARK SMILES IDX 93 66 60 67 61 68 74 70 94 71 63 72 48 73 49 74 57 75 50 76
REMARK SMILES IDX 56 77 51 78 52 79 53 80 54 81 55 82 78 83 79 84 87 85 80 86
REMARK SMILES IDX 86 87 81 88 82 89 83 90 84 91 85 92 64 93 65 94 73 95 66 96
REMARK SMILES IDX 72 97 67 98 68 99 69 100 70 101 71 102
REMARK H PARENT 29 7 36 39 92 58 62 69
REMARK Flexibility Score: inf
ROOT
ATOM      1  C   UNL A   1      34.019  21.683  25.574  1.00  0.00     0.002 C 
ENDROOT
BRANCH   1   2
ATOM      2  C   UNL A   1      33.978  22.683  26.754  1.00  0.00     0.021 C 
BRANCH   2   3
ATOM      3  C   UNL A   1      33.620  24.154  26.545  1.00  0.00     0.116 C 
BRANCH   3   4
ATOM      4  N   UNL A   1      32.242  24.486  26.336  1.00  0.00    -0.352 N 
ATOM      5  C   UNL A   1      31.510  24.619  25.176  1.00  0.00     0.253 C 
ATOM      6  O   UNL A   1      30.282  24.581  25.353  1.00  0.00    -0.269 OA
ATOM      7  H   UNL A   1      31.731  24.649  27.162  1.00  0.00     0.163 HD
BRANCH   5   8
ATOM      8  C   UNL A   1      31.997  24.971  23.783  1.00  0.00     0.063 A 
ATOM      9  C   UNL A   1      32.078  26.176  23.040  1.00  0.00     0.062 A 
ATOM     10  C   UNL A   1      32.675  26.116  21.736  1.00  0.00     0.027 A 
ATOM     11  C   UNL A   1      33.129  24.942  21.144  1.00  0.00     0.002 A 
ATOM     12  C   UNL A   1      32.462  23.785  23.127  1.00  0.00     0.016 A 
ATOM     13  C   UNL A   1      33.008  23.762  21.840  1.00  0.00     0.001 A 
BRANCH   9  14
ATOM     14  N   UNL A   1      31.654  27.505  23.430  1.00  0.00    -0.280 N 
BRANCH  14  15
ATOM     15  C   UNL A   1      30.597  28.162  22.791  1.00  0.00     0.235 C 
ATOM     16  O   UNL A   1      30.773  28.794  21.741  1.00  0.00    -0.274 OA
BRANCH  15  17
ATOM     17  C   UNL A   1      29.177  28.253  23.459  1.00  0.00     0.096 C 
ATOM     18  C   UNL A   1      28.072  28.917  22.616  1.00  0.00     0.095 C 
ATOM     19  C   UNL A   1      26.686  28.892  23.277  1.00  0.00     0.041 C 
ATOM     20  C   UNL A   1      26.318  27.514  23.730  1.00  0.00    -0.030 C 
ATOM     21  C   UNL A   1      28.694  26.989  24.226  1.00  0.00     0.041 C 
ATOM     22  C   UNL A   1      27.242  26.646  24.152  1.00  0.00    -0.030 C 
BRANCH  18  23
ATOM     23  C   UNL A   1      28.459  30.271  22.022  1.00  0.00     0.226 C 
ATOM     24  C   UNL A   1      28.958  32.643  22.169  1.00  0.00     0.146 C 
ATOM     25  N   UNL A   1      28.834  31.343  22.813  1.00  0.00    -0.349 N 
ATOM     26  C   UNL A   1      29.165  31.326  24.227  1.00  0.00     0.146 C 
ATOM     27  O   UNL A   1      28.404  30.376  20.790  1.00  0.00    -0.275 OA
ENDBRANCH  18  23
ENDBRANCH  15  17
ENDBRANCH  14  15
BRANCH  14  28
ATOM     28  C   UNL A   1      32.335  28.030  24.581  1.00  0.00     0.049 A 
ATOM     29  C   UNL A   1      31.626  28.235  25.780  1.00  0.00     0.027 A 
ATOM     30  C   UNL A   1      33.710  28.271  24.564  1.00  0.00     0.027 A 
ATOM     31  C   UNL A   1      32.308  28.533  26.961  1.00  0.00     0.002 A 
ATOM     32  C   UNL A   1      34.393  28.558  25.746  1.00  0.00     0.002 A 
ATOM     33  C   UNL A   1      33.695  28.662  26.948  1.00  0.00     0.000 A 
ENDBRANCH  14  28
ENDBRANCH   9  14
ENDBRANCH   5   8
ENDBRANCH   3   4
ENDBRANCH   2   3
ENDBRANCH   1   2
BRANCH   1  34
ATOM     34  C   UNL A   1      35.196  21.546  24.592  1.00  0.00     0.002 C 
BRANCH  34  35
ATOM     35  C   UNL A   1      36.046  22.742  24.124  1.00  0.00     0.021 C 
BRANCH  35  36
ATOM     36  C   UNL A   1      37.206  23.267  24.980  1.00  0.00     0.116 C 
BRANCH  36  37
ATOM     37  N   UNL A   1      38.105  22.216  25.414  1.00  0.00    -0.352 N 
ATOM     38  C   UNL A   1      39.306  22.257  26.087  1.00  0.00     0.251 C 
ATOM     39  H   UNL A   1      37.801  21.308  25.187  1.00  0.00     0.163 HD
ATOM     40  O   UNL A   1      39.956  21.210  26.135  1.00  0.00    -0.269 OA
BRANCH  38  41
ATOM     41  C   UNL A   1      39.867  23.475  26.756  1.00  0.00     0.039 A 
ATOM     42  C   UNL A   1      39.788  24.688  26.053  1.00  0.00     0.014 A 
ATOM     43  C   UNL A   1      40.583  23.460  27.957  1.00  0.00     0.014 A 
ATOM     44  C   UNL A   1      40.409  25.852  26.536  1.00  0.00     0.010 A 
ATOM     45  C   UNL A   1      41.167  24.643  28.465  1.00  0.00     0.010 A 
ATOM     46  C   UNL A   1      41.109  25.852  27.752  1.00  0.00    -0.014 A 
BRANCH  46  47
ATOM     47  C   UNL A   1      41.772  27.113  28.225  1.00  0.00     0.031 A 
ATOM     48  C   UNL A   1      43.254  27.351  28.037  1.00  0.00     0.074 A 
ATOM     49  C   UNL A   1      41.034  28.094  28.789  1.00  0.00     0.049 A 
ATOM     50  N   UNL A   1      43.948  28.446  28.246  1.00  0.00    -0.248 NA
ATOM     51  C   UNL A   1      44.062  26.217  27.570  1.00  0.00     0.031 C 
ATOM     52  C   UNL A   1      39.603  28.011  29.085  1.00  0.00     0.029 A 
ATOM     53  N   UNL A   1      41.382  29.365  29.194  1.00  0.00    -0.354 N 
ATOM     54  C   UNL A   1      45.268  28.135  27.934  1.00  0.00     0.074 A 
ATOM     55  C   UNL A   1      45.284  26.733  27.570  1.00  0.00     0.031 C 
ATOM     56  C   UNL A   1      39.186  29.190  29.576  1.00  0.00     0.029 A 
ATOM     57  C   UNL A   1      40.318  30.111  29.649  1.00  0.00     0.049 A 
ATOM     58  H   UNL A   1      42.305  29.706  29.160  1.00  0.00     0.167 HD
ATOM     59  C   UNL A   1      46.365  28.935  27.925  1.00  0.00     0.031 A 
ATOM     60  C   UNL A   1      40.245  31.394  30.057  1.00  0.00     0.031 A 
ATOM     61  C   UNL A   1      46.371  30.333  28.282  1.00  0.00     0.049 A 
ATOM     62  C   UNL A   1      41.467  32.271  30.021  1.00  0.00     0.074 A 
ATOM     63  C   UNL A   1      47.430  31.227  28.248  1.00  0.00     0.029 A 
ATOM     64  N   UNL A   1      45.274  31.042  28.745  1.00  0.00    -0.354 N 
ATOM     65  N   UNL A   1      42.686  31.973  29.639  1.00  0.00    -0.248 NA
ATOM     66  C   UNL A   1      41.295  33.667  30.450  1.00  0.00     0.031 C 
ATOM     67  C   UNL A   1      46.984  32.462  28.733  1.00  0.00     0.029 A 
ATOM     68  C   UNL A   1      45.635  32.353  29.019  1.00  0.00     0.049 A 
ATOM     69  H   UNL A   1      44.369  30.669  28.862  1.00  0.00     0.167 HD
ATOM     70  C   UNL A   1      43.418  33.151  29.759  1.00  0.00     0.074 A 
ATOM     71  C   UNL A   1      42.501  34.169  30.228  1.00  0.00     0.031 C 
ATOM     72  C   UNL A   1      44.732  33.366  29.502  1.00  0.00     0.031 A 
BRANCH  59  73
ATOM     73  C   UNL A   1      47.677  28.314  27.513  1.00  0.00    -0.014 A 
ATOM     74  C   UNL A   1      48.459  27.594  28.435  1.00  0.00     0.010 A 
ATOM     75  C   UNL A   1      48.107  28.401  26.176  1.00  0.00     0.010 A 
ATOM     76  C   UNL A   1      49.669  27.016  28.039  1.00  0.00     0.020 A 
ATOM     77  C   UNL A   1      49.303  27.801  25.770  1.00  0.00     0.020 A 
ATOM     78  C   UNL A   1      50.086  27.129  26.710  1.00  0.00     0.054 A 
BRANCH  78  79
ATOM     79  S   UNL A   1      51.656  26.361  26.223  1.00  0.00     0.124 S 
ATOM     80  O   UNL A   1      52.632  27.244  26.857  1.00  0.00    -0.237 OA
ATOM     81  O   UNL A   1      51.553  25.023  26.797  1.00  0.00    -0.237 OA
ATOM     82  O   UNL A   1      51.628  26.413  24.762  1.00  0.00    -0.744 OA
ENDBRANCH  78  79
ENDBRANCH  59  73
BRANCH  60  83
ATOM     83  C   UNL A   1      38.938  31.952  30.504  1.00  0.00    -0.014 A 
ATOM     84  C   UNL A   1      38.686  32.183  31.869  1.00  0.00     0.010 A 
ATOM     85  C   UNL A   1      37.938  32.257  29.562  1.00  0.00     0.010 A 
ATOM     86  C   UNL A   1      37.453  32.695  32.284  1.00  0.00     0.020 A 
ATOM     87  C   UNL A   1      36.715  32.794  29.972  1.00  0.00     0.020 A 
ATOM     88  C   UNL A   1      36.477  33.000  31.332  1.00  0.00     0.054 A 
BRANCH  88  89
ATOM     89  S   UNL A   1      34.907  33.724  31.886  1.00  0.00     0.124 S 
ATOM     90  O   UNL A   1      35.292  34.357  33.143  1.00  0.00    -0.237 OA
ATOM     91  O   UNL A   1      34.576  34.636  30.793  1.00  0.00    -0.237 OA
ATOM     92  O   UNL A   1      34.025  32.567  32.008  1.00  0.00    -0.744 OA
ENDBRANCH  88  89
ENDBRANCH  60  83
BRANCH  72  93
ATOM     93  C   UNL A   1      45.256  34.767  29.703  1.00  0.00    -0.014 A 
ATOM     94  C   UNL A   1      45.160  35.737  28.690  1.00  0.00     0.010 A 
ATOM     95  C   UNL A   1      45.854  35.118  30.927  1.00  0.00     0.010 A 
ATOM     96  C   UNL A   1      45.704  37.012  28.874  1.00  0.00     0.020 A 
ATOM     97  C   UNL A   1      46.374  36.401  31.126  1.00  0.00     0.020 A 
ATOM     98  C   UNL A   1      46.317  37.332  30.088  1.00  0.00     0.054 A 
BRANCH  98  99
ATOM     99  S   UNL A   1      47.024  38.990  30.305  1.00  0.00     0.124 S 
ATOM    100  O   UNL A   1      48.116  38.734  31.241  1.00  0.00    -0.237 OA
ATOM    101  O   UNL A   1      47.432  39.348  28.949  1.00  0.00    -0.237 OA
ATOM    102  O   UNL A   1      45.914  39.772  30.842  1.00  0.00    -0.744 OA
ENDBRANCH  98  99
ENDBRANCH  72  93
ENDBRANCH  46  47
ENDBRANCH  38  41
ENDBRANCH  36  37
ENDBRANCH  35  36
ENDBRANCH  34  35
ENDBRANCH   1  34
TORSDOF 21
ENDMDL
