MODEL 1
REMARK VINA RESULT:      -9.9      0.000      0.000
REMARK SMILES CCc1cc(/C=C/C(=O)NCCCCCCNC(=O)c2ccc(-c3c4nc(c(-c5ccc(S(=O)(=O)[O-])cc5)c5ccc([nH]5)c(-c5ccc(S(=O)(=O)[O-])cc5)c5nc(c(-c6ccc(S(=O)(=O)[O-])cc6)c6ccc3[nH]6)C=C5)C=C4)cc2)cc(C(=O)c2ccccc2)c1
REMARK SMILES IDX 13 1 12 2 11 3 10 4 8 5 9 6 7 8 6 9 5 10 3 11 4 12 90 13
REMARK SMILES IDX 81 14 80 15 2 16 1 17 82 18 83 19 84 20 85 21 89 22 86 23
REMARK SMILES IDX 88 24 87 25 14 26 15 27 16 28 17 29 18 30 19 32 20 33 21 34
REMARK SMILES IDX 79 35 22 36 78 37 23 38 24 39 25 40 72 41 26 42 77 43 71 44
REMARK SMILES IDX 73 45 27 46 76 47 70 48 69 49 28 51 58 52 39 53 57 54 40 55
REMARK SMILES IDX 43 56 56 57 74 58 41 59 42 60 55 62 75 63 44 64 29 65 30 66
REMARK SMILES IDX 38 67 31 68 37 69 32 70 33 71 34 72 35 73 36 74 59 75 60 76
REMARK SMILES IDX 68 77 61 78 67 79 62 80 63 81 64 82 65 83 66 84 45 85 46 86
REMARK SMILES IDX 54 87 47 88 53 89 48 90 49 91 50 92 51 93 52 94
REMARK H PARENT 10 7 17 31 73 50 43 61
REMARK Flexibility Score: inf
ROOT
ATOM      1  C   UNL A   1      41.576  22.491  27.599  1.00  0.00     0.002 C 
ENDROOT
BRANCH   1   2
ATOM      2  C   UNL A   1      40.733  23.168  26.508  1.00  0.00     0.021 C 
BRANCH   2   3
ATOM      3  C   UNL A   1      39.235  22.894  26.643  1.00  0.00     0.116 C 
BRANCH   3   4
ATOM      4  N   UNL A   1      38.842  21.808  25.763  1.00  0.00    -0.353 N 
ATOM      5  C   UNL A   1      37.646  21.474  25.217  1.00  0.00     0.243 C 
ATOM      6  O   UNL A   1      37.584  20.515  24.448  1.00  0.00    -0.270 OA
ATOM      7  H   UNL A   1      39.579  21.202  25.518  1.00  0.00     0.163 HD
BRANCH   5   8
ATOM      8  C   UNL A   1      36.420  22.275  25.451  1.00  0.00     0.072 C 
ATOM      9  C   UNL A   1      35.818  23.078  24.562  1.00  0.00     0.014 C 
BRANCH   9  10
ATOM     10  C   UNL A   1      34.631  23.896  24.843  1.00  0.00    -0.024 A 
ATOM     11  C   UNL A   1      32.500  24.259  25.987  1.00  0.00    -0.047 A 
ATOM     12  C   UNL A   1      33.569  23.423  25.626  1.00  0.00     0.011 A 
ATOM     13  C   UNL A   1      32.483  25.574  25.507  1.00  0.00     0.016 A 
ATOM     14  C   UNL A   1      33.556  26.075  24.760  1.00  0.00     0.023 A 
ATOM     15  C   UNL A   1      34.616  25.229  24.415  1.00  0.00     0.020 A 
BRANCH  11  16
ATOM     16  C   UNL A   1      31.402  23.727  26.879  1.00  0.00     0.032 C 
ATOM     17  C   UNL A   1      30.598  22.588  26.259  1.00  0.00     0.009 C 
ENDBRANCH  11  16
BRANCH  14  18
ATOM     18  C   UNL A   1      33.614  27.500  24.333  1.00  0.00     0.193 C 
ATOM     19  O   UNL A   1      34.089  27.790  23.240  1.00  0.00    -0.289 OA
BRANCH  18  20
ATOM     20  C   UNL A   1      33.099  28.579  25.212  1.00  0.00     0.022 A 
ATOM     21  C   UNL A   1      31.947  29.269  24.821  1.00  0.00     0.012 A 
ATOM     22  C   UNL A   1      33.743  28.909  26.412  1.00  0.00     0.012 A 
ATOM     23  C   UNL A   1      31.409  30.247  25.657  1.00  0.00     0.001 A 
ATOM     24  C   UNL A   1      33.198  29.887  27.246  1.00  0.00     0.001 A 
ATOM     25  C   UNL A   1      32.028  30.547  26.872  1.00  0.00     0.000 A 
ENDBRANCH  18  20
ENDBRANCH  14  18
ENDBRANCH   9  10
ENDBRANCH   5   8
ENDBRANCH   3   4
ENDBRANCH   2   3
ENDBRANCH   1   2
BRANCH   1  26
ATOM     26  C   UNL A   1      41.136  21.065  27.958  1.00  0.00     0.002 C 
BRANCH  26  27
ATOM     27  C   UNL A   1      41.990  19.953  27.344  1.00  0.00     0.021 C 
BRANCH  27  28
ATOM     28  C   UNL A   1      41.860  19.832  25.830  1.00  0.00     0.116 C 
BRANCH  28  29
ATOM     29  N   UNL A   1      43.078  19.309  25.231  1.00  0.00    -0.352 N 
ATOM     30  C   UNL A   1      44.198  19.983  24.816  1.00  0.00     0.251 C 
ATOM     31  H   UNL A   1      43.101  18.332  25.106  1.00  0.00     0.163 HD
ATOM     32  O   UNL A   1      45.021  19.424  24.098  1.00  0.00    -0.269 OA
BRANCH  30  33
ATOM     33  C   UNL A   1      44.404  21.386  25.234  1.00  0.00     0.039 A 
ATOM     34  C   UNL A   1      45.042  21.647  26.447  1.00  0.00     0.014 A 
ATOM     35  C   UNL A   1      43.949  22.439  24.434  1.00  0.00     0.014 A 
ATOM     36  C   UNL A   1      45.270  22.970  26.835  1.00  0.00     0.010 A 
ATOM     37  C   UNL A   1      44.242  23.752  24.787  1.00  0.00     0.010 A 
ATOM     38  C   UNL A   1      44.895  24.032  25.996  1.00  0.00    -0.014 A 
BRANCH  38  39
ATOM     39  C   UNL A   1      45.174  25.441  26.367  1.00  0.00     0.031 A 
ATOM     40  C   UNL A   1      46.559  26.006  26.205  1.00  0.00     0.074 A 
ATOM     41  C   UNL A   1      44.192  26.193  26.905  1.00  0.00     0.049 A 
ATOM     42  N   UNL A   1      47.007  27.195  26.520  1.00  0.00    -0.248 NA
ATOM     43  C   UNL A   1      47.582  25.111  25.638  1.00  0.00     0.031 C 
ATOM     44  C   UNL A   1      42.819  25.745  27.149  1.00  0.00     0.029 A 
ATOM     45  N   UNL A   1      44.201  27.491  27.349  1.00  0.00    -0.354 N 
ATOM     46  C   UNL A   1      48.361  27.185  26.205  1.00  0.00     0.074 A 
ATOM     47  C   UNL A   1      48.672  25.858  25.722  1.00  0.00     0.031 C 
ATOM     48  C   UNL A   1      42.112  26.759  27.673  1.00  0.00     0.029 A 
ATOM     49  C   UNL A   1      42.989  27.913  27.843  1.00  0.00     0.049 A 
ATOM     50  H   UNL A   1      44.999  28.066  27.318  1.00  0.00     0.167 HD
ATOM     51  C   UNL A   1      49.258  28.195  26.291  1.00  0.00     0.031 A 
ATOM     52  C   UNL A   1      42.625  29.094  28.380  1.00  0.00     0.031 A 
ATOM     53  C   UNL A   1      48.940  29.515  26.765  1.00  0.00     0.049 A 
ATOM     54  C   UNL A   1      43.644  30.196  28.478  1.00  0.00     0.074 A 
ATOM     55  C   UNL A   1      49.763  30.625  26.841  1.00  0.00     0.029 A 
ATOM     56  N   UNL A   1      47.699  29.905  27.249  1.00  0.00    -0.354 N 
ATOM     57  N   UNL A   1      44.904  30.190  28.110  1.00  0.00    -0.248 NA
ATOM     58  C   UNL A   1      43.189  31.471  29.051  1.00  0.00     0.031 C 
ATOM     59  C   UNL A   1      49.038  31.669  27.423  1.00  0.00     0.029 A 
ATOM     60  C   UNL A   1      47.743  31.230  27.649  1.00  0.00     0.049 A 
ATOM     61  H   UNL A   1      46.905  29.325  27.301  1.00  0.00     0.167 HD
ATOM     62  C   UNL A   1      45.384  31.467  28.382  1.00  0.00     0.074 A 
ATOM     63  C   UNL A   1      44.275  32.222  28.929  1.00  0.00     0.031 C 
ATOM     64  C   UNL A   1      46.629  31.968  28.193  1.00  0.00     0.031 A 
BRANCH  51  65
ATOM     65  C   UNL A   1      50.677  27.907  25.870  1.00  0.00    -0.014 A 
ATOM     66  C   UNL A   1      51.640  27.477  26.802  1.00  0.00     0.010 A 
ATOM     67  C   UNL A   1      51.044  28.030  24.518  1.00  0.00     0.010 A 
ATOM     68  C   UNL A   1      52.952  27.219  26.397  1.00  0.00     0.020 A 
ATOM     69  C   UNL A   1      52.348  27.743  24.103  1.00  0.00     0.020 A 
ATOM     70  C   UNL A   1      53.299  27.355  25.050  1.00  0.00     0.054 A 
BRANCH  70  71
ATOM     71  S   UNL A   1      55.004  26.993  24.550  1.00  0.00     0.124 S 
ATOM     72  O   UNL A   1      54.948  27.208  23.106  1.00  0.00    -0.237 OA
ATOM     73  O   UNL A   1      55.774  27.978  25.304  1.00  0.00    -0.237 OA
ATOM     74  O   UNL A   1      55.200  25.605  24.964  1.00  0.00    -0.744 OA
ENDBRANCH  70  71
ENDBRANCH  51  65
BRANCH  52  75
ATOM     75  C   UNL A   1      41.227  29.298  28.850  1.00  0.00    -0.014 A 
ATOM     76  C   UNL A   1      40.176  29.438  27.928  1.00  0.00     0.010 A 
ATOM     77  C   UNL A   1      40.938  29.336  30.227  1.00  0.00     0.010 A 
ATOM     78  C   UNL A   1      38.865  29.633  28.371  1.00  0.00     0.020 A 
ATOM     79  C   UNL A   1      39.624  29.500  30.675  1.00  0.00     0.020 A 
ATOM     80  C   UNL A   1      38.597  29.660  29.743  1.00  0.00     0.054 A 
BRANCH  80  81
ATOM     81  S   UNL A   1      36.880  29.865  30.295  1.00  0.00     0.124 S 
ATOM     82  O   UNL A   1      36.832  31.288  30.615  1.00  0.00    -0.237 OA
ATOM     83  O   UNL A   1      36.120  29.454  29.117  1.00  0.00    -0.237 OA
ATOM     84  O   UNL A   1      36.778  28.961  31.439  1.00  0.00    -0.744 OA
ENDBRANCH  80  81
ENDBRANCH  52  75
BRANCH  64  85
ATOM     85  C   UNL A   1      46.856  33.414  28.548  1.00  0.00    -0.014 A 
ATOM     86  C   UNL A   1      47.271  33.796  29.836  1.00  0.00     0.010 A 
ATOM     87  C   UNL A   1      46.702  34.401  27.557  1.00  0.00     0.010 A 
ATOM     88  C   UNL A   1      47.498  35.142  30.134  1.00  0.00     0.020 A 
ATOM     89  C   UNL A   1      46.959  35.744  27.843  1.00  0.00     0.020 A 
ATOM     90  C   UNL A   1      47.342  36.107  29.135  1.00  0.00     0.054 A 
BRANCH  90  91
ATOM     91  S   UNL A   1      47.687  37.842  29.535  1.00  0.00     0.124 S 
ATOM     92  O   UNL A   1      46.381  38.316  29.985  1.00  0.00    -0.237 OA
ATOM     93  O   UNL A   1      48.708  37.733  30.574  1.00  0.00    -0.237 OA
ATOM     94  O   UNL A   1      48.153  38.405  28.270  1.00  0.00    -0.744 OA
ENDBRANCH  90  91
ENDBRANCH  64  85
ENDBRANCH  38  39
ENDBRANCH  30  33
ENDBRANCH  28  29
ENDBRANCH  27  28
ENDBRANCH  26  27
ENDBRANCH   1  26
TORSDOF 20
ENDMDL
MODEL 2
REMARK VINA RESULT:      -9.9      6.417     12.157
REMARK SMILES CCc1cc(/C=C/C(=O)NCCCCCCNC(=O)c2ccc(-c3c4nc(c(-c5ccc(S(=O)(=O)[O-])cc5)c5ccc([nH]5)c(-c5ccc(S(=O)(=O)[O-])cc5)c5nc(c(-c6ccc(S(=O)(=O)[O-])cc6)c6ccc3[nH]6)C=C5)C=C4)cc2)cc(C(=O)c2ccccc2)c1
REMARK SMILES IDX 13 1 12 2 11 3 10 4 8 5 9 6 7 8 6 9 5 10 3 11 4 12 90 13
REMARK SMILES IDX 81 14 80 15 2 16 1 17 82 18 83 19 84 20 85 21 89 22 86 23
REMARK SMILES IDX 88 24 87 25 14 26 15 27 16 28 17 29 18 30 19 32 20 33 21 34
REMARK SMILES IDX 79 35 22 36 78 37 23 38 24 39 25 40 72 41 26 42 77 43 71 44
REMARK SMILES IDX 73 45 27 46 76 47 70 48 69 49 28 51 58 52 39 53 57 54 40 55
REMARK SMILES IDX 43 56 56 57 74 58 41 59 42 60 55 62 75 63 44 64 29 65 30 66
REMARK SMILES IDX 38 67 31 68 37 69 32 70 33 71 34 72 35 73 36 74 59 75 60 76
REMARK SMILES IDX 68 77 61 78 67 79 62 80 63 81 64 82 65 83 66 84 45 85 46 86
REMARK SMILES IDX 54 87 47 88 53 89 48 90 49 91 50 92 51 93 52 94
REMARK H PARENT 10 7 17 31 73 50 43 61
REMARK Flexibility Score: inf
ROOT
ATOM      1  C   UNL A   1      45.331  23.342  24.892  1.00  0.00     0.002 C 
ENDROOT
BRANCH   1   2
ATOM      2  C   UNL A   1      44.692  22.415  25.936  1.00  0.00     0.021 C 
BRANCH   2   3
ATOM      3  C   UNL A   1      43.913  21.252  25.320  1.00  0.00     0.116 C 
BRANCH   3   4
ATOM      4  N   UNL A   1      42.545  21.250  25.806  1.00  0.00    -0.353 N 
ATOM      5  C   UNL A   1      42.000  21.672  26.975  1.00  0.00     0.243 C 
ATOM      6  O   UNL A   1      40.781  21.606  27.126  1.00  0.00    -0.270 OA
ATOM      7  H   UNL A   1      41.892  20.875  25.171  1.00  0.00     0.163 HD
BRANCH   5   8
ATOM      8  C   UNL A   1      42.816  22.287  28.050  1.00  0.00     0.072 C 
ATOM      9  C   UNL A   1      42.471  23.345  28.796  1.00  0.00     0.014 C 
BRANCH   9  10
ATOM     10  C   UNL A   1      43.326  23.959  29.822  1.00  0.00    -0.024 A 
ATOM     11  C   UNL A   1      44.423  23.913  32.007  1.00  0.00    -0.047 A 
ATOM     12  C   UNL A   1      43.508  23.380  31.085  1.00  0.00     0.011 A 
ATOM     13  C   UNL A   1      45.123  25.076  31.664  1.00  0.00     0.016 A 
ATOM     14  C   UNL A   1      44.986  25.642  30.391  1.00  0.00     0.023 A 
ATOM     15  C   UNL A   1      44.074  25.094  29.482  1.00  0.00     0.020 A 
BRANCH  11  16
ATOM     16  C   UNL A   1      44.630  23.226  33.337  1.00  0.00     0.032 C 
ATOM     17  C   UNL A   1      43.434  23.326  34.279  1.00  0.00     0.009 C 
ENDBRANCH  11  16
BRANCH  14  18
ATOM     18  C   UNL A   1      45.802  26.812  29.963  1.00  0.00     0.193 C 
ATOM     19  O   UNL A   1      47.006  26.831  30.194  1.00  0.00    -0.289 OA
BRANCH  18  20
ATOM     20  C   UNL A   1      45.178  27.958  29.258  1.00  0.00     0.022 A 
ATOM     21  C   UNL A   1      44.658  29.010  30.019  1.00  0.00     0.012 A 
ATOM     22  C   UNL A   1      45.107  28.000  27.859  1.00  0.00     0.012 A 
ATOM     23  C   UNL A   1      44.120  30.127  29.379  1.00  0.00     0.001 A 
ATOM     24  C   UNL A   1      44.570  29.121  27.225  1.00  0.00     0.001 A 
ATOM     25  C   UNL A   1      44.087  30.186  27.985  1.00  0.00     0.000 A 
ENDBRANCH  18  20
ENDBRANCH  14  18
ENDBRANCH   9  10
ENDBRANCH   5   8
ENDBRANCH   3   4
ENDBRANCH   2   3
ENDBRANCH   1   2
BRANCH   1  26
ATOM     26  C   UNL A   1      44.907  24.813  24.993  1.00  0.00     0.002 C 
BRANCH  26  27
ATOM     27  C   UNL A   1      43.781  25.091  25.993  1.00  0.00     0.021 C 
BRANCH  27  28
ATOM     28  C   UNL A   1      42.713  26.049  25.477  1.00  0.00     0.116 C 
BRANCH  28  29
ATOM     29  N   UNL A   1      41.421  25.390  25.354  1.00  0.00    -0.352 N 
ATOM     30  C   UNL A   1      40.413  25.281  26.277  1.00  0.00     0.251 C 
ATOM     31  H   UNL A   1      41.248  24.960  24.484  1.00  0.00     0.163 HD
ATOM     32  O   UNL A   1      39.505  24.474  26.103  1.00  0.00    -0.269 OA
BRANCH  30  33
ATOM     33  C   UNL A   1      40.428  26.138  27.481  1.00  0.00     0.039 A 
ATOM     34  C   UNL A   1      41.260  27.258  27.508  1.00  0.00     0.014 A 
ATOM     35  C   UNL A   1      39.634  25.820  28.587  1.00  0.00     0.014 A 
ATOM     36  C   UNL A   1      41.258  28.091  28.629  1.00  0.00     0.010 A 
ATOM     37  C   UNL A   1      39.579  26.691  29.671  1.00  0.00     0.010 A 
ATOM     38  C   UNL A   1      40.398  27.829  29.708  1.00  0.00    -0.014 A 
BRANCH  38  39
ATOM     39  C   UNL A   1      40.343  28.730  30.886  1.00  0.00     0.031 A 
ATOM     40  C   UNL A   1      39.356  29.864  30.926  1.00  0.00     0.074 A 
ATOM     41  C   UNL A   1      41.225  28.562  31.892  1.00  0.00     0.049 A 
ATOM     42  N   UNL A   1      39.192  30.784  31.842  1.00  0.00    -0.248 NA
ATOM     43  C   UNL A   1      38.447  29.997  29.774  1.00  0.00     0.031 C 
ATOM     44  C   UNL A   1      42.257  27.524  31.950  1.00  0.00     0.029 A 
ATOM     45  N   UNL A   1      41.398  29.265  33.058  1.00  0.00    -0.354 N 
ATOM     46  C   UNL A   1      38.178  31.610  31.372  1.00  0.00     0.074 A 
ATOM     47  C   UNL A   1      37.799  31.114  30.067  1.00  0.00     0.031 C 
ATOM     48  C   UNL A   1      42.936  27.643  33.102  1.00  0.00     0.029 A 
ATOM     49  C   UNL A   1      42.419  28.788  33.844  1.00  0.00     0.049 A 
ATOM     50  H   UNL A   1      40.843  30.040  33.307  1.00  0.00     0.167 HD
ATOM     51  C   UNL A   1      37.601  32.674  31.980  1.00  0.00     0.031 A 
ATOM     52  C   UNL A   1      42.892  29.226  35.027  1.00  0.00     0.031 A 
ATOM     53  C   UNL A   1      37.979  33.159  33.281  1.00  0.00     0.049 A 
ATOM     54  C   UNL A   1      42.244  30.419  35.676  1.00  0.00     0.074 A 
ATOM     55  C   UNL A   1      37.421  34.195  34.008  1.00  0.00     0.029 A 
ATOM     56  N   UNL A   1      39.013  32.642  34.049  1.00  0.00    -0.354 N 
ATOM     57  N   UNL A   1      41.240  31.146  35.247  1.00  0.00    -0.248 NA
ATOM     58  C   UNL A   1      42.786  30.841  36.975  1.00  0.00     0.031 C 
ATOM     59  C   UNL A   1      38.153  34.343  35.191  1.00  0.00     0.029 A 
ATOM     60  C   UNL A   1      39.126  33.356  35.230  1.00  0.00     0.049 A 
ATOM     61  H   UNL A   1      39.583  31.882  33.791  1.00  0.00     0.167 HD
ATOM     62  C   UNL A   1      41.011  32.096  36.237  1.00  0.00     0.074 A 
ATOM     63  C   UNL A   1      41.970  31.839  37.292  1.00  0.00     0.031 C 
ATOM     64  C   UNL A   1      40.088  33.088  36.271  1.00  0.00     0.031 A 
BRANCH  51  65
ATOM     65  C   UNL A   1      36.505  33.393  31.237  1.00  0.00    -0.014 A 
ATOM     66  C   UNL A   1      36.687  33.829  29.911  1.00  0.00     0.010 A 
ATOM     67  C   UNL A   1      35.260  33.604  31.857  1.00  0.00     0.010 A 
ATOM     68  C   UNL A   1      35.663  34.499  29.237  1.00  0.00     0.020 A 
ATOM     69  C   UNL A   1      34.222  34.246  31.176  1.00  0.00     0.020 A 
ATOM     70  C   UNL A   1      34.436  34.705  29.875  1.00  0.00     0.054 A 
BRANCH  70  71
ATOM     71  S   UNL A   1      33.118  35.559  28.968  1.00  0.00     0.124 S 
ATOM     72  O   UNL A   1      32.277  36.055  30.055  1.00  0.00    -0.237 OA
ATOM     73  O   UNL A   1      33.851  36.579  28.224  1.00  0.00    -0.237 OA
ATOM     74  O   UNL A   1      32.520  34.505  28.151  1.00  0.00    -0.744 OA
ENDBRANCH  70  71
ENDBRANCH  51  65
BRANCH  52  75
ATOM     75  C   UNL A   1      44.030  28.522  35.679  1.00  0.00    -0.014 A 
ATOM     76  C   UNL A   1      43.812  27.354  36.431  1.00  0.00     0.010 A 
ATOM     77  C   UNL A   1      45.343  29.007  35.538  1.00  0.00     0.010 A 
ATOM     78  C   UNL A   1      44.880  26.696  37.047  1.00  0.00     0.020 A 
ATOM     79  C   UNL A   1      46.419  28.335  36.127  1.00  0.00     0.020 A 
ATOM     80  C   UNL A   1      46.178  27.190  36.888  1.00  0.00     0.054 A 
BRANCH  80  81
ATOM     81  S   UNL A   1      47.556  26.291  37.655  1.00  0.00     0.124 S 
ATOM     82  O   UNL A   1      48.600  26.416  36.643  1.00  0.00    -0.237 OA
ATOM     83  O   UNL A   1      47.775  27.043  38.888  1.00  0.00    -0.237 OA
ATOM     84  O   UNL A   1      47.022  24.943  37.843  1.00  0.00    -0.744 OA
ENDBRANCH  80  81
ENDBRANCH  52  75
BRANCH  64  85
ATOM     85  C   UNL A   1      40.044  33.954  37.502  1.00  0.00    -0.014 A 
ATOM     86  C   UNL A   1      40.756  35.164  37.572  1.00  0.00     0.010 A 
ATOM     87  C   UNL A   1      39.233  33.572  38.586  1.00  0.00     0.010 A 
ATOM     88  C   UNL A   1      40.680  35.962  38.717  1.00  0.00     0.020 A 
ATOM     89  C   UNL A   1      39.130  34.383  39.720  1.00  0.00     0.020 A 
ATOM     90  C   UNL A   1      39.866  35.567  39.783  1.00  0.00     0.054 A 
BRANCH  90  91
ATOM     91  S   UNL A   1      39.750  36.642  41.238  1.00  0.00     0.124 S 
ATOM     92  O   UNL A   1      39.555  37.956  40.630  1.00  0.00    -0.237 OA
ATOM     93  O   UNL A   1      38.592  36.100  41.945  1.00  0.00    -0.237 OA
ATOM     94  O   UNL A   1      41.030  36.452  41.915  1.00  0.00    -0.744 OA
ENDBRANCH  90  91
ENDBRANCH  64  85
ENDBRANCH  38  39
ENDBRANCH  30  33
ENDBRANCH  28  29
ENDBRANCH  27  28
ENDBRANCH  26  27
ENDBRANCH   1  26
TORSDOF 20
ENDMDL
MODEL 3
REMARK VINA RESULT:      -9.4      3.114      4.514
REMARK SMILES CCc1cc(/C=C/C(=O)NCCCCCCNC(=O)c2ccc(-c3c4nc(c(-c5ccc(S(=O)(=O)[O-])cc5)c5ccc([nH]5)c(-c5ccc(S(=O)(=O)[O-])cc5)c5nc(c(-c6ccc(S(=O)(=O)[O-])cc6)c6ccc3[nH]6)C=C5)C=C4)cc2)cc(C(=O)c2ccccc2)c1
REMARK SMILES IDX 13 1 12 2 11 3 10 4 8 5 9 6 7 8 6 9 5 10 3 11 4 12 90 13
REMARK SMILES IDX 81 14 80 15 2 16 1 17 82 18 83 19 84 20 85 21 89 22 86 23
REMARK SMILES IDX 88 24 87 25 14 26 15 27 16 28 17 29 18 30 19 32 20 33 21 34
REMARK SMILES IDX 79 35 22 36 78 37 23 38 24 39 25 40 72 41 26 42 77 43 71 44
REMARK SMILES IDX 73 45 27 46 76 47 70 48 69 49 28 51 58 52 39 53 57 54 40 55
REMARK SMILES IDX 43 56 56 57 74 58 41 59 42 60 55 62 75 63 44 64 29 65 30 66
REMARK SMILES IDX 38 67 31 68 37 69 32 70 33 71 34 72 35 73 36 74 59 75 60 76
REMARK SMILES IDX 68 77 61 78 67 79 62 80 63 81 64 82 65 83 66 84 45 85 46 86
REMARK SMILES IDX 54 87 47 88 53 89 48 90 49 91 50 92 51 93 52 94
REMARK H PARENT 10 7 17 31 73 50 43 61
REMARK Flexibility Score: inf
ROOT
ATOM      1  C   UNL A   1      41.027  25.423  28.416  1.00  0.00     0.002 C 
ENDROOT
BRANCH   1   2
ATOM      2  C   UNL A   1      40.521  25.783  27.012  1.00  0.00     0.021 C 
BRANCH   2   3
ATOM      3  C   UNL A   1      39.362  24.902  26.540  1.00  0.00     0.116 C 
BRANCH   3   4
ATOM      4  N   UNL A   1      39.774  23.511  26.498  1.00  0.00    -0.353 N 
ATOM      5  C   UNL A   1      39.100  22.379  26.174  1.00  0.00     0.243 C 
ATOM      6  O   UNL A   1      39.702  21.304  26.168  1.00  0.00    -0.270 OA
ATOM      7  H   UNL A   1      40.714  23.361  26.749  1.00  0.00     0.163 HD
BRANCH   5   8
ATOM      8  C   UNL A   1      37.680  22.398  25.749  1.00  0.00     0.072 C 
ATOM      9  C   UNL A   1      37.186  21.875  24.618  1.00  0.00     0.014 C 
BRANCH   9  10
ATOM     10  C   UNL A   1      35.779  21.955  24.205  1.00  0.00    -0.024 A 
ATOM     11  C   UNL A   1      33.462  21.181  24.322  1.00  0.00    -0.047 A 
ATOM     12  C   UNL A   1      34.823  21.020  24.626  1.00  0.00     0.011 A 
ATOM     13  C   UNL A   1      33.072  22.275  23.541  1.00  0.00     0.016 A 
ATOM     14  C   UNL A   1      34.006  23.242  23.149  1.00  0.00     0.023 A 
ATOM     15  C   UNL A   1      35.358  23.068  23.465  1.00  0.00     0.020 A 
BRANCH  11  16
ATOM     16  C   UNL A   1      32.456  20.180  24.843  1.00  0.00     0.032 C 
ATOM     17  C   UNL A   1      32.690  18.755  24.351  1.00  0.00     0.009 C 
ENDBRANCH  11  16
BRANCH  14  18
ATOM     18  C   UNL A   1      33.599  24.470  22.413  1.00  0.00     0.193 C 
ATOM     19  O   UNL A   1      33.278  24.394  21.231  1.00  0.00    -0.289 OA
BRANCH  18  20
ATOM     20  C   UNL A   1      33.572  25.789  23.090  1.00  0.00     0.022 A 
ATOM     21  C   UNL A   1      33.368  26.936  22.316  1.00  0.00     0.012 A 
ATOM     22  C   UNL A   1      33.742  25.899  24.477  1.00  0.00     0.012 A 
ATOM     23  C   UNL A   1      33.279  28.183  22.935  1.00  0.00     0.001 A 
ATOM     24  C   UNL A   1      33.649  27.149  25.091  1.00  0.00     0.001 A 
ATOM     25  C   UNL A   1      33.408  28.286  24.320  1.00  0.00     0.000 A 
ENDBRANCH  18  20
ENDBRANCH  14  18
ENDBRANCH   9  10
ENDBRANCH   5   8
ENDBRANCH   3   4
ENDBRANCH   2   3
ENDBRANCH   1   2
BRANCH   1  26
ATOM     26  C   UNL A   1      42.536  25.159  28.507  1.00  0.00     0.002 C 
BRANCH  26  27
ATOM     27  C   UNL A   1      42.955  23.715  28.217  1.00  0.00     0.021 C 
BRANCH  27  28
ATOM     28  C   UNL A   1      43.279  23.443  26.752  1.00  0.00     0.116 C 
BRANCH  28  29
ATOM     29  N   UNL A   1      44.667  23.041  26.580  1.00  0.00    -0.352 N 
ATOM     30  C   UNL A   1      45.784  23.823  26.435  1.00  0.00     0.251 C 
ATOM     31  H   UNL A   1      44.826  22.069  26.565  1.00  0.00     0.163 HD
ATOM     32  O   UNL A   1      46.834  23.327  26.041  1.00  0.00    -0.269 OA
BRANCH  30  33
ATOM     33  C   UNL A   1      45.713  25.265  26.751  1.00  0.00     0.039 A 
ATOM     34  C   UNL A   1      45.202  26.146  25.798  1.00  0.00     0.014 A 
ATOM     35  C   UNL A   1      46.168  25.743  27.984  1.00  0.00     0.014 A 
ATOM     36  C   UNL A   1      45.101  27.506  26.100  1.00  0.00     0.010 A 
ATOM     37  C   UNL A   1      45.999  27.085  28.310  1.00  0.00     0.010 A 
ATOM     38  C   UNL A   1      45.474  27.982  27.368  1.00  0.00    -0.014 A 
BRANCH  38  39
ATOM     39  C   UNL A   1      45.327  29.415  27.726  1.00  0.00     0.031 A 
ATOM     40  C   UNL A   1      46.463  30.373  27.494  1.00  0.00     0.074 A 
ATOM     41  C   UNL A   1      44.192  29.839  28.317  1.00  0.00     0.049 A 
ATOM     42  N   UNL A   1      46.542  31.646  27.787  1.00  0.00    -0.248 NA
ATOM     43  C   UNL A   1      47.681  29.825  26.872  1.00  0.00     0.031 C 
ATOM     44  C   UNL A   1      43.035  28.996  28.632  1.00  0.00     0.029 A 
ATOM     45  N   UNL A   1      43.825  31.083  28.763  1.00  0.00    -0.354 N 
ATOM     46  C   UNL A   1      47.816  32.045  27.401  1.00  0.00     0.074 A 
ATOM     47  C   UNL A   1      48.494  30.870  26.901  1.00  0.00     0.031 C 
ATOM     48  C   UNL A   1      42.079  29.753  29.195  1.00  0.00     0.029 A 
ATOM     49  C   UNL A   1      42.569  31.122  29.321  1.00  0.00     0.049 A 
ATOM     50  H   UNL A   1      44.407  31.874  28.691  1.00  0.00     0.167 HD
ATOM     51  C   UNL A   1      48.366  33.282  27.443  1.00  0.00     0.031 A 
ATOM     52  C   UNL A   1      41.889  32.143  29.878  1.00  0.00     0.031 A 
ATOM     53  C   UNL A   1      47.683  34.449  27.936  1.00  0.00     0.049 A 
ATOM     54  C   UNL A   1      42.527  33.505  29.925  1.00  0.00     0.074 A 
ATOM     55  C   UNL A   1      48.131  35.758  27.971  1.00  0.00     0.029 A 
ATOM     56  N   UNL A   1      46.409  34.448  28.485  1.00  0.00    -0.354 N 
ATOM     57  N   UNL A   1      43.708  33.879  29.492  1.00  0.00    -0.248 NA
ATOM     58  C   UNL A   1      41.733  34.587  30.524  1.00  0.00     0.031 C 
ATOM     59  C   UNL A   1      47.152  36.539  28.592  1.00  0.00     0.029 A 
ATOM     60  C   UNL A   1      46.066  35.729  28.885  1.00  0.00     0.049 A 
ATOM     61  H   UNL A   1      45.834  33.654  28.577  1.00  0.00     0.167 HD
ATOM     62  C   UNL A   1      43.788  35.244  29.741  1.00  0.00     0.074 A 
ATOM     63  C   UNL A   1      42.530  35.633  30.347  1.00  0.00     0.031 C 
ATOM     64  C   UNL A   1      44.809  36.099  29.488  1.00  0.00     0.031 A 
BRANCH  51  65
ATOM     65  C   UNL A   1      49.781  33.435  26.947  1.00  0.00    -0.014 A 
ATOM     66  C   UNL A   1      50.879  33.153  27.782  1.00  0.00     0.010 A 
ATOM     67  C   UNL A   1      50.019  33.829  25.618  1.00  0.00     0.010 A 
ATOM     68  C   UNL A   1      52.185  33.305  27.309  1.00  0.00     0.020 A 
ATOM     69  C   UNL A   1      51.324  33.952  25.132  1.00  0.00     0.020 A 
ATOM     70  C   UNL A   1      52.400  33.705  25.987  1.00  0.00     0.054 A 
BRANCH  70  71
ATOM     71  S   UNL A   1      54.106  33.872  25.396  1.00  0.00     0.124 S 
ATOM     72  O   UNL A   1      54.084  33.065  24.178  1.00  0.00    -0.237 OA
ATOM     73  O   UNL A   1      54.235  35.312  25.194  1.00  0.00    -0.237 OA
ATOM     74  O   UNL A   1      54.908  33.325  26.489  1.00  0.00    -0.744 OA
ENDBRANCH  70  71
ENDBRANCH  51  65
BRANCH  52  75
ATOM     75  C   UNL A   1      40.522  31.917  30.422  1.00  0.00    -0.014 A 
ATOM     76  C   UNL A   1      39.392  32.068  29.600  1.00  0.00     0.010 A 
ATOM     77  C   UNL A   1      40.344  31.531  31.763  1.00  0.00     0.010 A 
ATOM     78  C   UNL A   1      38.108  31.860  30.112  1.00  0.00     0.020 A 
ATOM     79  C   UNL A   1      39.064  31.292  32.272  1.00  0.00     0.020 A 
ATOM     80  C   UNL A   1      37.953  31.470  31.446  1.00  0.00     0.054 A 
BRANCH  80  81
ATOM     81  S   UNL A   1      36.280  31.156  32.076  1.00  0.00     0.124 S 
ATOM     82  O   UNL A   1      36.278  29.703  32.218  1.00  0.00    -0.237 OA
ATOM     83  O   UNL A   1      36.267  31.914  33.324  1.00  0.00    -0.237 OA
ATOM     84  O   UNL A   1      35.414  31.686  31.025  1.00  0.00    -0.744 OA
ENDBRANCH  80  81
ENDBRANCH  52  75
BRANCH  64  85
ATOM     85  C   UNL A   1      44.601  37.550  29.834  1.00  0.00    -0.014 A 
ATOM     86  C   UNL A   1      44.107  38.464  28.887  1.00  0.00     0.010 A 
ATOM     87  C   UNL A   1      44.854  37.991  31.146  1.00  0.00     0.010 A 
ATOM     88  C   UNL A   1      43.899  39.801  29.238  1.00  0.00     0.020 A 
ATOM     89  C   UNL A   1      44.617  39.320  31.509  1.00  0.00     0.020 A 
ATOM     90  C   UNL A   1      44.154  40.220  30.548  1.00  0.00     0.054 A 
BRANCH  90  91
ATOM     91  S   UNL A   1      43.833  41.948  30.990  1.00  0.00     0.124 S 
ATOM     92  O   UNL A   1      44.771  42.160  32.090  1.00  0.00    -0.237 OA
ATOM     93  O   UNL A   1      44.147  42.658  29.752  1.00  0.00    -0.237 OA
ATOM     94  O   UNL A   1      42.421  41.956  31.364  1.00  0.00    -0.744 OA
ENDBRANCH  90  91
ENDBRANCH  64  85
ENDBRANCH  38  39
ENDBRANCH  30  33
ENDBRANCH  28  29
ENDBRANCH  27  28
ENDBRANCH  26  27
ENDBRANCH   1  26
TORSDOF 20
ENDMDL
