MODEL 1
REMARK VINA RESULT:     -10.6      0.000      0.000
REMARK SMILES C[C@H]([C@@H](C)C(=O)NCCCCCCNC(=O)c1ccc(-c2c3nc(c(-c4ccc(S(=O)(=O)[O-])cc4)c4ccc([nH]4)c(-c4ccc(S(=O)(=O)[O-])cc4)c4nc(c(-c5ccc(S(=O)(=O)[O-])cc5)c5ccc2[nH]5)C=C4)C=C3)cc1)n1c(CC#N)nc2ccccc21
REMARK SMILES IDX 10 1 9 2 8 3 7 4 5 5 6 6 3 8 4 9 2 10 1 11 77 12 78 13 88 14
REMARK SMILES IDX 82 15 83 16 87 17 84 18 86 19 85 20 79 21 80 22 81 23 11 24
REMARK SMILES IDX 12 25 13 26 14 27 15 28 16 30 17 31 18 32 76 33 19 34 75 35
REMARK SMILES IDX 20 36 21 37 22 38 69 39 23 40 74 41 68 42 70 43 24 44 73 45
REMARK SMILES IDX 67 46 66 47 25 49 55 50 36 51 54 52 37 53 40 54 53 55 71 56
REMARK SMILES IDX 38 57 39 58 52 60 72 61 41 62 26 63 27 64 35 65 28 66 34 67
REMARK SMILES IDX 29 68 30 69 31 70 32 71 33 72 56 73 57 74 65 75 58 76 64 77
REMARK SMILES IDX 59 78 60 79 61 80 62 81 63 82 42 83 43 84 51 85 44 86 50 87
REMARK SMILES IDX 45 88 46 89 47 90 48 91 49 92
REMARK H PARENT 7 7 14 29 70 48 40 59
REMARK Flexibility Score: inf
ROOT
ATOM      1  C   UNL A   1      31.204  28.779  24.723  1.00  0.00     0.002 C 
ENDROOT
BRANCH   1   2
ATOM      2  C   UNL A   1      30.369  27.910  23.775  1.00  0.00     0.021 C 
BRANCH   2   3
ATOM      3  C   UNL A   1      29.842  26.577  24.330  1.00  0.00     0.116 C 
BRANCH   3   4
ATOM      4  N   UNL A   1      30.637  26.075  25.449  1.00  0.00    -0.356 N 
ATOM      5  C   UNL A   1      30.939  24.884  26.026  1.00  0.00     0.224 C 
ATOM      6  O   UNL A   1      31.496  25.000  27.131  1.00  0.00    -0.275 OA
ATOM      7  H   UNL A   1      31.082  26.815  25.921  1.00  0.00     0.163 HD
BRANCH   5   8
ATOM      8  C   UNL A   1      30.779  23.435  25.461  1.00  0.00     0.098 C 
ATOM      9  C   UNL A   1      30.122  22.561  26.525  1.00  0.00     0.020 C 
BRANCH   8  10
ATOM     10  C   UNL A   1      31.755  22.848  24.333  1.00  0.00     0.098 C 
ATOM     11  C   UNL A   1      31.822  23.901  23.195  1.00  0.00     0.032 C 
BRANCH  10  12
ATOM     12  N   UNL A   1      33.132  22.427  24.599  1.00  0.00    -0.323 N 
ATOM     13  C   UNL A   1      33.340  21.261  25.247  1.00  0.00     0.124 A 
ATOM     14  C   UNL A   1      34.464  22.763  24.382  1.00  0.00     0.068 A 
ATOM     15  N   UNL A   1      34.178  21.478  26.232  1.00  0.00    -0.232 NA
ATOM     16  C   UNL A   1      35.082  22.224  25.546  1.00  0.00     0.089 A 
ATOM     17  C   UNL A   1      35.253  23.038  23.259  1.00  0.00     0.028 A 
ATOM     18  C   UNL A   1      36.470  22.170  25.724  1.00  0.00     0.030 A 
ATOM     19  C   UNL A   1      36.635  22.733  23.375  1.00  0.00     0.002 A 
ATOM     20  C   UNL A   1      37.238  22.351  24.582  1.00  0.00     0.002 A 
BRANCH  13  21
ATOM     21  C   UNL A   1      33.215  20.095  24.424  1.00  0.00     0.195 C 
BRANCH  21  22
ATOM     22  C   UNL A   1      32.684  18.757  24.909  1.00  0.00     0.070 C 
ATOM     23  N   UNL A   1      32.242  17.646  25.313  1.00  0.00    -0.198 NA
ENDBRANCH  21  22
ENDBRANCH  13  21
ENDBRANCH  10  12
ENDBRANCH   8  10
ENDBRANCH   5   8
ENDBRANCH   3   4
ENDBRANCH   2   3
ENDBRANCH   1   2
BRANCH   1  24
ATOM     24  C   UNL A   1      32.702  28.897  24.406  1.00  0.00     0.002 C 
BRANCH  24  25
ATOM     25  C   UNL A   1      33.618  27.816  24.992  1.00  0.00     0.021 C 
BRANCH  25  26
ATOM     26  C   UNL A   1      34.160  28.082  26.396  1.00  0.00     0.116 C 
BRANCH  26  27
ATOM     27  N   UNL A   1      33.811  29.404  26.894  1.00  0.00    -0.352 N 
ATOM     28  C   UNL A   1      34.518  30.242  27.717  1.00  0.00     0.251 C 
ATOM     29  H   UNL A   1      32.938  29.747  26.595  1.00  0.00     0.163 HD
ATOM     30  O   UNL A   1      33.968  31.256  28.169  1.00  0.00    -0.269 OA
BRANCH  28  31
ATOM     31  C   UNL A   1      35.918  29.945  28.088  1.00  0.00     0.039 A 
ATOM     32  C   UNL A   1      36.200  29.507  29.385  1.00  0.00     0.014 A 
ATOM     33  C   UNL A   1      36.959  30.122  27.172  1.00  0.00     0.014 A 
ATOM     34  C   UNL A   1      37.514  29.188  29.743  1.00  0.00     0.010 A 
ATOM     35  C   UNL A   1      38.257  29.736  27.508  1.00  0.00     0.010 A 
ATOM     36  C   UNL A   1      38.550  29.269  28.799  1.00  0.00    -0.014 A 
BRANCH  36  37
ATOM     37  C   UNL A   1      39.941  28.868  29.143  1.00  0.00     0.031 A 
ATOM     38  C   UNL A   1      40.873  29.845  29.814  1.00  0.00     0.074 A 
ATOM     39  C   UNL A   1      40.385  27.641  28.805  1.00  0.00     0.049 A 
ATOM     40  N   UNL A   1      42.127  29.689  30.150  1.00  0.00    -0.248 NA
ATOM     41  C   UNL A   1      40.330  31.177  30.125  1.00  0.00     0.031 C 
ATOM     42  C   UNL A   1      39.597  26.614  28.118  1.00  0.00     0.029 A 
ATOM     43  N   UNL A   1      41.611  27.048  28.986  1.00  0.00    -0.354 N 
ATOM     44  C   UNL A   1      42.527  30.904  30.698  1.00  0.00     0.074 A 
ATOM     45  C   UNL A   1      41.397  31.801  30.601  1.00  0.00     0.031 C 
ATOM     46  C   UNL A   1      40.348  25.512  27.964  1.00  0.00     0.029 A 
ATOM     47  C   UNL A   1      41.682  25.764  28.499  1.00  0.00     0.049 A 
ATOM     48  H   UNL A   1      42.367  27.500  29.426  1.00  0.00     0.167 HD
ATOM     49  C   UNL A   1      43.719  31.237  31.249  1.00  0.00     0.031 A 
ATOM     50  C   UNL A   1      42.706  24.888  28.477  1.00  0.00     0.031 A 
ATOM     51  C   UNL A   1      44.841  30.339  31.349  1.00  0.00     0.049 A 
ATOM     52  C   UNL A   1      44.026  25.285  29.082  1.00  0.00     0.074 A 
ATOM     53  C   UNL A   1      46.073  30.566  31.938  1.00  0.00     0.029 A 
ATOM     54  N   UNL A   1      44.870  29.046  30.848  1.00  0.00    -0.354 N 
ATOM     55  N   UNL A   1      44.361  26.417  29.654  1.00  0.00    -0.248 NA
ATOM     56  C   UNL A   1      45.099  24.283  29.050  1.00  0.00     0.031 C 
ATOM     57  C   UNL A   1      46.866  29.431  31.741  1.00  0.00     0.029 A 
ATOM     58  C   UNL A   1      46.106  28.473  31.090  1.00  0.00     0.049 A 
ATOM     59  H   UNL A   1      44.121  28.602  30.387  1.00  0.00     0.167 HD
ATOM     60  C   UNL A   1      45.676  26.251  30.077  1.00  0.00     0.074 A 
ATOM     61  C   UNL A   1      46.066  24.905  29.709  1.00  0.00     0.031 C 
ATOM     62  C   UNL A   1      46.485  27.133  30.716  1.00  0.00     0.031 A 
BRANCH  49  63
ATOM     63  C   UNL A   1      43.877  32.639  31.780  1.00  0.00    -0.014 A 
ATOM     64  C   UNL A   1      44.376  33.674  30.968  1.00  0.00     0.010 A 
ATOM     65  C   UNL A   1      43.476  32.938  33.096  1.00  0.00     0.010 A 
ATOM     66  C   UNL A   1      44.514  34.970  31.475  1.00  0.00     0.020 A 
ATOM     67  C   UNL A   1      43.584  34.239  33.597  1.00  0.00     0.020 A 
ATOM     68  C   UNL A   1      44.118  35.243  32.787  1.00  0.00     0.054 A 
BRANCH  68  69
ATOM     69  S   UNL A   1      44.287  36.939  33.409  1.00  0.00     0.124 S 
ATOM     70  O   UNL A   1      43.512  37.697  32.429  1.00  0.00    -0.237 OA
ATOM     71  O   UNL A   1      43.697  36.850  34.743  1.00  0.00    -0.237 OA
ATOM     72  O   UNL A   1      45.727  37.179  33.382  1.00  0.00    -0.744 OA
ENDBRANCH  68  69
ENDBRANCH  49  63
BRANCH  50  73
ATOM     73  C   UNL A   1      42.519  23.540  27.870  1.00  0.00    -0.014 A 
ATOM     74  C   UNL A   1      43.187  23.189  26.683  1.00  0.00     0.010 A 
ATOM     75  C   UNL A   1      41.677  22.594  28.484  1.00  0.00     0.010 A 
ATOM     76  C   UNL A   1      43.004  21.926  26.112  1.00  0.00     0.020 A 
ATOM     77  C   UNL A   1      41.514  21.319  27.933  1.00  0.00     0.020 A 
ATOM     78  C   UNL A   1      42.170  20.998  26.743  1.00  0.00     0.054 A 
BRANCH  78  79
ATOM     79  S   UNL A   1      41.988  19.348  26.011  1.00  0.00     0.124 S 
ATOM     80  O   UNL A   1      42.572  18.493  27.040  1.00  0.00    -0.237 OA
ATOM     81  O   UNL A   1      40.540  19.238  25.841  1.00  0.00    -0.237 OA
ATOM     82  O   UNL A   1      42.748  19.440  24.767  1.00  0.00    -0.744 OA
ENDBRANCH  78  79
ENDBRANCH  50  73
BRANCH  62  83
ATOM     83  C   UNL A   1      47.864  26.661  31.095  1.00  0.00    -0.014 A 
ATOM     84  C   UNL A   1      48.947  26.773  30.206  1.00  0.00     0.010 A 
ATOM     85  C   UNL A   1      48.087  26.142  32.384  1.00  0.00     0.010 A 
ATOM     86  C   UNL A   1      50.222  26.341  30.586  1.00  0.00     0.020 A 
ATOM     87  C   UNL A   1      49.365  25.738  32.779  1.00  0.00     0.020 A 
ATOM     88  C   UNL A   1      50.422  25.827  31.871  1.00  0.00     0.054 A 
BRANCH  88  89
ATOM     89  S   UNL A   1      52.092  25.309  32.353  1.00  0.00     0.124 S 
ATOM     90  O   UNL A   1      51.938  23.862  32.476  1.00  0.00    -0.237 OA
ATOM     91  O   UNL A   1      52.905  25.761  31.227  1.00  0.00    -0.237 OA
ATOM     92  O   UNL A   1      52.327  26.019  33.608  1.00  0.00    -0.744 OA
ENDBRANCH  88  89
ENDBRANCH  62  83
ENDBRANCH  36  37
ENDBRANCH  28  31
ENDBRANCH  26  27
ENDBRANCH  25  26
ENDBRANCH  24  25
ENDBRANCH   1  24
TORSDOF 20
ENDMDL
MODEL 2
REMARK VINA RESULT:     -10.0      3.453      9.383
REMARK SMILES C[C@H]([C@@H](C)C(=O)NCCCCCCNC(=O)c1ccc(-c2c3nc(c(-c4ccc(S(=O)(=O)[O-])cc4)c4ccc([nH]4)c(-c4ccc(S(=O)(=O)[O-])cc4)c4nc(c(-c5ccc(S(=O)(=O)[O-])cc5)c5ccc2[nH]5)C=C4)C=C3)cc1)n1c(CC#N)nc2ccccc21
REMARK SMILES IDX 10 1 9 2 8 3 7 4 5 5 6 6 3 8 4 9 2 10 1 11 77 12 78 13 88 14
REMARK SMILES IDX 82 15 83 16 87 17 84 18 86 19 85 20 79 21 80 22 81 23 11 24
REMARK SMILES IDX 12 25 13 26 14 27 15 28 16 30 17 31 18 32 76 33 19 34 75 35
REMARK SMILES IDX 20 36 21 37 22 38 69 39 23 40 74 41 68 42 70 43 24 44 73 45
REMARK SMILES IDX 67 46 66 47 25 49 55 50 36 51 54 52 37 53 40 54 53 55 71 56
REMARK SMILES IDX 38 57 39 58 52 60 72 61 41 62 26 63 27 64 35 65 28 66 34 67
REMARK SMILES IDX 29 68 30 69 31 70 32 71 33 72 56 73 57 74 65 75 58 76 64 77
REMARK SMILES IDX 59 78 60 79 61 80 62 81 63 82 42 83 43 84 51 85 44 86 50 87
REMARK SMILES IDX 45 88 46 89 47 90 48 91 49 92
REMARK H PARENT 7 7 14 29 70 48 40 59
REMARK Flexibility Score: inf
ROOT
ATOM      1  C   UNL A   1      36.781  21.414  25.570  1.00  0.00     0.002 C 
ENDROOT
BRANCH   1   2
ATOM      2  C   UNL A   1      36.584  22.835  25.031  1.00  0.00     0.021 C 
BRANCH   2   3
ATOM      3  C   UNL A   1      36.048  22.971  23.597  1.00  0.00     0.116 C 
BRANCH   3   4
ATOM      4  N   UNL A   1      34.603  22.770  23.509  1.00  0.00    -0.356 N 
ATOM      5  C   UNL A   1      33.516  22.851  24.317  1.00  0.00     0.224 C 
ATOM      6  O   UNL A   1      32.495  22.347  23.820  1.00  0.00    -0.275 OA
ATOM      7  H   UNL A   1      34.344  22.496  22.600  1.00  0.00     0.163 HD
BRANCH   5   8
ATOM      8  C   UNL A   1      33.355  23.561  25.700  1.00  0.00     0.098 C 
ATOM      9  C   UNL A   1      32.823  22.552  26.713  1.00  0.00     0.020 C 
BRANCH   8  10
ATOM     10  C   UNL A   1      33.094  25.138  25.823  1.00  0.00     0.098 C 
ATOM     11  C   UNL A   1      34.415  25.851  25.426  1.00  0.00     0.032 C 
BRANCH  10  12
ATOM     12  N   UNL A   1      32.013  25.833  25.121  1.00  0.00    -0.323 N 
ATOM     13  C   UNL A   1      30.832  25.198  24.960  1.00  0.00     0.124 A 
ATOM     14  C   UNL A   1      31.660  27.041  24.530  1.00  0.00     0.068 A 
ATOM     15  N   UNL A   1      30.482  25.287  23.699  1.00  0.00    -0.232 NA
ATOM     16  C   UNL A   1      30.751  26.607  23.524  1.00  0.00     0.089 A 
ATOM     17  C   UNL A   1      31.634  28.381  24.938  1.00  0.00     0.028 A 
ATOM     18  C   UNL A   1      29.990  27.487  22.746  1.00  0.00     0.030 A 
ATOM     19  C   UNL A   1      30.668  29.208  24.307  1.00  0.00     0.002 A 
ATOM     20  C   UNL A   1      29.896  28.790  23.214  1.00  0.00     0.002 A 
BRANCH  13  21
ATOM     21  C   UNL A   1      29.992  25.207  26.120  1.00  0.00     0.195 C 
BRANCH  21  22
ATOM     22  C   UNL A   1      29.655  23.974  26.942  1.00  0.00     0.070 C 
ATOM     23  N   UNL A   1      29.374  22.951  27.625  1.00  0.00    -0.198 NA
ENDBRANCH  21  22
ENDBRANCH  13  21
ENDBRANCH  10  12
ENDBRANCH   8  10
ENDBRANCH   5   8
ENDBRANCH   3   4
ENDBRANCH   2   3
ENDBRANCH   1   2
BRANCH   1  24
ATOM     24  C   UNL A   1      37.454  20.408  24.625  1.00  0.00     0.002 C 
BRANCH  24  25
ATOM     25  C   UNL A   1      38.451  19.429  25.257  1.00  0.00     0.021 C 
BRANCH  25  26
ATOM     26  C   UNL A   1      39.566  20.053  26.096  1.00  0.00     0.116 C 
BRANCH  26  27
ATOM     27  N   UNL A   1      40.761  19.223  26.151  1.00  0.00    -0.352 N 
ATOM     28  C   UNL A   1      42.079  19.594  26.223  1.00  0.00     0.251 C 
ATOM     29  H   UNL A   1      40.598  18.252  26.134  1.00  0.00     0.163 HD
ATOM     30  O   UNL A   1      42.960  18.735  26.082  1.00  0.00    -0.269 OA
BRANCH  28  31
ATOM     31  C   UNL A   1      42.464  21.004  26.447  1.00  0.00     0.039 A 
ATOM     32  C   UNL A   1      42.654  21.458  27.755  1.00  0.00     0.014 A 
ATOM     33  C   UNL A   1      42.613  21.889  25.376  1.00  0.00     0.014 A 
ATOM     34  C   UNL A   1      43.052  22.780  27.985  1.00  0.00     0.010 A 
ATOM     35  C   UNL A   1      43.079  23.185  25.601  1.00  0.00     0.010 A 
ATOM     36  C   UNL A   1      43.299  23.647  26.908  1.00  0.00    -0.014 A 
BRANCH  36  37
ATOM     37  C   UNL A   1      43.789  25.033  27.131  1.00  0.00     0.031 A 
ATOM     38  C   UNL A   1      45.234  25.381  26.882  1.00  0.00     0.074 A 
ATOM     39  C   UNL A   1      42.946  25.971  27.609  1.00  0.00     0.049 A 
ATOM     40  N   UNL A   1      45.850  26.521  27.060  1.00  0.00    -0.248 NA
ATOM     41  C   UNL A   1      46.105  24.300  26.391  1.00  0.00     0.031 C 
ATOM     42  C   UNL A   1      41.532  25.755  27.929  1.00  0.00     0.029 A 
ATOM     43  N   UNL A   1      43.154  27.293  27.916  1.00  0.00    -0.354 N 
ATOM     44  C   UNL A   1      47.179  26.293  26.718  1.00  0.00     0.074 A 
ATOM     45  C   UNL A   1      47.289  24.893  26.372  1.00  0.00     0.031 C 
ATOM     46  C   UNL A   1      40.996  26.908  28.357  1.00  0.00     0.029 A 
ATOM     47  C   UNL A   1      42.032  27.935  28.386  1.00  0.00     0.049 A 
ATOM     48  H   UNL A   1      44.025  27.739  27.809  1.00  0.00     0.167 HD
ATOM     49  C   UNL A   1      48.210  27.171  26.678  1.00  0.00     0.031 A 
ATOM     50  C   UNL A   1      41.856  29.205  28.801  1.00  0.00     0.031 A 
ATOM     51  C   UNL A   1      48.095  28.566  27.017  1.00  0.00     0.049 A 
ATOM     52  C   UNL A   1      43.019  30.160  28.760  1.00  0.00     0.074 A 
ATOM     53  C   UNL A   1      49.069  29.548  26.956  1.00  0.00     0.029 A 
ATOM     54  N   UNL A   1      46.941  29.177  27.483  1.00  0.00    -0.354 N 
ATOM     55  N   UNL A   1      44.251  29.938  28.370  1.00  0.00    -0.248 NA
ATOM     56  C   UNL A   1      42.763  31.537  29.203  1.00  0.00     0.031 C 
ATOM     57  C   UNL A   1      48.519  30.739  27.441  1.00  0.00     0.029 A 
ATOM     58  C   UNL A   1      47.185  30.516  27.740  1.00  0.00     0.049 A 
ATOM     59  H   UNL A   1      46.076  28.725  27.613  1.00  0.00     0.167 HD
ATOM     60  C   UNL A   1      44.911  31.157  28.492  1.00  0.00     0.074 A 
ATOM     61  C   UNL A   1      43.935  32.113  28.976  1.00  0.00     0.031 C 
ATOM     62  C   UNL A   1      46.206  31.457  28.224  1.00  0.00     0.031 A 
BRANCH  49  63
ATOM     63  C   UNL A   1      49.559  26.646  26.257  1.00  0.00    -0.014 A 
ATOM     64  C   UNL A   1      50.032  26.821  24.944  1.00  0.00     0.010 A 
ATOM     65  C   UNL A   1      50.387  26.009  27.200  1.00  0.00     0.010 A 
ATOM     66  C   UNL A   1      51.287  26.331  24.570  1.00  0.00     0.020 A 
ATOM     67  C   UNL A   1      51.656  25.544  26.839  1.00  0.00     0.020 A 
ATOM     68  C   UNL A   1      52.089  25.694  25.520  1.00  0.00     0.054 A 
BRANCH  68  69
ATOM     69  S   UNL A   1      53.723  25.089  25.012  1.00  0.00     0.124 S 
ATOM     70  O   UNL A   1      53.834  25.624  23.657  1.00  0.00    -0.237 OA
ATOM     71  O   UNL A   1      54.610  25.695  26.001  1.00  0.00    -0.237 OA
ATOM     72  O   UNL A   1      53.599  23.636  25.099  1.00  0.00    -0.744 OA
ENDBRANCH  68  69
ENDBRANCH  49  63
BRANCH  50  73
ATOM     73  C   UNL A   1      40.518  29.653  29.279  1.00  0.00    -0.014 A 
ATOM     74  C   UNL A   1      40.229  29.706  30.655  1.00  0.00     0.010 A 
ATOM     75  C   UNL A   1      39.526  30.039  28.359  1.00  0.00     0.010 A 
ATOM     76  C   UNL A   1      38.969  30.118  31.101  1.00  0.00     0.020 A 
ATOM     77  C   UNL A   1      38.275  30.482  28.801  1.00  0.00     0.020 A 
ATOM     78  C   UNL A   1      38.001  30.507  30.170  1.00  0.00     0.054 A 
BRANCH  78  79
ATOM     79  S   UNL A   1      36.392  31.088  30.774  1.00  0.00     0.124 S 
ATOM     80  O   UNL A   1      36.764  32.279  31.531  1.00  0.00    -0.237 OA
ATOM     81  O   UNL A   1      35.658  31.327  29.533  1.00  0.00    -0.237 OA
ATOM     82  O   UNL A   1      35.901  29.966  31.572  1.00  0.00    -0.744 OA
ENDBRANCH  78  79
ENDBRANCH  50  73
BRANCH  62  83
ATOM     83  C   UNL A   1      46.640  32.888  28.410  1.00  0.00    -0.014 A 
ATOM     84  C   UNL A   1      46.516  33.832  27.375  1.00  0.00     0.010 A 
ATOM     85  C   UNL A   1      47.135  33.303  29.660  1.00  0.00     0.010 A 
ATOM     86  C   UNL A   1      46.912  35.158  27.577  1.00  0.00     0.020 A 
ATOM     87  C   UNL A   1      47.503  34.634  29.875  1.00  0.00     0.020 A 
ATOM     88  C   UNL A   1      47.403  35.550  28.827  1.00  0.00     0.054 A 
BRANCH  88  89
ATOM     89  S   UNL A   1      47.874  37.283  29.074  1.00  0.00     0.124 S 
ATOM     90  O   UNL A   1      47.557  37.486  30.486  1.00  0.00    -0.237 OA
ATOM     91  O   UNL A   1      49.297  37.279  28.744  1.00  0.00    -0.237 OA
ATOM     92  O   UNL A   1      47.025  38.012  28.134  1.00  0.00    -0.744 OA
ENDBRANCH  88  89
ENDBRANCH  62  83
ENDBRANCH  36  37
ENDBRANCH  28  31
ENDBRANCH  26  27
ENDBRANCH  25  26
ENDBRANCH  24  25
ENDBRANCH   1  24
TORSDOF 20
ENDMDL
MODEL 3
REMARK VINA RESULT:      -9.6      4.492      9.775
REMARK SMILES C[C@H]([C@@H](C)C(=O)NCCCCCCNC(=O)c1ccc(-c2c3nc(c(-c4ccc(S(=O)(=O)[O-])cc4)c4ccc([nH]4)c(-c4ccc(S(=O)(=O)[O-])cc4)c4nc(c(-c5ccc(S(=O)(=O)[O-])cc5)c5ccc2[nH]5)C=C4)C=C3)cc1)n1c(CC#N)nc2ccccc21
REMARK SMILES IDX 10 1 9 2 8 3 7 4 5 5 6 6 3 8 4 9 2 10 1 11 77 12 78 13 88 14
REMARK SMILES IDX 82 15 83 16 87 17 84 18 86 19 85 20 79 21 80 22 81 23 11 24
REMARK SMILES IDX 12 25 13 26 14 27 15 28 16 30 17 31 18 32 76 33 19 34 75 35
REMARK SMILES IDX 20 36 21 37 22 38 69 39 23 40 74 41 68 42 70 43 24 44 73 45
REMARK SMILES IDX 67 46 66 47 25 49 55 50 36 51 54 52 37 53 40 54 53 55 71 56
REMARK SMILES IDX 38 57 39 58 52 60 72 61 41 62 26 63 27 64 35 65 28 66 34 67
REMARK SMILES IDX 29 68 30 69 31 70 32 71 33 72 56 73 57 74 65 75 58 76 64 77
REMARK SMILES IDX 59 78 60 79 61 80 62 81 63 82 42 83 43 84 51 85 44 86 50 87
REMARK SMILES IDX 45 88 46 89 47 90 48 91 49 92
REMARK H PARENT 7 7 14 29 70 48 40 59
REMARK Flexibility Score: inf
ROOT
ATOM      1  C   UNL A   1      36.604  23.617  25.345  1.00  0.00     0.002 C 
ENDROOT
BRANCH   1   2
ATOM      2  C   UNL A   1      35.784  22.670  24.461  1.00  0.00     0.021 C 
BRANCH   2   3
ATOM      3  C   UNL A   1      35.332  23.207  23.093  1.00  0.00     0.116 C 
BRANCH   3   4
ATOM      4  N   UNL A   1      34.029  22.687  22.682  1.00  0.00    -0.356 N 
ATOM      5  C   UNL A   1      32.835  22.379  23.247  1.00  0.00     0.224 C 
ATOM      6  O   UNL A   1      32.086  21.735  22.494  1.00  0.00    -0.275 OA
ATOM      7  H   UNL A   1      34.014  22.510  21.714  1.00  0.00     0.163 HD
BRANCH   5   8
ATOM      8  C   UNL A   1      32.254  22.799  24.636  1.00  0.00     0.098 C 
ATOM      9  C   UNL A   1      31.723  21.556  25.345  1.00  0.00     0.020 C 
BRANCH   8  10
ATOM     10  C   UNL A   1      31.676  24.269  24.909  1.00  0.00     0.098 C 
ATOM     11  C   UNL A   1      31.973  24.606  26.395  1.00  0.00     0.032 C 
BRANCH  10  12
ATOM     12  N   UNL A   1      32.061  25.444  24.125  1.00  0.00    -0.323 N 
ATOM     13  C   UNL A   1      31.259  25.841  23.115  1.00  0.00     0.124 A 
ATOM     14  C   UNL A   1      33.006  26.460  24.026  1.00  0.00     0.068 A 
ATOM     15  N   UNL A   1      31.995  26.012  22.043  1.00  0.00    -0.232 NA
ATOM     16  C   UNL A   1      33.009  26.704  22.623  1.00  0.00     0.089 A 
ATOM     17  C   UNL A   1      33.508  27.443  24.889  1.00  0.00     0.028 A 
ATOM     18  C   UNL A   1      33.701  27.767  22.031  1.00  0.00     0.030 A 
ATOM     19  C   UNL A   1      33.976  28.634  24.275  1.00  0.00     0.002 A 
ATOM     20  C   UNL A   1      34.110  28.781  22.887  1.00  0.00     0.002 A 
BRANCH  13  21
ATOM     21  C   UNL A   1      30.105  26.581  23.531  1.00  0.00     0.195 C 
BRANCH  21  22
ATOM     22  C   UNL A   1      29.639  27.875  22.884  1.00  0.00     0.070 C 
ATOM     23  N   UNL A   1      29.252  28.949  22.347  1.00  0.00    -0.198 NA
ENDBRANCH  21  22
ENDBRANCH  13  21
ENDBRANCH  10  12
ENDBRANCH   8  10
ENDBRANCH   5   8
ENDBRANCH   3   4
ENDBRANCH   2   3
ENDBRANCH   1   2
BRANCH   1  24
ATOM     24  C   UNL A   1      37.921  23.064  25.907  1.00  0.00     0.002 C 
BRANCH  24  25
ATOM     25  C   UNL A   1      38.819  24.052  26.660  1.00  0.00     0.021 C 
BRANCH  25  26
ATOM     26  C   UNL A   1      40.284  23.643  26.820  1.00  0.00     0.116 C 
BRANCH  26  27
ATOM     27  N   UNL A   1      41.170  24.349  25.907  1.00  0.00    -0.352 N 
ATOM     28  C   UNL A   1      41.709  25.606  26.010  1.00  0.00     0.251 C 
ATOM     29  H   UNL A   1      41.419  23.851  25.095  1.00  0.00     0.163 HD
ATOM     30  O   UNL A   1      42.300  26.095  25.038  1.00  0.00    -0.269 OA
BRANCH  28  31
ATOM     31  C   UNL A   1      41.579  26.392  27.255  1.00  0.00     0.039 A 
ATOM     32  C   UNL A   1      42.297  27.584  27.387  1.00  0.00     0.014 A 
ATOM     33  C   UNL A   1      40.772  25.948  28.307  1.00  0.00     0.014 A 
ATOM     34  C   UNL A   1      42.159  28.358  28.543  1.00  0.00     0.010 A 
ATOM     35  C   UNL A   1      40.580  26.755  29.429  1.00  0.00     0.010 A 
ATOM     36  C   UNL A   1      41.275  27.967  29.562  1.00  0.00    -0.014 A 
BRANCH  36  37
ATOM     37  C   UNL A   1      41.065  28.813  30.767  1.00  0.00     0.031 A 
ATOM     38  C   UNL A   1      39.963  29.841  30.795  1.00  0.00     0.074 A 
ATOM     39  C   UNL A   1      41.898  28.694  31.821  1.00  0.00     0.049 A 
ATOM     40  N   UNL A   1      39.656  30.695  31.737  1.00  0.00    -0.248 NA
ATOM     41  C   UNL A   1      39.112  29.938  29.598  1.00  0.00     0.031 C 
ATOM     42  C   UNL A   1      43.028  27.765  31.906  1.00  0.00     0.029 A 
ATOM     43  N   UNL A   1      41.930  29.362  33.020  1.00  0.00    -0.354 N 
ATOM     44  C   UNL A   1      38.588  31.438  31.244  1.00  0.00     0.074 A 
ATOM     45  C   UNL A   1      38.336  30.968  29.899  1.00  0.00     0.031 C 
ATOM     46  C   UNL A   1      43.621  27.901  33.102  1.00  0.00     0.029 A 
ATOM     47  C   UNL A   1      42.946  28.955  33.853  1.00  0.00     0.049 A 
ATOM     48  H   UNL A   1      41.286  30.066  33.261  1.00  0.00     0.167 HD
ATOM     49  C   UNL A   1      37.871  32.409  31.859  1.00  0.00     0.031 A 
ATOM     50  C   UNL A   1      43.302  29.384  35.080  1.00  0.00     0.031 A 
ATOM     51  C   UNL A   1      38.121  32.870  33.200  1.00  0.00     0.049 A 
ATOM     52  C   UNL A   1      42.499  30.474  35.738  1.00  0.00     0.074 A 
ATOM     53  C   UNL A   1      37.416  33.811  33.931  1.00  0.00     0.029 A 
ATOM     54  N   UNL A   1      39.156  32.428  34.011  1.00  0.00    -0.354 N 
ATOM     55  N   UNL A   1      41.451  31.116  35.279  1.00  0.00    -0.248 NA
ATOM     56  C   UNL A   1      42.918  30.886  37.085  1.00  0.00     0.031 C 
ATOM     57  C   UNL A   1      38.061  33.980  35.161  1.00  0.00     0.029 A 
ATOM     58  C   UNL A   1      39.125  33.096  35.223  1.00  0.00     0.049 A 
ATOM     59  H   UNL A   1      39.816  31.741  33.761  1.00  0.00     0.167 HD
ATOM     60  C   UNL A   1      41.068  31.988  36.293  1.00  0.00     0.074 A 
ATOM     61  C   UNL A   1      41.986  31.777  37.394  1.00  0.00     0.031 C 
ATOM     62  C   UNL A   1      40.046  32.880  36.311  1.00  0.00     0.031 A 
BRANCH  49  63
ATOM     63  C   UNL A   1      36.748  33.047  31.082  1.00  0.00    -0.014 A 
ATOM     64  C   UNL A   1      35.403  32.740  31.359  1.00  0.00     0.010 A 
ATOM     65  C   UNL A   1      37.037  34.003  30.090  1.00  0.00     0.010 A 
ATOM     66  C   UNL A   1      34.372  33.342  30.631  1.00  0.00     0.020 A 
ATOM     67  C   UNL A   1      36.009  34.631  29.380  1.00  0.00     0.020 A 
ATOM     68  C   UNL A   1      34.683  34.282  29.645  1.00  0.00     0.054 A 
BRANCH  68  69
ATOM     69  S   UNL A   1      33.323  35.065  28.733  1.00  0.00     0.124 S 
ATOM     70  O   UNL A   1      34.038  36.016  27.885  1.00  0.00    -0.237 OA
ATOM     71  O   UNL A   1      32.715  33.935  28.034  1.00  0.00    -0.237 OA
ATOM     72  O   UNL A   1      32.499  35.662  29.780  1.00  0.00    -0.744 OA
ENDBRANCH  68  69
ENDBRANCH  49  63
BRANCH  50  73
ATOM     73  C   UNL A   1      44.469  28.771  35.774  1.00  0.00    -0.014 A 
ATOM     74  C   UNL A   1      45.769  29.263  35.561  1.00  0.00     0.010 A 
ATOM     75  C   UNL A   1      44.284  27.695  36.662  1.00  0.00     0.010 A 
ATOM     76  C   UNL A   1      46.864  28.680  36.207  1.00  0.00     0.020 A 
ATOM     77  C   UNL A   1      45.372  27.129  37.334  1.00  0.00     0.020 A 
ATOM     78  C   UNL A   1      46.657  27.618  37.092  1.00  0.00     0.054 A 
BRANCH  78  79
ATOM     79  S   UNL A   1      48.086  26.911  37.959  1.00  0.00     0.124 S 
ATOM     80  O   UNL A   1      47.481  26.424  39.195  1.00  0.00    -0.237 OA
ATOM     81  O   UNL A   1      48.541  25.882  37.027  1.00  0.00    -0.237 OA
ATOM     82  O   UNL A   1      48.991  28.048  38.109  1.00  0.00    -0.744 OA
ENDBRANCH  78  79
ENDBRANCH  50  73
BRANCH  62  83
ATOM     83  C   UNL A   1      39.838  33.672  37.576  1.00  0.00    -0.014 A 
ATOM     84  C   UNL A   1      40.460  34.917  37.771  1.00  0.00     0.010 A 
ATOM     85  C   UNL A   1      38.964  33.180  38.563  1.00  0.00     0.010 A 
ATOM     86  C   UNL A   1      40.240  35.640  38.948  1.00  0.00     0.020 A 
ATOM     87  C   UNL A   1      38.716  33.914  39.725  1.00  0.00     0.020 A 
ATOM     88  C   UNL A   1      39.368  35.134  39.917  1.00  0.00     0.054 A 
BRANCH  88  89
ATOM     89  S   UNL A   1      39.070  36.109  41.417  1.00  0.00     0.124 S 
ATOM     90  O   UNL A   1      40.281  35.853  42.192  1.00  0.00    -0.237 OA
ATOM     91  O   UNL A   1      38.933  37.466  40.895  1.00  0.00    -0.237 OA
ATOM     92  O   UNL A   1      37.845  35.533  41.968  1.00  0.00    -0.744 OA
ENDBRANCH  88  89
ENDBRANCH  62  83
ENDBRANCH  36  37
ENDBRANCH  28  31
ENDBRANCH  26  27
ENDBRANCH  25  26
ENDBRANCH  24  25
ENDBRANCH   1  24
TORSDOF 20
ENDMDL
