MODEL 1
REMARK VINA RESULT:     -11.4      0.000      0.000
REMARK SMILES O=C(NCCCCCCNC(=O)[C@H]1C[N@H+](Cc2cccc(Cl)c2)CC12CCCCC2)c1ccc(-c2c3nc(c(-c4ccc(S(=O)(=O)[O-])cc4)c4ccc([nH]4)c(-c4ccc(S(=O)(=O)[O-])cc4)c4nc(c(-c5ccc(S(=O)(=O)[O-])cc5)c5ccc2[nH]5)C=C4)C=C3)cc1
REMARK SMILES IDX 6 1 5 2 4 3 3 4 1 5 2 6 31 8 32 9 90 10 33 11 89 12 34 13
REMARK SMILES IDX 35 14 36 15 83 16 37 17 88 18 82 19 84 20 38 21 87 22 81 23
REMARK SMILES IDX 80 24 39 26 69 27 50 28 68 29 51 30 54 31 67 32 85 33 52 34
REMARK SMILES IDX 53 35 66 37 86 38 55 39 40 40 41 41 49 42 42 43 48 44 43 45
REMARK SMILES IDX 44 46 45 47 46 48 47 49 70 50 71 51 79 52 72 53 78 54 73 55
REMARK SMILES IDX 74 56 75 57 76 58 77 59 56 60 57 61 65 62 58 63 64 64 59 65
REMARK SMILES IDX 60 66 61 67 62 68 63 69 7 70 8 71 9 72 10 73 11 74 12 76
REMARK SMILES IDX 13 77 14 78 25 79 15 80 24 81 26 82 30 83 27 85 29 86 28 87
REMARK SMILES IDX 16 88 17 89 18 90 23 91 19 92 21 93 20 94 22 95
REMARK H PARENT 3 7 84 25 54 36 10 75 15 84
REMARK Flexibility Score: inf
ROOT
ATOM      1  C   UNL A   1      31.730  30.552  26.687  1.00  0.00     0.002 C 
ENDROOT
BRANCH   1   2
ATOM      2  C   UNL A   1      31.742  32.079  26.744  1.00  0.00     0.021 C 
BRANCH   2   3
ATOM      3  C   UNL A   1      33.009  32.692  27.327  1.00  0.00     0.116 C 
BRANCH   3   4
ATOM      4  N   UNL A   1      32.814  34.067  27.755  1.00  0.00    -0.352 N 
ATOM      5  O   UNL A   1      33.029  35.865  29.097  1.00  0.00    -0.269 OA
ATOM      6  C   UNL A   1      33.441  34.758  28.761  1.00  0.00     0.251 C 
ATOM      7  H   UNL A   1      32.136  34.575  27.252  1.00  0.00     0.163 HD
BRANCH   6   8
ATOM      8  C   UNL A   1      34.598  34.152  29.455  1.00  0.00     0.039 A 
ATOM      9  C   UNL A   1      34.407  33.301  30.546  1.00  0.00     0.014 A 
ATOM     10  C   UNL A   1      35.890  34.436  29.004  1.00  0.00     0.014 A 
ATOM     11  C   UNL A   1      35.505  32.844  31.266  1.00  0.00     0.010 A 
ATOM     12  C   UNL A   1      36.994  33.906  29.680  1.00  0.00     0.010 A 
ATOM     13  C   UNL A   1      36.811  33.129  30.834  1.00  0.00    -0.014 A 
BRANCH  13  14
ATOM     14  C   UNL A   1      37.962  32.546  31.569  1.00  0.00     0.031 A 
ATOM     15  C   UNL A   1      38.372  33.065  32.919  1.00  0.00     0.074 A 
ATOM     16  C   UNL A   1      38.621  31.510  31.013  1.00  0.00     0.049 A 
ATOM     17  N   UNL A   1      39.323  32.636  33.709  1.00  0.00    -0.248 NA
ATOM     18  C   UNL A   1      37.623  34.215  33.453  1.00  0.00     0.031 C 
ATOM     19  C   UNL A   1      38.319  30.925  29.703  1.00  0.00     0.029 A 
ATOM     20  N   UNL A   1      39.660  30.750  31.483  1.00  0.00    -0.354 N 
ATOM     21  C   UNL A   1      39.305  33.470  34.821  1.00  0.00     0.074 A 
ATOM     22  C   UNL A   1      38.260  34.447  34.595  1.00  0.00     0.031 C 
ATOM     23  C   UNL A   1      39.114  29.863  29.501  1.00  0.00     0.029 A 
ATOM     24  C   UNL A   1      40.023  29.731  30.634  1.00  0.00     0.049 A 
ATOM     25  H   UNL A   1      40.104  30.916  32.346  1.00  0.00     0.167 HD
ATOM     26  C   UNL A   1      40.083  33.424  35.929  1.00  0.00     0.031 A 
ATOM     27  C   UNL A   1      40.985  28.797  30.744  1.00  0.00     0.031 A 
ATOM     28  C   UNL A   1      41.125  32.452  36.148  1.00  0.00     0.049 A 
ATOM     29  C   UNL A   1      41.850  28.785  31.970  1.00  0.00     0.074 A 
ATOM     30  C   UNL A   1      41.950  32.306  37.249  1.00  0.00     0.029 A 
ATOM     31  N   UNL A   1      41.488  31.463  35.244  1.00  0.00    -0.354 N 
ATOM     32  N   UNL A   1      41.794  29.565  33.024  1.00  0.00    -0.248 NA
ATOM     33  C   UNL A   1      42.907  27.767  32.023  1.00  0.00     0.031 C 
ATOM     34  C   UNL A   1      42.844  31.261  36.993  1.00  0.00     0.029 A 
ATOM     35  C   UNL A   1      42.540  30.719  35.753  1.00  0.00     0.049 A 
ATOM     36  H   UNL A   1      41.062  31.312  34.370  1.00  0.00     0.167 HD
ATOM     37  C   UNL A   1      42.799  29.121  33.873  1.00  0.00     0.074 A 
ATOM     38  C   UNL A   1      43.433  27.993  33.219  1.00  0.00     0.031 C 
ATOM     39  C   UNL A   1      43.165  29.605  35.086  1.00  0.00     0.031 A 
BRANCH  26  40
ATOM     40  C   UNL A   1      39.859  34.476  36.984  1.00  0.00    -0.014 A 
ATOM     41  C   UNL A   1      39.011  34.239  38.082  1.00  0.00     0.010 A 
ATOM     42  C   UNL A   1      40.536  35.707  36.898  1.00  0.00     0.010 A 
ATOM     43  C   UNL A   1      38.812  35.230  39.049  1.00  0.00     0.020 A 
ATOM     44  C   UNL A   1      40.360  36.690  37.876  1.00  0.00     0.020 A 
ATOM     45  C   UNL A   1      39.483  36.452  38.936  1.00  0.00     0.054 A 
BRANCH  45  46
ATOM     46  S   UNL A   1      39.211  37.716  40.210  1.00  0.00     0.124 S 
ATOM     47  O   UNL A   1      38.858  36.901  41.369  1.00  0.00    -0.237 OA
ATOM     48  O   UNL A   1      40.509  38.382  40.284  1.00  0.00    -0.237 OA
ATOM     49  O   UNL A   1      38.126  38.529  39.665  1.00  0.00    -0.744 OA
ENDBRANCH  45  46
ENDBRANCH  26  40
BRANCH  27  50
ATOM     50  C   UNL A   1      41.176  27.805  29.655  1.00  0.00    -0.014 A 
ATOM     51  C   UNL A   1      40.152  26.900  29.324  1.00  0.00     0.010 A 
ATOM     52  C   UNL A   1      42.374  27.784  28.916  1.00  0.00     0.010 A 
ATOM     53  C   UNL A   1      40.328  25.986  28.282  1.00  0.00     0.020 A 
ATOM     54  C   UNL A   1      42.542  26.890  27.857  1.00  0.00     0.020 A 
ATOM     55  C   UNL A   1      41.521  25.988  27.553  1.00  0.00     0.054 A 
BRANCH  55  56
ATOM     56  S   UNL A   1      41.704  24.835  26.164  1.00  0.00     0.124 S 
ATOM     57  O   UNL A   1      43.144  24.869  25.932  1.00  0.00    -0.237 OA
ATOM     58  O   UNL A   1      41.181  23.588  26.717  1.00  0.00    -0.237 OA
ATOM     59  O   UNL A   1      40.884  25.434  25.114  1.00  0.00    -0.744 OA
ENDBRANCH  55  56
ENDBRANCH  27  50
BRANCH  39  60
ATOM     60  C   UNL A   1      44.289  28.898  35.792  1.00  0.00    -0.014 A 
ATOM     61  C   UNL A   1      44.038  27.838  36.682  1.00  0.00     0.010 A 
ATOM     62  C   UNL A   1      45.618  29.282  35.540  1.00  0.00     0.010 A 
ATOM     63  C   UNL A   1      45.095  27.201  37.337  1.00  0.00     0.020 A 
ATOM     64  C   UNL A   1      46.680  28.630  36.172  1.00  0.00     0.020 A 
ATOM     65  C   UNL A   1      46.409  27.604  37.080  1.00  0.00     0.054 A 
BRANCH  65  66
ATOM     66  S   UNL A   1      47.768  26.742  37.918  1.00  0.00     0.124 S 
ATOM     67  O   UNL A   1      47.090  25.574  38.471  1.00  0.00    -0.237 OA
ATOM     68  O   UNL A   1      48.700  26.471  36.826  1.00  0.00    -0.237 OA
ATOM     69  O   UNL A   1      48.238  27.716  38.902  1.00  0.00    -0.744 OA
ENDBRANCH  65  66
ENDBRANCH  39  60
ENDBRANCH  13  14
ENDBRANCH   6   8
ENDBRANCH   3   4
ENDBRANCH   2   3
ENDBRANCH   1   2
BRANCH   1  70
ATOM     70  C   UNL A   1      33.079  29.873  26.944  1.00  0.00     0.002 C 
BRANCH  70  71
ATOM     71  C   UNL A   1      33.009  28.512  27.639  1.00  0.00     0.021 C 
BRANCH  71  72
ATOM     72  C   UNL A   1      32.901  27.321  26.693  1.00  0.00     0.116 C 
BRANCH  72  73
ATOM     73  N   UNL A   1      31.645  26.614  26.857  1.00  0.00    -0.356 N 
ATOM     74  C   UNL A   1      31.071  25.655  26.075  1.00  0.00     0.229 C 
ATOM     75  H   UNL A   1      31.126  26.866  27.655  1.00  0.00     0.163 HD
ATOM     76  O   UNL A   1      30.014  25.149  26.455  1.00  0.00    -0.275 OA
BRANCH  74  77
ATOM     77  C   UNL A   1      31.744  25.262  24.773  1.00  0.00     0.145 C 
ATOM     78  C   UNL A   1      31.081  24.037  24.157  1.00  0.00     0.276 C 
ATOM     79  C   UNL A   1      31.773  26.324  23.639  1.00  0.00     0.037 C 
ATOM     80  N   UNL A   1      31.480  24.054  22.754  1.00  0.00    -0.330 N 
ATOM     81  C   UNL A   1      31.511  25.465  22.363  1.00  0.00     0.270 C 
ATOM     82  C   UNL A   1      30.703  27.437  23.787  1.00  0.00     0.014 C 
ATOM     83  C   UNL A   1      33.147  27.033  23.605  1.00  0.00     0.014 C 
ATOM     84  H   UNL A   1      30.795  23.555  22.188  1.00  0.00     0.348 HD
ATOM     85  C   UNL A   1      30.803  28.515  22.699  1.00  0.00     0.001 C 
ATOM     86  C   UNL A   1      33.277  28.053  22.478  1.00  0.00     0.001 C 
ATOM     87  C   UNL A   1      32.200  29.121  22.597  1.00  0.00     0.000 C 
BRANCH  80  88
ATOM     88  C   UNL A   1      32.635  23.227  22.378  1.00  0.00     0.299 C 
BRANCH  88  89
ATOM     89  C   UNL A   1      33.110  22.157  23.340  1.00  0.00     0.008 A 
ATOM     90  C   UNL A   1      34.198  22.380  24.199  1.00  0.00     0.009 A 
ATOM     91  C   UNL A   1      32.477  20.903  23.377  1.00  0.00     0.030 A 
ATOM     92  C   UNL A   1      34.699  21.352  25.003  1.00  0.00     0.002 A 
ATOM     93  C   UNL A   1      32.975  19.881  24.188  1.00  0.00     0.041 A 
ATOM     94  C   UNL A   1      34.095  20.095  24.988  1.00  0.00     0.020 A 
ATOM     95  Cl  UNL A   1      32.237  18.328  24.148  1.00  0.00    -0.084 Cl
ENDBRANCH  88  89
ENDBRANCH  80  88
ENDBRANCH  74  77
ENDBRANCH  72  73
ENDBRANCH  71  72
ENDBRANCH  70  71
ENDBRANCH   1  70
TORSDOF 18
ENDMDL
MODEL 2
REMARK VINA RESULT:     -11.3      6.416     10.219
REMARK SMILES O=C(NCCCCCCNC(=O)[C@H]1C[N@H+](Cc2cccc(Cl)c2)CC12CCCCC2)c1ccc(-c2c3nc(c(-c4ccc(S(=O)(=O)[O-])cc4)c4ccc([nH]4)c(-c4ccc(S(=O)(=O)[O-])cc4)c4nc(c(-c5ccc(S(=O)(=O)[O-])cc5)c5ccc2[nH]5)C=C4)C=C3)cc1
REMARK SMILES IDX 6 1 5 2 4 3 3 4 1 5 2 6 31 8 32 9 90 10 33 11 89 12 34 13
REMARK SMILES IDX 35 14 36 15 83 16 37 17 88 18 82 19 84 20 38 21 87 22 81 23
REMARK SMILES IDX 80 24 39 26 69 27 50 28 68 29 51 30 54 31 67 32 85 33 52 34
REMARK SMILES IDX 53 35 66 37 86 38 55 39 40 40 41 41 49 42 42 43 48 44 43 45
REMARK SMILES IDX 44 46 45 47 46 48 47 49 70 50 71 51 79 52 72 53 78 54 73 55
REMARK SMILES IDX 74 56 75 57 76 58 77 59 56 60 57 61 65 62 58 63 64 64 59 65
REMARK SMILES IDX 60 66 61 67 62 68 63 69 7 70 8 71 9 72 10 73 11 74 12 76
REMARK SMILES IDX 13 77 14 78 25 79 15 80 24 81 26 82 30 83 27 85 29 86 28 87
REMARK SMILES IDX 16 88 17 89 18 90 23 91 19 92 21 93 20 94 22 95
REMARK H PARENT 3 7 84 25 54 36 10 75 15 84
REMARK Flexibility Score: inf
ROOT
ATOM      1  C   UNL A   1      39.620  22.511  26.882  1.00  0.00     0.002 C 
ENDROOT
BRANCH   1   2
ATOM      2  C   UNL A   1      39.724  21.130  26.234  1.00  0.00     0.021 C 
BRANCH   2   3
ATOM      3  C   UNL A   1      40.401  20.067  27.089  1.00  0.00     0.116 C 
BRANCH   3   4
ATOM      4  N   UNL A   1      41.382  19.296  26.343  1.00  0.00    -0.352 N 
ATOM      5  O   UNL A   1      43.160  18.959  25.000  1.00  0.00    -0.269 OA
ATOM      6  C   UNL A   1      42.537  19.720  25.735  1.00  0.00     0.251 C 
ATOM      7  H   UNL A   1      41.190  18.334  26.261  1.00  0.00     0.163 HD
BRANCH   6   8
ATOM      8  C   UNL A   1      43.013  21.104  25.951  1.00  0.00     0.039 A 
ATOM      9  C   UNL A   1      43.453  21.517  27.211  1.00  0.00     0.014 A 
ATOM     10  C   UNL A   1      43.024  21.997  24.876  1.00  0.00     0.014 A 
ATOM     11  C   UNL A   1      43.774  22.852  27.427  1.00  0.00     0.010 A 
ATOM     12  C   UNL A   1      43.429  23.321  25.077  1.00  0.00     0.010 A 
ATOM     13  C   UNL A   1      43.779  23.766  26.361  1.00  0.00    -0.014 A 
BRANCH  13  14
ATOM     14  C   UNL A   1      44.221  25.163  26.605  1.00  0.00     0.031 A 
ATOM     15  C   UNL A   1      43.294  26.182  27.209  1.00  0.00     0.074 A 
ATOM     16  C   UNL A   1      45.491  25.498  26.302  1.00  0.00     0.049 A 
ATOM     17  N   UNL A   1      43.540  27.427  27.527  1.00  0.00    -0.248 NA
ATOM     18  C   UNL A   1      41.915  25.752  27.490  1.00  0.00     0.031 C 
ATOM     19  C   UNL A   1      46.480  24.596  25.704  1.00  0.00     0.029 A 
ATOM     20  N   UNL A   1      46.176  26.672  26.476  1.00  0.00    -0.354 N 
ATOM     21  C   UNL A   1      42.347  27.939  28.025  1.00  0.00     0.074 A 
ATOM     22  C   UNL A   1      41.370  26.873  27.947  1.00  0.00     0.031 C 
ATOM     23  C   UNL A   1      47.658  25.231  25.615  1.00  0.00     0.029 A 
ATOM     24  C   UNL A   1      47.494  26.601  26.088  1.00  0.00     0.049 A 
ATOM     25  H   UNL A   1      45.766  27.488  26.844  1.00  0.00     0.167 HD
ATOM     26  C   UNL A   1      42.091  29.179  28.506  1.00  0.00     0.031 A 
ATOM     27  C   UNL A   1      48.463  27.534  26.099  1.00  0.00     0.031 A 
ATOM     28  C   UNL A   1      43.067  30.238  28.577  1.00  0.00     0.049 A 
ATOM     29  C   UNL A   1      48.145  28.907  26.613  1.00  0.00     0.074 A 
ATOM     30  C   UNL A   1      42.911  31.521  29.072  1.00  0.00     0.029 A 
ATOM     31  N   UNL A   1      44.378  30.137  28.135  1.00  0.00    -0.354 N 
ATOM     32  N   UNL A   1      47.017  29.359  27.108  1.00  0.00    -0.248 NA
ATOM     33  C   UNL A   1      49.230  29.896  26.571  1.00  0.00     0.031 C 
ATOM     34  C   UNL A   1      44.114  32.211  28.887  1.00  0.00     0.029 A 
ATOM     35  C   UNL A   1      45.036  31.342  28.325  1.00  0.00     0.049 A 
ATOM     36  H   UNL A   1      44.783  29.330  27.744  1.00  0.00     0.167 HD
ATOM     37  C   UNL A   1      47.262  30.683  27.452  1.00  0.00     0.074 A 
ATOM     38  C   UNL A   1      48.650  30.950  27.126  1.00  0.00     0.031 C 
ATOM     39  C   UNL A   1      46.414  31.595  27.987  1.00  0.00     0.031 A 
BRANCH  26  40
ATOM     40  C   UNL A   1      40.687  29.473  28.968  1.00  0.00    -0.014 A 
ATOM     41  C   UNL A   1      40.361  29.502  30.337  1.00  0.00     0.010 A 
ATOM     42  C   UNL A   1      39.687  29.762  28.022  1.00  0.00     0.010 A 
ATOM     43  C   UNL A   1      39.052  29.773  30.747  1.00  0.00     0.020 A 
ATOM     44  C   UNL A   1      38.382  30.058  28.429  1.00  0.00     0.020 A 
ATOM     45  C   UNL A   1      38.068  30.042  29.789  1.00  0.00     0.054 A 
BRANCH  45  46
ATOM     46  S   UNL A   1      36.379  30.397  30.350  1.00  0.00     0.124 S 
ATOM     47  O   UNL A   1      36.339  29.701  31.634  1.00  0.00    -0.237 OA
ATOM     48  O   UNL A   1      36.365  31.855  30.427  1.00  0.00    -0.237 OA
ATOM     49  O   UNL A   1      35.539  29.821  29.303  1.00  0.00    -0.744 OA
ENDBRANCH  45  46
ENDBRANCH  26  40
BRANCH  27  50
ATOM     50  C   UNL A   1      49.821  27.190  25.602  1.00  0.00    -0.014 A 
ATOM     51  C   UNL A   1      50.179  27.443  24.266  1.00  0.00     0.010 A 
ATOM     52  C   UNL A   1      50.777  26.640  26.476  1.00  0.00     0.010 A 
ATOM     53  C   UNL A   1      51.466  27.142  23.812  1.00  0.00     0.020 A 
ATOM     54  C   UNL A   1      52.072  26.364  26.031  1.00  0.00     0.020 A 
ATOM     55  C   UNL A   1      52.405  26.607  24.698  1.00  0.00     0.054 A 
BRANCH  55  56
ATOM     56  S   UNL A   1      54.087  26.281  24.103  1.00  0.00     0.124 S 
ATOM     57  O   UNL A   1      54.377  24.987  24.712  1.00  0.00    -0.237 OA
ATOM     58  O   UNL A   1      53.914  26.273  22.652  1.00  0.00    -0.237 OA
ATOM     59  O   UNL A   1      54.858  27.408  24.624  1.00  0.00    -0.744 OA
ENDBRANCH  55  56
ENDBRANCH  27  50
BRANCH  39  60
ATOM     60  C   UNL A   1      46.974  32.960  28.276  1.00  0.00    -0.014 A 
ATOM     61  C   UNL A   1      46.902  33.994  27.325  1.00  0.00     0.010 A 
ATOM     62  C   UNL A   1      47.557  33.220  29.530  1.00  0.00     0.010 A 
ATOM     63  C   UNL A   1      47.439  35.252  27.609  1.00  0.00     0.020 A 
ATOM     64  C   UNL A   1      48.070  34.485  29.827  1.00  0.00     0.020 A 
ATOM     65  C   UNL A   1      48.023  35.488  28.858  1.00  0.00     0.054 A 
BRANCH  65  66
ATOM     66  S   UNL A   1      48.686  37.139  29.215  1.00  0.00     0.124 S 
ATOM     67  O   UNL A   1      48.157  37.924  28.104  1.00  0.00    -0.237 OA
ATOM     68  O   UNL A   1      48.114  37.439  30.526  1.00  0.00    -0.237 OA
ATOM     69  O   UNL A   1      50.133  36.938  29.205  1.00  0.00    -0.744 OA
ENDBRANCH  65  66
ENDBRANCH  39  60
ENDBRANCH  13  14
ENDBRANCH   6   8
ENDBRANCH   3   4
ENDBRANCH   2   3
ENDBRANCH   1   2
BRANCH   1  70
ATOM     70  C   UNL A   1      39.226  23.652  25.939  1.00  0.00     0.002 C 
BRANCH  70  71
ATOM     71  C   UNL A   1      37.757  24.076  25.998  1.00  0.00     0.021 C 
BRANCH  71  72
ATOM     72  C   UNL A   1      36.759  22.937  25.820  1.00  0.00     0.116 C 
BRANCH  72  73
ATOM     73  N   UNL A   1      35.741  22.945  26.854  1.00  0.00    -0.356 N 
ATOM     74  C   UNL A   1      34.476  22.436  26.841  1.00  0.00     0.229 C 
ATOM     75  H   UNL A   1      36.005  23.385  27.694  1.00  0.00     0.163 HD
ATOM     76  O   UNL A   1      33.809  22.509  27.874  1.00  0.00    -0.275 OA
BRANCH  74  77
ATOM     77  C   UNL A   1      33.939  21.821  25.562  1.00  0.00     0.145 C 
ATOM     78  C   UNL A   1      32.900  20.748  25.860  1.00  0.00     0.276 C 
ATOM     79  C   UNL A   1      33.258  22.777  24.544  1.00  0.00     0.037 C 
ATOM     80  N   UNL A   1      32.152  20.588  24.618  1.00  0.00    -0.330 N 
ATOM     81  C   UNL A   1      32.054  21.927  24.033  1.00  0.00     0.270 C 
ATOM     82  C   UNL A   1      32.772  24.115  25.159  1.00  0.00     0.014 C 
ATOM     83  C   UNL A   1      34.246  23.145  23.413  1.00  0.00     0.014 C 
ATOM     84  H   UNL A   1      31.219  20.228  24.814  1.00  0.00     0.348 HD
ATOM     85  C   UNL A   1      32.174  25.072  24.120  1.00  0.00     0.001 C 
ATOM     86  C   UNL A   1      33.634  24.037  22.337  1.00  0.00     0.001 C 
ATOM     87  C   UNL A   1      33.117  25.331  22.947  1.00  0.00     0.000 C 
BRANCH  80  88
ATOM     88  C   UNL A   1      32.565  19.494  23.727  1.00  0.00     0.299 C 
BRANCH  88  89
ATOM     89  C   UNL A   1      33.206  18.263  24.333  1.00  0.00     0.008 A 
ATOM     90  C   UNL A   1      34.592  18.049  24.253  1.00  0.00     0.009 A 
ATOM     91  C   UNL A   1      32.417  17.293  24.974  1.00  0.00     0.030 A 
ATOM     92  C   UNL A   1      35.162  16.859  24.715  1.00  0.00     0.002 A 
ATOM     93  C   UNL A   1      32.991  16.109  25.443  1.00  0.00     0.041 A 
ATOM     94  C   UNL A   1      34.358  15.881  25.300  1.00  0.00     0.020 A 
ATOM     95  Cl  UNL A   1      31.990  14.899  26.144  1.00  0.00    -0.084 Cl
ENDBRANCH  88  89
ENDBRANCH  80  88
ENDBRANCH  74  77
ENDBRANCH  72  73
ENDBRANCH  71  72
ENDBRANCH  70  71
ENDBRANCH   1  70
TORSDOF 18
ENDMDL
MODEL 3
REMARK VINA RESULT:     -11.0      6.253     11.838
REMARK SMILES O=C(NCCCCCCNC(=O)[C@H]1C[N@H+](Cc2cccc(Cl)c2)CC12CCCCC2)c1ccc(-c2c3nc(c(-c4ccc(S(=O)(=O)[O-])cc4)c4ccc([nH]4)c(-c4ccc(S(=O)(=O)[O-])cc4)c4nc(c(-c5ccc(S(=O)(=O)[O-])cc5)c5ccc2[nH]5)C=C4)C=C3)cc1
REMARK SMILES IDX 6 1 5 2 4 3 3 4 1 5 2 6 31 8 32 9 90 10 33 11 89 12 34 13
REMARK SMILES IDX 35 14 36 15 83 16 37 17 88 18 82 19 84 20 38 21 87 22 81 23
REMARK SMILES IDX 80 24 39 26 69 27 50 28 68 29 51 30 54 31 67 32 85 33 52 34
REMARK SMILES IDX 53 35 66 37 86 38 55 39 40 40 41 41 49 42 42 43 48 44 43 45
REMARK SMILES IDX 44 46 45 47 46 48 47 49 70 50 71 51 79 52 72 53 78 54 73 55
REMARK SMILES IDX 74 56 75 57 76 58 77 59 56 60 57 61 65 62 58 63 64 64 59 65
REMARK SMILES IDX 60 66 61 67 62 68 63 69 7 70 8 71 9 72 10 73 11 74 12 76
REMARK SMILES IDX 13 77 14 78 25 79 15 80 24 81 26 82 30 83 27 85 29 86 28 87
REMARK SMILES IDX 16 88 17 89 18 90 23 91 19 92 21 93 20 94 22 95
REMARK H PARENT 3 7 84 25 54 36 10 75 15 84
REMARK Flexibility Score: inf
ROOT
ATOM      1  C   UNL A   1      39.527  22.559  26.529  1.00  0.00     0.002 C 
ENDROOT
BRANCH   1   2
ATOM      2  C   UNL A   1      39.444  21.171  25.894  1.00  0.00     0.021 C 
BRANCH   2   3
ATOM      3  C   UNL A   1      39.967  20.034  26.763  1.00  0.00     0.116 C 
BRANCH   3   4
ATOM      4  N   UNL A   1      41.039  19.292  26.121  1.00  0.00    -0.352 N 
ATOM      5  O   UNL A   1      42.989  19.006  25.028  1.00  0.00    -0.269 OA
ATOM      6  C   UNL A   1      42.272  19.734  25.710  1.00  0.00     0.251 C 
ATOM      7  H   UNL A   1      40.855  18.339  25.958  1.00  0.00     0.163 HD
BRANCH   6   8
ATOM      8  C   UNL A   1      42.720  21.096  26.069  1.00  0.00     0.039 A 
ATOM      9  C   UNL A   1      42.917  22.064  25.082  1.00  0.00     0.014 A 
ATOM     10  C   UNL A   1      42.940  21.410  27.413  1.00  0.00     0.014 A 
ATOM     11  C   UNL A   1      43.462  23.298  25.422  1.00  0.00     0.010 A 
ATOM     12  C   UNL A   1      43.407  22.681  27.763  1.00  0.00     0.010 A 
ATOM     13  C   UNL A   1      43.699  23.625  26.767  1.00  0.00    -0.014 A 
BRANCH  13  14
ATOM     14  C   UNL A   1      44.189  24.986  27.106  1.00  0.00     0.031 A 
ATOM     15  C   UNL A   1      45.621  25.382  26.873  1.00  0.00     0.074 A 
ATOM     16  C   UNL A   1      43.312  25.880  27.602  1.00  0.00     0.049 A 
ATOM     17  N   UNL A   1      46.195  26.542  27.072  1.00  0.00    -0.248 NA
ATOM     18  C   UNL A   1      46.529  24.346  26.352  1.00  0.00     0.031 C 
ATOM     19  C   UNL A   1      41.898  25.609  27.879  1.00  0.00     0.029 A 
ATOM     20  N   UNL A   1      43.467  27.200  27.939  1.00  0.00    -0.354 N 
ATOM     21  C   UNL A   1      47.530  26.374  26.724  1.00  0.00     0.074 A 
ATOM     22  C   UNL A   1      47.688  24.993  26.320  1.00  0.00     0.031 C 
ATOM     23  C   UNL A   1      41.304  26.739  28.287  1.00  0.00     0.029 A 
ATOM     24  C   UNL A   1      42.304  27.798  28.363  1.00  0.00     0.049 A 
ATOM     25  H   UNL A   1      44.328  27.674  27.882  1.00  0.00     0.167 HD
ATOM     26  C   UNL A   1      48.531  27.288  26.736  1.00  0.00     0.031 A 
ATOM     27  C   UNL A   1      42.064  29.056  28.777  1.00  0.00     0.031 A 
ATOM     28  C   UNL A   1      48.369  28.661  27.143  1.00  0.00     0.049 A 
ATOM     29  C   UNL A   1      43.196  30.040  28.804  1.00  0.00     0.074 A 
ATOM     30  C   UNL A   1      49.316  29.670  27.165  1.00  0.00     0.029 A 
ATOM     31  N   UNL A   1      47.184  29.216  27.605  1.00  0.00    -0.354 N 
ATOM     32  N   UNL A   1      44.445  29.868  28.441  1.00  0.00    -0.248 NA
ATOM     33  C   UNL A   1      42.887  31.389  29.297  1.00  0.00     0.031 C 
ATOM     34  C   UNL A   1      48.717  30.823  27.685  1.00  0.00     0.029 A 
ATOM     35  C   UNL A   1      47.382  30.547  27.936  1.00  0.00     0.049 A 
ATOM     36  H   UNL A   1      46.329  28.736  27.686  1.00  0.00     0.167 HD
ATOM     37  C   UNL A   1      45.068  31.093  28.646  1.00  0.00     0.074 A 
ATOM     38  C   UNL A   1      44.054  32.000  29.147  1.00  0.00     0.031 C 
ATOM     39  C   UNL A   1      46.364  31.434  28.441  1.00  0.00     0.031 A 
BRANCH  26  40
ATOM     40  C   UNL A   1      49.904  26.825  26.322  1.00  0.00    -0.014 A 
ATOM     41  C   UNL A   1      50.807  26.291  27.260  1.00  0.00     0.010 A 
ATOM     42  C   UNL A   1      50.284  26.891  24.969  1.00  0.00     0.010 A 
ATOM     43  C   UNL A   1      52.079  25.870  26.857  1.00  0.00     0.020 A 
ATOM     44  C   UNL A   1      51.546  26.448  24.559  1.00  0.00     0.020 A 
ATOM     45  C   UNL A   1      52.442  25.958  25.510  1.00  0.00     0.054 A 
BRANCH  45  46
ATOM     46  S   UNL A   1      54.096  25.399  25.015  1.00  0.00     0.124 S 
ATOM     47  O   UNL A   1      53.888  23.963  24.844  1.00  0.00    -0.237 OA
ATOM     48  O   UNL A   1      54.335  26.148  23.784  1.00  0.00    -0.237 OA
ATOM     49  O   UNL A   1      54.942  25.776  26.145  1.00  0.00    -0.744 OA
ENDBRANCH  45  46
ENDBRANCH  26  40
BRANCH  27  50
ATOM     50  C   UNL A   1      40.694  29.443  29.199  1.00  0.00    -0.014 A 
ATOM     51  C   UNL A   1      40.390  29.631  30.559  1.00  0.00     0.010 A 
ATOM     52  C   UNL A   1      39.690  29.663  28.237  1.00  0.00     0.010 A 
ATOM     53  C   UNL A   1      39.106  30.021  30.949  1.00  0.00     0.020 A 
ATOM     54  C   UNL A   1      38.414  30.079  28.621  1.00  0.00     0.020 A 
ATOM     55  C   UNL A   1      38.127  30.245  29.977  1.00  0.00     0.054 A 
BRANCH  55  56
ATOM     56  S   UNL A   1      36.484  30.810  30.500  1.00  0.00     0.124 S 
ATOM     57  O   UNL A   1      36.086  29.759  31.430  1.00  0.00    -0.237 OA
ATOM     58  O   UNL A   1      36.772  32.111  31.099  1.00  0.00    -0.237 OA
ATOM     59  O   UNL A   1      35.728  30.863  29.250  1.00  0.00    -0.744 OA
ENDBRANCH  55  56
ENDBRANCH  27  50
BRANCH  39  60
ATOM     60  C   UNL A   1      46.749  32.857  28.735  1.00  0.00    -0.014 A 
ATOM     61  C   UNL A   1      46.648  33.858  27.752  1.00  0.00     0.010 A 
ATOM     62  C   UNL A   1      47.194  33.204  30.024  1.00  0.00     0.010 A 
ATOM     63  C   UNL A   1      47.022  35.173  28.042  1.00  0.00     0.020 A 
ATOM     64  C   UNL A   1      47.543  34.523  30.326  1.00  0.00     0.020 A 
ATOM     65  C   UNL A   1      47.470  35.496  29.327  1.00  0.00     0.054 A 
BRANCH  65  66
ATOM     66  S   UNL A   1      47.921  37.215  29.690  1.00  0.00     0.124 S 
ATOM     67  O   UNL A   1      48.520  37.097  31.016  1.00  0.00    -0.237 OA
ATOM     68  O   UNL A   1      48.849  37.540  28.608  1.00  0.00    -0.237 OA
ATOM     69  O   UNL A   1      46.644  37.924  29.641  1.00  0.00    -0.744 OA
ENDBRANCH  65  66
ENDBRANCH  39  60
ENDBRANCH  13  14
ENDBRANCH   6   8
ENDBRANCH   3   4
ENDBRANCH   2   3
ENDBRANCH   1   2
BRANCH   1  70
ATOM     70  C   UNL A   1      38.389  23.518  26.163  1.00  0.00     0.002 C 
BRANCH  70  71
ATOM     71  C   UNL A   1      37.414  23.007  25.100  1.00  0.00     0.021 C 
BRANCH  71  72
ATOM     72  C   UNL A   1      36.177  23.877  24.903  1.00  0.00     0.116 C 
BRANCH  72  73
ATOM     73  N   UNL A   1      35.600  23.701  23.583  1.00  0.00    -0.356 N 
ATOM     74  C   UNL A   1      34.299  23.765  23.181  1.00  0.00     0.229 C 
ATOM     75  H   UNL A   1      36.248  23.506  22.868  1.00  0.00     0.163 HD
ATOM     76  O   UNL A   1      34.053  23.642  21.981  1.00  0.00    -0.275 OA
BRANCH  74  77
ATOM     77  C   UNL A   1      33.213  23.968  24.222  1.00  0.00     0.145 C 
ATOM     78  C   UNL A   1      31.915  24.443  23.579  1.00  0.00     0.276 C 
ATOM     79  C   UNL A   1      32.815  22.738  25.084  1.00  0.00     0.037 C 
ATOM     80  N   UNL A   1      30.876  24.149  24.560  1.00  0.00    -0.330 N 
ATOM     81  C   UNL A   1      31.265  22.884  25.190  1.00  0.00     0.270 C 
ATOM     82  C   UNL A   1      33.201  21.373  24.456  1.00  0.00     0.014 C 
ATOM     83  C   UNL A   1      33.512  22.803  26.462  1.00  0.00     0.014 C 
ATOM     84  H   UNL A   1      29.976  24.039  24.094  1.00  0.00     0.348 HD
ATOM     85  C   UNL A   1      32.868  20.180  25.361  1.00  0.00     0.001 C 
ATOM     86  C   UNL A   1      33.126  21.658  27.394  1.00  0.00     0.001 C 
ATOM     87  C   UNL A   1      33.465  20.317  26.759  1.00  0.00     0.000 C 
BRANCH  80  88
ATOM     88  C   UNL A   1      30.467  25.245  25.449  1.00  0.00     0.299 C 
BRANCH  88  89
ATOM     89  C   UNL A   1      30.456  26.659  24.906  1.00  0.00     0.008 A 
ATOM     90  C   UNL A   1      29.620  27.023  23.837  1.00  0.00     0.009 A 
ATOM     91  C   UNL A   1      31.304  27.636  25.453  1.00  0.00     0.030 A 
ATOM     92  C   UNL A   1      29.697  28.299  23.270  1.00  0.00     0.002 A 
ATOM     93  C   UNL A   1      31.372  28.913  24.889  1.00  0.00     0.041 A 
ATOM     94  C   UNL A   1      30.584  29.242  23.788  1.00  0.00     0.020 A 
ATOM     95  Cl  UNL A   1      32.483  30.064  25.520  1.00  0.00    -0.084 Cl
ENDBRANCH  88  89
ENDBRANCH  80  88
ENDBRANCH  74  77
ENDBRANCH  72  73
ENDBRANCH  71  72
ENDBRANCH  70  71
ENDBRANCH   1  70
TORSDOF 18
ENDMDL
