MODEL 1
REMARK VINA RESULT:     -11.8      0.000      0.000
REMARK SMILES O=C(NCCCCCCNC(=O)c1cc(-c2ccn(C(F)F)c(=O)c2)ccc1O)c1ccc(-c2c3nc(c(-c4ccc(S(=O)(=O)[O-])cc4)c4ccc([nH]4)c(-c4ccc(S(=O)(=O)[O-])cc4)c4nc(c(-c5ccc(S(=O)(=O)[O-])cc5)c5ccc2[nH]5)C=C4)C=C3)cc1
REMARK SMILES IDX 6 1 5 2 4 3 3 4 1 5 2 6 30 8 31 9 89 10 32 11 88 12 33 13
REMARK SMILES IDX 34 14 35 15 82 16 36 17 87 18 81 19 83 20 37 21 86 22 80 23
REMARK SMILES IDX 79 24 38 26 68 27 49 28 67 29 50 30 53 31 66 32 84 33 51 34
REMARK SMILES IDX 52 35 65 37 85 38 54 39 39 40 40 41 48 42 41 43 47 44 42 45
REMARK SMILES IDX 43 46 44 47 45 48 46 49 69 50 70 51 78 52 71 53 77 54 72 55
REMARK SMILES IDX 73 56 74 57 75 58 76 59 55 60 56 61 64 62 57 63 63 64 58 65
REMARK SMILES IDX 59 66 60 67 61 68 62 69 7 70 8 71 9 72 10 73 11 74 12 76
REMARK SMILES IDX 13 77 14 78 28 79 15 80 27 81 26 82 29 83 16 85 17 86 25 87
REMARK SMILES IDX 18 88 23 89 19 90 24 91 20 92 21 93 22 94
REMARK H PARENT 3 7 83 25 53 36 10 75 29 84
REMARK Flexibility Score: inf
ROOT
ATOM      1  C   UNL A   1      34.487  23.948  25.913  1.00  0.00     0.002 C 
ENDROOT
BRANCH   1   2
ATOM      2  C   UNL A   1      35.447  23.027  25.155  1.00  0.00     0.021 C 
BRANCH   2   3
ATOM      3  C   UNL A   1      36.873  23.549  25.008  1.00  0.00     0.116 C 
BRANCH   3   4
ATOM      4  N   UNL A   1      37.863  22.579  25.443  1.00  0.00    -0.352 N 
ATOM      5  O   UNL A   1      39.818  21.835  26.258  1.00  0.00    -0.269 OA
ATOM      6  C   UNL A   1      39.023  22.768  26.147  1.00  0.00     0.251 C 
ATOM      7  H   UNL A   1      37.671  21.645  25.196  1.00  0.00     0.163 HD
BRANCH   6   8
ATOM      8  C   UNL A   1      39.331  24.077  26.767  1.00  0.00     0.039 A 
ATOM      9  C   UNL A   1      40.057  25.015  26.025  1.00  0.00     0.014 A 
ATOM     10  C   UNL A   1      38.978  24.362  28.090  1.00  0.00     0.014 A 
ATOM     11  C   UNL A   1      40.416  26.235  26.602  1.00  0.00     0.010 A 
ATOM     12  C   UNL A   1      39.273  25.608  28.639  1.00  0.00     0.010 A 
ATOM     13  C   UNL A   1      40.024  26.544  27.913  1.00  0.00    -0.014 A 
BRANCH  13  14
ATOM     14  C   UNL A   1      40.463  27.802  28.568  1.00  0.00     0.031 A 
ATOM     15  C   UNL A   1      41.882  27.932  29.056  1.00  0.00     0.074 A 
ATOM     16  C   UNL A   1      39.594  28.818  28.741  1.00  0.00     0.049 A 
ATOM     17  N   UNL A   1      42.449  28.929  29.686  1.00  0.00    -0.248 NA
ATOM     18  C   UNL A   1      42.777  26.785  28.826  1.00  0.00     0.031 C 
ATOM     19  C   UNL A   1      38.192  28.810  28.322  1.00  0.00     0.029 A 
ATOM     20  N   UNL A   1      39.764  30.057  29.310  1.00  0.00    -0.354 N 
ATOM     21  C   UNL A   1      43.754  28.525  29.936  1.00  0.00     0.074 A 
ATOM     22  C   UNL A   1      43.883  27.173  29.444  1.00  0.00     0.031 C 
ATOM     23  C   UNL A   1      37.639  29.997  28.616  1.00  0.00     0.029 A 
ATOM     24  C   UNL A   1      38.632  30.838  29.282  1.00  0.00     0.049 A 
ATOM     25  H   UNL A   1      40.616  30.358  29.701  1.00  0.00     0.167 HD
ATOM     26  C   UNL A   1      44.765  29.229  30.497  1.00  0.00     0.031 A 
ATOM     27  C   UNL A   1      38.414  32.089  29.737  1.00  0.00     0.031 A 
ATOM     28  C   UNL A   1      44.641  30.587  30.951  1.00  0.00     0.049 A 
ATOM     29  C   UNL A   1      39.548  32.849  30.370  1.00  0.00     0.074 A 
ATOM     30  C   UNL A   1      45.624  31.401  31.487  1.00  0.00     0.029 A 
ATOM     31  N   UNL A   1      43.475  31.335  30.915  1.00  0.00    -0.354 N 
ATOM     32  N   UNL A   1      40.787  32.465  30.561  1.00  0.00    -0.248 NA
ATOM     33  C   UNL A   1      39.262  34.213  30.839  1.00  0.00     0.031 C 
ATOM     34  C   UNL A   1      45.037  32.619  31.833  1.00  0.00     0.029 A 
ATOM     35  C   UNL A   1      43.706  32.593  31.444  1.00  0.00     0.049 A 
ATOM     36  H   UNL A   1      42.611  31.019  30.565  1.00  0.00     0.167 HD
ATOM     37  C   UNL A   1      41.434  33.543  31.153  1.00  0.00     0.074 A 
ATOM     38  C   UNL A   1      40.455  34.603  31.275  1.00  0.00     0.031 C 
ATOM     39  C   UNL A   1      42.724  33.643  31.560  1.00  0.00     0.031 A 
BRANCH  26  40
ATOM     40  C   UNL A   1      46.109  28.560  30.633  1.00  0.00    -0.014 A 
ATOM     41  C   UNL A   1      47.022  28.597  29.562  1.00  0.00     0.010 A 
ATOM     42  C   UNL A   1      46.428  27.804  31.776  1.00  0.00     0.010 A 
ATOM     43  C   UNL A   1      48.212  27.868  29.618  1.00  0.00     0.020 A 
ATOM     44  C   UNL A   1      47.632  27.099  31.849  1.00  0.00     0.020 A 
ATOM     45  C   UNL A   1      48.506  27.116  30.759  1.00  0.00     0.054 A 
BRANCH  45  46
ATOM     46  S   UNL A   1      50.043  26.156  30.805  1.00  0.00     0.124 S 
ATOM     47  O   UNL A   1      51.060  27.203  30.845  1.00  0.00    -0.237 OA
ATOM     48  O   UNL A   1      49.894  25.372  32.029  1.00  0.00    -0.237 OA
ATOM     49  O   UNL A   1      49.996  25.376  29.569  1.00  0.00    -0.744 OA
ENDBRANCH  45  46
ENDBRANCH  26  40
BRANCH  27  50
ATOM     50  C   UNL A   1      37.067  32.701  29.558  1.00  0.00    -0.014 A 
ATOM     51  C   UNL A   1      36.697  33.265  28.323  1.00  0.00     0.010 A 
ATOM     52  C   UNL A   1      36.183  32.805  30.647  1.00  0.00     0.010 A 
ATOM     53  C   UNL A   1      35.501  33.973  28.195  1.00  0.00     0.020 A 
ATOM     54  C   UNL A   1      34.969  33.488  30.515  1.00  0.00     0.020 A 
ATOM     55  C   UNL A   1      34.651  34.096  29.298  1.00  0.00     0.054 A 
BRANCH  55  56
ATOM     56  S   UNL A   1      33.136  35.079  29.126  1.00  0.00     0.124 S 
ATOM     57  O   UNL A   1      32.425  34.350  28.079  1.00  0.00    -0.237 OA
ATOM     58  O   UNL A   1      32.548  34.997  30.460  1.00  0.00    -0.237 OA
ATOM     59  O   UNL A   1      33.628  36.401  28.745  1.00  0.00    -0.744 OA
ENDBRANCH  55  56
ENDBRANCH  27  50
BRANCH  39  60
ATOM     60  C   UNL A   1      43.182  34.936  32.182  1.00  0.00    -0.014 A 
ATOM     61  C   UNL A   1      42.914  35.188  33.542  1.00  0.00     0.010 A 
ATOM     62  C   UNL A   1      43.733  35.959  31.392  1.00  0.00     0.010 A 
ATOM     63  C   UNL A   1      43.145  36.452  34.088  1.00  0.00     0.020 A 
ATOM     64  C   UNL A   1      43.994  37.218  31.943  1.00  0.00     0.020 A 
ATOM     65  C   UNL A   1      43.672  37.463  33.281  1.00  0.00     0.054 A 
BRANCH  65  66
ATOM     66  S   UNL A   1      43.919  39.112  33.994  1.00  0.00     0.124 S 
ATOM     67  O   UNL A   1      44.004  38.821  35.422  1.00  0.00    -0.237 OA
ATOM     68  O   UNL A   1      45.163  39.551  33.365  1.00  0.00    -0.237 OA
ATOM     69  O   UNL A   1      42.728  39.848  33.577  1.00  0.00    -0.744 OA
ENDBRANCH  65  66
ENDBRANCH  39  60
ENDBRANCH  13  14
ENDBRANCH   6   8
ENDBRANCH   3   4
ENDBRANCH   2   3
ENDBRANCH   1   2
BRANCH   1  70
ATOM     70  C   UNL A   1      34.398  25.386  25.395  1.00  0.00     0.002 C 
BRANCH  70  71
ATOM     71  C   UNL A   1      33.258  26.229  25.972  1.00  0.00     0.021 C 
BRANCH  71  72
ATOM     72  C   UNL A   1      32.021  25.445  26.398  1.00  0.00     0.116 C 
BRANCH  72  73
ATOM     73  N   UNL A   1      30.843  25.814  25.632  1.00  0.00    -0.352 N 
ATOM     74  C   UNL A   1      30.510  25.440  24.356  1.00  0.00     0.255 C 
ATOM     75  H   UNL A   1      30.203  26.405  26.089  1.00  0.00     0.163 HD
ATOM     76  O   UNL A   1      29.501  25.894  23.815  1.00  0.00    -0.269 OA
BRANCH  74  77
ATOM     77  C   UNL A   1      31.402  24.549  23.588  1.00  0.00     0.082 A 
ATOM     78  C   UNL A   1      31.432  23.196  23.957  1.00  0.00     0.026 A 
ATOM     79  C   UNL A   1      32.214  25.014  22.546  1.00  0.00     0.128 A 
ATOM     80  C   UNL A   1      32.240  22.298  23.251  1.00  0.00    -0.017 A 
ATOM     81  C   UNL A   1      33.006  24.121  21.828  1.00  0.00     0.047 A 
ATOM     82  C   UNL A   1      33.012  22.769  22.177  1.00  0.00     0.012 A 
BRANCH  79  83
ATOM     83  O   UNL A   1      32.238  26.341  22.223  1.00  0.00    -0.507 OA
ATOM     84  H   UNL A   1      31.436  26.803  22.078  1.00  0.00     0.293 HD
ENDBRANCH  79  83
BRANCH  80  85
ATOM     85  C   UNL A   1      32.329  20.874  23.620  1.00  0.00    -0.011 A 
ATOM     86  C   UNL A   1      32.599  20.454  24.983  1.00  0.00     0.027 A 
ATOM     87  C   UNL A   1      32.224  19.941  22.658  1.00  0.00     0.080 A 
ATOM     88  C   UNL A   1      32.811  19.166  25.269  1.00  0.00     0.095 A 
ATOM     89  C   UNL A   1      32.429  18.497  22.969  1.00  0.00     0.255 A 
ATOM     90  N   UNL A   1      32.749  18.199  24.284  1.00  0.00    -0.258 N 
ATOM     91  O   UNL A   1      32.326  17.678  22.058  1.00  0.00    -0.269 OA
BRANCH  90  92
ATOM     92  C   UNL A   1      33.042  16.824  24.593  1.00  0.00     0.451 C 
ATOM     93  F   UNL A   1      34.350  16.654  24.906  1.00  0.00    -0.185 F 
ATOM     94  F   UNL A   1      32.298  16.390  25.639  1.00  0.00    -0.185 F 
ENDBRANCH  90  92
ENDBRANCH  80  85
ENDBRANCH  74  77
ENDBRANCH  72  73
ENDBRANCH  71  72
ENDBRANCH  70  71
ENDBRANCH   1  70
TORSDOF 19
ENDMDL
MODEL 2
REMARK VINA RESULT:     -11.0      4.654      6.336
REMARK SMILES O=C(NCCCCCCNC(=O)c1cc(-c2ccn(C(F)F)c(=O)c2)ccc1O)c1ccc(-c2c3nc(c(-c4ccc(S(=O)(=O)[O-])cc4)c4ccc([nH]4)c(-c4ccc(S(=O)(=O)[O-])cc4)c4nc(c(-c5ccc(S(=O)(=O)[O-])cc5)c5ccc2[nH]5)C=C4)C=C3)cc1
REMARK SMILES IDX 6 1 5 2 4 3 3 4 1 5 2 6 30 8 31 9 89 10 32 11 88 12 33 13
REMARK SMILES IDX 34 14 35 15 82 16 36 17 87 18 81 19 83 20 37 21 86 22 80 23
REMARK SMILES IDX 79 24 38 26 68 27 49 28 67 29 50 30 53 31 66 32 84 33 51 34
REMARK SMILES IDX 52 35 65 37 85 38 54 39 39 40 40 41 48 42 41 43 47 44 42 45
REMARK SMILES IDX 43 46 44 47 45 48 46 49 69 50 70 51 78 52 71 53 77 54 72 55
REMARK SMILES IDX 73 56 74 57 75 58 76 59 55 60 56 61 64 62 57 63 63 64 58 65
REMARK SMILES IDX 59 66 60 67 61 68 62 69 7 70 8 71 9 72 10 73 11 74 12 76
REMARK SMILES IDX 13 77 14 78 28 79 15 80 27 81 26 82 29 83 16 85 17 86 25 87
REMARK SMILES IDX 18 88 23 89 19 90 24 91 20 92 21 93 22 94
REMARK H PARENT 3 7 83 25 53 36 10 75 29 84
REMARK Flexibility Score: inf
ROOT
ATOM      1  C   UNL A   1      37.170  22.704  25.376  1.00  0.00     0.002 C 
ENDROOT
BRANCH   1   2
ATOM      2  C   UNL A   1      37.383  24.066  26.043  1.00  0.00     0.021 C 
BRANCH   2   3
ATOM      3  C   UNL A   1      38.670  24.203  26.850  1.00  0.00     0.116 C 
BRANCH   3   4
ATOM      4  N   UNL A   1      39.766  24.728  26.055  1.00  0.00    -0.352 N 
ATOM      5  O   UNL A   1      41.252  26.240  25.315  1.00  0.00    -0.269 OA
ATOM      6  C   UNL A   1      40.479  25.889  26.206  1.00  0.00     0.251 C 
ATOM      7  H   UNL A   1      40.039  24.166  25.295  1.00  0.00     0.163 HD
BRANCH   6   8
ATOM      8  C   UNL A   1      40.326  26.723  27.419  1.00  0.00     0.039 A 
ATOM      9  C   UNL A   1      40.905  27.996  27.434  1.00  0.00     0.014 A 
ATOM     10  C   UNL A   1      39.682  26.240  28.563  1.00  0.00     0.014 A 
ATOM     11  C   UNL A   1      40.830  28.785  28.585  1.00  0.00     0.010 A 
ATOM     12  C   UNL A   1      39.545  27.056  29.685  1.00  0.00     0.010 A 
ATOM     13  C   UNL A   1      40.146  28.323  29.719  1.00  0.00    -0.014 A 
BRANCH  13  14
ATOM     14  C   UNL A   1      40.123  29.114  30.976  1.00  0.00     0.031 A 
ATOM     15  C   UNL A   1      41.200  28.903  32.008  1.00  0.00     0.074 A 
ATOM     16  C   UNL A   1      39.137  30.005  31.201  1.00  0.00     0.049 A 
ATOM     17  N   UNL A   1      41.336  29.464  33.183  1.00  0.00    -0.248 NA
ATOM     18  C   UNL A   1      42.249  27.919  31.691  1.00  0.00     0.031 C 
ATOM     19  C   UNL A   1      38.033  30.292  30.283  1.00  0.00     0.029 A 
ATOM     20  N   UNL A   1      38.907  30.838  32.269  1.00  0.00    -0.354 N 
ATOM     21  C   UNL A   1      42.472  28.894  33.744  1.00  0.00     0.074 A 
ATOM     22  C   UNL A   1      42.957  27.903  32.811  1.00  0.00     0.031 C 
ATOM     23  C   UNL A   1      37.265  31.257  30.811  1.00  0.00     0.029 A 
ATOM     24  C   UNL A   1      37.792  31.630  32.122  1.00  0.00     0.049 A 
ATOM     25  H   UNL A   1      39.486  30.865  33.065  1.00  0.00     0.167 HD
ATOM     26  C   UNL A   1      43.076  29.191  34.918  1.00  0.00     0.031 A 
ATOM     27  C   UNL A   1      37.254  32.555  32.944  1.00  0.00     0.031 A 
ATOM     28  C   UNL A   1      42.610  30.204  35.826  1.00  0.00     0.049 A 
ATOM     29  C   UNL A   1      37.934  32.860  34.251  1.00  0.00     0.074 A 
ATOM     30  C   UNL A   1      43.184  30.613  37.016  1.00  0.00     0.029 A 
ATOM     31  N   UNL A   1      41.472  30.973  35.643  1.00  0.00    -0.354 N 
ATOM     32  N   UNL A   1      39.031  32.339  34.746  1.00  0.00    -0.248 NA
ATOM     33  C   UNL A   1      37.315  33.883  35.106  1.00  0.00     0.031 C 
ATOM     34  C   UNL A   1      42.360  31.585  37.585  1.00  0.00     0.029 A 
ATOM     35  C   UNL A   1      41.311  31.836  36.713  1.00  0.00     0.049 A 
ATOM     36  H   UNL A   1      40.867  30.915  34.868  1.00  0.00     0.167 HD
ATOM     37  C   UNL A   1      39.245  32.984  35.960  1.00  0.00     0.074 A 
ATOM     38  C   UNL A   1      38.173  33.944  36.118  1.00  0.00     0.031 C 
ATOM     39  C   UNL A   1      40.240  32.792  36.861  1.00  0.00     0.031 A 
BRANCH  26  40
ATOM     40  C   UNL A   1      44.325  28.434  35.289  1.00  0.00    -0.014 A 
ATOM     41  C   UNL A   1      45.585  28.924  34.894  1.00  0.00     0.010 A 
ATOM     42  C   UNL A   1      44.250  27.185  35.931  1.00  0.00     0.010 A 
ATOM     43  C   UNL A   1      46.740  28.169  35.107  1.00  0.00     0.020 A 
ATOM     44  C   UNL A   1      45.407  26.440  36.174  1.00  0.00     0.020 A 
ATOM     45  C   UNL A   1      46.642  26.925  35.738  1.00  0.00     0.054 A 
BRANCH  45  46
ATOM     46  S   UNL A   1      48.148  25.946  35.985  1.00  0.00     0.124 S 
ATOM     47  O   UNL A   1      49.198  26.911  35.673  1.00  0.00    -0.237 OA
ATOM     48  O   UNL A   1      48.047  25.552  37.388  1.00  0.00    -0.237 OA
ATOM     49  O   UNL A   1      48.002  24.849  35.029  1.00  0.00    -0.744 OA
ENDBRANCH  45  46
ENDBRANCH  26  40
BRANCH  27  50
ATOM     50  C   UNL A   1      36.026  33.281  32.513  1.00  0.00    -0.014 A 
ATOM     51  C   UNL A   1      36.043  34.094  31.365  1.00  0.00     0.010 A 
ATOM     52  C   UNL A   1      34.862  33.236  33.300  1.00  0.00     0.010 A 
ATOM     53  C   UNL A   1      34.945  34.894  31.045  1.00  0.00     0.020 A 
ATOM     54  C   UNL A   1      33.748  34.013  32.966  1.00  0.00     0.020 A 
ATOM     55  C   UNL A   1      33.809  34.862  31.858  1.00  0.00     0.054 A 
BRANCH  55  56
ATOM     56  S   UNL A   1      32.422  35.962  31.461  1.00  0.00     0.124 S 
ATOM     57  O   UNL A   1      32.329  35.813  30.011  1.00  0.00    -0.237 OA
ATOM     58  O   UNL A   1      31.322  35.379  32.224  1.00  0.00    -0.237 OA
ATOM     59  O   UNL A   1      32.877  37.269  31.928  1.00  0.00    -0.744 OA
ENDBRANCH  55  56
ENDBRANCH  27  50
BRANCH  39  60
ATOM     60  C   UNL A   1      40.244  33.627  38.115  1.00  0.00    -0.014 A 
ATOM     61  C   UNL A   1      39.482  33.218  39.226  1.00  0.00     0.010 A 
ATOM     62  C   UNL A   1      40.868  34.886  38.139  1.00  0.00     0.010 A 
ATOM     63  C   UNL A   1      39.306  34.070  40.319  1.00  0.00     0.020 A 
ATOM     64  C   UNL A   1      40.719  35.730  39.244  1.00  0.00     0.020 A 
ATOM     65  C   UNL A   1      39.916  35.327  40.314  1.00  0.00     0.054 A 
BRANCH  65  66
ATOM     66  S   UNL A   1      39.637  36.440  41.719  1.00  0.00     0.124 S 
ATOM     67  O   UNL A   1      39.230  37.675  41.057  1.00  0.00    -0.237 OA
ATOM     68  O   UNL A   1      38.590  35.752  42.471  1.00  0.00    -0.237 OA
ATOM     69  O   UNL A   1      40.938  36.487  42.382  1.00  0.00    -0.744 OA
ENDBRANCH  65  66
ENDBRANCH  39  60
ENDBRANCH  13  14
ENDBRANCH   6   8
ENDBRANCH   3   4
ENDBRANCH   2   3
ENDBRANCH   1   2
BRANCH   1  70
ATOM     70  C   UNL A   1      35.828  22.025  25.666  1.00  0.00     0.002 C 
BRANCH  70  71
ATOM     71  C   UNL A   1      34.846  21.971  24.494  1.00  0.00     0.021 C 
BRANCH  71  72
ATOM     72  C   UNL A   1      33.930  23.183  24.357  1.00  0.00     0.116 C 
BRANCH  72  73
ATOM     73  N   UNL A   1      34.170  23.922  23.130  1.00  0.00    -0.352 N 
ATOM     74  C   UNL A   1      33.622  25.116  22.738  1.00  0.00     0.255 C 
ATOM     75  H   UNL A   1      34.808  23.515  22.502  1.00  0.00     0.163 HD
ATOM     76  O   UNL A   1      33.877  25.587  21.629  1.00  0.00    -0.269 OA
BRANCH  74  77
ATOM     77  C   UNL A   1      32.657  25.811  23.613  1.00  0.00     0.082 A 
ATOM     78  C   UNL A   1      33.140  26.881  24.381  1.00  0.00     0.026 A 
ATOM     79  C   UNL A   1      31.315  25.424  23.710  1.00  0.00     0.128 A 
ATOM     80  C   UNL A   1      32.269  27.595  25.211  1.00  0.00    -0.017 A 
ATOM     81  C   UNL A   1      30.440  26.141  24.522  1.00  0.00     0.047 A 
ATOM     82  C   UNL A   1      30.915  27.225  25.262  1.00  0.00     0.012 A 
BRANCH  79  83
ATOM     83  O   UNL A   1      30.852  24.343  23.015  1.00  0.00    -0.507 OA
ATOM     84  H   UNL A   1      29.935  24.159  22.990  1.00  0.00     0.293 HD
ENDBRANCH  79  83
BRANCH  80  85
ATOM     85  C   UNL A   1      32.735  28.706  26.060  1.00  0.00    -0.011 A 
ATOM     86  C   UNL A   1      31.938  29.901  26.259  1.00  0.00     0.027 A 
ATOM     87  C   UNL A   1      33.960  28.638  26.611  1.00  0.00     0.080 A 
ATOM     88  C   UNL A   1      32.436  30.950  26.920  1.00  0.00     0.095 A 
ATOM     89  C   UNL A   1      34.517  29.790  27.375  1.00  0.00     0.255 A 
ATOM     90  N   UNL A   1      33.709  30.913  27.455  1.00  0.00    -0.258 N 
ATOM     91  O   UNL A   1      35.642  29.687  27.859  1.00  0.00    -0.269 OA
BRANCH  90  92
ATOM     92  C   UNL A   1      34.259  32.073  28.109  1.00  0.00     0.451 C 
ATOM     93  F   UNL A   1      33.514  33.178  27.867  1.00  0.00    -0.185 F 
ATOM     94  F   UNL A   1      34.323  31.891  29.450  1.00  0.00    -0.185 F 
ENDBRANCH  90  92
ENDBRANCH  80  85
ENDBRANCH  74  77
ENDBRANCH  72  73
ENDBRANCH  71  72
ENDBRANCH  70  71
ENDBRANCH   1  70
TORSDOF 19
ENDMDL
MODEL 3
REMARK VINA RESULT:     -10.6      1.807      2.336
REMARK SMILES O=C(NCCCCCCNC(=O)c1cc(-c2ccn(C(F)F)c(=O)c2)ccc1O)c1ccc(-c2c3nc(c(-c4ccc(S(=O)(=O)[O-])cc4)c4ccc([nH]4)c(-c4ccc(S(=O)(=O)[O-])cc4)c4nc(c(-c5ccc(S(=O)(=O)[O-])cc5)c5ccc2[nH]5)C=C4)C=C3)cc1
REMARK SMILES IDX 6 1 5 2 4 3 3 4 1 5 2 6 30 8 31 9 89 10 32 11 88 12 33 13
REMARK SMILES IDX 34 14 35 15 82 16 36 17 87 18 81 19 83 20 37 21 86 22 80 23
REMARK SMILES IDX 79 24 38 26 68 27 49 28 67 29 50 30 53 31 66 32 84 33 51 34
REMARK SMILES IDX 52 35 65 37 85 38 54 39 39 40 40 41 48 42 41 43 47 44 42 45
REMARK SMILES IDX 43 46 44 47 45 48 46 49 69 50 70 51 78 52 71 53 77 54 72 55
REMARK SMILES IDX 73 56 74 57 75 58 76 59 55 60 56 61 64 62 57 63 63 64 58 65
REMARK SMILES IDX 59 66 60 67 61 68 62 69 7 70 8 71 9 72 10 73 11 74 12 76
REMARK SMILES IDX 13 77 14 78 28 79 15 80 27 81 26 82 29 83 16 85 17 86 25 87
REMARK SMILES IDX 18 88 23 89 19 90 24 91 20 92 21 93 22 94
REMARK H PARENT 3 7 83 25 53 36 10 75 29 84
REMARK Flexibility Score: inf
ROOT
ATOM      1  C   UNL A   1      34.100  23.969  26.040  1.00  0.00     0.002 C 
ENDROOT
BRANCH   1   2
ATOM      2  C   UNL A   1      35.193  22.935  26.322  1.00  0.00     0.021 C 
BRANCH   2   3
ATOM      3  C   UNL A   1      36.621  23.411  26.078  1.00  0.00     0.116 C 
BRANCH   3   4
ATOM      4  N   UNL A   1      37.574  22.314  26.070  1.00  0.00    -0.352 N 
ATOM      5  O   UNL A   1      39.583  21.315  26.005  1.00  0.00    -0.269 OA
ATOM      6  C   UNL A   1      38.935  22.337  26.228  1.00  0.00     0.251 C 
ATOM      7  H   UNL A   1      37.184  21.422  25.929  1.00  0.00     0.163 HD
BRANCH   6   8
ATOM      8  C   UNL A   1      39.631  23.571  26.657  1.00  0.00     0.039 A 
ATOM      9  C   UNL A   1      40.076  23.664  27.980  1.00  0.00     0.014 A 
ATOM     10  C   UNL A   1      39.785  24.661  25.794  1.00  0.00     0.014 A 
ATOM     11  C   UNL A   1      40.683  24.839  28.431  1.00  0.00     0.010 A 
ATOM     12  C   UNL A   1      40.456  25.804  26.225  1.00  0.00     0.010 A 
ATOM     13  C   UNL A   1      40.881  25.918  27.557  1.00  0.00    -0.014 A 
BRANCH  13  14
ATOM     14  C   UNL A   1      41.453  27.200  28.040  1.00  0.00     0.031 A 
ATOM     15  C   UNL A   1      42.939  27.432  27.955  1.00  0.00     0.074 A 
ATOM     16  C   UNL A   1      40.652  28.147  28.567  1.00  0.00     0.049 A 
ATOM     17  N   UNL A   1      43.637  28.464  28.356  1.00  0.00    -0.248 NA
ATOM     18  C   UNL A   1      43.752  26.356  27.360  1.00  0.00     0.031 C 
ATOM     19  C   UNL A   1      39.200  28.037  28.714  1.00  0.00     0.029 A 
ATOM     20  N   UNL A   1      40.944  29.391  29.072  1.00  0.00    -0.354 N 
ATOM     21  C   UNL A   1      44.962  28.156  28.075  1.00  0.00     0.074 A 
ATOM     22  C   UNL A   1      44.982  26.821  27.523  1.00  0.00     0.031 C 
ATOM     23  C   UNL A   1      38.725  29.178  29.238  1.00  0.00     0.029 A 
ATOM     24  C   UNL A   1      39.839  30.085  29.506  1.00  0.00     0.049 A 
ATOM     25  H   UNL A   1      41.859  29.751  29.119  1.00  0.00     0.167 HD
ATOM     26  C   UNL A   1      46.062  28.929  28.233  1.00  0.00     0.031 A 
ATOM     27  C   UNL A   1      39.729  31.313  30.053  1.00  0.00     0.031 A 
ATOM     28  C   UNL A   1      46.032  30.270  28.749  1.00  0.00     0.049 A 
ATOM     29  C   UNL A   1      40.967  32.150  30.233  1.00  0.00     0.074 A 
ATOM     30  C   UNL A   1      47.088  31.151  28.899  1.00  0.00     0.029 A 
ATOM     31  N   UNL A   1      44.894  30.930  29.186  1.00  0.00    -0.354 N 
ATOM     32  N   UNL A   1      42.207  31.858  29.923  1.00  0.00    -0.248 NA
ATOM     33  C   UNL A   1      40.793  33.485  30.824  1.00  0.00     0.031 C 
ATOM     34  C   UNL A   1      46.600  32.320  29.485  1.00  0.00     0.029 A 
ATOM     35  C   UNL A   1      45.226  32.197  29.632  1.00  0.00     0.049 A 
ATOM     36  H   UNL A   1      43.984  30.553  29.181  1.00  0.00     0.167 HD
ATOM     37  C   UNL A   1      42.959  32.978  30.263  1.00  0.00     0.074 A 
ATOM     38  C   UNL A   1      42.033  33.960  30.787  1.00  0.00     0.031 C 
ATOM     39  C   UNL A   1      44.296  33.170  30.151  1.00  0.00     0.031 A 
BRANCH  26  40
ATOM     40  C   UNL A   1      47.397  28.362  27.824  1.00  0.00    -0.014 A 
ATOM     41  C   UNL A   1      47.862  28.544  26.508  1.00  0.00     0.010 A 
ATOM     42  C   UNL A   1      48.141  27.556  28.704  1.00  0.00     0.010 A 
ATOM     43  C   UNL A   1      49.027  27.911  26.071  1.00  0.00     0.020 A 
ATOM     44  C   UNL A   1      49.325  26.945  28.281  1.00  0.00     0.020 A 
ATOM     45  C   UNL A   1      49.748  27.107  26.960  1.00  0.00     0.054 A 
BRANCH  45  46
ATOM     46  S   UNL A   1      51.245  26.271  26.370  1.00  0.00     0.124 S 
ATOM     47  O   UNL A   1      51.023  26.223  24.928  1.00  0.00    -0.237 OA
ATOM     48  O   UNL A   1      52.308  27.169  26.817  1.00  0.00    -0.237 OA
ATOM     49  O   UNL A   1      51.207  24.980  27.054  1.00  0.00    -0.744 OA
ENDBRANCH  45  46
ENDBRANCH  26  40
BRANCH  27  50
ATOM     50  C   UNL A   1      38.379  31.824  30.423  1.00  0.00    -0.014 A 
ATOM     51  C   UNL A   1      37.654  32.637  29.531  1.00  0.00     0.010 A 
ATOM     52  C   UNL A   1      37.852  31.577  31.703  1.00  0.00     0.010 A 
ATOM     53  C   UNL A   1      36.461  33.242  29.931  1.00  0.00     0.020 A 
ATOM     54  C   UNL A   1      36.642  32.158  32.097  1.00  0.00     0.020 A 
ATOM     55  C   UNL A   1      35.970  33.013  31.219  1.00  0.00     0.054 A 
BRANCH  55  56
ATOM     56  S   UNL A   1      34.456  33.865  31.739  1.00  0.00     0.124 S 
ATOM     57  O   UNL A   1      33.808  34.131  30.458  1.00  0.00    -0.237 OA
ATOM     58  O   UNL A   1      33.800  32.868  32.581  1.00  0.00    -0.237 OA
ATOM     59  O   UNL A   1      34.952  35.044  32.446  1.00  0.00    -0.744 OA
ENDBRANCH  55  56
ENDBRANCH  27  50
BRANCH  39  60
ATOM     60  C   UNL A   1      44.871  34.489  30.598  1.00  0.00    -0.014 A 
ATOM     61  C   UNL A   1      45.236  34.669  31.946  1.00  0.00     0.010 A 
ATOM     62  C   UNL A   1      44.904  35.591  29.727  1.00  0.00     0.010 A 
ATOM     63  C   UNL A   1      45.577  35.935  32.426  1.00  0.00     0.020 A 
ATOM     64  C   UNL A   1      45.275  36.855  30.197  1.00  0.00     0.020 A 
ATOM     65  C   UNL A   1      45.582  37.023  31.550  1.00  0.00     0.054 A 
BRANCH  65  66
ATOM     66  S   UNL A   1      45.981  38.668  32.200  1.00  0.00     0.124 S 
ATOM     67  O   UNL A   1      45.025  39.518  31.496  1.00  0.00    -0.237 OA
ATOM     68  O   UNL A   1      45.748  38.512  33.635  1.00  0.00    -0.237 OA
ATOM     69  O   UNL A   1      47.380  38.857  31.823  1.00  0.00    -0.744 OA
ENDBRANCH  65  66
ENDBRANCH  39  60
ENDBRANCH  13  14
ENDBRANCH   6   8
ENDBRANCH   3   4
ENDBRANCH   2   3
ENDBRANCH   1   2
BRANCH   1  70
ATOM     70  C   UNL A   1      32.823  23.829  26.874  1.00  0.00     0.002 C 
BRANCH  70  71
ATOM     71  C   UNL A   1      31.782  24.934  26.680  1.00  0.00     0.021 C 
BRANCH  71  72
ATOM     72  C   UNL A   1      30.381  24.452  26.320  1.00  0.00     0.116 C 
BRANCH  72  73
ATOM     73  N   UNL A   1      29.759  25.274  25.297  1.00  0.00    -0.352 N 
ATOM     74  C   UNL A   1      30.081  25.362  23.967  1.00  0.00     0.255 C 
ATOM     75  H   UNL A   1      29.011  25.839  25.597  1.00  0.00     0.163 HD
ATOM     76  O   UNL A   1      29.499  26.163  23.234  1.00  0.00    -0.269 OA
BRANCH  74  77
ATOM     77  C   UNL A   1      31.185  24.550  23.417  1.00  0.00     0.082 A 
ATOM     78  C   UNL A   1      31.205  23.186  23.746  1.00  0.00     0.026 A 
ATOM     79  C   UNL A   1      32.196  25.098  22.618  1.00  0.00     0.128 A 
ATOM     80  C   UNL A   1      32.212  22.360  23.235  1.00  0.00    -0.017 A 
ATOM     81  C   UNL A   1      33.190  24.276  22.092  1.00  0.00     0.047 A 
ATOM     82  C   UNL A   1      33.192  22.913  22.395  1.00  0.00     0.012 A 
BRANCH  79  83
ATOM     83  O   UNL A   1      32.218  26.436  22.346  1.00  0.00    -0.507 OA
ATOM     84  H   UNL A   1      32.713  26.759  21.620  1.00  0.00     0.293 HD
ENDBRANCH  79  83
BRANCH  80  85
ATOM     85  C   UNL A   1      32.294  20.929  23.577  1.00  0.00    -0.011 A 
ATOM     86  C   UNL A   1      32.553  20.481  24.932  1.00  0.00     0.027 A 
ATOM     87  C   UNL A   1      32.192  20.015  22.596  1.00  0.00     0.080 A 
ATOM     88  C   UNL A   1      32.759  19.187  25.194  1.00  0.00     0.095 A 
ATOM     89  C   UNL A   1      32.390  18.565  22.879  1.00  0.00     0.255 A 
ATOM     90  N   UNL A   1      32.700  18.240  24.191  1.00  0.00    -0.258 N 
ATOM     91  O   UNL A   1      32.290  17.765  21.952  1.00  0.00    -0.269 OA
BRANCH  90  92
ATOM     92  C   UNL A   1      32.987  16.858  24.474  1.00  0.00     0.451 C 
ATOM     93  F   UNL A   1      34.321  16.631  24.539  1.00  0.00    -0.185 F 
ATOM     94  F   UNL A   1      32.436  16.479  25.653  1.00  0.00    -0.185 F 
ENDBRANCH  90  92
ENDBRANCH  80  85
ENDBRANCH  74  77
ENDBRANCH  72  73
ENDBRANCH  71  72
ENDBRANCH  70  71
ENDBRANCH   1  70
TORSDOF 19
ENDMDL
