MODEL 1
REMARK VINA RESULT:     -10.4      0.000      0.000
REMARK SMILES NC(=O)CC[C@@H](NC(=O)Nc1ccc(Cl)c(Cl)c1)C(=O)NCCCCCCNC(=O)c1ccc(-c2c3nc(c(-c4ccc(S(=O)(=O)[O-])cc4)c4ccc([nH]4)c(-c4ccc(S(=O)(=O)[O-])cc4)c4nc(c(-c5ccc(S(=O)(=O)[O-])cc5)c5ccc2[nH]5)C=C4)C=C3)cc1
REMARK SMILES IDX 24 1 23 2 22 3 21 4 19 5 20 6 6 8 5 9 4 10 2 11 1 12 3 15
REMARK SMILES IDX 7 16 8 17 9 19 10 20 11 22 12 23 18 24 13 25 16 26 14 27
REMARK SMILES IDX 17 28 15 29 25 30 26 31 27 32 28 33 29 34 30 36 31 37 32 38
REMARK SMILES IDX 90 39 33 40 89 41 34 42 35 43 36 44 83 45 37 46 88 47 82 48
REMARK SMILES IDX 84 49 38 50 87 51 81 52 80 53 39 55 69 56 50 57 68 58 51 59
REMARK SMILES IDX 54 60 67 61 85 62 52 63 53 64 66 66 86 67 55 68 40 69 41 70
REMARK SMILES IDX 49 71 42 72 48 73 43 74 44 75 45 76 46 77 47 78 70 79 71 80
REMARK SMILES IDX 79 81 72 82 78 83 73 84 74 85 75 86 76 87 77 88 56 89 57 90
REMARK SMILES IDX 65 91 58 92 64 93 59 94 60 95 61 96 62 97 63 98
REMARK H PARENT 21 7 1 13 1 14 7 18 10 21 28 35 84 54 54 65
REMARK Flexibility Score: inf
ROOT
ATOM      1  C   UNL A   1      38.304  24.037  26.433  1.00  0.00     0.002 C 
ENDROOT
BRANCH   1   2
ATOM      2  C   UNL A   1      37.280  23.371  25.492  1.00  0.00     0.021 C 
BRANCH   2   3
ATOM      3  C   UNL A   1      35.842  23.475  26.005  1.00  0.00     0.116 C 
BRANCH   3   4
ATOM      4  N   UNL A   1      35.290  22.142  26.016  1.00  0.00    -0.354 N 
ATOM      5  C   UNL A   1      34.020  21.826  26.388  1.00  0.00     0.242 C 
ATOM      6  O   UNL A   1      33.849  21.068  27.342  1.00  0.00    -0.273 OA
ATOM      7  H   UNL A   1      35.877  21.405  25.733  1.00  0.00     0.163 HD
BRANCH   5   8
ATOM      8  C   UNL A   1      32.850  22.453  25.620  1.00  0.00     0.173 C 
BRANCH   8   9
ATOM      9  C   UNL A   1      32.728  21.658  24.302  1.00  0.00     0.045 C 
BRANCH   9  10
ATOM     10  C   UNL A   1      32.170  22.411  23.103  1.00  0.00     0.102 C 
BRANCH  10  11
ATOM     11  C   UNL A   1      33.242  23.183  22.382  1.00  0.00     0.217 C 
ATOM     12  N   UNL A   1      32.803  23.965  21.358  1.00  0.00    -0.370 N 
ATOM     13  H   UNL A   1      33.446  24.501  20.838  1.00  0.00     0.159 HD
ATOM     14  H   UNL A   1      31.845  23.996  21.138  1.00  0.00     0.159 HD
ATOM     15  O   UNL A   1      34.425  23.150  22.696  1.00  0.00    -0.275 OA
ENDBRANCH  10  11
ENDBRANCH   9  10
ENDBRANCH   8   9
BRANCH   8  16
ATOM     16  N   UNL A   1      31.603  22.509  26.405  1.00  0.00    -0.326 N 
ATOM     17  C   UNL A   1      30.759  23.499  26.775  1.00  0.00     0.319 C 
ATOM     18  H   UNL A   1      31.319  21.626  26.736  1.00  0.00     0.166 HD
ATOM     19  O   UNL A   1      29.779  23.168  27.446  1.00  0.00    -0.248 OA
ATOM     20  N   UNL A   1      31.015  24.820  26.622  1.00  0.00    -0.308 N 
ATOM     21  H   UNL A   1      30.538  25.392  27.266  1.00  0.00     0.171 HD
BRANCH  20  22
ATOM     22  C   UNL A   1      31.822  25.529  25.728  1.00  0.00     0.044 A 
ATOM     23  C   UNL A   1      33.052  26.056  26.113  1.00  0.00     0.028 A 
ATOM     24  C   UNL A   1      31.330  25.769  24.440  1.00  0.00     0.048 A 
ATOM     25  C   UNL A   1      33.719  26.948  25.271  1.00  0.00     0.024 A 
ATOM     26  C   UNL A   1      31.967  26.708  23.620  1.00  0.00     0.061 A 
ATOM     27  C   UNL A   1      33.155  27.313  24.044  1.00  0.00     0.059 A 
ATOM     28  Cl  UNL A   1      31.176  27.149  22.147  1.00  0.00    -0.083 Cl
ATOM     29  Cl  UNL A   1      33.953  28.540  23.125  1.00  0.00    -0.083 Cl
ENDBRANCH  20  22
ENDBRANCH   8  16
ENDBRANCH   5   8
ENDBRANCH   3   4
ENDBRANCH   2   3
ENDBRANCH   1   2
BRANCH   1  30
ATOM     30  C   UNL A   1      39.614  23.255  26.584  1.00  0.00     0.002 C 
BRANCH  30  31
ATOM     31  C   UNL A   1      39.414  21.757  26.818  1.00  0.00     0.021 C 
BRANCH  31  32
ATOM     32  C   UNL A   1      39.791  20.906  25.618  1.00  0.00     0.116 C 
BRANCH  32  33
ATOM     33  N   UNL A   1      40.647  19.793  25.989  1.00  0.00    -0.352 N 
ATOM     34  C   UNL A   1      41.947  19.847  26.414  1.00  0.00     0.251 C 
ATOM     35  H   UNL A   1      40.246  18.895  25.926  1.00  0.00     0.163 HD
ATOM     36  O   UNL A   1      42.616  18.823  26.522  1.00  0.00    -0.269 OA
BRANCH  34  37
ATOM     37  C   UNL A   1      42.532  21.168  26.704  1.00  0.00     0.039 A 
ATOM     38  C   UNL A   1      42.891  21.994  25.641  1.00  0.00     0.014 A 
ATOM     39  C   UNL A   1      42.670  21.603  28.028  1.00  0.00     0.014 A 
ATOM     40  C   UNL A   1      43.370  23.274  25.906  1.00  0.00     0.010 A 
ATOM     41  C   UNL A   1      43.064  22.910  28.285  1.00  0.00     0.010 A 
ATOM     42  C   UNL A   1      43.443  23.749  27.228  1.00  0.00    -0.014 A 
BRANCH  42  43
ATOM     43  C   UNL A   1      43.950  25.113  27.511  1.00  0.00     0.031 A 
ATOM     44  C   UNL A   1      45.397  25.444  27.260  1.00  0.00     0.074 A 
ATOM     45  C   UNL A   1      43.114  26.044  28.010  1.00  0.00     0.049 A 
ATOM     46  N   UNL A   1      46.018  26.585  27.413  1.00  0.00    -0.248 NA
ATOM     47  C   UNL A   1      46.268  24.347  26.800  1.00  0.00     0.031 C 
ATOM     48  C   UNL A   1      41.705  25.823  28.349  1.00  0.00     0.029 A 
ATOM     49  N   UNL A   1      43.324  27.365  28.312  1.00  0.00    -0.354 N 
ATOM     50  C   UNL A   1      47.347  26.339  27.085  1.00  0.00     0.074 A 
ATOM     51  C   UNL A   1      47.456  24.931  26.780  1.00  0.00     0.031 C 
ATOM     52  C   UNL A   1      41.169  26.979  28.774  1.00  0.00     0.029 A 
ATOM     53  C   UNL A   1      42.201  28.011  28.772  1.00  0.00     0.049 A 
ATOM     54  H   UNL A   1      44.197  27.809  28.210  1.00  0.00     0.167 HD
ATOM     55  C   UNL A   1      48.378  27.213  27.016  1.00  0.00     0.031 A 
ATOM     56  C   UNL A   1      42.022  29.292  29.147  1.00  0.00     0.031 A 
ATOM     57  C   UNL A   1      48.256  28.617  27.303  1.00  0.00     0.049 A 
ATOM     58  C   UNL A   1      43.180  30.247  29.049  1.00  0.00     0.074 A 
ATOM     59  C   UNL A   1      49.222  29.603  27.196  1.00  0.00     0.029 A 
ATOM     60  N   UNL A   1      47.101  29.236  27.756  1.00  0.00    -0.354 N 
ATOM     61  N   UNL A   1      44.408  30.015  28.648  1.00  0.00    -0.248 NA
ATOM     62  C   UNL A   1      42.924  31.640  29.436  1.00  0.00     0.031 C 
ATOM     63  C   UNL A   1      48.668  30.805  27.644  1.00  0.00     0.029 A 
ATOM     64  C   UNL A   1      47.338  30.584  27.964  1.00  0.00     0.049 A 
ATOM     65  H   UNL A   1      46.240  28.783  27.907  1.00  0.00     0.167 HD
ATOM     66  C   UNL A   1      45.065  31.239  28.713  1.00  0.00     0.074 A 
ATOM     67  C   UNL A   1      44.090  32.211  29.167  1.00  0.00     0.031 C 
ATOM     68  C   UNL A   1      46.358  31.534  28.427  1.00  0.00     0.031 A 
BRANCH  55  69
ATOM     69  C   UNL A   1      49.728  26.674  26.624  1.00  0.00    -0.014 A 
ATOM     70  C   UNL A   1      50.635  26.200  27.591  1.00  0.00     0.010 A 
ATOM     71  C   UNL A   1      50.078  26.594  25.264  1.00  0.00     0.010 A 
ATOM     72  C   UNL A   1      51.878  25.692  27.208  1.00  0.00     0.020 A 
ATOM     73  C   UNL A   1      51.308  26.057  24.874  1.00  0.00     0.020 A 
ATOM     74  C   UNL A   1      52.206  25.621  25.850  1.00  0.00     0.054 A 
BRANCH  74  75
ATOM     75  S   UNL A   1      53.811  24.919  25.380  1.00  0.00     0.124 S 
ATOM     76  O   UNL A   1      54.638  25.253  26.537  1.00  0.00    -0.237 OA
ATOM     77  O   UNL A   1      53.503  23.501  25.217  1.00  0.00    -0.237 OA
ATOM     78  O   UNL A   1      54.151  25.626  24.147  1.00  0.00    -0.744 OA
ENDBRANCH  74  75
ENDBRANCH  55  69
BRANCH  56  79
ATOM     79  C   UNL A   1      40.691  29.746  29.637  1.00  0.00    -0.014 A 
ATOM     80  C   UNL A   1      39.696  30.169  28.738  1.00  0.00     0.010 A 
ATOM     81  C   UNL A   1      40.410  29.753  31.016  1.00  0.00     0.010 A 
ATOM     82  C   UNL A   1      38.458  30.616  29.210  1.00  0.00     0.020 A 
ATOM     83  C   UNL A   1      39.164  30.168  31.490  1.00  0.00     0.020 A 
ATOM     84  C   UNL A   1      38.199  30.610  30.583  1.00  0.00     0.054 A 
BRANCH  84  85
ATOM     85  S   UNL A   1      36.571  31.155  31.170  1.00  0.00     0.124 S 
ATOM     86  O   UNL A   1      35.809  31.229  29.928  1.00  0.00    -0.237 OA
ATOM     87  O   UNL A   1      36.191  30.081  32.085  1.00  0.00    -0.237 OA
ATOM     88  O   UNL A   1      36.852  32.438  31.812  1.00  0.00    -0.744 OA
ENDBRANCH  84  85
ENDBRANCH  56  79
BRANCH  68  89
ATOM     89  C   UNL A   1      46.785  32.971  28.571  1.00  0.00    -0.014 A 
ATOM     90  C   UNL A   1      47.331  33.454  29.773  1.00  0.00     0.010 A 
ATOM     91  C   UNL A   1      46.669  33.842  27.471  1.00  0.00     0.010 A 
ATOM     92  C   UNL A   1      47.710  34.793  29.889  1.00  0.00     0.020 A 
ATOM     93  C   UNL A   1      47.079  35.173  27.572  1.00  0.00     0.020 A 
ATOM     94  C   UNL A   1      47.578  35.645  28.787  1.00  0.00     0.054 A 
BRANCH  94  95
ATOM     95  S   UNL A   1      48.097  37.375  28.957  1.00  0.00     0.124 S 
ATOM     96  O   UNL A   1      49.394  37.370  28.287  1.00  0.00    -0.237 OA
ATOM     97  O   UNL A   1      47.033  38.097  28.263  1.00  0.00    -0.237 OA
ATOM     98  O   UNL A   1      48.143  37.582  30.403  1.00  0.00    -0.744 OA
ENDBRANCH  94  95
ENDBRANCH  68  89
ENDBRANCH  42  43
ENDBRANCH  34  37
ENDBRANCH  32  33
ENDBRANCH  31  32
ENDBRANCH  30  31
ENDBRANCH   1  30
TORSDOF 21
ENDMDL
MODEL 2
REMARK VINA RESULT:     -10.3      3.742      9.223
REMARK SMILES NC(=O)CC[C@@H](NC(=O)Nc1ccc(Cl)c(Cl)c1)C(=O)NCCCCCCNC(=O)c1ccc(-c2c3nc(c(-c4ccc(S(=O)(=O)[O-])cc4)c4ccc([nH]4)c(-c4ccc(S(=O)(=O)[O-])cc4)c4nc(c(-c5ccc(S(=O)(=O)[O-])cc5)c5ccc2[nH]5)C=C4)C=C3)cc1
REMARK SMILES IDX 24 1 23 2 22 3 21 4 19 5 20 6 6 8 5 9 4 10 2 11 1 12 3 15
REMARK SMILES IDX 7 16 8 17 9 19 10 20 11 22 12 23 18 24 13 25 16 26 14 27
REMARK SMILES IDX 17 28 15 29 25 30 26 31 27 32 28 33 29 34 30 36 31 37 32 38
REMARK SMILES IDX 90 39 33 40 89 41 34 42 35 43 36 44 83 45 37 46 88 47 82 48
REMARK SMILES IDX 84 49 38 50 87 51 81 52 80 53 39 55 69 56 50 57 68 58 51 59
REMARK SMILES IDX 54 60 67 61 85 62 52 63 53 64 66 66 86 67 55 68 40 69 41 70
REMARK SMILES IDX 49 71 42 72 48 73 43 74 44 75 45 76 46 77 47 78 70 79 71 80
REMARK SMILES IDX 79 81 72 82 78 83 73 84 74 85 75 86 76 87 77 88 56 89 57 90
REMARK SMILES IDX 65 91 58 92 64 93 59 94 60 95 61 96 62 97 63 98
REMARK H PARENT 21 7 1 13 1 14 7 18 10 21 28 35 84 54 54 65
REMARK Flexibility Score: inf
ROOT
ATOM      1  C   UNL A   1      31.416  28.600  24.136  1.00  0.00     0.002 C 
ENDROOT
BRANCH   1   2
ATOM      2  C   UNL A   1      31.405  27.725  22.867  1.00  0.00     0.021 C 
BRANCH   2   3
ATOM      3  C   UNL A   1      30.863  26.316  23.118  1.00  0.00     0.116 C 
BRANCH   3   4
ATOM      4  N   UNL A   1      31.756  25.388  22.469  1.00  0.00    -0.354 N 
ATOM      5  C   UNL A   1      33.051  25.172  22.823  1.00  0.00     0.242 C 
ATOM      6  O   UNL A   1      33.940  25.399  22.003  1.00  0.00    -0.273 OA
ATOM      7  H   UNL A   1      31.400  24.869  21.711  1.00  0.00     0.163 HD
BRANCH   5   8
ATOM      8  C   UNL A   1      33.354  24.682  24.245  1.00  0.00     0.173 C 
BRANCH   8   9
ATOM      9  C   UNL A   1      34.877  24.844  24.438  1.00  0.00     0.045 C 
BRANCH   9  10
ATOM     10  C   UNL A   1      35.629  23.627  24.958  1.00  0.00     0.102 C 
BRANCH  10  11
ATOM     11  C   UNL A   1      36.280  22.855  23.842  1.00  0.00     0.217 C 
ATOM     12  N   UNL A   1      36.933  21.724  24.224  1.00  0.00    -0.370 N 
ATOM     13  H   UNL A   1      37.385  21.166  23.550  1.00  0.00     0.159 HD
ATOM     14  H   UNL A   1      36.954  21.465  25.173  1.00  0.00     0.159 HD
ATOM     15  O   UNL A   1      36.214  23.185  22.665  1.00  0.00    -0.275 OA
ENDBRANCH  10  11
ENDBRANCH   9  10
ENDBRANCH   8   9
BRANCH   8  16
ATOM     16  N   UNL A   1      32.543  25.355  25.276  1.00  0.00    -0.326 N 
ATOM     17  C   UNL A   1      31.819  24.933  26.338  1.00  0.00     0.319 C 
ATOM     18  H   UNL A   1      32.523  26.334  25.168  1.00  0.00     0.166 HD
ATOM     19  O   UNL A   1      31.259  25.806  27.006  1.00  0.00    -0.248 OA
ATOM     20  N   UNL A   1      31.521  23.638  26.595  1.00  0.00    -0.308 N 
ATOM     21  H   UNL A   1      30.700  23.519  27.124  1.00  0.00     0.171 HD
BRANCH  20  22
ATOM     22  C   UNL A   1      32.152  22.437  26.257  1.00  0.00     0.044 A 
ATOM     23  C   UNL A   1      33.199  21.923  27.015  1.00  0.00     0.028 A 
ATOM     24  C   UNL A   1      31.754  21.789  25.081  1.00  0.00     0.048 A 
ATOM     25  C   UNL A   1      33.952  20.854  26.525  1.00  0.00     0.024 A 
ATOM     26  C   UNL A   1      32.544  20.757  24.560  1.00  0.00     0.061 A 
ATOM     27  C   UNL A   1      33.656  20.300  25.275  1.00  0.00     0.059 A 
ATOM     28  Cl  UNL A   1      32.148  20.167  22.984  1.00  0.00    -0.083 Cl
ATOM     29  Cl  UNL A   1      34.723  19.089  24.659  1.00  0.00    -0.083 Cl
ENDBRANCH  20  22
ENDBRANCH   8  16
ENDBRANCH   5   8
ENDBRANCH   3   4
ENDBRANCH   2   3
ENDBRANCH   1   2
BRANCH   1  30
ATOM     30  C   UNL A   1      32.770  29.261  24.427  1.00  0.00     0.002 C 
BRANCH  30  31
ATOM     31  C   UNL A   1      33.828  28.290  24.951  1.00  0.00     0.021 C 
BRANCH  31  32
ATOM     32  C   UNL A   1      34.023  28.368  26.455  1.00  0.00     0.116 C 
BRANCH  32  33
ATOM     33  N   UNL A   1      33.710  29.687  26.977  1.00  0.00    -0.352 N 
ATOM     34  C   UNL A   1      34.466  30.447  27.827  1.00  0.00     0.251 C 
ATOM     35  H   UNL A   1      32.854  30.078  26.686  1.00  0.00     0.163 HD
ATOM     36  O   UNL A   1      34.007  31.466  28.337  1.00  0.00    -0.269 OA
BRANCH  34  37
ATOM     37  C   UNL A   1      35.833  29.993  28.142  1.00  0.00     0.039 A 
ATOM     38  C   UNL A   1      36.832  30.151  27.184  1.00  0.00     0.014 A 
ATOM     39  C   UNL A   1      36.127  29.463  29.404  1.00  0.00     0.014 A 
ATOM     40  C   UNL A   1      38.141  29.798  27.503  1.00  0.00     0.010 A 
ATOM     41  C   UNL A   1      37.446  29.195  29.747  1.00  0.00     0.010 A 
ATOM     42  C   UNL A   1      38.461  29.335  28.791  1.00  0.00    -0.014 A 
BRANCH  42  43
ATOM     43  C   UNL A   1      39.855  28.962  29.132  1.00  0.00     0.031 A 
ATOM     44  C   UNL A   1      40.744  29.947  29.843  1.00  0.00     0.074 A 
ATOM     45  C   UNL A   1      40.323  27.747  28.785  1.00  0.00     0.049 A 
ATOM     46  N   UNL A   1      41.976  29.795  30.254  1.00  0.00    -0.248 NA
ATOM     47  C   UNL A   1      40.188  31.287  30.105  1.00  0.00     0.031 C 
ATOM     48  C   UNL A   1      39.572  26.730  28.043  1.00  0.00     0.029 A 
ATOM     49  N   UNL A   1      41.539  27.157  29.018  1.00  0.00    -0.354 N 
ATOM     50  C   UNL A   1      42.344  31.017  30.806  1.00  0.00     0.074 A 
ATOM     51  C   UNL A   1      41.229  31.917  30.627  1.00  0.00     0.031 C 
ATOM     52  C   UNL A   1      40.331  25.629  27.917  1.00  0.00     0.029 A 
ATOM     53  C   UNL A   1      41.630  25.873  28.536  1.00  0.00     0.049 A 
ATOM     54  H   UNL A   1      42.277  27.611  29.486  1.00  0.00     0.167 HD
ATOM     55  C   UNL A   1      43.497  31.350  31.431  1.00  0.00     0.031 A 
ATOM     56  C   UNL A   1      42.645  24.990  28.589  1.00  0.00     0.031 A 
ATOM     57  C   UNL A   1      44.596  30.441  31.622  1.00  0.00     0.049 A 
ATOM     58  C   UNL A   1      43.912  25.380  29.301  1.00  0.00     0.074 A 
ATOM     59  C   UNL A   1      45.781  30.657  32.303  1.00  0.00     0.029 A 
ATOM     60  N   UNL A   1      44.647  29.146  31.128  1.00  0.00    -0.354 N 
ATOM     61  N   UNL A   1      44.207  26.511  29.899  1.00  0.00    -0.248 NA
ATOM     62  C   UNL A   1      44.975  24.369  29.363  1.00  0.00     0.031 C 
ATOM     63  C   UNL A   1      46.575  29.515  32.167  1.00  0.00     0.029 A 
ATOM     64  C   UNL A   1      45.857  28.562  31.462  1.00  0.00     0.049 A 
ATOM     65  H   UNL A   1      43.930  28.708  30.616  1.00  0.00     0.167 HD
ATOM     66  C   UNL A   1      45.481  26.338  30.427  1.00  0.00     0.074 A 
ATOM     67  C   UNL A   1      45.888  24.986  30.100  1.00  0.00     0.031 C 
ATOM     68  C   UNL A   1      46.249  27.218  31.118  1.00  0.00     0.031 A 
BRANCH  55  69
ATOM     69  C   UNL A   1      43.633  32.759  31.947  1.00  0.00    -0.014 A 
ATOM     70  C   UNL A   1      43.107  33.132  33.198  1.00  0.00     0.010 A 
ATOM     71  C   UNL A   1      44.339  33.712  31.191  1.00  0.00     0.010 A 
ATOM     72  C   UNL A   1      43.253  34.440  33.666  1.00  0.00     0.020 A 
ATOM     73  C   UNL A   1      44.515  35.013  31.670  1.00  0.00     0.020 A 
ATOM     74  C   UNL A   1      43.959  35.373  32.899  1.00  0.00     0.054 A 
BRANCH  74  75
ATOM     75  S   UNL A   1      44.167  37.053  33.550  1.00  0.00     0.124 S 
ATOM     76  O   UNL A   1      45.546  37.022  34.029  1.00  0.00    -0.237 OA
ATOM     77  O   UNL A   1      43.930  37.883  32.371  1.00  0.00    -0.237 OA
ATOM     78  O   UNL A   1      43.148  37.151  34.592  1.00  0.00    -0.744 OA
ENDBRANCH  74  75
ENDBRANCH  55  69
BRANCH  56  79
ATOM     79  C   UNL A   1      42.500  23.647  27.961  1.00  0.00    -0.014 A 
ATOM     80  C   UNL A   1      42.962  23.407  26.655  1.00  0.00     0.010 A 
ATOM     81  C   UNL A   1      41.899  22.594  28.676  1.00  0.00     0.010 A 
ATOM     82  C   UNL A   1      42.800  22.149  26.066  1.00  0.00     0.020 A 
ATOM     83  C   UNL A   1      41.764  21.327  28.103  1.00  0.00     0.020 A 
ATOM     84  C   UNL A   1      42.204  21.117  26.795  1.00  0.00     0.054 A 
BRANCH  84  85
ATOM     85  S   UNL A   1      42.042  19.482  26.026  1.00  0.00     0.124 S 
ATOM     86  O   UNL A   1      42.526  18.599  27.083  1.00  0.00    -0.237 OA
ATOM     87  O   UNL A   1      40.610  19.408  25.744  1.00  0.00    -0.237 OA
ATOM     88  O   UNL A   1      42.897  19.573  24.845  1.00  0.00    -0.744 OA
ENDBRANCH  84  85
ENDBRANCH  56  79
BRANCH  68  89
ATOM     89  C   UNL A   1      47.595  26.736  31.589  1.00  0.00    -0.014 A 
ATOM     90  C   UNL A   1      47.746  26.083  32.825  1.00  0.00     0.010 A 
ATOM     91  C   UNL A   1      48.721  26.909  30.763  1.00  0.00     0.010 A 
ATOM     92  C   UNL A   1      49.006  25.654  33.248  1.00  0.00     0.020 A 
ATOM     93  C   UNL A   1      49.977  26.452  31.167  1.00  0.00     0.020 A 
ATOM     94  C   UNL A   1      50.115  25.844  32.416  1.00  0.00     0.054 A 
BRANCH  94  95
ATOM     95  S   UNL A   1      51.737  25.260  32.979  1.00  0.00     0.124 S 
ATOM     96  O   UNL A   1      51.901  24.030  32.210  1.00  0.00    -0.237 OA
ATOM     97  O   UNL A   1      52.621  26.360  32.604  1.00  0.00    -0.237 OA
ATOM     98  O   UNL A   1      51.557  25.075  34.419  1.00  0.00    -0.744 OA
ENDBRANCH  94  95
ENDBRANCH  68  89
ENDBRANCH  42  43
ENDBRANCH  34  37
ENDBRANCH  32  33
ENDBRANCH  31  32
ENDBRANCH  30  31
ENDBRANCH   1  30
TORSDOF 21
ENDMDL
MODEL 3
REMARK VINA RESULT:     -10.3      2.749      4.134
REMARK SMILES NC(=O)CC[C@@H](NC(=O)Nc1ccc(Cl)c(Cl)c1)C(=O)NCCCCCCNC(=O)c1ccc(-c2c3nc(c(-c4ccc(S(=O)(=O)[O-])cc4)c4ccc([nH]4)c(-c4ccc(S(=O)(=O)[O-])cc4)c4nc(c(-c5ccc(S(=O)(=O)[O-])cc5)c5ccc2[nH]5)C=C4)C=C3)cc1
REMARK SMILES IDX 24 1 23 2 22 3 21 4 19 5 20 6 6 8 5 9 4 10 2 11 1 12 3 15
REMARK SMILES IDX 7 16 8 17 9 19 10 20 11 22 12 23 18 24 13 25 16 26 14 27
REMARK SMILES IDX 17 28 15 29 25 30 26 31 27 32 28 33 29 34 30 36 31 37 32 38
REMARK SMILES IDX 90 39 33 40 89 41 34 42 35 43 36 44 83 45 37 46 88 47 82 48
REMARK SMILES IDX 84 49 38 50 87 51 81 52 80 53 39 55 69 56 50 57 68 58 51 59
REMARK SMILES IDX 54 60 67 61 85 62 52 63 53 64 66 66 86 67 55 68 40 69 41 70
REMARK SMILES IDX 49 71 42 72 48 73 43 74 44 75 45 76 46 77 47 78 70 79 71 80
REMARK SMILES IDX 79 81 72 82 78 83 73 84 74 85 75 86 76 87 77 88 56 89 57 90
REMARK SMILES IDX 65 91 58 92 64 93 59 94 60 95 61 96 62 97 63 98
REMARK H PARENT 21 7 1 13 1 14 7 18 10 21 28 35 84 54 54 65
REMARK Flexibility Score: inf
ROOT
ATOM      1  C   UNL A   1      34.398  25.224  24.865  1.00  0.00     0.002 C 
ENDROOT
BRANCH   1   2
ATOM      2  C   UNL A   1      33.845  25.694  23.504  1.00  0.00     0.021 C 
BRANCH   2   3
ATOM      3  C   UNL A   1      33.942  27.208  23.310  1.00  0.00     0.116 C 
BRANCH   3   4
ATOM      4  N   UNL A   1      32.908  27.592  22.381  1.00  0.00    -0.354 N 
ATOM      5  C   UNL A   1      31.580  27.343  22.543  1.00  0.00     0.242 C 
ATOM      6  O   UNL A   1      30.996  26.654  21.708  1.00  0.00    -0.273 OA
ATOM      7  H   UNL A   1      33.184  28.072  21.566  1.00  0.00     0.163 HD
BRANCH   5   8
ATOM      8  C   UNL A   1      30.871  27.910  23.779  1.00  0.00     0.173 C 
BRANCH   8   9
ATOM      9  C   UNL A   1      29.833  28.923  23.251  1.00  0.00     0.045 C 
BRANCH   9  10
ATOM     10  C   UNL A   1      30.237  29.736  22.030  1.00  0.00     0.102 C 
BRANCH  10  11
ATOM     11  C   UNL A   1      29.120  30.629  21.561  1.00  0.00     0.217 C 
ATOM     12  N   UNL A   1      29.267  31.948  21.864  1.00  0.00    -0.370 N 
ATOM     13  H   UNL A   1      28.576  32.596  21.591  1.00  0.00     0.159 HD
ATOM     14  H   UNL A   1      30.063  32.254  22.355  1.00  0.00     0.159 HD
ATOM     15  O   UNL A   1      28.155  30.227  20.925  1.00  0.00    -0.275 OA
ENDBRANCH  10  11
ENDBRANCH   9  10
ENDBRANCH   8   9
BRANCH   8  16
ATOM     16  N   UNL A   1      30.301  26.865  24.651  1.00  0.00    -0.326 N 
ATOM     17  C   UNL A   1      30.515  26.477  25.929  1.00  0.00     0.319 C 
ATOM     18  H   UNL A   1      29.608  26.329  24.202  1.00  0.00     0.166 HD
ATOM     19  O   UNL A   1      29.828  25.540  26.343  1.00  0.00    -0.248 OA
ATOM     20  N   UNL A   1      31.539  26.911  26.700  1.00  0.00    -0.308 N 
ATOM     21  H   UNL A   1      31.796  26.279  27.410  1.00  0.00     0.171 HD
BRANCH  20  22
ATOM     22  C   UNL A   1      32.301  28.083  26.688  1.00  0.00     0.044 A 
ATOM     23  C   UNL A   1      33.674  28.065  26.911  1.00  0.00     0.028 A 
ATOM     24  C   UNL A   1      31.635  29.303  26.518  1.00  0.00     0.048 A 
ATOM     25  C   UNL A   1      34.360  29.263  27.120  1.00  0.00     0.024 A 
ATOM     26  C   UNL A   1      32.308  30.501  26.786  1.00  0.00     0.061 A 
ATOM     27  C   UNL A   1      33.671  30.480  27.105  1.00  0.00     0.059 A 
ATOM     28  Cl  UNL A   1      31.374  31.955  26.806  1.00  0.00    -0.083 Cl
ATOM     29  Cl  UNL A   1      34.549  31.907  27.528  1.00  0.00    -0.083 Cl
ENDBRANCH  20  22
ENDBRANCH   8  16
ENDBRANCH   5   8
ENDBRANCH   3   4
ENDBRANCH   2   3
ENDBRANCH   1   2
BRANCH   1  30
ATOM     30  C   UNL A   1      34.766  23.736  24.910  1.00  0.00     0.002 C 
BRANCH  30  31
ATOM     31  C   UNL A   1      36.266  23.469  24.783  1.00  0.00     0.021 C 
BRANCH  31  32
ATOM     32  C   UNL A   1      36.965  23.316  26.123  1.00  0.00     0.116 C 
BRANCH  32  33
ATOM     33  N   UNL A   1      37.915  22.218  26.118  1.00  0.00    -0.352 N 
ATOM     34  C   UNL A   1      39.264  22.283  26.341  1.00  0.00     0.251 C 
ATOM     35  H   UNL A   1      37.547  21.324  25.931  1.00  0.00     0.163 HD
ATOM     36  O   UNL A   1      39.984  21.311  26.130  1.00  0.00    -0.269 OA
BRANCH  34  37
ATOM     37  C   UNL A   1      39.834  23.560  26.807  1.00  0.00     0.039 A 
ATOM     38  C   UNL A   1      40.496  23.594  28.033  1.00  0.00     0.014 A 
ATOM     39  C   UNL A   1      39.756  24.703  26.002  1.00  0.00     0.014 A 
ATOM     40  C   UNL A   1      41.106  24.777  28.443  1.00  0.00     0.010 A 
ATOM     41  C   UNL A   1      40.439  25.854  26.374  1.00  0.00     0.010 A 
ATOM     42  C   UNL A   1      41.098  25.910  27.610  1.00  0.00    -0.014 A 
BRANCH  42  43
ATOM     43  C   UNL A   1      41.749  27.169  28.045  1.00  0.00     0.031 A 
ATOM     44  C   UNL A   1      43.231  27.352  27.855  1.00  0.00     0.074 A 
ATOM     45  C   UNL A   1      41.011  28.134  28.626  1.00  0.00     0.049 A 
ATOM     46  N   UNL A   1      43.974  28.391  28.139  1.00  0.00    -0.248 NA
ATOM     47  C   UNL A   1      43.983  26.214  27.296  1.00  0.00     0.031 C 
ATOM     48  C   UNL A   1      39.577  28.046  28.916  1.00  0.00     0.029 A 
ATOM     49  N   UNL A   1      41.362  29.383  29.070  1.00  0.00    -0.354 N 
ATOM     50  C   UNL A   1      45.275  28.026  27.809  1.00  0.00     0.074 A 
ATOM     51  C   UNL A   1      45.231  26.654  27.358  1.00  0.00     0.031 C 
ATOM     52  C   UNL A   1      39.165  29.206  29.452  1.00  0.00     0.029 A 
ATOM     53  C   UNL A   1      40.308  30.105  29.577  1.00  0.00     0.049 A 
ATOM     54  H   UNL A   1      42.283  29.730  29.031  1.00  0.00     0.167 HD
ATOM     55  C   UNL A   1      46.401  28.776  27.851  1.00  0.00     0.031 A 
ATOM     56  C   UNL A   1      40.266  31.352  30.084  1.00  0.00     0.031 A 
ATOM     57  C   UNL A   1      46.433  30.148  28.284  1.00  0.00     0.049 A 
ATOM     58  C   UNL A   1      41.528  32.170  30.107  1.00  0.00     0.074 A 
ATOM     59  C   UNL A   1      47.508  31.019  28.298  1.00  0.00     0.029 A 
ATOM     60  N   UNL A   1      45.343  30.847  28.780  1.00  0.00    -0.354 N 
ATOM     61  N   UNL A   1      42.733  31.839  29.704  1.00  0.00    -0.248 NA
ATOM     62  C   UNL A   1      41.422  33.536  30.636  1.00  0.00     0.031 C 
ATOM     63  C   UNL A   1      47.083  32.225  28.862  1.00  0.00     0.029 A 
ATOM     64  C   UNL A   1      45.727  32.129  29.135  1.00  0.00     0.049 A 
ATOM     65  H   UNL A   1      44.432  30.485  28.868  1.00  0.00     0.167 HD
ATOM     66  C   UNL A   1      43.523  32.965  29.910  1.00  0.00     0.074 A 
ATOM     67  C   UNL A   1      42.653  33.991  30.448  1.00  0.00     0.031 C 
ATOM     68  C   UNL A   1      44.849  33.134  29.679  1.00  0.00     0.031 A 
BRANCH  55  69
ATOM     69  C   UNL A   1      47.692  28.126  27.427  1.00  0.00    -0.014 A 
ATOM     70  C   UNL A   1      48.080  28.086  26.075  1.00  0.00     0.010 A 
ATOM     71  C   UNL A   1      48.554  27.590  28.400  1.00  0.00     0.010 A 
ATOM     72  C   UNL A   1      49.287  27.491  25.701  1.00  0.00     0.020 A 
ATOM     73  C   UNL A   1      49.777  27.022  28.034  1.00  0.00     0.020 A 
ATOM     74  C   UNL A   1      50.130  26.964  26.684  1.00  0.00     0.054 A 
BRANCH  74  75
ATOM     75  S   UNL A   1      51.709  26.232  26.174  1.00  0.00     0.124 S 
ATOM     76  O   UNL A   1      51.517  24.827  26.521  1.00  0.00    -0.237 OA
ATOM     77  O   UNL A   1      51.748  26.526  24.744  1.00  0.00    -0.237 OA
ATOM     78  O   UNL A   1      52.698  26.944  26.981  1.00  0.00    -0.744 OA
ENDBRANCH  74  75
ENDBRANCH  55  69
BRANCH  56  79
ATOM     79  C   UNL A   1      38.982  31.906  30.597  1.00  0.00    -0.014 A 
ATOM     80  C   UNL A   1      38.528  31.597  31.891  1.00  0.00     0.010 A 
ATOM     81  C   UNL A   1      38.206  32.757  29.788  1.00  0.00     0.010 A 
ATOM     82  C   UNL A   1      37.310  32.104  32.355  1.00  0.00     0.020 A 
ATOM     83  C   UNL A   1      37.005  33.291  30.259  1.00  0.00     0.020 A 
ATOM     84  C   UNL A   1      36.557  32.950  31.537  1.00  0.00     0.054 A 
BRANCH  84  85
ATOM     85  S   UNL A   1      35.001  33.629  32.174  1.00  0.00     0.124 S 
ATOM     86  O   UNL A   1      34.830  32.884  33.417  1.00  0.00    -0.237 OA
ATOM     87  O   UNL A   1      35.314  35.048  32.322  1.00  0.00    -0.237 OA
ATOM     88  O   UNL A   1      34.037  33.320  31.120  1.00  0.00    -0.744 OA
ENDBRANCH  84  85
ENDBRANCH  56  79
BRANCH  68  89
ATOM     89  C   UNL A   1      45.433  34.488  29.982  1.00  0.00    -0.014 A 
ATOM     90  C   UNL A   1      45.979  34.783  31.244  1.00  0.00     0.010 A 
ATOM     91  C   UNL A   1      45.469  35.470  28.973  1.00  0.00     0.010 A 
ATOM     92  C   UNL A   1      46.506  36.050  31.507  1.00  0.00     0.020 A 
ATOM     93  C   UNL A   1      46.025  36.726  29.222  1.00  0.00     0.020 A 
ATOM     94  C   UNL A   1      46.523  37.014  30.494  1.00  0.00     0.054 A 
BRANCH  94  95
ATOM     95  S   UNL A   1      47.231  38.644  30.856  1.00  0.00     0.124 S 
ATOM     96  O   UNL A   1      46.797  38.865  32.232  1.00  0.00    -0.237 OA
ATOM     97  O   UNL A   1      48.662  38.419  30.675  1.00  0.00    -0.237 OA
ATOM     98  O   UNL A   1      46.612  39.519  29.860  1.00  0.00    -0.744 OA
ENDBRANCH  94  95
ENDBRANCH  68  89
ENDBRANCH  42  43
ENDBRANCH  34  37
ENDBRANCH  32  33
ENDBRANCH  31  32
ENDBRANCH  30  31
ENDBRANCH   1  30
TORSDOF 21
ENDMDL
