MODEL 1
REMARK VINA RESULT:     -11.4      0.000      0.000
REMARK SMILES COc1ccccc1OC1CCN(c2cccc(C(=O)NCCCCCCNC(=O)c3ccc(-c4c5nc(c(-c6ccc(S(=O)(=O)[O-])cc6)c6ccc([nH]6)c(-c6ccc(S(=O)(=O)[O-])cc6)c6nc(c(-c7ccc(S(=O)(=O)[O-])cc7)c7ccc4[nH]7)C=C6)C=C5)cc3)n2)CC1
REMARK SMILES IDX 24 1 23 2 22 3 21 4 19 5 20 6 18 8 14 9 15 10 91 11 16 12
REMARK SMILES IDX 17 13 13 14 10 15 11 16 93 17 12 18 92 19 9 20 8 21 3 22
REMARK SMILES IDX 4 23 5 24 7 25 6 26 2 27 1 28 25 29 26 30 27 31 28 32 29 33
REMARK SMILES IDX 30 35 31 36 32 37 90 38 33 39 89 40 34 41 35 42 36 43 83 44
REMARK SMILES IDX 37 45 88 46 82 47 84 48 38 49 87 50 81 51 80 52 39 54 69 55
REMARK SMILES IDX 50 56 68 57 51 58 54 59 67 60 85 61 52 62 53 63 66 65 86 66
REMARK SMILES IDX 55 67 40 68 41 69 49 70 42 71 48 72 43 73 44 74 45 75 46 76
REMARK SMILES IDX 47 77 70 78 71 79 79 80 72 81 78 82 73 83 74 84 75 85 76 86
REMARK SMILES IDX 77 87 56 88 57 89 65 90 58 91 64 92 59 93 60 94 61 95 62 96
REMARK SMILES IDX 63 97
REMARK H PARENT 21 7 28 34 84 53 54 64
REMARK Flexibility Score: inf
ROOT
ATOM      1  C   UNL A   1      38.329  23.302  26.293  1.00  0.00     0.002 C 
ENDROOT
BRANCH   1   2
ATOM      2  C   UNL A   1      37.041  22.585  25.900  1.00  0.00     0.021 C 
BRANCH   2   3
ATOM      3  C   UNL A   1      37.134  21.763  24.624  1.00  0.00     0.116 C 
BRANCH   3   4
ATOM      4  N   UNL A   1      37.422  20.373  24.880  1.00  0.00    -0.351 N 
ATOM      5  C   UNL A   1      36.618  19.258  24.913  1.00  0.00     0.269 C 
ATOM      6  O   UNL A   1      37.167  18.206  25.257  1.00  0.00    -0.268 OA
ATOM      7  H   UNL A   1      38.370  20.188  25.067  1.00  0.00     0.163 HD
BRANCH   5   8
ATOM      8  C   UNL A   1      35.153  19.263  24.563  1.00  0.00     0.130 A 
ATOM      9  C   UNL A   1      33.335  20.658  24.241  1.00  0.00     0.129 A 
ATOM     10  C   UNL A   1      32.480  19.577  24.096  1.00  0.00     0.047 A 
ATOM     11  N   UNL A   1      34.660  20.511  24.381  1.00  0.00    -0.226 NA
ATOM     12  C   UNL A   1      32.985  18.297  24.230  1.00  0.00     0.006 A 
ATOM     13  C   UNL A   1      34.328  18.145  24.554  1.00  0.00     0.034 A 
BRANCH   9  14
ATOM     14  N   UNL A   1      32.812  21.915  24.443  1.00  0.00    -0.356 N 
ATOM     15  C   UNL A   1      32.595  25.349  26.038  1.00  0.00     0.177 C 
ATOM     16  C   UNL A   1      33.671  25.058  24.445  1.00  0.00     0.066 C 
ATOM     17  C   UNL A   1      31.896  23.781  26.952  1.00  0.00     0.066 C 
ATOM     18  C   UNL A   1      33.597  23.327  23.562  1.00  0.00     0.122 C 
ATOM     19  C   UNL A   1      31.840  22.090  26.001  1.00  0.00     0.122 C 
BRANCH  15  20
ATOM     20  O   UNL A   1      31.423  26.100  25.599  1.00  0.00    -0.486 OA
BRANCH  20  21
ATOM     21  C   UNL A   1      31.637  27.439  25.866  1.00  0.00     0.161 A 
ATOM     22  C   UNL A   1      31.734  28.350  24.806  1.00  0.00     0.160 A 
ATOM     23  C   UNL A   1      31.941  29.702  25.076  1.00  0.00     0.050 A 
ATOM     24  C   UNL A   1      32.023  30.136  26.400  1.00  0.00     0.004 A 
ATOM     25  C   UNL A   1      31.727  27.863  27.186  1.00  0.00     0.050 A 
ATOM     26  C   UNL A   1      31.914  29.222  27.451  1.00  0.00     0.004 A 
BRANCH  22  27
ATOM     27  O   UNL A   1      31.556  27.723  23.587  1.00  0.00    -0.493 OA
ATOM     28  C   UNL A   1      31.268  26.790  22.016  1.00  0.00     0.278 C 
ENDBRANCH  22  27
ENDBRANCH  20  21
ENDBRANCH  15  20
ENDBRANCH   9  14
ENDBRANCH   5   8
ENDBRANCH   3   4
ENDBRANCH   2   3
ENDBRANCH   1   2
BRANCH   1  29
ATOM     29  C   UNL A   1      39.591  22.430  26.290  1.00  0.00     0.002 C 
BRANCH  29  30
ATOM     30  C   UNL A   1      40.401  22.444  27.591  1.00  0.00     0.021 C 
BRANCH  30  31
ATOM     31  C   UNL A   1      41.752  23.139  27.484  1.00  0.00     0.116 C 
BRANCH  31  32
ATOM     32  N   UNL A   1      41.842  23.938  26.275  1.00  0.00    -0.352 N 
ATOM     33  C   UNL A   1      41.534  25.261  26.089  1.00  0.00     0.251 C 
ATOM     34  H   UNL A   1      42.171  23.464  25.477  1.00  0.00     0.163 HD
ATOM     35  O   UNL A   1      41.412  25.709  24.953  1.00  0.00    -0.269 OA
BRANCH  33  36
ATOM     36  C   UNL A   1      41.347  26.137  27.264  1.00  0.00     0.039 A 
ATOM     37  C   UNL A   1      42.372  27.011  27.629  1.00  0.00     0.014 A 
ATOM     38  C   UNL A   1      40.167  26.080  28.014  1.00  0.00     0.014 A 
ATOM     39  C   UNL A   1      42.198  27.855  28.726  1.00  0.00     0.010 A 
ATOM     40  C   UNL A   1      39.961  26.984  29.048  1.00  0.00     0.010 A 
ATOM     41  C   UNL A   1      40.982  27.866  29.430  1.00  0.00    -0.014 A 
BRANCH  41  42
ATOM     42  C   UNL A   1      40.770  28.777  30.583  1.00  0.00     0.031 A 
ATOM     43  C   UNL A   1      41.628  28.647  31.814  1.00  0.00     0.074 A 
ATOM     44  C   UNL A   1      39.778  29.686  30.538  1.00  0.00     0.049 A 
ATOM     45  N   UNL A   1      41.585  29.338  32.923  1.00  0.00    -0.248 NA
ATOM     46  C   UNL A   1      42.649  27.586  31.809  1.00  0.00     0.031 C 
ATOM     47  C   UNL A   1      38.861  29.886  29.413  1.00  0.00     0.029 A 
ATOM     48  N   UNL A   1      39.377  30.620  31.460  1.00  0.00    -0.354 N 
ATOM     49  C   UNL A   1      42.554  28.784  33.753  1.00  0.00     0.074 A 
ATOM     50  C   UNL A   1      43.129  27.665  33.041  1.00  0.00     0.031 C 
ATOM     51  C   UNL A   1      38.040  30.910  29.691  1.00  0.00     0.029 A 
ATOM     52  C   UNL A   1      38.334  31.406  31.032  1.00  0.00     0.049 A 
ATOM     53  H   UNL A   1      39.798  30.718  32.346  1.00  0.00     0.167 HD
ATOM     54  C   UNL A   1      42.942  29.180  34.988  1.00  0.00     0.031 A 
ATOM     55  C   UNL A   1      37.687  32.414  31.649  1.00  0.00     0.031 A 
ATOM     56  C   UNL A   1      42.365  30.298  35.688  1.00  0.00     0.049 A 
ATOM     57  C   UNL A   1      38.118  32.818  33.033  1.00  0.00     0.074 A 
ATOM     58  C   UNL A   1      42.728  30.824  36.916  1.00  0.00     0.029 A 
ATOM     59  N   UNL A   1      41.298  31.056  35.229  1.00  0.00    -0.354 N 
ATOM     60  N   UNL A   1      39.088  32.331  33.771  1.00  0.00    -0.248 NA
ATOM     61  C   UNL A   1      37.373  33.916  33.662  1.00  0.00     0.031 C 
ATOM     62  C   UNL A   1      41.832  31.848  37.233  1.00  0.00     0.029 A 
ATOM     63  C   UNL A   1      40.963  32.018  36.166  1.00  0.00     0.049 A 
ATOM     64  H   UNL A   1      40.845  30.928  34.364  1.00  0.00     0.167 HD
ATOM     65  C   UNL A   1      39.095  33.092  34.936  1.00  0.00     0.074 A 
ATOM     66  C   UNL A   1      38.040  34.075  34.797  1.00  0.00     0.031 C 
ATOM     67  C   UNL A   1      39.906  32.989  36.018  1.00  0.00     0.031 A 
BRANCH  54  68
ATOM     68  C   UNL A   1      44.020  28.379  35.674  1.00  0.00    -0.014 A 
ATOM     69  C   UNL A   1      45.378  28.735  35.578  1.00  0.00     0.010 A 
ATOM     70  C   UNL A   1      43.664  27.262  36.452  1.00  0.00     0.010 A 
ATOM     71  C   UNL A   1      46.361  27.959  36.200  1.00  0.00     0.020 A 
ATOM     72  C   UNL A   1      44.639  26.504  37.106  1.00  0.00     0.020 A 
ATOM     73  C   UNL A   1      45.985  26.846  36.957  1.00  0.00     0.054 A 
BRANCH  73  74
ATOM     74  S   UNL A   1      47.280  25.862  37.759  1.00  0.00     0.124 S 
ATOM     75  O   UNL A   1      46.702  25.622  39.079  1.00  0.00    -0.237 OA
ATOM     76  O   UNL A   1      47.373  24.690  36.892  1.00  0.00    -0.237 OA
ATOM     77  O   UNL A   1      48.447  26.742  37.742  1.00  0.00    -0.744 OA
ENDBRANCH  73  74
ENDBRANCH  54  68
BRANCH  55  78
ATOM     78  C   UNL A   1      36.585  33.131  30.950  1.00  0.00    -0.014 A 
ATOM     79  C   UNL A   1      35.246  32.917  31.327  1.00  0.00     0.010 A 
ATOM     80  C   UNL A   1      36.865  34.040  29.913  1.00  0.00     0.010 A 
ATOM     81  C   UNL A   1      34.209  33.584  30.669  1.00  0.00     0.020 A 
ATOM     82  C   UNL A   1      35.832  34.733  29.275  1.00  0.00     0.020 A 
ATOM     83  C   UNL A   1      34.510  34.493  29.651  1.00  0.00     0.054 A 
BRANCH  83  84
ATOM     84  S   UNL A   1      33.149  35.386  28.848  1.00  0.00     0.124 S 
ATOM     85  O   UNL A   1      32.410  35.907  29.995  1.00  0.00    -0.237 OA
ATOM     86  O   UNL A   1      33.859  36.378  28.046  1.00  0.00    -0.237 OA
ATOM     87  O   UNL A   1      32.464  34.348  28.081  1.00  0.00    -0.744 OA
ENDBRANCH  83  84
ENDBRANCH  55  78
BRANCH  67  88
ATOM     88  C   UNL A   1      39.719  33.996  37.125  1.00  0.00    -0.014 A 
ATOM     89  C   UNL A   1      39.055  33.666  38.319  1.00  0.00     0.010 A 
ATOM     90  C   UNL A   1      40.265  35.286  36.980  1.00  0.00     0.010 A 
ATOM     91  C   UNL A   1      38.906  34.618  39.331  1.00  0.00     0.020 A 
ATOM     92  C   UNL A   1      40.151  36.228  38.004  1.00  0.00     0.020 A 
ATOM     93  C   UNL A   1      39.457  35.893  39.167  1.00  0.00     0.054 A 
BRANCH  93  94
ATOM     94  S   UNL A   1      39.283  37.096  40.512  1.00  0.00     0.124 S 
ATOM     95  O   UNL A   1      38.544  38.175  39.861  1.00  0.00    -0.237 OA
ATOM     96  O   UNL A   1      38.540  36.343  41.519  1.00  0.00    -0.237 OA
ATOM     97  O   UNL A   1      40.663  37.417  40.873  1.00  0.00    -0.744 OA
ENDBRANCH  93  94
ENDBRANCH  67  88
ENDBRANCH  41  42
ENDBRANCH  33  36
ENDBRANCH  31  32
ENDBRANCH  30  31
ENDBRANCH  29  30
ENDBRANCH   1  29
TORSDOF 20
ENDMDL
MODEL 2
REMARK VINA RESULT:     -11.4      1.923      3.827
REMARK SMILES COc1ccccc1OC1CCN(c2cccc(C(=O)NCCCCCCNC(=O)c3ccc(-c4c5nc(c(-c6ccc(S(=O)(=O)[O-])cc6)c6ccc([nH]6)c(-c6ccc(S(=O)(=O)[O-])cc6)c6nc(c(-c7ccc(S(=O)(=O)[O-])cc7)c7ccc4[nH]7)C=C6)C=C5)cc3)n2)CC1
REMARK SMILES IDX 24 1 23 2 22 3 21 4 19 5 20 6 18 8 14 9 15 10 91 11 16 12
REMARK SMILES IDX 17 13 13 14 10 15 11 16 93 17 12 18 92 19 9 20 8 21 3 22
REMARK SMILES IDX 4 23 5 24 7 25 6 26 2 27 1 28 25 29 26 30 27 31 28 32 29 33
REMARK SMILES IDX 30 35 31 36 32 37 90 38 33 39 89 40 34 41 35 42 36 43 83 44
REMARK SMILES IDX 37 45 88 46 82 47 84 48 38 49 87 50 81 51 80 52 39 54 69 55
REMARK SMILES IDX 50 56 68 57 51 58 54 59 67 60 85 61 52 62 53 63 66 65 86 66
REMARK SMILES IDX 55 67 40 68 41 69 49 70 42 71 48 72 43 73 44 74 45 75 46 76
REMARK SMILES IDX 47 77 70 78 71 79 79 80 72 81 78 82 73 83 74 84 75 85 76 86
REMARK SMILES IDX 77 87 56 88 57 89 65 90 58 91 64 92 59 93 60 94 61 95 62 96
REMARK SMILES IDX 63 97
REMARK H PARENT 21 7 28 34 84 53 54 64
REMARK Flexibility Score: inf
ROOT
ATOM      1  C   UNL A   1      45.563  23.616  24.706  1.00  0.00     0.002 C 
ENDROOT
BRANCH   1   2
ATOM      2  C   UNL A   1      44.720  22.357  24.523  1.00  0.00     0.021 C 
BRANCH   2   3
ATOM      3  C   UNL A   1      44.905  21.305  25.605  1.00  0.00     0.116 C 
BRANCH   3   4
ATOM      4  N   UNL A   1      44.056  20.155  25.411  1.00  0.00    -0.351 N 
ATOM      5  C   UNL A   1      42.773  19.880  25.817  1.00  0.00     0.269 C 
ATOM      6  O   UNL A   1      42.356  18.746  25.560  1.00  0.00    -0.268 OA
ATOM      7  H   UNL A   1      44.476  19.431  24.893  1.00  0.00     0.163 HD
BRANCH   5   8
ATOM      8  C   UNL A   1      41.885  20.863  26.535  1.00  0.00     0.130 A 
ATOM      9  C   UNL A   1      39.788  21.839  26.484  1.00  0.00     0.129 A 
ATOM     10  C   UNL A   1      40.111  22.684  27.534  1.00  0.00     0.047 A 
ATOM     11  N   UNL A   1      40.622  20.884  26.050  1.00  0.00    -0.226 NA
ATOM     12  C   UNL A   1      41.385  22.634  28.071  1.00  0.00     0.006 A 
ATOM     13  C   UNL A   1      42.310  21.767  27.502  1.00  0.00     0.034 A 
BRANCH   9  14
ATOM     14  N   UNL A   1      38.667  22.094  25.728  1.00  0.00    -0.356 N 
ATOM     15  C   UNL A   1      34.958  22.605  25.116  1.00  0.00     0.177 C 
ATOM     16  C   UNL A   1      36.109  24.106  25.569  1.00  0.00     0.066 C 
ATOM     17  C   UNL A   1      35.701  20.816  25.293  1.00  0.00     0.066 C 
ATOM     18  C   UNL A   1      38.029  23.820  25.686  1.00  0.00     0.122 C 
ATOM     19  C   UNL A   1      37.628  20.607  25.389  1.00  0.00     0.122 C 
BRANCH  15  20
ATOM     20  O   UNL A   1      34.638  22.757  23.700  1.00  0.00    -0.486 OA
BRANCH  20  21
ATOM     21  C   UNL A   1      33.469  23.486  23.594  1.00  0.00     0.161 A 
ATOM     22  C   UNL A   1      32.247  22.816  23.443  1.00  0.00     0.160 A 
ATOM     23  C   UNL A   1      31.066  23.551  23.345  1.00  0.00     0.050 A 
ATOM     24  C   UNL A   1      31.112  24.944  23.423  1.00  0.00     0.004 A 
ATOM     25  C   UNL A   1      33.522  24.872  23.663  1.00  0.00     0.050 A 
ATOM     26  C   UNL A   1      32.334  25.602  23.584  1.00  0.00     0.004 A 
BRANCH  22  27
ATOM     27  O   UNL A   1      32.419  21.445  23.460  1.00  0.00    -0.493 OA
ATOM     28  C   UNL A   1      32.729  19.625  23.576  1.00  0.00     0.278 C 
ENDBRANCH  22  27
ENDBRANCH  20  21
ENDBRANCH  15  20
ENDBRANCH   9  14
ENDBRANCH   5   8
ENDBRANCH   3   4
ENDBRANCH   2   3
ENDBRANCH   1   2
BRANCH   1  29
ATOM     29  C   UNL A   1      45.868  23.993  26.160  1.00  0.00     0.002 C 
BRANCH  29  30
ATOM     30  C   UNL A   1      44.934  25.040  26.776  1.00  0.00     0.021 C 
BRANCH  30  31
ATOM     31  C   UNL A   1      44.562  26.181  25.838  1.00  0.00     0.116 C 
BRANCH  31  32
ATOM     32  N   UNL A   1      43.333  25.896  25.119  1.00  0.00    -0.352 N 
ATOM     33  C   UNL A   1      42.035  26.038  25.536  1.00  0.00     0.251 C 
ATOM     34  H   UNL A   1      43.448  25.551  24.203  1.00  0.00     0.163 HD
ATOM     35  O   UNL A   1      41.127  25.502  24.909  1.00  0.00    -0.269 OA
BRANCH  33  36
ATOM     36  C   UNL A   1      41.741  26.836  26.744  1.00  0.00     0.039 A 
ATOM     37  C   UNL A   1      41.079  26.230  27.813  1.00  0.00     0.014 A 
ATOM     38  C   UNL A   1      42.103  28.185  26.812  1.00  0.00     0.014 A 
ATOM     39  C   UNL A   1      40.813  26.969  28.966  1.00  0.00     0.010 A 
ATOM     40  C   UNL A   1      41.919  28.893  27.993  1.00  0.00     0.010 A 
ATOM     41  C   UNL A   1      41.251  28.300  29.075  1.00  0.00    -0.014 A 
BRANCH  41  42
ATOM     42  C   UNL A   1      41.001  29.092  30.304  1.00  0.00     0.031 A 
ATOM     43  C   UNL A   1      41.870  28.896  31.518  1.00  0.00     0.074 A 
ATOM     44  C   UNL A   1      39.965  29.952  30.342  1.00  0.00     0.049 A 
ATOM     45  N   UNL A   1      41.798  29.482  32.685  1.00  0.00    -0.248 NA
ATOM     46  C   UNL A   1      42.942  27.892  31.418  1.00  0.00     0.031 C 
ATOM     47  C   UNL A   1      39.033  30.206  29.239  1.00  0.00     0.029 A 
ATOM     48  N   UNL A   1      39.523  30.779  31.344  1.00  0.00    -0.354 N 
ATOM     49  C   UNL A   1      42.797  28.905  33.462  1.00  0.00     0.074 A 
ATOM     50  C   UNL A   1      43.424  27.884  32.652  1.00  0.00     0.031 C 
ATOM     51  C   UNL A   1      38.164  31.159  29.609  1.00  0.00     0.029 A 
ATOM     52  C   UNL A   1      38.440  31.547  30.989  1.00  0.00     0.049 A 
ATOM     53  H   UNL A   1      39.942  30.818  32.234  1.00  0.00     0.167 HD
ATOM     54  C   UNL A   1      43.171  29.207  34.727  1.00  0.00     0.031 A 
ATOM     55  C   UNL A   1      37.747  32.463  31.693  1.00  0.00     0.031 A 
ATOM     56  C   UNL A   1      42.544  30.229  35.525  1.00  0.00     0.049 A 
ATOM     57  C   UNL A   1      38.165  32.763  33.107  1.00  0.00     0.074 A 
ATOM     58  C   UNL A   1      42.887  30.660  36.794  1.00  0.00     0.029 A 
ATOM     59  N   UNL A   1      41.438  30.971  35.136  1.00  0.00    -0.354 N 
ATOM     60  N   UNL A   1      39.161  32.260  33.799  1.00  0.00    -0.248 NA
ATOM     61  C   UNL A   1      37.370  33.762  33.833  1.00  0.00     0.031 C 
ATOM     62  C   UNL A   1      41.942  31.606  37.202  1.00  0.00     0.029 A 
ATOM     63  C   UNL A   1      41.061  31.828  36.155  1.00  0.00     0.049 A 
ATOM     64  H   UNL A   1      40.988  30.898  34.263  1.00  0.00     0.167 HD
ATOM     65  C   UNL A   1      39.136  32.913  35.027  1.00  0.00     0.074 A 
ATOM     66  C   UNL A   1      38.034  33.851  34.977  1.00  0.00     0.031 C 
ATOM     67  C   UNL A   1      39.957  32.754  36.095  1.00  0.00     0.031 A 
BRANCH  54  68
ATOM     68  C   UNL A   1      44.291  28.403  35.338  1.00  0.00    -0.014 A 
ATOM     69  C   UNL A   1      45.634  28.814  35.241  1.00  0.00     0.010 A 
ATOM     70  C   UNL A   1      43.990  27.224  36.046  1.00  0.00     0.010 A 
ATOM     71  C   UNL A   1      46.656  28.035  35.791  1.00  0.00     0.020 A 
ATOM     72  C   UNL A   1      45.005  26.461  36.630  1.00  0.00     0.020 A 
ATOM     73  C   UNL A   1      46.335  26.861  36.480  1.00  0.00     0.054 A 
BRANCH  73  74
ATOM     74  S   UNL A   1      47.680  25.874  37.190  1.00  0.00     0.124 S 
ATOM     75  O   UNL A   1      47.557  24.620  36.451  1.00  0.00    -0.237 OA
ATOM     76  O   UNL A   1      48.862  26.674  36.876  1.00  0.00    -0.237 OA
ATOM     77  O   UNL A   1      47.343  25.796  38.610  1.00  0.00    -0.744 OA
ENDBRANCH  73  74
ENDBRANCH  54  68
BRANCH  55  78
ATOM     78  C   UNL A   1      36.608  33.184  31.062  1.00  0.00    -0.014 A 
ATOM     79  C   UNL A   1      36.835  34.352  30.310  1.00  0.00     0.010 A 
ATOM     80  C   UNL A   1      35.292  32.704  31.195  1.00  0.00     0.010 A 
ATOM     81  C   UNL A   1      35.767  35.035  29.721  1.00  0.00     0.020 A 
ATOM     82  C   UNL A   1      34.226  33.366  30.580  1.00  0.00     0.020 A 
ATOM     83  C   UNL A   1      34.470  34.534  29.855  1.00  0.00     0.054 A 
BRANCH  83  84
ATOM     84  S   UNL A   1      33.107  35.409  29.036  1.00  0.00     0.124 S 
ATOM     85  O   UNL A   1      32.360  35.939  30.173  1.00  0.00    -0.237 OA
ATOM     86  O   UNL A   1      33.814  36.397  28.225  1.00  0.00    -0.237 OA
ATOM     87  O   UNL A   1      32.433  34.359  28.278  1.00  0.00    -0.744 OA
ENDBRANCH  83  84
ENDBRANCH  55  78
BRANCH  67  88
ATOM     88  C   UNL A   1      39.726  33.648  37.287  1.00  0.00    -0.014 A 
ATOM     89  C   UNL A   1      40.445  34.842  37.465  1.00  0.00     0.010 A 
ATOM     90  C   UNL A   1      38.729  33.305  38.221  1.00  0.00     0.010 A 
ATOM     91  C   UNL A   1      40.201  35.655  38.575  1.00  0.00     0.020 A 
ATOM     92  C   UNL A   1      38.456  34.134  39.310  1.00  0.00     0.020 A 
ATOM     93  C   UNL A   1      39.206  35.296  39.490  1.00  0.00     0.054 A 
BRANCH  93  94
ATOM     94  S   UNL A   1      38.883  36.390  40.900  1.00  0.00     0.124 S 
ATOM     95  O   UNL A   1      37.890  35.629  41.654  1.00  0.00    -0.237 OA
ATOM     96  O   UNL A   1      40.198  36.502  41.524  1.00  0.00    -0.237 OA
ATOM     97  O   UNL A   1      38.387  37.618  40.281  1.00  0.00    -0.744 OA
ENDBRANCH  93  94
ENDBRANCH  67  88
ENDBRANCH  41  42
ENDBRANCH  33  36
ENDBRANCH  31  32
ENDBRANCH  30  31
ENDBRANCH  29  30
ENDBRANCH   1  29
TORSDOF 20
ENDMDL
MODEL 3
REMARK VINA RESULT:     -11.1      1.876      8.813
REMARK SMILES COc1ccccc1OC1CCN(c2cccc(C(=O)NCCCCCCNC(=O)c3ccc(-c4c5nc(c(-c6ccc(S(=O)(=O)[O-])cc6)c6ccc([nH]6)c(-c6ccc(S(=O)(=O)[O-])cc6)c6nc(c(-c7ccc(S(=O)(=O)[O-])cc7)c7ccc4[nH]7)C=C6)C=C5)cc3)n2)CC1
REMARK SMILES IDX 24 1 23 2 22 3 21 4 19 5 20 6 18 8 14 9 15 10 91 11 16 12
REMARK SMILES IDX 17 13 13 14 10 15 11 16 93 17 12 18 92 19 9 20 8 21 3 22
REMARK SMILES IDX 4 23 5 24 7 25 6 26 2 27 1 28 25 29 26 30 27 31 28 32 29 33
REMARK SMILES IDX 30 35 31 36 32 37 90 38 33 39 89 40 34 41 35 42 36 43 83 44
REMARK SMILES IDX 37 45 88 46 82 47 84 48 38 49 87 50 81 51 80 52 39 54 69 55
REMARK SMILES IDX 50 56 68 57 51 58 54 59 67 60 85 61 52 62 53 63 66 65 86 66
REMARK SMILES IDX 55 67 40 68 41 69 49 70 42 71 48 72 43 73 44 74 45 75 46 76
REMARK SMILES IDX 47 77 70 78 71 79 79 80 72 81 78 82 73 83 74 84 75 85 76 86
REMARK SMILES IDX 77 87 56 88 57 89 65 90 58 91 64 92 59 93 60 94 61 95 62 96
REMARK SMILES IDX 63 97
REMARK H PARENT 21 7 28 34 84 53 54 64
REMARK Flexibility Score: inf
ROOT
ATOM      1  C   UNL A   1      46.162  23.854  24.984  1.00  0.00     0.002 C 
ENDROOT
BRANCH   1   2
ATOM      2  C   UNL A   1      45.269  22.672  24.619  1.00  0.00     0.021 C 
BRANCH   2   3
ATOM      3  C   UNL A   1      45.241  21.554  25.650  1.00  0.00     0.116 C 
BRANCH   3   4
ATOM      4  N   UNL A   1      44.349  20.482  25.281  1.00  0.00    -0.351 N 
ATOM      5  C   UNL A   1      43.055  20.195  25.643  1.00  0.00     0.269 C 
ATOM      6  O   UNL A   1      42.596  19.132  25.213  1.00  0.00    -0.268 OA
ATOM      7  H   UNL A   1      44.742  19.834  24.652  1.00  0.00     0.163 HD
BRANCH   5   8
ATOM      8  C   UNL A   1      42.205  21.085  26.512  1.00  0.00     0.130 A 
ATOM      9  C   UNL A   1      40.129  22.098  26.646  1.00  0.00     0.129 A 
ATOM     10  C   UNL A   1      40.492  22.782  27.796  1.00  0.00     0.047 A 
ATOM     11  N   UNL A   1      40.933  21.197  26.064  1.00  0.00    -0.226 NA
ATOM     12  C   UNL A   1      41.775  22.633  28.290  1.00  0.00     0.006 A 
ATOM     13  C   UNL A   1      42.669  21.837  27.585  1.00  0.00     0.034 A 
BRANCH   9  14
ATOM     14  N   UNL A   1      38.998  22.477  25.960  1.00  0.00    -0.356 N 
ATOM     15  C   UNL A   1      35.266  22.794  25.360  1.00  0.00     0.177 C 
ATOM     16  C   UNL A   1      36.238  24.167  26.338  1.00  0.00     0.066 C 
ATOM     17  C   UNL A   1      36.198  21.130  24.979  1.00  0.00     0.066 C 
ATOM     18  C   UNL A   1      38.176  24.048  26.453  1.00  0.00     0.122 C 
ATOM     19  C   UNL A   1      38.135  21.092  25.099  1.00  0.00     0.122 C 
BRANCH  15  20
ATOM     20  O   UNL A   1      34.953  23.375  24.059  1.00  0.00    -0.486 OA
BRANCH  20  21
ATOM     21  C   UNL A   1      33.632  23.098  23.764  1.00  0.00     0.161 A 
ATOM     22  C   UNL A   1      32.668  24.108  23.888  1.00  0.00     0.160 A 
ATOM     23  C   UNL A   1      31.337  23.831  23.581  1.00  0.00     0.050 A 
ATOM     24  C   UNL A   1      30.983  22.558  23.129  1.00  0.00     0.004 A 
ATOM     25  C   UNL A   1      33.285  21.827  23.323  1.00  0.00     0.050 A 
ATOM     26  C   UNL A   1      31.953  21.561  22.998  1.00  0.00     0.004 A 
BRANCH  22  27
ATOM     27  O   UNL A   1      33.240  25.303  24.280  1.00  0.00    -0.493 OA
ATOM     28  C   UNL A   1      34.030  26.852  24.914  1.00  0.00     0.278 C 
ENDBRANCH  22  27
ENDBRANCH  20  21
ENDBRANCH  15  20
ENDBRANCH   9  14
ENDBRANCH   5   8
ENDBRANCH   3   4
ENDBRANCH   2   3
ENDBRANCH   1   2
BRANCH   1  29
ATOM     29  C   UNL A   1      46.089  24.302  26.448  1.00  0.00     0.002 C 
BRANCH  29  30
ATOM     30  C   UNL A   1      44.803  25.034  26.847  1.00  0.00     0.021 C 
BRANCH  30  31
ATOM     31  C   UNL A   1      44.460  26.229  25.967  1.00  0.00     0.116 C 
BRANCH  31  32
ATOM     32  N   UNL A   1      43.219  26.015  25.245  1.00  0.00    -0.352 N 
ATOM     33  C   UNL A   1      41.929  26.198  25.671  1.00  0.00     0.251 C 
ATOM     34  H   UNL A   1      43.317  25.695  24.319  1.00  0.00     0.163 HD
ATOM     35  O   UNL A   1      40.998  25.719  25.031  1.00  0.00    -0.269 OA
BRANCH  33  36
ATOM     36  C   UNL A   1      41.672  26.970  26.904  1.00  0.00     0.039 A 
ATOM     37  C   UNL A   1      40.956  26.372  27.942  1.00  0.00     0.014 A 
ATOM     38  C   UNL A   1      42.120  28.290  27.025  1.00  0.00     0.014 A 
ATOM     39  C   UNL A   1      40.722  27.086  29.117  1.00  0.00     0.010 A 
ATOM     40  C   UNL A   1      41.966  28.965  28.228  1.00  0.00     0.010 A 
ATOM     41  C   UNL A   1      41.246  28.380  29.280  1.00  0.00    -0.014 A 
BRANCH  41  42
ATOM     42  C   UNL A   1      41.030  29.144  30.534  1.00  0.00     0.031 A 
ATOM     43  C   UNL A   1      39.888  30.120  30.636  1.00  0.00     0.074 A 
ATOM     44  C   UNL A   1      41.888  28.992  31.561  1.00  0.00     0.049 A 
ATOM     45  N   UNL A   1      39.548  30.887  31.639  1.00  0.00    -0.248 NA
ATOM     46  C   UNL A   1      39.033  30.275  29.447  1.00  0.00     0.031 C 
ATOM     47  C   UNL A   1      43.050  28.099  31.571  1.00  0.00     0.029 A 
ATOM     48  N   UNL A   1      41.914  29.580  32.801  1.00  0.00    -0.354 N 
ATOM     49  C   UNL A   1      38.457  31.628  31.197  1.00  0.00     0.074 A 
ATOM     50  C   UNL A   1      38.228  31.259  29.818  1.00  0.00     0.031 C 
ATOM     51  C   UNL A   1      43.644  28.162  32.772  1.00  0.00     0.029 A 
ATOM     52  C   UNL A   1      42.940  29.136  33.601  1.00  0.00     0.049 A 
ATOM     53  H   UNL A   1      41.259  30.255  33.090  1.00  0.00     0.167 HD
ATOM     54  C   UNL A   1      37.704  32.521  31.881  1.00  0.00     0.031 A 
ATOM     55  C   UNL A   1      43.276  29.473  34.861  1.00  0.00     0.031 A 
ATOM     56  C   UNL A   1      37.938  32.879  33.256  1.00  0.00     0.049 A 
ATOM     57  C   UNL A   1      42.440  30.489  35.591  1.00  0.00     0.074 A 
ATOM     58  C   UNL A   1      37.195  33.724  34.062  1.00  0.00     0.029 A 
ATOM     59  N   UNL A   1      38.998  32.422  34.024  1.00  0.00    -0.354 N 
ATOM     60  N   UNL A   1      41.365  31.122  35.182  1.00  0.00    -0.248 NA
ATOM     61  C   UNL A   1      42.856  30.827  36.959  1.00  0.00     0.031 C 
ATOM     62  C   UNL A   1      37.850  33.838  35.291  1.00  0.00     0.029 A 
ATOM     63  C   UNL A   1      38.953  32.999  35.282  1.00  0.00     0.049 A 
ATOM     64  H   UNL A   1      39.682  31.782  33.720  1.00  0.00     0.167 HD
ATOM     65  C   UNL A   1      40.955  31.903  36.257  1.00  0.00     0.074 A 
ATOM     66  C   UNL A   1      41.890  31.653  37.335  1.00  0.00     0.031 C 
ATOM     67  C   UNL A   1      39.895  32.745  36.345  1.00  0.00     0.031 A 
BRANCH  54  68
ATOM     68  C   UNL A   1      36.576  33.197  31.142  1.00  0.00    -0.014 A 
ATOM     69  C   UNL A   1      36.782  33.842  29.909  1.00  0.00     0.010 A 
ATOM     70  C   UNL A   1      35.276  33.162  31.682  1.00  0.00     0.010 A 
ATOM     71  C   UNL A   1      35.725  34.486  29.258  1.00  0.00     0.020 A 
ATOM     72  C   UNL A   1      34.209  33.772  31.017  1.00  0.00     0.020 A 
ATOM     73  C   UNL A   1      34.445  34.450  29.819  1.00  0.00     0.054 A 
BRANCH  73  74
ATOM     74  S   UNL A   1      33.091  35.286  28.951  1.00  0.00     0.124 S 
ATOM     75  O   UNL A   1      32.661  34.259  28.004  1.00  0.00    -0.237 OA
ATOM     76  O   UNL A   1      32.152  35.577  30.031  1.00  0.00    -0.237 OA
ATOM     77  O   UNL A   1      33.731  36.455  28.352  1.00  0.00    -0.744 OA
ENDBRANCH  73  74
ENDBRANCH  54  68
BRANCH  55  78
ATOM     78  C   UNL A   1      44.440  28.821  35.522  1.00  0.00    -0.014 A 
ATOM     79  C   UNL A   1      45.687  29.471  35.568  1.00  0.00     0.010 A 
ATOM     80  C   UNL A   1      44.308  27.555  36.121  1.00  0.00     0.010 A 
ATOM     81  C   UNL A   1      46.783  28.859  36.183  1.00  0.00     0.020 A 
ATOM     82  C   UNL A   1      45.393  26.954  36.766  1.00  0.00     0.020 A 
ATOM     83  C   UNL A   1      46.627  27.607  36.783  1.00  0.00     0.054 A 
BRANCH  83  84
ATOM     84  S   UNL A   1      48.052  26.857  37.621  1.00  0.00     0.124 S 
ATOM     85  O   UNL A   1      47.408  26.073  38.671  1.00  0.00    -0.237 OA
ATOM     86  O   UNL A   1      48.676  26.088  36.548  1.00  0.00    -0.237 OA
ATOM     87  O   UNL A   1      48.822  28.009  38.083  1.00  0.00    -0.744 OA
ENDBRANCH  83  84
ENDBRANCH  55  78
BRANCH  67  88
ATOM     88  C   UNL A   1      39.658  33.427  37.669  1.00  0.00    -0.014 A 
ATOM     89  C   UNL A   1      40.218  34.682  37.964  1.00  0.00     0.010 A 
ATOM     90  C   UNL A   1      38.814  32.816  38.616  1.00  0.00     0.010 A 
ATOM     91  C   UNL A   1      39.972  35.294  39.196  1.00  0.00     0.020 A 
ATOM     92  C   UNL A   1      38.535  33.442  39.833  1.00  0.00     0.020 A 
ATOM     93  C   UNL A   1      39.130  34.670  40.122  1.00  0.00     0.054 A 
BRANCH  93  94
ATOM     94  S   UNL A   1      38.796  35.504  41.697  1.00  0.00     0.124 S 
ATOM     95  O   UNL A   1      39.777  34.883  42.584  1.00  0.00    -0.237 OA
ATOM     96  O   UNL A   1      39.040  36.907  41.372  1.00  0.00    -0.237 OA
ATOM     97  O   UNL A   1      37.402  35.169  41.979  1.00  0.00    -0.744 OA
ENDBRANCH  93  94
ENDBRANCH  67  88
ENDBRANCH  41  42
ENDBRANCH  33  36
ENDBRANCH  31  32
ENDBRANCH  30  31
ENDBRANCH  29  30
ENDBRANCH   1  29
TORSDOF 20
ENDMDL
