MODEL 1
REMARK VINA RESULT:     -12.5      0.000      0.000
REMARK SMILES Cc1cccc(C(=O)NCCCCCCNC(=O)c2ccc(-c3c4nc(c(-c5ccc(S(=O)(=O)[O-])cc5)c5ccc([nH]5)c(-c5ccc(S(=O)(=O)[O-])cc5)c5nc(c(-c6ccc(S(=O)(=O)[O-])cc6)c6ccc3[nH]6)C=C5)C=C4)cc2)c1OC[C@@H]1C[C@H]2CC[C@@H]1C2
REMARK SMILES IDX 12 1 11 2 10 3 9 4 7 5 8 6 6 8 1 9 2 10 3 11 79 12 4 13 5 14
REMARK SMILES IDX 80 15 81 16 82 17 83 18 87 19 84 20 86 21 88 22 85 23 13 24
REMARK SMILES IDX 14 25 15 26 16 27 17 28 18 30 19 31 20 32 78 33 21 34 77 35
REMARK SMILES IDX 22 36 23 37 24 38 71 39 25 40 76 41 70 42 72 43 26 44 75 45
REMARK SMILES IDX 69 46 68 47 27 49 57 50 38 51 56 52 39 53 42 54 55 55 73 56
REMARK SMILES IDX 40 57 41 58 54 60 74 61 43 62 28 63 29 64 37 65 30 66 36 67
REMARK SMILES IDX 31 68 32 69 33 70 34 71 35 72 58 73 59 74 67 75 60 76 66 77
REMARK SMILES IDX 61 78 62 79 63 80 64 81 65 82 44 83 45 84 53 85 46 86 52 87
REMARK SMILES IDX 47 88 48 89 49 90 50 91 51 92
REMARK H PARENT 9 7 16 29 72 48 42 59
REMARK Flexibility Score: inf
ROOT
ATOM      1  C   UNL A   1      33.770  27.844  25.182  1.00  0.00     0.002 C 
ENDROOT
BRANCH   1   2
ATOM      2  C   UNL A   1      33.345  26.676  26.083  1.00  0.00     0.021 C 
BRANCH   2   3
ATOM      3  C   UNL A   1      32.151  26.977  26.996  1.00  0.00     0.116 C 
BRANCH   3   4
ATOM      4  N   UNL A   1      31.185  25.915  26.911  1.00  0.00    -0.352 N 
ATOM      5  C   UNL A   1      30.475  25.381  25.877  1.00  0.00     0.255 C 
ATOM      6  O   UNL A   1      29.672  24.496  26.201  1.00  0.00    -0.269 OA
ATOM      7  H   UNL A   1      30.997  25.485  27.777  1.00  0.00     0.163 HD
BRANCH   5   8
ATOM      8  C   UNL A   1      30.610  25.695  24.413  1.00  0.00     0.082 A 
ATOM      9  C   UNL A   1      32.795  25.321  21.293  1.00  0.00     0.048 C 
ATOM     10  C   UNL A   1      31.678  25.714  22.225  1.00  0.00    -0.008 A 
ATOM     11  C   UNL A   1      31.118  26.982  21.970  1.00  0.00     0.007 A 
ATOM     12  C   UNL A   1      31.329  25.008  23.402  1.00  0.00     0.134 A 
ATOM     13  C   UNL A   1      30.299  27.600  22.897  1.00  0.00     0.001 A 
ATOM     14  C   UNL A   1      30.081  26.975  24.117  1.00  0.00     0.018 A 
BRANCH  12  15
ATOM     15  O   UNL A   1      31.781  23.742  23.635  1.00  0.00    -0.492 OA
BRANCH  15  16
ATOM     16  C   UNL A   1      32.875  23.497  24.558  1.00  0.00     0.233 C 
BRANCH  16  17
ATOM     17  C   UNL A   1      34.167  22.817  24.035  1.00  0.00     0.030 C 
ATOM     18  C   UNL A   1      34.594  21.597  24.908  1.00  0.00     0.011 C 
ATOM     19  C   UNL A   1      35.427  23.720  24.182  1.00  0.00    -0.004 C 
ATOM     20  C   UNL A   1      36.034  21.930  25.346  1.00  0.00    -0.010 C 
ATOM     21  C   UNL A   1      36.566  23.127  23.334  1.00  0.00     0.004 C 
ATOM     22  C   UNL A   1      35.923  23.428  25.600  1.00  0.00     0.007 C 
ATOM     23  C   UNL A   1      36.970  21.880  24.128  1.00  0.00     0.004 C 
ENDBRANCH  16  17
ENDBRANCH  15  16
ENDBRANCH  12  15
ENDBRANCH   5   8
ENDBRANCH   3   4
ENDBRANCH   2   3
ENDBRANCH   1   2
BRANCH   1  24
ATOM     24  C   UNL A   1      32.923  29.122  25.296  1.00  0.00     0.002 C 
BRANCH  24  25
ATOM     25  C   UNL A   1      33.310  30.084  26.422  1.00  0.00     0.021 C 
BRANCH  25  26
ATOM     26  C   UNL A   1      34.653  29.757  27.059  1.00  0.00     0.116 C 
BRANCH  26  27
ATOM     27  N   UNL A   1      35.395  30.960  27.410  1.00  0.00    -0.352 N 
ATOM     28  C   UNL A   1      36.549  31.047  28.176  1.00  0.00     0.251 C 
ATOM     29  H   UNL A   1      35.037  31.809  27.064  1.00  0.00     0.163 HD
ATOM     30  O   UNL A   1      36.919  32.050  28.733  1.00  0.00    -0.269 OA
BRANCH  28  31
ATOM     31  C   UNL A   1      37.411  29.848  28.134  1.00  0.00     0.039 A 
ATOM     32  C   UNL A   1      37.503  29.103  29.316  1.00  0.00     0.014 A 
ATOM     33  C   UNL A   1      38.322  29.693  27.094  1.00  0.00     0.014 A 
ATOM     34  C   UNL A   1      38.624  28.312  29.530  1.00  0.00     0.010 A 
ATOM     35  C   UNL A   1      39.473  28.979  27.344  1.00  0.00     0.010 A 
ATOM     36  C   UNL A   1      39.643  28.335  28.577  1.00  0.00    -0.014 A 
BRANCH  36  37
ATOM     37  C   UNL A   1      40.955  27.752  28.799  1.00  0.00     0.031 A 
ATOM     38  C   UNL A   1      41.178  26.338  28.425  1.00  0.00     0.074 A 
ATOM     39  C   UNL A   1      41.972  28.521  29.252  1.00  0.00     0.049 A 
ATOM     40  N   UNL A   1      42.103  25.594  28.928  1.00  0.00    -0.248 NA
ATOM     41  C   UNL A   1      40.334  25.629  27.463  1.00  0.00     0.031 C 
ATOM     42  C   UNL A   1      43.388  28.160  29.283  1.00  0.00     0.029 A 
ATOM     43  N   UNL A   1      41.930  29.729  29.956  1.00  0.00    -0.354 N 
ATOM     44  C   UNL A   1      42.189  24.465  28.146  1.00  0.00     0.074 A 
ATOM     45  C   UNL A   1      41.012  24.487  27.310  1.00  0.00     0.031 C 
ATOM     46  C   UNL A   1      44.003  28.921  30.204  1.00  0.00     0.029 A 
ATOM     47  C   UNL A   1      42.962  29.650  30.908  1.00  0.00     0.049 A 
ATOM     48  H   UNL A   1      41.308  30.478  29.814  1.00  0.00     0.167 HD
ATOM     49  C   UNL A   1      43.324  23.713  28.177  1.00  0.00     0.031 A 
ATOM     50  C   UNL A   1      42.747  29.591  32.257  1.00  0.00     0.031 A 
ATOM     51  C   UNL A   1      44.284  24.227  29.153  1.00  0.00     0.049 A 
ATOM     52  C   UNL A   1      43.313  28.332  32.913  1.00  0.00     0.074 A 
ATOM     53  C   UNL A   1      45.446  24.973  29.055  1.00  0.00     0.029 A 
ATOM     54  N   UNL A   1      43.919  24.262  30.491  1.00  0.00    -0.354 N 
ATOM     55  N   UNL A   1      43.820  27.320  32.262  1.00  0.00    -0.248 NA
ATOM     56  C   UNL A   1      43.275  28.081  34.353  1.00  0.00     0.031 C 
ATOM     57  C   UNL A   1      45.771  25.465  30.351  1.00  0.00     0.029 A 
ATOM     58  C   UNL A   1      44.821  24.997  31.239  1.00  0.00     0.049 A 
ATOM     59  H   UNL A   1      43.122  23.819  30.861  1.00  0.00     0.167 HD
ATOM     60  C   UNL A   1      44.132  26.298  33.127  1.00  0.00     0.074 A 
ATOM     61  C   UNL A   1      43.767  26.829  34.429  1.00  0.00     0.031 C 
ATOM     62  C   UNL A   1      44.625  25.099  32.682  1.00  0.00     0.031 A 
BRANCH  49  63
ATOM     63  C   UNL A   1      43.654  22.686  27.119  1.00  0.00    -0.014 A 
ATOM     64  C   UNL A   1      42.729  21.661  26.833  1.00  0.00     0.010 A 
ATOM     65  C   UNL A   1      44.868  22.647  26.404  1.00  0.00     0.010 A 
ATOM     66  C   UNL A   1      43.033  20.605  25.963  1.00  0.00     0.020 A 
ATOM     67  C   UNL A   1      45.202  21.577  25.559  1.00  0.00     0.020 A 
ATOM     68  C   UNL A   1      44.282  20.554  25.350  1.00  0.00     0.054 A 
BRANCH  68  69
ATOM     69  S   UNL A   1      44.681  19.141  24.287  1.00  0.00     0.124 S 
ATOM     70  O   UNL A   1      43.707  18.139  24.716  1.00  0.00    -0.237 OA
ATOM     71  O   UNL A   1      44.474  19.687  22.950  1.00  0.00    -0.237 OA
ATOM     72  O   UNL A   1      46.068  18.832  24.626  1.00  0.00    -0.744 OA
ENDBRANCH  68  69
ENDBRANCH  49  63
BRANCH  50  73
ATOM     73  C   UNL A   1      41.526  30.319  32.716  1.00  0.00    -0.014 A 
ATOM     74  C   UNL A   1      41.660  31.685  33.051  1.00  0.00     0.010 A 
ATOM     75  C   UNL A   1      40.244  29.818  32.437  1.00  0.00     0.010 A 
ATOM     76  C   UNL A   1      40.574  32.560  32.938  1.00  0.00     0.020 A 
ATOM     77  C   UNL A   1      39.151  30.692  32.335  1.00  0.00     0.020 A 
ATOM     78  C   UNL A   1      39.339  32.065  32.520  1.00  0.00     0.054 A 
BRANCH  78  79
ATOM     79  S   UNL A   1      38.045  33.256  32.049  1.00  0.00     0.124 S 
ATOM     80  O   UNL A   1      38.584  33.835  30.824  1.00  0.00    -0.237 OA
ATOM     81  O   UNL A   1      36.874  32.395  31.878  1.00  0.00    -0.237 OA
ATOM     82  O   UNL A   1      37.982  34.153  33.198  1.00  0.00    -0.744 OA
ENDBRANCH  78  79
ENDBRANCH  50  73
BRANCH  62  83
ATOM     83  C   UNL A   1      44.949  23.862  33.511  1.00  0.00    -0.014 A 
ATOM     84  C   UNL A   1      44.020  22.902  33.934  1.00  0.00     0.010 A 
ATOM     85  C   UNL A   1      46.286  23.664  33.954  1.00  0.00     0.010 A 
ATOM     86  C   UNL A   1      44.415  21.770  34.671  1.00  0.00     0.020 A 
ATOM     87  C   UNL A   1      46.693  22.550  34.692  1.00  0.00     0.020 A 
ATOM     88  C   UNL A   1      45.752  21.595  35.034  1.00  0.00     0.054 A 
BRANCH  88  89
ATOM     89  S   UNL A   1      46.235  20.124  35.969  1.00  0.00     0.124 S 
ATOM     90  O   UNL A   1      45.548  19.059  35.244  1.00  0.00    -0.237 OA
ATOM     91  O   UNL A   1      47.690  20.138  35.834  1.00  0.00    -0.237 OA
ATOM     92  O   UNL A   1      45.736  20.383  37.317  1.00  0.00    -0.744 OA
ENDBRANCH  88  89
ENDBRANCH  62  83
ENDBRANCH  36  37
ENDBRANCH  28  31
ENDBRANCH  26  27
ENDBRANCH  25  26
ENDBRANCH  24  25
ENDBRANCH   1  24
TORSDOF 19
ENDMDL
MODEL 2
REMARK VINA RESULT:     -12.1      4.527     11.106
REMARK SMILES Cc1cccc(C(=O)NCCCCCCNC(=O)c2ccc(-c3c4nc(c(-c5ccc(S(=O)(=O)[O-])cc5)c5ccc([nH]5)c(-c5ccc(S(=O)(=O)[O-])cc5)c5nc(c(-c6ccc(S(=O)(=O)[O-])cc6)c6ccc3[nH]6)C=C5)C=C4)cc2)c1OC[C@@H]1C[C@H]2CC[C@@H]1C2
REMARK SMILES IDX 12 1 11 2 10 3 9 4 7 5 8 6 6 8 1 9 2 10 3 11 79 12 4 13 5 14
REMARK SMILES IDX 80 15 81 16 82 17 83 18 87 19 84 20 86 21 88 22 85 23 13 24
REMARK SMILES IDX 14 25 15 26 16 27 17 28 18 30 19 31 20 32 78 33 21 34 77 35
REMARK SMILES IDX 22 36 23 37 24 38 71 39 25 40 76 41 70 42 72 43 26 44 75 45
REMARK SMILES IDX 69 46 68 47 27 49 57 50 38 51 56 52 39 53 42 54 55 55 73 56
REMARK SMILES IDX 40 57 41 58 54 60 74 61 43 62 28 63 29 64 37 65 30 66 36 67
REMARK SMILES IDX 31 68 32 69 33 70 34 71 35 72 58 73 59 74 67 75 60 76 66 77
REMARK SMILES IDX 61 78 62 79 63 80 64 81 65 82 44 83 45 84 53 85 46 86 52 87
REMARK SMILES IDX 47 88 48 89 49 90 50 91 51 92
REMARK H PARENT 9 7 16 29 72 48 42 59
REMARK Flexibility Score: inf
ROOT
ATOM      1  C   UNL A   1      35.362  23.328  26.405  1.00  0.00     0.002 C 
ENDROOT
BRANCH   1   2
ATOM      2  C   UNL A   1      34.513  24.230  25.499  1.00  0.00     0.021 C 
BRANCH   2   3
ATOM      3  C   UNL A   1      35.188  24.631  24.183  1.00  0.00     0.116 C 
BRANCH   3   4
ATOM      4  N   UNL A   1      34.195  24.969  23.200  1.00  0.00    -0.352 N 
ATOM      5  C   UNL A   1      32.938  24.507  22.947  1.00  0.00     0.255 C 
ATOM      6  O   UNL A   1      32.391  25.007  21.955  1.00  0.00    -0.269 OA
ATOM      7  H   UNL A   1      34.480  25.682  22.583  1.00  0.00     0.163 HD
BRANCH   5   8
ATOM      8  C   UNL A   1      32.138  23.530  23.764  1.00  0.00     0.082 A 
ATOM      9  C   UNL A   1      30.101  23.015  26.962  1.00  0.00     0.048 C 
ATOM     10  C   UNL A   1      30.808  22.768  25.655  1.00  0.00    -0.008 A 
ATOM     11  C   UNL A   1      31.376  21.484  25.529  1.00  0.00     0.007 A 
ATOM     12  C   UNL A   1      31.097  23.769  24.696  1.00  0.00     0.134 A 
ATOM     13  C   UNL A   1      32.291  21.203  24.530  1.00  0.00     0.001 A 
ATOM     14  C   UNL A   1      32.691  22.228  23.684  1.00  0.00     0.018 A 
BRANCH  12  15
ATOM     15  O   UNL A   1      30.495  24.992  24.740  1.00  0.00    -0.492 OA
BRANCH  15  16
ATOM     16  C   UNL A   1      30.549  25.811  25.937  1.00  0.00     0.233 C 
BRANCH  16  17
ATOM     17  C   UNL A   1      31.831  26.631  26.234  1.00  0.00     0.030 C 
ATOM     18  C   UNL A   1      31.601  27.721  27.326  1.00  0.00     0.011 C 
ATOM     19  C   UNL A   1      32.268  27.525  25.036  1.00  0.00    -0.004 C 
ATOM     20  C   UNL A   1      32.013  29.038  26.639  1.00  0.00    -0.010 C 
ATOM     21  C   UNL A   1      33.706  28.015  25.279  1.00  0.00     0.004 C 
ATOM     22  C   UNL A   1      31.472  28.816  25.233  1.00  0.00     0.007 C 
ATOM     23  C   UNL A   1      33.531  29.044  26.401  1.00  0.00     0.004 C 
ENDBRANCH  16  17
ENDBRANCH  15  16
ENDBRANCH  12  15
ENDBRANCH   5   8
ENDBRANCH   3   4
ENDBRANCH   2   3
ENDBRANCH   1   2
BRANCH   1  24
ATOM     24  C   UNL A   1      35.950  22.072  25.740  1.00  0.00     0.002 C 
BRANCH  24  25
ATOM     25  C   UNL A   1      37.470  22.056  25.566  1.00  0.00     0.021 C 
BRANCH  25  26
ATOM     26  C   UNL A   1      38.149  23.319  26.079  1.00  0.00     0.116 C 
BRANCH  26  27
ATOM     27  N   UNL A   1      39.354  23.017  26.838  1.00  0.00    -0.352 N 
ATOM     28  C   UNL A   1      40.315  23.912  27.288  1.00  0.00     0.251 C 
ATOM     29  H   UNL A   1      39.505  22.069  27.059  1.00  0.00     0.163 HD
ATOM     30  O   UNL A   1      41.442  23.604  27.584  1.00  0.00    -0.269 OA
BRANCH  28  31
ATOM     31  C   UNL A   1      39.815  25.277  27.547  1.00  0.00     0.039 A 
ATOM     32  C   UNL A   1      40.353  26.301  26.756  1.00  0.00     0.014 A 
ATOM     33  C   UNL A   1      39.124  25.545  28.725  1.00  0.00     0.014 A 
ATOM     34  C   UNL A   1      40.348  27.602  27.240  1.00  0.00     0.010 A 
ATOM     35  C   UNL A   1      39.197  26.819  29.242  1.00  0.00     0.010 A 
ATOM     36  C   UNL A   1      39.852  27.830  28.524  1.00  0.00    -0.014 A 
BRANCH  36  37
ATOM     37  C   UNL A   1      40.016  29.088  29.230  1.00  0.00     0.031 A 
ATOM     38  C   UNL A   1      38.977  30.130  29.077  1.00  0.00     0.074 A 
ATOM     39  C   UNL A   1      41.053  29.259  30.083  1.00  0.00     0.049 A 
ATOM     40  N   UNL A   1      39.177  31.388  29.281  1.00  0.00    -0.248 NA
ATOM     41  C   UNL A   1      37.613  29.834  28.639  1.00  0.00     0.031 C 
ATOM     42  C   UNL A   1      41.216  30.345  31.048  1.00  0.00     0.029 A 
ATOM     43  N   UNL A   1      42.280  28.591  30.137  1.00  0.00    -0.354 N 
ATOM     44  C   UNL A   1      37.944  31.995  29.328  1.00  0.00     0.074 A 
ATOM     45  C   UNL A   1      37.011  31.012  28.831  1.00  0.00     0.031 C 
ATOM     46  C   UNL A   1      42.521  30.459  31.346  1.00  0.00     0.029 A 
ATOM     47  C   UNL A   1      43.236  29.575  30.442  1.00  0.00     0.049 A 
ATOM     48  H   UNL A   1      42.440  27.630  29.993  1.00  0.00     0.167 HD
ATOM     49  C   UNL A   1      37.819  33.211  29.930  1.00  0.00     0.031 A 
ATOM     50  C   UNL A   1      44.216  29.975  29.576  1.00  0.00     0.031 A 
ATOM     51  C   UNL A   1      39.111  33.724  30.382  1.00  0.00     0.049 A 
ATOM     52  C   UNL A   1      44.161  31.463  29.232  1.00  0.00     0.074 A 
ATOM     53  C   UNL A   1      39.735  33.799  31.615  1.00  0.00     0.029 A 
ATOM     54  N   UNL A   1      40.099  33.965  29.438  1.00  0.00    -0.354 N 
ATOM     55  N   UNL A   1      43.198  32.271  29.588  1.00  0.00    -0.248 NA
ATOM     56  C   UNL A   1      45.147  32.138  28.390  1.00  0.00     0.031 C 
ATOM     57  C   UNL A   1      41.114  34.080  31.400  1.00  0.00     0.029 A 
ATOM     58  C   UNL A   1      41.322  34.200  30.039  1.00  0.00     0.049 A 
ATOM     59  H   UNL A   1      39.949  33.969  28.465  1.00  0.00     0.167 HD
ATOM     60  C   UNL A   1      43.380  33.513  29.027  1.00  0.00     0.074 A 
ATOM     61  C   UNL A   1      44.620  33.373  28.283  1.00  0.00     0.031 C 
ATOM     62  C   UNL A   1      42.472  34.524  29.200  1.00  0.00     0.031 A 
BRANCH  49  63
ATOM     63  C   UNL A   1      36.484  33.785  30.344  1.00  0.00    -0.014 A 
ATOM     64  C   UNL A   1      35.584  34.235  29.356  1.00  0.00     0.010 A 
ATOM     65  C   UNL A   1      36.074  33.949  31.682  1.00  0.00     0.010 A 
ATOM     66  C   UNL A   1      34.393  34.899  29.681  1.00  0.00     0.020 A 
ATOM     67  C   UNL A   1      34.902  34.645  32.023  1.00  0.00     0.020 A 
ATOM     68  C   UNL A   1      34.071  35.125  31.015  1.00  0.00     0.054 A 
BRANCH  68  69
ATOM     69  S   UNL A   1      32.563  36.050  31.410  1.00  0.00     0.124 S 
ATOM     70  O   UNL A   1      31.927  36.191  30.102  1.00  0.00    -0.237 OA
ATOM     71  O   UNL A   1      31.885  35.159  32.346  1.00  0.00    -0.237 OA
ATOM     72  O   UNL A   1      33.061  37.297  31.987  1.00  0.00    -0.744 OA
ENDBRANCH  68  69
ENDBRANCH  49  63
BRANCH  50  73
ATOM     73  C   UNL A   1      44.694  28.901  28.654  1.00  0.00    -0.014 A 
ATOM     74  C   UNL A   1      44.023  28.743  27.421  1.00  0.00     0.010 A 
ATOM     75  C   UNL A   1      45.981  28.355  28.794  1.00  0.00     0.010 A 
ATOM     76  C   UNL A   1      44.685  28.213  26.307  1.00  0.00     0.020 A 
ATOM     77  C   UNL A   1      46.642  27.813  27.681  1.00  0.00     0.020 A 
ATOM     78  C   UNL A   1      46.013  27.808  26.433  1.00  0.00     0.054 A 
BRANCH  78  79
ATOM     79  S   UNL A   1      46.954  27.452  24.915  1.00  0.00     0.124 S 
ATOM     80  O   UNL A   1      48.306  27.252  25.426  1.00  0.00    -0.237 OA
ATOM     81  O   UNL A   1      46.288  26.251  24.408  1.00  0.00    -0.237 OA
ATOM     82  O   UNL A   1      46.755  28.650  24.108  1.00  0.00    -0.744 OA
ENDBRANCH  78  79
ENDBRANCH  50  73
BRANCH  62  83
ATOM     83  C   UNL A   1      42.507  35.919  28.588  1.00  0.00    -0.014 A 
ATOM     84  C   UNL A   1      41.877  36.299  27.396  1.00  0.00     0.010 A 
ATOM     85  C   UNL A   1      43.279  36.929  29.226  1.00  0.00     0.010 A 
ATOM     86  C   UNL A   1      41.935  37.623  26.922  1.00  0.00     0.020 A 
ATOM     87  C   UNL A   1      43.354  38.246  28.765  1.00  0.00     0.020 A 
ATOM     88  C   UNL A   1      42.663  38.591  27.617  1.00  0.00     0.054 A 
BRANCH  88  89
ATOM     89  S   UNL A   1      42.710  40.288  26.993  1.00  0.00     0.124 S 
ATOM     90  O   UNL A   1      41.314  40.522  26.632  1.00  0.00    -0.237 OA
ATOM     91  O   UNL A   1      43.191  41.030  28.156  1.00  0.00    -0.237 OA
ATOM     92  O   UNL A   1      43.641  40.226  25.869  1.00  0.00    -0.744 OA
ENDBRANCH  88  89
ENDBRANCH  62  83
ENDBRANCH  36  37
ENDBRANCH  28  31
ENDBRANCH  26  27
ENDBRANCH  25  26
ENDBRANCH  24  25
ENDBRANCH   1  24
TORSDOF 19
ENDMDL
MODEL 3
REMARK VINA RESULT:     -11.8      4.529     10.980
REMARK SMILES Cc1cccc(C(=O)NCCCCCCNC(=O)c2ccc(-c3c4nc(c(-c5ccc(S(=O)(=O)[O-])cc5)c5ccc([nH]5)c(-c5ccc(S(=O)(=O)[O-])cc5)c5nc(c(-c6ccc(S(=O)(=O)[O-])cc6)c6ccc3[nH]6)C=C5)C=C4)cc2)c1OC[C@@H]1C[C@H]2CC[C@@H]1C2
REMARK SMILES IDX 12 1 11 2 10 3 9 4 7 5 8 6 6 8 1 9 2 10 3 11 79 12 4 13 5 14
REMARK SMILES IDX 80 15 81 16 82 17 83 18 87 19 84 20 86 21 88 22 85 23 13 24
REMARK SMILES IDX 14 25 15 26 16 27 17 28 18 30 19 31 20 32 78 33 21 34 77 35
REMARK SMILES IDX 22 36 23 37 24 38 71 39 25 40 76 41 70 42 72 43 26 44 75 45
REMARK SMILES IDX 69 46 68 47 27 49 57 50 38 51 56 52 39 53 42 54 55 55 73 56
REMARK SMILES IDX 40 57 41 58 54 60 74 61 43 62 28 63 29 64 37 65 30 66 36 67
REMARK SMILES IDX 31 68 32 69 33 70 34 71 35 72 58 73 59 74 67 75 60 76 66 77
REMARK SMILES IDX 61 78 62 79 63 80 64 81 65 82 44 83 45 84 53 85 46 86 52 87
REMARK SMILES IDX 47 88 48 89 49 90 50 91 51 92
REMARK H PARENT 9 7 16 29 72 48 42 59
REMARK Flexibility Score: inf
ROOT
ATOM      1  C   UNL A   1      35.651  23.587  25.049  1.00  0.00     0.002 C 
ENDROOT
BRANCH   1   2
ATOM      2  C   UNL A   1      35.224  24.230  23.723  1.00  0.00     0.021 C 
BRANCH   2   3
ATOM      3  C   UNL A   1      33.991  25.134  23.819  1.00  0.00     0.116 C 
BRANCH   3   4
ATOM      4  N   UNL A   1      34.168  26.102  24.868  1.00  0.00    -0.352 N 
ATOM      5  C   UNL A   1      33.571  27.296  25.146  1.00  0.00     0.255 C 
ATOM      6  O   UNL A   1      34.038  27.894  26.124  1.00  0.00    -0.269 OA
ATOM      7  H   UNL A   1      34.862  25.852  25.520  1.00  0.00     0.163 HD
BRANCH   5   8
ATOM      8  C   UNL A   1      32.390  27.915  24.452  1.00  0.00     0.082 A 
ATOM      9  C   UNL A   1      28.708  27.485  23.498  1.00  0.00     0.048 C 
ATOM     10  C   UNL A   1      30.102  28.044  23.630  1.00  0.00    -0.008 A 
ATOM     11  C   UNL A   1      30.552  28.771  22.509  1.00  0.00     0.007 A 
ATOM     12  C   UNL A   1      31.004  27.714  24.671  1.00  0.00     0.134 A 
ATOM     13  C   UNL A   1      31.889  29.093  22.357  1.00  0.00     0.001 A 
ATOM     14  C   UNL A   1      32.796  28.636  23.302  1.00  0.00     0.018 A 
BRANCH  12  15
ATOM     15  O   UNL A   1      30.582  27.091  25.809  1.00  0.00    -0.492 OA
BRANCH  15  16
ATOM     16  C   UNL A   1      30.176  25.697  25.792  1.00  0.00     0.233 C 
BRANCH  16  17
ATOM     17  C   UNL A   1      31.263  24.596  25.701  1.00  0.00     0.030 C 
ATOM     18  C   UNL A   1      30.912  23.497  24.651  1.00  0.00     0.011 C 
ATOM     19  C   UNL A   1      31.354  23.728  26.991  1.00  0.00    -0.004 C 
ATOM     20  C   UNL A   1      30.938  22.182  25.455  1.00  0.00    -0.010 C 
ATOM     21  C   UNL A   1      32.661  22.918  26.956  1.00  0.00     0.004 C 
ATOM     22  C   UNL A   1      30.312  22.630  26.768  1.00  0.00     0.007 C 
ATOM     23  C   UNL A   1      32.380  21.863  25.879  1.00  0.00     0.004 C 
ENDBRANCH  16  17
ENDBRANCH  15  16
ENDBRANCH  12  15
ENDBRANCH   5   8
ENDBRANCH   3   4
ENDBRANCH   2   3
ENDBRANCH   1   2
BRANCH   1  24
ATOM     24  C   UNL A   1      36.259  22.178  24.946  1.00  0.00     0.002 C 
BRANCH  24  25
ATOM     25  C   UNL A   1      37.701  22.034  25.437  1.00  0.00     0.021 C 
BRANCH  25  26
ATOM     26  C   UNL A   1      38.217  23.268  26.164  1.00  0.00     0.116 C 
BRANCH  26  27
ATOM     27  N   UNL A   1      39.470  23.006  26.857  1.00  0.00    -0.352 N 
ATOM     28  C   UNL A   1      40.428  23.931  27.248  1.00  0.00     0.251 C 
ATOM     29  H   UNL A   1      39.660  22.065  27.074  1.00  0.00     0.163 HD
ATOM     30  O   UNL A   1      41.578  23.658  27.483  1.00  0.00    -0.269 OA
BRANCH  28  31
ATOM     31  C   UNL A   1      39.904  25.284  27.527  1.00  0.00     0.039 A 
ATOM     32  C   UNL A   1      40.394  26.322  26.724  1.00  0.00     0.014 A 
ATOM     33  C   UNL A   1      39.243  25.531  28.726  1.00  0.00     0.014 A 
ATOM     34  C   UNL A   1      40.372  27.621  27.213  1.00  0.00     0.010 A 
ATOM     35  C   UNL A   1      39.302  26.805  29.246  1.00  0.00     0.010 A 
ATOM     36  C   UNL A   1      39.910  27.834  28.512  1.00  0.00    -0.014 A 
BRANCH  36  37
ATOM     37  C   UNL A   1      40.065  29.094  29.218  1.00  0.00     0.031 A 
ATOM     38  C   UNL A   1      39.017  30.127  29.066  1.00  0.00     0.074 A 
ATOM     39  C   UNL A   1      41.102  29.273  30.069  1.00  0.00     0.049 A 
ATOM     40  N   UNL A   1      39.209  31.386  29.269  1.00  0.00    -0.248 NA
ATOM     41  C   UNL A   1      37.655  29.820  28.630  1.00  0.00     0.031 C 
ATOM     42  C   UNL A   1      41.258  30.360  31.033  1.00  0.00     0.029 A 
ATOM     43  N   UNL A   1      42.335  28.614  30.121  1.00  0.00    -0.354 N 
ATOM     44  C   UNL A   1      37.970  31.984  29.319  1.00  0.00     0.074 A 
ATOM     45  C   UNL A   1      37.045  30.993  28.823  1.00  0.00     0.031 C 
ATOM     46  C   UNL A   1      42.563  30.484  31.329  1.00  0.00     0.029 A 
ATOM     47  C   UNL A   1      43.284  29.606  30.424  1.00  0.00     0.049 A 
ATOM     48  H   UNL A   1      42.502  27.655  29.977  1.00  0.00     0.167 HD
ATOM     49  C   UNL A   1      37.837  33.199  29.920  1.00  0.00     0.031 A 
ATOM     50  C   UNL A   1      44.259  30.013  29.556  1.00  0.00     0.031 A 
ATOM     51  C   UNL A   1      39.126  33.722  30.370  1.00  0.00     0.049 A 
ATOM     52  C   UNL A   1      44.191  31.501  29.212  1.00  0.00     0.074 A 
ATOM     53  C   UNL A   1      39.752  33.803  31.602  1.00  0.00     0.029 A 
ATOM     54  N   UNL A   1      40.110  33.971  29.424  1.00  0.00    -0.354 N 
ATOM     55  N   UNL A   1      43.223  32.301  29.569  1.00  0.00    -0.248 NA
ATOM     56  C   UNL A   1      45.170  32.183  28.368  1.00  0.00     0.031 C 
ATOM     57  C   UNL A   1      41.128  34.094  31.385  1.00  0.00     0.029 A 
ATOM     58  C   UNL A   1      41.333  34.215  30.023  1.00  0.00     0.049 A 
ATOM     59  H   UNL A   1      39.958  33.973  28.451  1.00  0.00     0.167 HD
ATOM     60  C   UNL A   1      43.394  33.544  29.007  1.00  0.00     0.074 A 
ATOM     61  C   UNL A   1      44.634  33.414  28.261  1.00  0.00     0.031 C 
ATOM     62  C   UNL A   1      42.478  34.549  29.182  1.00  0.00     0.031 A 
BRANCH  49  63
ATOM     63  C   UNL A   1      36.498  33.763  30.337  1.00  0.00    -0.014 A 
ATOM     64  C   UNL A   1      35.596  34.212  29.350  1.00  0.00     0.010 A 
ATOM     65  C   UNL A   1      36.086  33.917  31.675  1.00  0.00     0.010 A 
ATOM     66  C   UNL A   1      34.401  34.867  29.678  1.00  0.00     0.020 A 
ATOM     67  C   UNL A   1      34.910  34.604  32.019  1.00  0.00     0.020 A 
ATOM     68  C   UNL A   1      34.077  35.085  31.014  1.00  0.00     0.054 A 
BRANCH  68  69
ATOM     69  S   UNL A   1      32.563  35.998  31.412  1.00  0.00     0.124 S 
ATOM     70  O   UNL A   1      33.082  37.212  32.039  1.00  0.00    -0.237 OA
ATOM     71  O   UNL A   1      31.952  36.180  30.099  1.00  0.00    -0.237 OA
ATOM     72  O   UNL A   1      31.843  35.101  32.314  1.00  0.00    -0.744 OA
ENDBRANCH  68  69
ENDBRANCH  49  63
BRANCH  50  73
ATOM     73  C   UNL A   1      44.744  28.943  28.633  1.00  0.00    -0.014 A 
ATOM     74  C   UNL A   1      44.115  28.823  27.373  1.00  0.00     0.010 A 
ATOM     75  C   UNL A   1      46.010  28.362  28.811  1.00  0.00     0.010 A 
ATOM     76  C   UNL A   1      44.805  28.295  26.276  1.00  0.00     0.020 A 
ATOM     77  C   UNL A   1      46.699  27.821  27.714  1.00  0.00     0.020 A 
ATOM     78  C   UNL A   1      46.117  27.854  26.444  1.00  0.00     0.054 A 
BRANCH  78  79
ATOM     79  S   UNL A   1      47.105  27.498  24.956  1.00  0.00     0.124 S 
ATOM     80  O   UNL A   1      46.342  28.167  23.907  1.00  0.00    -0.237 OA
ATOM     81  O   UNL A   1      48.395  28.107  25.283  1.00  0.00    -0.237 OA
ATOM     82  O   UNL A   1      47.112  26.040  24.899  1.00  0.00    -0.744 OA
ENDBRANCH  78  79
ENDBRANCH  50  73
BRANCH  62  83
ATOM     83  C   UNL A   1      42.502  35.944  28.569  1.00  0.00    -0.014 A 
ATOM     84  C   UNL A   1      42.061  36.272  27.281  1.00  0.00     0.010 A 
ATOM     85  C   UNL A   1      43.059  37.014  29.322  1.00  0.00     0.010 A 
ATOM     86  C   UNL A   1      42.089  37.598  26.808  1.00  0.00     0.020 A 
ATOM     87  C   UNL A   1      43.102  38.334  28.865  1.00  0.00     0.020 A 
ATOM     88  C   UNL A   1      42.597  38.622  27.610  1.00  0.00     0.054 A 
BRANCH  88  89
ATOM     89  S   UNL A   1      42.608  40.319  26.984  1.00  0.00     0.124 S 
ATOM     90  O   UNL A   1      43.215  41.053  28.091  1.00  0.00    -0.237 OA
ATOM     91  O   UNL A   1      43.432  40.199  25.783  1.00  0.00    -0.237 OA
ATOM     92  O   UNL A   1      41.198  40.615  26.741  1.00  0.00    -0.744 OA
ENDBRANCH  88  89
ENDBRANCH  62  83
ENDBRANCH  36  37
ENDBRANCH  28  31
ENDBRANCH  26  27
ENDBRANCH  25  26
ENDBRANCH  24  25
ENDBRANCH   1  24
TORSDOF 19
ENDMDL
