MODEL 1
REMARK VINA RESULT:     -12.8      0.000      0.000
REMARK SMILES O=C(NCCCCCCNC(=O)c1ccc([C@@H]2CC(O)=Nc3c2ncn3-c2cccc(Cl)c2)cc1)c1ccc(-c2c3nc(c(-c4ccc(S(=O)(=O)[O-])cc4)c4ccc([nH]4)c(-c4ccc(S(=O)(=O)[O-])cc4)c4nc(c(-c5ccc(S(=O)(=O)[O-])cc5)c5ccc2[nH]5)C=C4)C=C3)cc1
REMARK SMILES IDX 6 1 5 2 4 3 3 4 1 5 2 6 36 8 37 9 95 10 38 11 94 12 39 13
REMARK SMILES IDX 40 14 41 15 88 16 42 17 93 18 87 19 89 20 43 21 92 22 86 23
REMARK SMILES IDX 85 24 44 26 74 27 55 28 73 29 56 30 59 31 72 32 90 33 57 34
REMARK SMILES IDX 58 35 71 37 91 38 60 39 45 40 46 41 54 42 47 43 53 44 48 45
REMARK SMILES IDX 49 46 50 47 51 48 52 49 75 50 76 51 84 52 77 53 83 54 78 55
REMARK SMILES IDX 79 56 80 57 81 58 82 59 61 60 62 61 70 62 63 63 69 64 64 65
REMARK SMILES IDX 65 66 66 67 67 68 68 69 7 70 8 71 9 72 10 73 11 74 12 76
REMARK SMILES IDX 13 77 14 78 35 79 15 80 34 81 16 82 17 83 18 84 23 85 19 86
REMARK SMILES IDX 22 87 24 88 21 89 26 90 25 91 20 92 27 94 28 95 33 96 29 97
REMARK SMILES IDX 31 98 30 99 32 100
REMARK H PARENT 3 7 89 25 59 36 10 75 20 93
REMARK Flexibility Score: inf
ROOT
ATOM      1  C   UNL A   1      34.567  31.141  28.108  1.00  0.00     0.002 C 
ENDROOT
BRANCH   1   2
ATOM      2  C   UNL A   1      33.855  32.490  27.966  1.00  0.00     0.021 C 
BRANCH   2   3
ATOM      3  C   UNL A   1      34.299  33.555  28.969  1.00  0.00     0.116 C 
BRANCH   3   4
ATOM      4  N   UNL A   1      33.939  33.268  30.340  1.00  0.00    -0.352 N 
ATOM      5  O   UNL A   1      34.009  32.762  32.490  1.00  0.00    -0.269 OA
ATOM      6  C   UNL A   1      34.618  32.772  31.417  1.00  0.00     0.251 C 
ATOM      7  H   UNL A   1      32.999  33.477  30.542  1.00  0.00     0.163 HD
BRANCH   6   8
ATOM      8  C   UNL A   1      35.988  32.197  31.358  1.00  0.00     0.039 A 
ATOM      9  C   UNL A   1      37.177  32.927  31.291  1.00  0.00     0.014 A 
ATOM     10  C   UNL A   1      36.061  30.793  31.344  1.00  0.00     0.014 A 
ATOM     11  C   UNL A   1      38.396  32.287  31.108  1.00  0.00     0.010 A 
ATOM     12  C   UNL A   1      37.279  30.145  31.195  1.00  0.00     0.010 A 
ATOM     13  C   UNL A   1      38.441  30.898  31.033  1.00  0.00    -0.014 A 
BRANCH  13  14
ATOM     14  C   UNL A   1      39.746  30.258  30.889  1.00  0.00     0.031 A 
ATOM     15  C   UNL A   1      40.530  30.083  32.151  1.00  0.00     0.074 A 
ATOM     16  C   UNL A   1      40.125  29.691  29.727  1.00  0.00     0.049 A 
ATOM     17  N   UNL A   1      41.762  30.393  32.401  1.00  0.00    -0.248 NA
ATOM     18  C   UNL A   1      39.805  29.543  33.317  1.00  0.00     0.031 C 
ATOM     19  C   UNL A   1      39.315  29.527  28.515  1.00  0.00     0.029 A 
ATOM     20  N   UNL A   1      41.260  28.995  29.438  1.00  0.00    -0.354 N 
ATOM     21  C   UNL A   1      42.024  29.926  33.691  1.00  0.00     0.074 A 
ATOM     22  C   UNL A   1      40.757  29.528  34.248  1.00  0.00     0.031 C 
ATOM     23  C   UNL A   1      39.868  28.568  27.744  1.00  0.00     0.029 A 
ATOM     24  C   UNL A   1      41.125  28.151  28.343  1.00  0.00     0.049 A 
ATOM     25  H   UNL A   1      42.093  29.080  29.955  1.00  0.00     0.167 HD
ATOM     26  C   UNL A   1      43.284  29.706  34.161  1.00  0.00     0.031 A 
ATOM     27  C   UNL A   1      41.925  27.107  28.014  1.00  0.00     0.031 A 
ATOM     28  C   UNL A   1      44.284  30.399  33.399  1.00  0.00     0.049 A 
ATOM     29  C   UNL A   1      43.210  27.280  28.733  1.00  0.00     0.074 A 
ATOM     30  C   UNL A   1      44.561  31.723  33.129  1.00  0.00     0.029 A 
ATOM     31  N   UNL A   1      45.022  29.670  32.498  1.00  0.00    -0.354 N 
ATOM     32  N   UNL A   1      44.045  28.253  28.500  1.00  0.00    -0.248 NA
ATOM     33  C   UNL A   1      43.384  26.602  30.008  1.00  0.00     0.031 C 
ATOM     34  C   UNL A   1      45.054  31.731  31.792  1.00  0.00     0.029 A 
ATOM     35  C   UNL A   1      45.082  30.408  31.345  1.00  0.00     0.049 A 
ATOM     36  H   UNL A   1      45.429  28.787  32.651  1.00  0.00     0.167 HD
ATOM     37  C   UNL A   1      44.572  28.578  29.742  1.00  0.00     0.074 A 
ATOM     38  C   UNL A   1      44.211  27.460  30.609  1.00  0.00     0.031 C 
ATOM     39  C   UNL A   1      45.015  29.841  30.015  1.00  0.00     0.031 A 
BRANCH  26  40
ATOM     40  C   UNL A   1      43.633  28.559  35.085  1.00  0.00    -0.014 A 
ATOM     41  C   UNL A   1      44.387  28.817  36.248  1.00  0.00     0.010 A 
ATOM     42  C   UNL A   1      43.505  27.209  34.693  1.00  0.00     0.010 A 
ATOM     43  C   UNL A   1      45.054  27.786  36.926  1.00  0.00     0.020 A 
ATOM     44  C   UNL A   1      44.128  26.171  35.388  1.00  0.00     0.020 A 
ATOM     45  C   UNL A   1      44.938  26.472  36.473  1.00  0.00     0.054 A 
BRANCH  45  46
ATOM     46  S   UNL A   1      45.934  25.172  37.245  1.00  0.00     0.124 S 
ATOM     47  O   UNL A   1      44.912  24.381  37.925  1.00  0.00    -0.237 OA
ATOM     48  O   UNL A   1      46.566  24.538  36.092  1.00  0.00    -0.237 OA
ATOM     49  O   UNL A   1      46.841  25.911  38.120  1.00  0.00    -0.744 OA
ENDBRANCH  45  46
ENDBRANCH  26  40
BRANCH  27  50
ATOM     50  C   UNL A   1      41.496  25.816  27.421  1.00  0.00    -0.014 A 
ATOM     51  C   UNL A   1      42.327  25.099  26.543  1.00  0.00     0.010 A 
ATOM     52  C   UNL A   1      40.352  25.157  27.924  1.00  0.00     0.010 A 
ATOM     53  C   UNL A   1      42.046  23.761  26.213  1.00  0.00     0.020 A 
ATOM     54  C   UNL A   1      40.059  23.830  27.592  1.00  0.00     0.020 A 
ATOM     55  C   UNL A   1      40.920  23.131  26.753  1.00  0.00     0.054 A 
BRANCH  55  56
ATOM     56  S   UNL A   1      40.648  21.361  26.448  1.00  0.00     0.124 S 
ATOM     57  O   UNL A   1      39.365  21.359  25.751  1.00  0.00    -0.237 OA
ATOM     58  O   UNL A   1      41.808  20.995  25.640  1.00  0.00    -0.237 OA
ATOM     59  O   UNL A   1      40.624  20.779  27.790  1.00  0.00    -0.744 OA
ENDBRANCH  55  56
ENDBRANCH  27  50
BRANCH  39  60
ATOM     60  C   UNL A   1      45.170  30.815  28.870  1.00  0.00    -0.014 A 
ATOM     61  C   UNL A   1      44.098  31.576  28.360  1.00  0.00     0.010 A 
ATOM     62  C   UNL A   1      46.469  31.101  28.417  1.00  0.00     0.010 A 
ATOM     63  C   UNL A   1      44.322  32.586  27.413  1.00  0.00     0.020 A 
ATOM     64  C   UNL A   1      46.701  32.117  27.485  1.00  0.00     0.020 A 
ATOM     65  C   UNL A   1      45.625  32.853  26.984  1.00  0.00     0.054 A 
BRANCH  65  66
ATOM     66  S   UNL A   1      45.915  34.215  25.819  1.00  0.00     0.124 S 
ATOM     67  O   UNL A   1      47.360  34.156  25.614  1.00  0.00    -0.237 OA
ATOM     68  O   UNL A   1      45.100  33.836  24.667  1.00  0.00    -0.237 OA
ATOM     69  O   UNL A   1      45.440  35.396  26.541  1.00  0.00    -0.744 OA
ENDBRANCH  65  66
ENDBRANCH  39  60
ENDBRANCH  13  14
ENDBRANCH   6   8
ENDBRANCH   3   4
ENDBRANCH   2   3
ENDBRANCH   1   2
BRANCH   1  70
ATOM     70  C   UNL A   1      33.996  30.003  27.257  1.00  0.00     0.002 C 
BRANCH  70  71
ATOM     71  C   UNL A   1      33.205  30.443  26.023  1.00  0.00     0.021 C 
BRANCH  71  72
ATOM     72  C   UNL A   1      31.740  30.022  26.021  1.00  0.00     0.116 C 
BRANCH  72  73
ATOM     73  N   UNL A   1      31.262  29.754  24.674  1.00  0.00    -0.352 N 
ATOM     74  C   UNL A   1      31.517  28.671  23.871  1.00  0.00     0.251 C 
ATOM     75  H   UNL A   1      30.674  30.442  24.287  1.00  0.00     0.163 HD
ATOM     76  O   UNL A   1      31.220  28.686  22.684  1.00  0.00    -0.269 OA
BRANCH  74  77
ATOM     77  C   UNL A   1      32.182  27.483  24.446  1.00  0.00     0.039 A 
ATOM     78  C   UNL A   1      33.320  26.982  23.815  1.00  0.00     0.014 A 
ATOM     79  C   UNL A   1      31.678  26.863  25.593  1.00  0.00     0.014 A 
ATOM     80  C   UNL A   1      33.991  25.891  24.368  1.00  0.00     0.005 A 
ATOM     81  C   UNL A   1      32.357  25.781  26.151  1.00  0.00     0.005 A 
ATOM     82  C   UNL A   1      33.526  25.284  25.549  1.00  0.00    -0.038 A 
BRANCH  82  83
ATOM     83  C   UNL A   1      34.277  24.091  26.114  1.00  0.00     0.081 C 
ATOM     84  C   UNL A   1      35.733  24.017  25.605  1.00  0.00     0.111 C 
ATOM     85  C   UNL A   1      33.502  22.879  25.743  1.00  0.00     0.093 A 
ATOM     86  C   UNL A   1      36.050  22.825  24.718  1.00  0.00     0.188 C 
ATOM     87  C   UNL A   1      34.075  21.848  25.033  1.00  0.00     0.164 A 
ATOM     88  N   UNL A   1      32.184  22.636  26.017  1.00  0.00    -0.238 NA
ATOM     89  N   UNL A   1      35.315  21.784  24.492  1.00  0.00    -0.198 NA
ATOM     90  N   UNL A   1      33.062  20.923  24.850  1.00  0.00    -0.283 N 
ATOM     91  C   UNL A   1      31.937  21.486  25.422  1.00  0.00     0.206 A 
BRANCH  86  92
ATOM     92  O   UNL A   1      37.271  22.876  24.151  1.00  0.00    -0.496 OA
ATOM     93  H   UNL A   1      37.913  22.227  24.364  1.00  0.00     0.294 HD
ENDBRANCH  86  92
BRANCH  90  94
ATOM     94  C   UNL A   1      33.146  19.651  24.232  1.00  0.00     0.050 A 
ATOM     95  C   UNL A   1      32.367  19.363  23.103  1.00  0.00     0.027 A 
ATOM     96  C   UNL A   1      33.999  18.675  24.763  1.00  0.00     0.047 A 
ATOM     97  C   UNL A   1      32.469  18.111  22.492  1.00  0.00     0.004 A 
ATOM     98  C   UNL A   1      34.055  17.414  24.173  1.00  0.00     0.043 A 
ATOM     99  C   UNL A   1      33.306  17.132  23.033  1.00  0.00     0.020 A 
ATOM    100  Cl  UNL A   1      35.037  16.186  24.873  1.00  0.00    -0.084 Cl
ENDBRANCH  90  94
ENDBRANCH  82  83
ENDBRANCH  74  77
ENDBRANCH  72  73
ENDBRANCH  71  72
ENDBRANCH  70  71
ENDBRANCH   1  70
TORSDOF 19
ENDMDL
MODEL 2
REMARK VINA RESULT:     -12.8      1.657      2.421
REMARK SMILES O=C(NCCCCCCNC(=O)c1ccc([C@@H]2CC(O)=Nc3c2ncn3-c2cccc(Cl)c2)cc1)c1ccc(-c2c3nc(c(-c4ccc(S(=O)(=O)[O-])cc4)c4ccc([nH]4)c(-c4ccc(S(=O)(=O)[O-])cc4)c4nc(c(-c5ccc(S(=O)(=O)[O-])cc5)c5ccc2[nH]5)C=C4)C=C3)cc1
REMARK SMILES IDX 6 1 5 2 4 3 3 4 1 5 2 6 36 8 37 9 95 10 38 11 94 12 39 13
REMARK SMILES IDX 40 14 41 15 88 16 42 17 93 18 87 19 89 20 43 21 92 22 86 23
REMARK SMILES IDX 85 24 44 26 74 27 55 28 73 29 56 30 59 31 72 32 90 33 57 34
REMARK SMILES IDX 58 35 71 37 91 38 60 39 45 40 46 41 54 42 47 43 53 44 48 45
REMARK SMILES IDX 49 46 50 47 51 48 52 49 75 50 76 51 84 52 77 53 83 54 78 55
REMARK SMILES IDX 79 56 80 57 81 58 82 59 61 60 62 61 70 62 63 63 69 64 64 65
REMARK SMILES IDX 65 66 66 67 67 68 68 69 7 70 8 71 9 72 10 73 11 74 12 76
REMARK SMILES IDX 13 77 14 78 35 79 15 80 34 81 16 82 17 83 18 84 23 85 19 86
REMARK SMILES IDX 22 87 24 88 21 89 26 90 25 91 20 92 27 94 28 95 33 96 29 97
REMARK SMILES IDX 31 98 30 99 32 100
REMARK H PARENT 3 7 89 25 59 36 10 75 20 93
REMARK Flexibility Score: inf
ROOT
ATOM      1  C   UNL A   1      31.409  28.999  25.472  1.00  0.00     0.002 C 
ENDROOT
BRANCH   1   2
ATOM      2  C   UNL A   1      32.105  28.886  26.832  1.00  0.00     0.021 C 
BRANCH   2   3
ATOM      3  C   UNL A   1      33.440  29.627  26.930  1.00  0.00     0.116 C 
BRANCH   3   4
ATOM      4  N   UNL A   1      33.389  30.841  27.715  1.00  0.00    -0.352 N 
ATOM      5  O   UNL A   1      33.934  32.641  28.874  1.00  0.00    -0.269 OA
ATOM      6  C   UNL A   1      34.321  31.571  28.396  1.00  0.00     0.251 C 
ATOM      7  H   UNL A   1      32.485  31.226  27.769  1.00  0.00     0.163 HD
BRANCH   6   8
ATOM      8  C   UNL A   1      35.720  31.132  28.645  1.00  0.00     0.039 A 
ATOM      9  C   UNL A   1      36.137  29.814  28.848  1.00  0.00     0.014 A 
ATOM     10  C   UNL A   1      36.680  32.156  28.701  1.00  0.00     0.014 A 
ATOM     11  C   UNL A   1      37.450  29.529  29.201  1.00  0.00     0.010 A 
ATOM     12  C   UNL A   1      38.002  31.876  29.022  1.00  0.00     0.010 A 
ATOM     13  C   UNL A   1      38.373  30.565  29.315  1.00  0.00    -0.014 A 
BRANCH  13  14
ATOM     14  C   UNL A   1      39.755  30.222  29.641  1.00  0.00     0.031 A 
ATOM     15  C   UNL A   1      40.160  30.430  31.066  1.00  0.00     0.074 A 
ATOM     16  C   UNL A   1      40.545  29.580  28.759  1.00  0.00     0.049 A 
ATOM     17  N   UNL A   1      41.195  31.046  31.543  1.00  0.00    -0.248 NA
ATOM     18  C   UNL A   1      39.236  29.931  32.101  1.00  0.00     0.031 C 
ATOM     19  C   UNL A   1      40.160  29.049  27.447  1.00  0.00     0.029 A 
ATOM     20  N   UNL A   1      41.818  29.121  28.918  1.00  0.00    -0.354 N 
ATOM     21  C   UNL A   1      41.152  30.859  32.927  1.00  0.00     0.074 A 
ATOM     22  C   UNL A   1      39.867  30.278  33.222  1.00  0.00     0.031 C 
ATOM     23  C   UNL A   1      41.069  28.131  27.061  1.00  0.00     0.029 A 
ATOM     24  C   UNL A   1      42.152  28.107  28.029  1.00  0.00     0.049 A 
ATOM     25  H   UNL A   1      42.439  29.473  29.596  1.00  0.00     0.167 HD
ATOM     26  C   UNL A   1      42.242  31.005  33.732  1.00  0.00     0.031 A 
ATOM     27  C   UNL A   1      43.183  27.232  28.141  1.00  0.00     0.031 A 
ATOM     28  C   UNL A   1      43.281  31.777  33.114  1.00  0.00     0.049 A 
ATOM     29  C   UNL A   1      44.155  27.802  29.103  1.00  0.00     0.074 A 
ATOM     30  C   UNL A   1      43.390  33.071  32.645  1.00  0.00     0.029 A 
ATOM     31  N   UNL A   1      44.363  31.102  32.602  1.00  0.00    -0.354 N 
ATOM     32  N   UNL A   1      44.840  28.889  28.884  1.00  0.00    -0.248 NA
ATOM     33  C   UNL A   1      44.070  27.390  30.496  1.00  0.00     0.031 C 
ATOM     34  C   UNL A   1      44.238  32.979  31.503  1.00  0.00     0.029 A 
ATOM     35  C   UNL A   1      44.623  31.643  31.370  1.00  0.00     0.049 A 
ATOM     36  H   UNL A   1      44.856  30.369  33.037  1.00  0.00     0.167 HD
ATOM     37  C   UNL A   1      44.922  29.516  30.119  1.00  0.00     0.074 A 
ATOM     38  C   UNL A   1      44.526  28.497  31.087  1.00  0.00     0.031 C 
ATOM     39  C   UNL A   1      45.041  30.873  30.219  1.00  0.00     0.031 A 
BRANCH  26  40
ATOM     40  C   UNL A   1      42.503  30.127  34.936  1.00  0.00    -0.014 A 
ATOM     41  C   UNL A   1      43.234  30.649  36.023  1.00  0.00     0.010 A 
ATOM     42  C   UNL A   1      42.318  28.728  34.904  1.00  0.00     0.010 A 
ATOM     43  C   UNL A   1      43.827  29.804  36.973  1.00  0.00     0.020 A 
ATOM     44  C   UNL A   1      42.865  27.883  35.870  1.00  0.00     0.020 A 
ATOM     45  C   UNL A   1      43.658  28.424  36.872  1.00  0.00     0.054 A 
BRANCH  45  46
ATOM     46  S   UNL A   1      44.562  27.331  37.998  1.00  0.00     0.124 S 
ATOM     47  O   UNL A   1      45.548  26.734  37.102  1.00  0.00    -0.237 OA
ATOM     48  O   UNL A   1      45.086  28.268  38.987  1.00  0.00    -0.237 OA
ATOM     49  O   UNL A   1      43.530  26.421  38.492  1.00  0.00    -0.744 OA
ENDBRANCH  45  46
ENDBRANCH  26  40
BRANCH  27  50
ATOM     50  C   UNL A   1      43.173  25.801  27.749  1.00  0.00    -0.014 A 
ATOM     51  C   UNL A   1      42.656  24.810  28.601  1.00  0.00     0.010 A 
ATOM     52  C   UNL A   1      43.448  25.435  26.413  1.00  0.00     0.010 A 
ATOM     53  C   UNL A   1      42.387  23.515  28.124  1.00  0.00     0.020 A 
ATOM     54  C   UNL A   1      43.194  24.147  25.932  1.00  0.00     0.020 A 
ATOM     55  C   UNL A   1      42.645  23.197  26.786  1.00  0.00     0.054 A 
BRANCH  55  56
ATOM     56  S   UNL A   1      42.151  21.573  26.137  1.00  0.00     0.124 S 
ATOM     57  O   UNL A   1      42.396  20.695  27.278  1.00  0.00    -0.237 OA
ATOM     58  O   UNL A   1      40.749  21.783  25.790  1.00  0.00    -0.237 OA
ATOM     59  O   UNL A   1      43.045  21.372  24.998  1.00  0.00    -0.744 OA
ENDBRANCH  55  56
ENDBRANCH  27  50
BRANCH  39  60
ATOM     60  C   UNL A   1      45.347  31.664  28.967  1.00  0.00    -0.014 A 
ATOM     61  C   UNL A   1      44.379  31.948  27.983  1.00  0.00     0.010 A 
ATOM     62  C   UNL A   1      46.601  32.291  28.872  1.00  0.00     0.010 A 
ATOM     63  C   UNL A   1      44.664  32.824  26.925  1.00  0.00     0.020 A 
ATOM     64  C   UNL A   1      46.887  33.178  27.830  1.00  0.00     0.020 A 
ATOM     65  C   UNL A   1      45.918  33.438  26.859  1.00  0.00     0.054 A 
BRANCH  65  66
ATOM     66  S   UNL A   1      46.252  34.632  25.533  1.00  0.00     0.124 S 
ATOM     67  O   UNL A   1      45.956  35.910  26.175  1.00  0.00    -0.237 OA
ATOM     68  O   UNL A   1      47.662  34.393  25.228  1.00  0.00    -0.237 OA
ATOM     69  O   UNL A   1      45.324  34.243  24.472  1.00  0.00    -0.744 OA
ENDBRANCH  65  66
ENDBRANCH  39  60
ENDBRANCH  13  14
ENDBRANCH   6   8
ENDBRANCH   3   4
ENDBRANCH   2   3
ENDBRANCH   1   2
BRANCH   1  70
ATOM     70  C   UNL A   1      30.693  27.733  24.993  1.00  0.00     0.002 C 
BRANCH  70  71
ATOM     71  C   UNL A   1      30.117  27.804  23.576  1.00  0.00     0.021 C 
BRANCH  71  72
ATOM     72  C   UNL A   1      30.804  26.894  22.563  1.00  0.00     0.116 C 
BRANCH  72  73
ATOM     73  N   UNL A   1      31.959  27.540  21.962  1.00  0.00    -0.352 N 
ATOM     74  C   UNL A   1      33.287  27.390  22.276  1.00  0.00     0.251 C 
ATOM     75  H   UNL A   1      31.763  28.169  21.231  1.00  0.00     0.163 HD
ATOM     76  O   UNL A   1      34.128  28.159  21.828  1.00  0.00    -0.269 OA
BRANCH  74  77
ATOM     77  C   UNL A   1      33.699  26.300  23.184  1.00  0.00     0.039 A 
ATOM     78  C   UNL A   1      33.901  26.592  24.532  1.00  0.00     0.014 A 
ATOM     79  C   UNL A   1      33.895  25.001  22.703  1.00  0.00     0.014 A 
ATOM     80  C   UNL A   1      34.244  25.568  25.415  1.00  0.00     0.005 A 
ATOM     81  C   UNL A   1      34.225  23.977  23.590  1.00  0.00     0.005 A 
ATOM     82  C   UNL A   1      34.398  24.246  24.959  1.00  0.00    -0.038 A 
BRANCH  82  83
ATOM     83  C   UNL A   1      34.782  23.160  25.949  1.00  0.00     0.081 C 
ATOM     84  C   UNL A   1      36.286  22.813  25.888  1.00  0.00     0.111 C 
ATOM     85  C   UNL A   1      33.932  21.980  25.647  1.00  0.00     0.093 A 
ATOM     86  C   UNL A   1      36.608  21.412  25.397  1.00  0.00     0.188 C 
ATOM     87  C   UNL A   1      34.483  20.752  25.358  1.00  0.00     0.164 A 
ATOM     88  N   UNL A   1      32.565  21.950  25.592  1.00  0.00    -0.238 NA
ATOM     89  N   UNL A   1      35.789  20.429  25.204  1.00  0.00    -0.198 NA
ATOM     90  N   UNL A   1      33.407  19.919  25.104  1.00  0.00    -0.283 N 
ATOM     91  C   UNL A   1      32.285  20.719  25.211  1.00  0.00     0.206 A 
BRANCH  86  92
ATOM     92  O   UNL A   1      37.922  21.195  25.191  1.00  0.00    -0.496 OA
ATOM     93  H   UNL A   1      38.549  21.836  25.460  1.00  0.00     0.294 HD
ENDBRANCH  86  92
BRANCH  90  94
ATOM     94  C   UNL A   1      33.428  18.532  24.818  1.00  0.00     0.050 A 
ATOM     95  C   UNL A   1      34.070  18.060  23.666  1.00  0.00     0.027 A 
ATOM     96  C   UNL A   1      32.788  17.634  25.683  1.00  0.00     0.047 A 
ATOM     97  C   UNL A   1      34.099  16.688  23.401  1.00  0.00     0.004 A 
ATOM     98  C   UNL A   1      32.782  16.274  25.382  1.00  0.00     0.043 A 
ATOM     99  C   UNL A   1      33.446  15.795  24.255  1.00  0.00     0.020 A 
ATOM    100  Cl  UNL A   1      31.925  15.179  26.397  1.00  0.00    -0.084 Cl
ENDBRANCH  90  94
ENDBRANCH  82  83
ENDBRANCH  74  77
ENDBRANCH  72  73
ENDBRANCH  71  72
ENDBRANCH  70  71
ENDBRANCH   1  70
TORSDOF 19
ENDMDL
MODEL 3
REMARK VINA RESULT:     -12.1      2.463      3.357
REMARK SMILES O=C(NCCCCCCNC(=O)c1ccc([C@@H]2CC(O)=Nc3c2ncn3-c2cccc(Cl)c2)cc1)c1ccc(-c2c3nc(c(-c4ccc(S(=O)(=O)[O-])cc4)c4ccc([nH]4)c(-c4ccc(S(=O)(=O)[O-])cc4)c4nc(c(-c5ccc(S(=O)(=O)[O-])cc5)c5ccc2[nH]5)C=C4)C=C3)cc1
REMARK SMILES IDX 6 1 5 2 4 3 3 4 1 5 2 6 36 8 37 9 95 10 38 11 94 12 39 13
REMARK SMILES IDX 40 14 41 15 88 16 42 17 93 18 87 19 89 20 43 21 92 22 86 23
REMARK SMILES IDX 85 24 44 26 74 27 55 28 73 29 56 30 59 31 72 32 90 33 57 34
REMARK SMILES IDX 58 35 71 37 91 38 60 39 45 40 46 41 54 42 47 43 53 44 48 45
REMARK SMILES IDX 49 46 50 47 51 48 52 49 75 50 76 51 84 52 77 53 83 54 78 55
REMARK SMILES IDX 79 56 80 57 81 58 82 59 61 60 62 61 70 62 63 63 69 64 64 65
REMARK SMILES IDX 65 66 66 67 67 68 68 69 7 70 8 71 9 72 10 73 11 74 12 76
REMARK SMILES IDX 13 77 14 78 35 79 15 80 34 81 16 82 17 83 18 84 23 85 19 86
REMARK SMILES IDX 22 87 24 88 21 89 26 90 25 91 20 92 27 94 28 95 33 96 29 97
REMARK SMILES IDX 31 98 30 99 32 100
REMARK H PARENT 3 7 89 25 59 36 10 75 20 93
REMARK Flexibility Score: inf
ROOT
ATOM      1  C   UNL A   1      33.876  30.069  26.955  1.00  0.00     0.002 C 
ENDROOT
BRANCH   1   2
ATOM      2  C   UNL A   1      34.052  31.217  27.954  1.00  0.00     0.021 C 
BRANCH   2   3
ATOM      3  C   UNL A   1      35.400  31.236  28.676  1.00  0.00     0.116 C 
BRANCH   3   4
ATOM      4  N   UNL A   1      35.306  31.432  30.106  1.00  0.00    -0.352 N 
ATOM      5  O   UNL A   1      35.766  31.569  32.263  1.00  0.00    -0.269 OA
ATOM      6  C   UNL A   1      36.129  31.152  31.160  1.00  0.00     0.251 C 
ATOM      7  H   UNL A   1      34.465  31.864  30.380  1.00  0.00     0.163 HD
BRANCH   6   8
ATOM      8  C   UNL A   1      37.369  30.337  31.067  1.00  0.00     0.039 A 
ATOM      9  C   UNL A   1      37.427  28.942  31.008  1.00  0.00     0.014 A 
ATOM     10  C   UNL A   1      38.575  31.059  31.067  1.00  0.00     0.014 A 
ATOM     11  C   UNL A   1      38.646  28.277  31.054  1.00  0.00     0.010 A 
ATOM     12  C   UNL A   1      39.799  30.402  31.081  1.00  0.00     0.010 A 
ATOM     13  C   UNL A   1      39.828  29.010  31.119  1.00  0.00    -0.014 A 
BRANCH  13  14
ATOM     14  C   UNL A   1      41.092  28.277  31.117  1.00  0.00     0.031 A 
ATOM     15  C   UNL A   1      41.691  28.005  32.461  1.00  0.00     0.074 A 
ATOM     16  C   UNL A   1      41.577  27.717  29.992  1.00  0.00     0.049 A 
ATOM     17  N   UNL A   1      42.899  28.214  32.878  1.00  0.00    -0.248 NA
ATOM     18  C   UNL A   1      40.784  27.489  33.503  1.00  0.00     0.031 C 
ATOM     19  C   UNL A   1      40.921  27.652  28.681  1.00  0.00     0.029 A 
ATOM     20  N   UNL A   1      42.687  26.945  29.823  1.00  0.00    -0.354 N 
ATOM     21  C   UNL A   1      42.958  27.690  34.171  1.00  0.00     0.074 A 
ATOM     22  C   UNL A   1      41.604  27.374  34.547  1.00  0.00     0.031 C 
ATOM     23  C   UNL A   1      41.499  26.676  27.950  1.00  0.00     0.029 A 
ATOM     24  C   UNL A   1      42.634  26.147  28.687  1.00  0.00     0.049 A 
ATOM     25  H   UNL A   1      43.450  26.951  30.445  1.00  0.00     0.167 HD
ATOM     26  C   UNL A   1      44.127  27.361  34.788  1.00  0.00     0.031 A 
ATOM     27  C   UNL A   1      43.393  25.055  28.422  1.00  0.00     0.031 A 
ATOM     28  C   UNL A   1      45.264  27.997  34.188  1.00  0.00     0.049 A 
ATOM     29  C   UNL A   1      44.583  25.109  29.305  1.00  0.00     0.074 A 
ATOM     30  C   UNL A   1      45.668  29.304  34.007  1.00  0.00     0.029 A 
ATOM     31  N   UNL A   1      46.059  27.242  33.360  1.00  0.00    -0.354 N 
ATOM     32  N   UNL A   1      45.509  26.022  29.218  1.00  0.00    -0.248 NA
ATOM     33  C   UNL A   1      44.541  24.382  30.564  1.00  0.00     0.031 C 
ATOM     34  C   UNL A   1      46.330  29.314  32.744  1.00  0.00     0.029 A 
ATOM     35  C   UNL A   1      46.321  28.007  32.254  1.00  0.00     0.049 A 
ATOM     36  H   UNL A   1      46.378  26.326  33.529  1.00  0.00     0.167 HD
ATOM     37  C   UNL A   1      45.893  26.268  30.528  1.00  0.00     0.074 A 
ATOM     38  C   UNL A   1      45.343  25.157  31.299  1.00  0.00     0.031 C 
ATOM     39  C   UNL A   1      46.386  27.486  30.905  1.00  0.00     0.031 A 
BRANCH  26  40
ATOM     40  C   UNL A   1      44.270  26.164  35.704  1.00  0.00    -0.014 A 
ATOM     41  C   UNL A   1      44.909  26.323  36.951  1.00  0.00     0.010 A 
ATOM     42  C   UNL A   1      44.070  24.842  35.253  1.00  0.00     0.010 A 
ATOM     43  C   UNL A   1      45.404  25.219  37.660  1.00  0.00     0.020 A 
ATOM     44  C   UNL A   1      44.519  23.734  35.974  1.00  0.00     0.020 A 
ATOM     45  C   UNL A   1      45.227  23.933  37.151  1.00  0.00     0.054 A 
BRANCH  45  46
ATOM     46  S   UNL A   1      46.013  22.529  37.981  1.00  0.00     0.124 S 
ATOM     47  O   UNL A   1      45.718  21.437  37.059  1.00  0.00    -0.237 OA
ATOM     48  O   UNL A   1      47.410  22.948  38.044  1.00  0.00    -0.237 OA
ATOM     49  O   UNL A   1      45.327  22.466  39.270  1.00  0.00    -0.744 OA
ENDBRANCH  45  46
ENDBRANCH  26  40
BRANCH  27  50
ATOM     50  C   UNL A   1      42.953  23.819  27.730  1.00  0.00    -0.014 A 
ATOM     51  C   UNL A   1      43.503  23.433  26.495  1.00  0.00     0.010 A 
ATOM     52  C   UNL A   1      42.159  22.873  28.415  1.00  0.00     0.010 A 
ATOM     53  C   UNL A   1      43.300  22.138  25.986  1.00  0.00     0.020 A 
ATOM     54  C   UNL A   1      41.942  21.587  27.911  1.00  0.00     0.020 A 
ATOM     55  C   UNL A   1      42.531  21.218  26.707  1.00  0.00     0.054 A 
BRANCH  55  56
ATOM     56  S   UNL A   1      42.401  19.503  26.123  1.00  0.00     0.124 S 
ATOM     57  O   UNL A   1      43.319  19.490  24.987  1.00  0.00    -0.237 OA
ATOM     58  O   UNL A   1      42.827  18.736  27.290  1.00  0.00    -0.237 OA
ATOM     59  O   UNL A   1      40.987  19.363  25.777  1.00  0.00    -0.744 OA
ENDBRANCH  55  56
ENDBRANCH  27  50
BRANCH  39  60
ATOM     60  C   UNL A   1      46.757  28.479  29.827  1.00  0.00    -0.014 A 
ATOM     61  C   UNL A   1      45.839  29.399  29.283  1.00  0.00     0.010 A 
ATOM     62  C   UNL A   1      48.115  28.605  29.486  1.00  0.00     0.010 A 
ATOM     63  C   UNL A   1      46.267  30.409  28.409  1.00  0.00     0.020 A 
ATOM     64  C   UNL A   1      48.551  29.620  28.629  1.00  0.00     0.020 A 
ATOM     65  C   UNL A   1      47.624  30.516  28.091  1.00  0.00     0.054 A 
BRANCH  65  66
ATOM     66  S   UNL A   1      48.182  31.875  27.025  1.00  0.00     0.124 S 
ATOM     67  O   UNL A   1      47.074  32.015  26.083  1.00  0.00    -0.237 OA
ATOM     68  O   UNL A   1      48.349  32.980  27.967  1.00  0.00    -0.237 OA
ATOM     69  O   UNL A   1      49.428  31.374  26.445  1.00  0.00    -0.744 OA
ENDBRANCH  65  66
ENDBRANCH  39  60
ENDBRANCH  13  14
ENDBRANCH   6   8
ENDBRANCH   3   4
ENDBRANCH   2   3
ENDBRANCH   1   2
BRANCH   1  70
ATOM     70  C   UNL A   1      32.710  29.119  27.244  1.00  0.00     0.002 C 
BRANCH  70  71
ATOM     71  C   UNL A   1      31.498  29.272  26.322  1.00  0.00     0.021 C 
BRANCH  71  72
ATOM     72  C   UNL A   1      31.767  30.053  25.041  1.00  0.00     0.116 C 
BRANCH  72  73
ATOM     73  N   UNL A   1      30.581  30.134  24.204  1.00  0.00    -0.352 N 
ATOM     74  C   UNL A   1      29.983  29.146  23.463  1.00  0.00     0.251 C 
ATOM     75  H   UNL A   1      30.148  31.017  24.165  1.00  0.00     0.163 HD
ATOM     76  O   UNL A   1      29.117  29.416  22.641  1.00  0.00    -0.269 OA
BRANCH  74  77
ATOM     77  C   UNL A   1      30.410  27.744  23.646  1.00  0.00     0.039 A 
ATOM     78  C   UNL A   1      29.667  26.923  24.494  1.00  0.00     0.014 A 
ATOM     79  C   UNL A   1      31.543  27.247  22.993  1.00  0.00     0.014 A 
ATOM     80  C   UNL A   1      30.026  25.582  24.643  1.00  0.00     0.005 A 
ATOM     81  C   UNL A   1      31.891  25.905  23.133  1.00  0.00     0.005 A 
ATOM     82  C   UNL A   1      31.134  25.053  23.956  1.00  0.00    -0.038 A 
BRANCH  82  83
ATOM     83  C   UNL A   1      31.498  23.592  24.153  1.00  0.00     0.081 C 
ATOM     84  C   UNL A   1      31.121  23.075  25.559  1.00  0.00     0.111 C 
ATOM     85  C   UNL A   1      32.957  23.473  23.897  1.00  0.00     0.093 A 
ATOM     86  C   UNL A   1      32.295  22.695  26.446  1.00  0.00     0.188 C 
ATOM     87  C   UNL A   1      33.814  22.953  24.841  1.00  0.00     0.164 A 
ATOM     88  N   UNL A   1      33.622  23.861  22.766  1.00  0.00    -0.238 NA
ATOM     89  N   UNL A   1      33.539  22.576  26.112  1.00  0.00    -0.198 NA
ATOM     90  N   UNL A   1      35.073  23.027  24.271  1.00  0.00    -0.283 N 
ATOM     91  C   UNL A   1      34.890  23.633  23.042  1.00  0.00     0.206 A 
BRANCH  86  92
ATOM     92  O   UNL A   1      31.948  22.413  27.717  1.00  0.00    -0.496 OA
ATOM     93  H   UNL A   1      32.381  22.844  28.427  1.00  0.00     0.294 HD
ENDBRANCH  86  92
BRANCH  90  94
ATOM     94  C   UNL A   1      36.299  22.564  24.808  1.00  0.00     0.050 A 
ATOM     95  C   UNL A   1      36.678  21.224  24.648  1.00  0.00     0.027 A 
ATOM     96  C   UNL A   1      37.125  23.447  25.516  1.00  0.00     0.047 A 
ATOM     97  C   UNL A   1      37.897  20.782  25.168  1.00  0.00     0.004 A 
ATOM     98  C   UNL A   1      38.315  22.981  26.071  1.00  0.00     0.043 A 
ATOM     99  C   UNL A   1      38.712  21.658  25.889  1.00  0.00     0.020 A 
ATOM    100  Cl  UNL A   1      39.291  24.042  27.013  1.00  0.00    -0.084 Cl
ENDBRANCH  90  94
ENDBRANCH  82  83
ENDBRANCH  74  77
ENDBRANCH  72  73
ENDBRANCH  71  72
ENDBRANCH  70  71
ENDBRANCH   1  70
TORSDOF 19
ENDMDL
