MODEL 1
REMARK VINA RESULT:     -10.4      0.000      0.000
REMARK SMILES C=CCOc1ccccc1/C=C/c1cc(C(=O)NCCCCCCNC(=O)c2ccc(-c3c4nc(c(-c5ccc(S(=O)(=O)[O-])cc5)c5ccc([nH]5)c(-c5ccc(S(=O)(=O)[O-])cc5)c5nc(c(-c6ccc(S(=O)(=O)[O-])cc6)c6ccc3[nH]6)C=C5)C=C4)cc2)ncn1
REMARK SMILES IDX 20 1 19 2 18 3 16 4 17 5 15 7 13 8 14 9 90 10 89 11 88 12
REMARK SMILES IDX 12 13 11 14 10 15 5 16 6 17 7 18 9 19 8 20 4 21 3 22 2 23
REMARK SMILES IDX 1 24 21 25 22 26 23 27 24 28 25 29 26 30 27 32 28 33 29 34
REMARK SMILES IDX 87 35 30 36 86 37 31 38 32 39 33 40 80 41 34 42 85 43 79 44
REMARK SMILES IDX 81 45 35 46 84 47 78 48 77 49 36 51 66 52 47 53 65 54 48 55
REMARK SMILES IDX 51 56 64 57 82 58 49 59 50 60 63 62 83 63 52 64 37 65 38 66
REMARK SMILES IDX 46 67 39 68 45 69 40 70 41 71 42 72 43 73 44 74 67 75 68 76
REMARK SMILES IDX 76 77 69 78 75 79 70 80 71 81 72 82 73 83 74 84 53 85 54 86
REMARK SMILES IDX 62 87 55 88 61 89 56 90 57 91 58 92 59 93 60 94
REMARK H PARENT 18 6 25 31 81 50 51 61
REMARK Flexibility Score: inf
ROOT
ATOM      1  C   UNL A   1      33.294  22.942  22.003  1.00  0.00     0.021 C 
ENDROOT
BRANCH   1   2
ATOM      2  C   UNL A   1      32.138  22.100  22.549  1.00  0.00     0.116 C 
BRANCH   2   3
ATOM      3  N   UNL A   1      32.639  21.113  23.491  1.00  0.00    -0.351 N 
ATOM      4  C   UNL A   1      32.601  21.023  24.865  1.00  0.00     0.270 C 
ATOM      5  O   UNL A   1      33.134  20.033  25.372  1.00  0.00    -0.268 OA
ATOM      6  H   UNL A   1      33.098  20.356  23.059  1.00  0.00     0.163 HD
BRANCH   4   7
ATOM      7  C   UNL A   1      31.897  22.021  25.739  1.00  0.00     0.132 A 
ATOM      8  C   UNL A   1      31.655  24.113  26.747  1.00  0.00     0.067 A 
ATOM      9  C   UNL A   1      32.498  23.167  26.205  1.00  0.00     0.062 A 
ATOM     10  N   UNL A   1      30.363  23.857  27.024  1.00  0.00    -0.237 NA
ATOM     11  C   UNL A   1      29.906  22.656  26.653  1.00  0.00     0.223 A 
ATOM     12  N   UNL A   1      30.598  21.732  25.983  1.00  0.00    -0.231 NA
BRANCH   8  13
ATOM     13  C   UNL A   1      32.046  25.522  26.912  1.00  0.00     0.029 C 
ATOM     14  C   UNL A   1      31.846  26.435  25.945  1.00  0.00     0.014 C 
BRANCH  14  15
ATOM     15  C   UNL A   1      31.909  27.900  26.088  1.00  0.00     0.017 A 
ATOM     16  C   UNL A   1      31.281  28.718  25.124  1.00  0.00     0.126 A 
ATOM     17  C   UNL A   1      31.355  30.111  25.197  1.00  0.00     0.047 A 
ATOM     18  C   UNL A   1      32.035  30.708  26.256  1.00  0.00     0.004 A 
ATOM     19  C   UNL A   1      32.595  28.519  27.139  1.00  0.00     0.012 A 
ATOM     20  C   UNL A   1      32.652  29.915  27.224  1.00  0.00     0.001 A 
BRANCH  16  21
ATOM     21  O   UNL A   1      30.637  28.158  24.044  1.00  0.00    -0.489 OA
BRANCH  21  22
ATOM     22  C   UNL A   1      30.651  29.040  22.912  1.00  0.00     0.257 C 
BRANCH  22  23
ATOM     23  C   UNL A   1      29.255  29.113  22.362  1.00  0.00     0.006 C 
ATOM     24  C   UNL A   1      28.200  29.602  23.027  1.00  0.00     0.007 C 
ENDBRANCH  22  23
ENDBRANCH  21  22
ENDBRANCH  16  21
ENDBRANCH  14  15
ENDBRANCH   8  13
ENDBRANCH   4   7
ENDBRANCH   2   3
ENDBRANCH   1   2
BRANCH   1  25
ATOM     25  C   UNL A   1      33.857  23.931  23.032  1.00  0.00     0.002 C 
BRANCH  25  26
ATOM     26  C   UNL A   1      35.350  23.758  23.340  1.00  0.00     0.002 C 
BRANCH  26  27
ATOM     27  C   UNL A   1      35.662  23.108  24.691  1.00  0.00     0.021 C 
BRANCH  27  28
ATOM     28  C   UNL A   1      36.848  23.724  25.430  1.00  0.00     0.116 C 
BRANCH  28  29
ATOM     29  N   UNL A   1      37.903  22.749  25.665  1.00  0.00    -0.352 N 
ATOM     30  C   UNL A   1      39.159  22.938  26.176  1.00  0.00     0.251 C 
ATOM     31  H   UNL A   1      37.681  21.821  25.420  1.00  0.00     0.163 HD
ATOM     32  O   UNL A   1      39.998  22.039  26.092  1.00  0.00    -0.269 OA
BRANCH  30  33
ATOM     33  C   UNL A   1      39.511  24.219  26.821  1.00  0.00     0.039 A 
ATOM     34  C   UNL A   1      39.087  24.461  28.130  1.00  0.00     0.014 A 
ATOM     35  C   UNL A   1      40.247  25.187  26.130  1.00  0.00     0.014 A 
ATOM     36  C   UNL A   1      39.446  25.652  28.764  1.00  0.00     0.010 A 
ATOM     37  C   UNL A   1      40.663  26.341  26.788  1.00  0.00     0.010 A 
ATOM     38  C   UNL A   1      40.262  26.590  28.108  1.00  0.00    -0.014 A 
BRANCH  38  39
ATOM     39  C   UNL A   1      40.705  27.832  28.789  1.00  0.00     0.031 A 
ATOM     40  C   UNL A   1      42.070  27.909  29.417  1.00  0.00     0.074 A 
ATOM     41  C   UNL A   1      39.850  28.869  28.903  1.00  0.00     0.049 A 
ATOM     42  N   UNL A   1      42.610  28.887  30.098  1.00  0.00    -0.248 NA
ATOM     43  C   UNL A   1      42.929  26.721  29.289  1.00  0.00     0.031 C 
ATOM     44  C   UNL A   1      38.481  28.896  28.382  1.00  0.00     0.029 A 
ATOM     45  N   UNL A   1      40.001  30.093  29.505  1.00  0.00    -0.354 N 
ATOM     46  C   UNL A   1      43.859  28.426  30.498  1.00  0.00     0.074 A 
ATOM     47  C   UNL A   1      43.979  27.065  30.022  1.00  0.00     0.031 C 
ATOM     48  C   UNL A   1      37.926  30.085  28.670  1.00  0.00     0.029 A 
ATOM     49  C   UNL A   1      38.881  30.886  29.429  1.00  0.00     0.049 A 
ATOM     50  H   UNL A   1      40.833  30.376  29.947  1.00  0.00     0.167 HD
ATOM     51  C   UNL A   1      44.826  29.080  31.185  1.00  0.00     0.031 A 
ATOM     52  C   UNL A   1      38.641  32.117  29.924  1.00  0.00     0.031 A 
ATOM     53  C   UNL A   1      44.705  30.438  31.647  1.00  0.00     0.049 A 
ATOM     54  C   UNL A   1      39.732  32.829  30.673  1.00  0.00     0.074 A 
ATOM     55  C   UNL A   1      45.654  31.216  32.286  1.00  0.00     0.029 A 
ATOM     56  N   UNL A   1      43.564  31.218  31.527  1.00  0.00    -0.354 N 
ATOM     57  N   UNL A   1      40.939  32.408  30.968  1.00  0.00    -0.248 NA
ATOM     58  C   UNL A   1      39.435  34.189  31.144  1.00  0.00     0.031 C 
ATOM     59  C   UNL A   1      45.068  32.445  32.607  1.00  0.00     0.029 A 
ATOM     60  C   UNL A   1      43.774  32.457  32.108  1.00  0.00     0.049 A 
ATOM     61  H   UNL A   1      42.728  30.932  31.093  1.00  0.00     0.167 HD
ATOM     62  C   UNL A   1      41.554  33.458  31.640  1.00  0.00     0.074 A 
ATOM     63  C   UNL A   1      40.590  34.540  31.692  1.00  0.00     0.031 C 
ATOM     64  C   UNL A   1      42.804  33.523  32.163  1.00  0.00     0.031 A 
BRANCH  51  65
ATOM     65  C   UNL A   1      46.093  28.326  31.498  1.00  0.00    -0.014 A 
ATOM     66  C   UNL A   1      46.221  27.568  32.676  1.00  0.00     0.010 A 
ATOM     67  C   UNL A   1      47.162  28.354  30.584  1.00  0.00     0.010 A 
ATOM     68  C   UNL A   1      47.413  26.893  32.957  1.00  0.00     0.020 A 
ATOM     69  C   UNL A   1      48.344  27.656  30.848  1.00  0.00     0.020 A 
ATOM     70  C   UNL A   1      48.469  26.947  32.044  1.00  0.00     0.054 A 
BRANCH  70  71
ATOM     71  S   UNL A   1      50.002  26.056  32.431  1.00  0.00     0.124 S 
ATOM     72  O   UNL A   1      49.986  24.984  31.439  1.00  0.00    -0.237 OA
ATOM     73  O   UNL A   1      51.026  27.079  32.233  1.00  0.00    -0.237 OA
ATOM     74  O   UNL A   1      49.814  25.626  33.815  1.00  0.00    -0.744 OA
ENDBRANCH  70  71
ENDBRANCH  51  65
BRANCH  52  75
ATOM     75  C   UNL A   1      37.310  32.747  29.713  1.00  0.00    -0.014 A 
ATOM     76  C   UNL A   1      36.276  32.572  30.649  1.00  0.00     0.010 A 
ATOM     77  C   UNL A   1      37.085  33.564  28.589  1.00  0.00     0.010 A 
ATOM     78  C   UNL A   1      35.038  33.194  30.460  1.00  0.00     0.020 A 
ATOM     79  C   UNL A   1      35.859  34.210  28.411  1.00  0.00     0.020 A 
ATOM     80  C   UNL A   1      34.840  34.015  29.344  1.00  0.00     0.054 A 
BRANCH  80  81
ATOM     81  S   UNL A   1      33.251  34.871  29.158  1.00  0.00     0.124 S 
ATOM     82  O   UNL A   1      32.753  34.888  30.529  1.00  0.00    -0.237 OA
ATOM     83  O   UNL A   1      33.654  36.166  28.613  1.00  0.00    -0.237 OA
ATOM     84  O   UNL A   1      32.510  34.018  28.232  1.00  0.00    -0.744 OA
ENDBRANCH  80  81
ENDBRANCH  52  75
BRANCH  64  85
ATOM     85  C   UNL A   1      43.216  34.813  32.818  1.00  0.00    -0.014 A 
ATOM     86  C   UNL A   1      43.845  35.836  32.087  1.00  0.00     0.010 A 
ATOM     87  C   UNL A   1      42.917  35.027  34.177  1.00  0.00     0.010 A 
ATOM     88  C   UNL A   1      44.195  37.037  32.710  1.00  0.00     0.020 A 
ATOM     89  C   UNL A   1      43.238  36.237  34.796  1.00  0.00     0.020 A 
ATOM     90  C   UNL A   1      43.888  37.230  34.061  1.00  0.00     0.054 A 
BRANCH  90  91
ATOM     91  S   UNL A   1      44.313  38.814  34.835  1.00  0.00     0.124 S 
ATOM     92  O   UNL A   1      44.140  38.514  36.254  1.00  0.00    -0.237 OA
ATOM     93  O   UNL A   1      45.692  39.023  34.401  1.00  0.00    -0.237 OA
ATOM     94  O   UNL A   1      43.340  39.747  34.273  1.00  0.00    -0.744 OA
ENDBRANCH  90  91
ENDBRANCH  64  85
ENDBRANCH  38  39
ENDBRANCH  30  33
ENDBRANCH  28  29
ENDBRANCH  27  28
ENDBRANCH  26  27
ENDBRANCH  25  26
ENDBRANCH   1  25
TORSDOF 21
ENDMDL
MODEL 2
REMARK VINA RESULT:      -9.8      2.315      3.216
REMARK SMILES C=CCOc1ccccc1/C=C/c1cc(C(=O)NCCCCCCNC(=O)c2ccc(-c3c4nc(c(-c5ccc(S(=O)(=O)[O-])cc5)c5ccc([nH]5)c(-c5ccc(S(=O)(=O)[O-])cc5)c5nc(c(-c6ccc(S(=O)(=O)[O-])cc6)c6ccc3[nH]6)C=C5)C=C4)cc2)ncn1
REMARK SMILES IDX 20 1 19 2 18 3 16 4 17 5 15 7 13 8 14 9 90 10 89 11 88 12
REMARK SMILES IDX 12 13 11 14 10 15 5 16 6 17 7 18 9 19 8 20 4 21 3 22 2 23
REMARK SMILES IDX 1 24 21 25 22 26 23 27 24 28 25 29 26 30 27 32 28 33 29 34
REMARK SMILES IDX 87 35 30 36 86 37 31 38 32 39 33 40 80 41 34 42 85 43 79 44
REMARK SMILES IDX 81 45 35 46 84 47 78 48 77 49 36 51 66 52 47 53 65 54 48 55
REMARK SMILES IDX 51 56 64 57 82 58 49 59 50 60 63 62 83 63 52 64 37 65 38 66
REMARK SMILES IDX 46 67 39 68 45 69 40 70 41 71 42 72 43 73 44 74 67 75 68 76
REMARK SMILES IDX 76 77 69 78 75 79 70 80 71 81 72 82 73 83 74 84 53 85 54 86
REMARK SMILES IDX 62 87 55 88 61 89 56 90 57 91 58 92 59 93 60 94
REMARK H PARENT 18 6 25 31 81 50 51 61
REMARK Flexibility Score: inf
ROOT
ATOM      1  C   UNL A   1      33.599  23.119  22.053  1.00  0.00     0.021 C 
ENDROOT
BRANCH   1   2
ATOM      2  C   UNL A   1      32.210  22.650  22.494  1.00  0.00     0.116 C 
BRANCH   2   3
ATOM      3  N   UNL A   1      32.328  21.581  23.470  1.00  0.00    -0.351 N 
ATOM      4  C   UNL A   1      31.965  21.475  24.795  1.00  0.00     0.270 C 
ATOM      5  O   UNL A   1      32.213  20.404  25.355  1.00  0.00    -0.268 OA
ATOM      6  H   UNL A   1      32.755  20.769  23.113  1.00  0.00     0.163 HD
BRANCH   4   7
ATOM      7  C   UNL A   1      31.238  22.557  25.541  1.00  0.00     0.132 A 
ATOM      8  C   UNL A   1      30.419  24.727  25.803  1.00  0.00     0.067 A 
ATOM      9  C   UNL A   1      31.352  23.891  25.229  1.00  0.00     0.062 A 
ATOM     10  N   UNL A   1      29.594  24.323  26.787  1.00  0.00    -0.237 NA
ATOM     11  C   UNL A   1      29.656  23.028  27.115  1.00  0.00     0.223 A 
ATOM     12  N   UNL A   1      30.410  22.107  26.513  1.00  0.00    -0.231 NA
BRANCH   8  13
ATOM     13  C   UNL A   1      30.133  26.073  25.282  1.00  0.00     0.029 C 
ATOM     14  C   UNL A   1      29.782  26.281  24.000  1.00  0.00     0.014 C 
BRANCH  14  15
ATOM     15  C   UNL A   1      29.189  27.505  23.435  1.00  0.00     0.017 A 
ATOM     16  C   UNL A   1      30.020  28.437  22.775  1.00  0.00     0.126 A 
ATOM     17  C   UNL A   1      29.505  29.630  22.264  1.00  0.00     0.047 A 
ATOM     18  C   UNL A   1      28.143  29.897  22.379  1.00  0.00     0.004 A 
ATOM     19  C   UNL A   1      27.824  27.795  23.547  1.00  0.00     0.012 A 
ATOM     20  C   UNL A   1      27.305  28.981  23.017  1.00  0.00     0.001 A 
BRANCH  16  21
ATOM     21  O   UNL A   1      31.376  28.222  22.682  1.00  0.00    -0.489 OA
BRANCH  21  22
ATOM     22  C   UNL A   1      32.097  29.017  23.635  1.00  0.00     0.257 C 
BRANCH  22  23
ATOM     23  C   UNL A   1      33.430  28.362  23.872  1.00  0.00     0.006 C 
ATOM     24  C   UNL A   1      33.596  27.075  24.201  1.00  0.00     0.007 C 
ENDBRANCH  22  23
ENDBRANCH  21  22
ENDBRANCH  16  21
ENDBRANCH  14  15
ENDBRANCH   8  13
ENDBRANCH   4   7
ENDBRANCH   2   3
ENDBRANCH   1   2
BRANCH   1  25
ATOM     25  C   UNL A   1      34.454  23.643  23.215  1.00  0.00     0.002 C 
BRANCH  25  26
ATOM     26  C   UNL A   1      35.456  22.630  23.784  1.00  0.00     0.002 C 
BRANCH  26  27
ATOM     27  C   UNL A   1      35.599  22.646  25.309  1.00  0.00     0.021 C 
BRANCH  27  28
ATOM     28  C   UNL A   1      36.914  23.234  25.814  1.00  0.00     0.116 C 
BRANCH  28  29
ATOM     29  N   UNL A   1      37.917  22.201  26.032  1.00  0.00    -0.352 N 
ATOM     30  C   UNL A   1      39.238  22.334  26.366  1.00  0.00     0.251 C 
ATOM     31  H   UNL A   1      37.599  21.275  25.925  1.00  0.00     0.163 HD
ATOM     32  O   UNL A   1      39.992  21.362  26.286  1.00  0.00    -0.269 OA
BRANCH  30  33
ATOM     33  C   UNL A   1      39.762  23.641  26.812  1.00  0.00     0.039 A 
ATOM     34  C   UNL A   1      40.370  23.738  28.067  1.00  0.00     0.014 A 
ATOM     35  C   UNL A   1      39.642  24.773  26.000  1.00  0.00     0.014 A 
ATOM     36  C   UNL A   1      40.903  24.959  28.484  1.00  0.00     0.010 A 
ATOM     37  C   UNL A   1      40.236  25.970  26.388  1.00  0.00     0.010 A 
ATOM     38  C   UNL A   1      40.867  26.079  27.636  1.00  0.00    -0.014 A 
BRANCH  38  39
ATOM     39  C   UNL A   1      41.484  27.367  28.038  1.00  0.00     0.031 A 
ATOM     40  C   UNL A   1      42.975  27.550  27.965  1.00  0.00     0.074 A 
ATOM     41  C   UNL A   1      40.707  28.350  28.536  1.00  0.00     0.049 A 
ATOM     42  N   UNL A   1      43.698  28.582  28.322  1.00  0.00    -0.248 NA
ATOM     43  C   UNL A   1      43.762  26.417  27.453  1.00  0.00     0.031 C 
ATOM     44  C   UNL A   1      39.253  28.273  28.706  1.00  0.00     0.029 A 
ATOM     45  N   UNL A   1      41.030  29.599  29.003  1.00  0.00    -0.354 N 
ATOM     46  C   UNL A   1      45.019  28.214  28.099  1.00  0.00     0.074 A 
ATOM     47  C   UNL A   1      45.003  26.850  27.619  1.00  0.00     0.031 C 
ATOM     48  C   UNL A   1      38.810  29.432  29.220  1.00  0.00     0.029 A 
ATOM     49  C   UNL A   1      39.948  30.316  29.454  1.00  0.00     0.049 A 
ATOM     50  H   UNL A   1      41.950  29.949  29.012  1.00  0.00     0.167 HD
ATOM     51  C   UNL A   1      46.145  28.950  28.264  1.00  0.00     0.031 A 
ATOM     52  C   UNL A   1      39.876  31.544  30.006  1.00  0.00     0.031 A 
ATOM     53  C   UNL A   1      46.154  30.311  28.732  1.00  0.00     0.049 A 
ATOM     54  C   UNL A   1      41.136  32.347  30.169  1.00  0.00     0.074 A 
ATOM     55  C   UNL A   1      47.233  31.168  28.863  1.00  0.00     0.029 A 
ATOM     56  N   UNL A   1      45.034  31.012  29.154  1.00  0.00    -0.354 N 
ATOM     57  N   UNL A   1      42.369  32.014  29.872  1.00  0.00    -0.248 NA
ATOM     58  C   UNL A   1      40.993  33.699  30.727  1.00  0.00     0.031 C 
ATOM     59  C   UNL A   1      46.774  32.366  29.421  1.00  0.00     0.029 A 
ATOM     60  C   UNL A   1      45.400  32.279  29.575  1.00  0.00     0.049 A 
ATOM     61  H   UNL A   1      44.115  30.660  29.154  1.00  0.00     0.167 HD
ATOM     62  C   UNL A   1      43.148  33.122  30.187  1.00  0.00     0.074 A 
ATOM     63  C   UNL A   1      42.243  34.141  30.681  1.00  0.00     0.031 C 
ATOM     64  C   UNL A   1      44.490  33.282  30.074  1.00  0.00     0.031 A 
BRANCH  51  65
ATOM     65  C   UNL A   1      47.464  28.289  27.955  1.00  0.00    -0.014 A 
ATOM     66  C   UNL A   1      48.104  28.478  26.717  1.00  0.00     0.010 A 
ATOM     67  C   UNL A   1      48.085  27.487  28.929  1.00  0.00     0.010 A 
ATOM     68  C   UNL A   1      49.316  27.837  26.441  1.00  0.00     0.020 A 
ATOM     69  C   UNL A   1      49.312  26.870  28.670  1.00  0.00     0.020 A 
ATOM     70  C   UNL A   1      49.910  27.033  27.418  1.00  0.00     0.054 A 
BRANCH  70  71
ATOM     71  S   UNL A   1      51.486  26.220  27.036  1.00  0.00     0.124 S 
ATOM     72  O   UNL A   1      52.389  26.848  27.998  1.00  0.00    -0.237 OA
ATOM     73  O   UNL A   1      51.188  24.811  27.283  1.00  0.00    -0.237 OA
ATOM     74  O   UNL A   1      51.727  26.568  25.638  1.00  0.00    -0.744 OA
ENDBRANCH  70  71
ENDBRANCH  51  65
BRANCH  52  75
ATOM     75  C   UNL A   1      38.557  32.081  30.435  1.00  0.00    -0.014 A 
ATOM     76  C   UNL A   1      38.042  31.790  31.711  1.00  0.00     0.010 A 
ATOM     77  C   UNL A   1      37.825  32.925  29.579  1.00  0.00     0.010 A 
ATOM     78  C   UNL A   1      36.817  32.325  32.118  1.00  0.00     0.020 A 
ATOM     79  C   UNL A   1      36.613  33.484  29.992  1.00  0.00     0.020 A 
ATOM     80  C   UNL A   1      36.113  33.174  31.258  1.00  0.00     0.054 A 
BRANCH  80  81
ATOM     81  S   UNL A   1      34.561  33.916  31.836  1.00  0.00     0.124 S 
ATOM     82  O   UNL A   1      33.819  34.078  30.591  1.00  0.00    -0.237 OA
ATOM     83  O   UNL A   1      34.049  32.901  32.754  1.00  0.00    -0.237 OA
ATOM     84  O   UNL A   1      34.994  35.158  32.473  1.00  0.00    -0.744 OA
ENDBRANCH  80  81
ENDBRANCH  52  75
BRANCH  64  85
ATOM     85  C   UNL A   1      45.065  34.616  30.468  1.00  0.00    -0.014 A 
ATOM     86  C   UNL A   1      45.431  34.890  31.797  1.00  0.00     0.010 A 
ATOM     87  C   UNL A   1      45.295  35.591  29.479  1.00  0.00     0.010 A 
ATOM     88  C   UNL A   1      45.988  36.127  32.136  1.00  0.00     0.020 A 
ATOM     89  C   UNL A   1      45.879  36.816  29.808  1.00  0.00     0.020 A 
ATOM     90  C   UNL A   1      46.209  37.082  31.138  1.00  0.00     0.054 A 
BRANCH  90  91
ATOM     91  S   UNL A   1      46.973  38.661  31.596  1.00  0.00     0.124 S 
ATOM     92  O   UNL A   1      48.386  38.404  31.330  1.00  0.00    -0.237 OA
ATOM     93  O   UNL A   1      46.326  39.605  30.688  1.00  0.00    -0.237 OA
ATOM     94  O   UNL A   1      46.623  38.821  33.005  1.00  0.00    -0.744 OA
ENDBRANCH  90  91
ENDBRANCH  64  85
ENDBRANCH  38  39
ENDBRANCH  30  33
ENDBRANCH  28  29
ENDBRANCH  27  28
ENDBRANCH  26  27
ENDBRANCH  25  26
ENDBRANCH   1  25
TORSDOF 21
ENDMDL
MODEL 3
REMARK VINA RESULT:      -9.7      3.834      9.153
REMARK SMILES C=CCOc1ccccc1/C=C/c1cc(C(=O)NCCCCCCNC(=O)c2ccc(-c3c4nc(c(-c5ccc(S(=O)(=O)[O-])cc5)c5ccc([nH]5)c(-c5ccc(S(=O)(=O)[O-])cc5)c5nc(c(-c6ccc(S(=O)(=O)[O-])cc6)c6ccc3[nH]6)C=C5)C=C4)cc2)ncn1
REMARK SMILES IDX 20 1 19 2 18 3 16 4 17 5 15 7 13 8 14 9 90 10 89 11 88 12
REMARK SMILES IDX 12 13 11 14 10 15 5 16 6 17 7 18 9 19 8 20 4 21 3 22 2 23
REMARK SMILES IDX 1 24 21 25 22 26 23 27 24 28 25 29 26 30 27 32 28 33 29 34
REMARK SMILES IDX 87 35 30 36 86 37 31 38 32 39 33 40 80 41 34 42 85 43 79 44
REMARK SMILES IDX 81 45 35 46 84 47 78 48 77 49 36 51 66 52 47 53 65 54 48 55
REMARK SMILES IDX 51 56 64 57 82 58 49 59 50 60 63 62 83 63 52 64 37 65 38 66
REMARK SMILES IDX 46 67 39 68 45 69 40 70 41 71 42 72 43 73 44 74 67 75 68 76
REMARK SMILES IDX 76 77 69 78 75 79 70 80 71 81 72 82 73 83 74 84 53 85 54 86
REMARK SMILES IDX 62 87 55 88 61 89 56 90 57 91 58 92 59 93 60 94
REMARK H PARENT 18 6 25 31 81 50 51 61
REMARK Flexibility Score: inf
ROOT
ATOM      1  C   UNL A   1      35.346  23.629  25.576  1.00  0.00     0.021 C 
ENDROOT
BRANCH   1   2
ATOM      2  C   UNL A   1      34.194  23.422  26.562  1.00  0.00     0.116 C 
BRANCH   2   3
ATOM      3  N   UNL A   1      33.453  22.219  26.221  1.00  0.00    -0.351 N 
ATOM      4  C   UNL A   1      32.536  21.930  25.235  1.00  0.00     0.270 C 
ATOM      5  O   UNL A   1      32.079  20.784  25.220  1.00  0.00    -0.268 OA
ATOM      6  H   UNL A   1      33.643  21.459  26.817  1.00  0.00     0.163 HD
BRANCH   4   7
ATOM      7  C   UNL A   1      32.137  22.907  24.166  1.00  0.00     0.132 A 
ATOM      8  C   UNL A   1      30.904  24.707  23.335  1.00  0.00     0.067 A 
ATOM      9  C   UNL A   1      30.990  23.663  24.231  1.00  0.00     0.062 A 
ATOM     10  N   UNL A   1      31.760  24.850  22.306  1.00  0.00    -0.237 NA
ATOM     11  C   UNL A   1      32.770  23.975  22.254  1.00  0.00     0.223 A 
ATOM     12  N   UNL A   1      33.030  23.029  23.157  1.00  0.00    -0.231 NA
BRANCH   8  13
ATOM     13  C   UNL A   1      29.979  25.837  23.521  1.00  0.00     0.029 C 
ATOM     14  C   UNL A   1      30.409  27.111  23.550  1.00  0.00     0.014 C 
BRANCH  14  15
ATOM     15  C   UNL A   1      29.582  28.324  23.427  1.00  0.00     0.017 A 
ATOM     16  C   UNL A   1      30.148  29.582  23.727  1.00  0.00     0.126 A 
ATOM     17  C   UNL A   1      29.387  30.752  23.667  1.00  0.00     0.047 A 
ATOM     18  C   UNL A   1      28.052  30.683  23.276  1.00  0.00     0.004 A 
ATOM     19  C   UNL A   1      28.236  28.276  23.044  1.00  0.00     0.012 A 
ATOM     20  C   UNL A   1      27.479  29.449  22.965  1.00  0.00     0.001 A 
BRANCH  16  21
ATOM     21  O   UNL A   1      31.452  29.678  24.156  1.00  0.00    -0.489 OA
BRANCH  21  22
ATOM     22  C   UNL A   1      31.526  30.199  25.491  1.00  0.00     0.257 C 
BRANCH  22  23
ATOM     23  C   UNL A   1      31.849  29.060  26.418  1.00  0.00     0.006 C 
ATOM     24  C   UNL A   1      32.802  29.092  27.358  1.00  0.00     0.007 C 
ENDBRANCH  22  23
ENDBRANCH  21  22
ENDBRANCH  16  21
ENDBRANCH  14  15
ENDBRANCH   8  13
ENDBRANCH   4   7
ENDBRANCH   2   3
ENDBRANCH   1   2
BRANCH   1  25
ATOM     25  C   UNL A   1      36.586  22.791  25.915  1.00  0.00     0.002 C 
BRANCH  25  26
ATOM     26  C   UNL A   1      36.533  21.337  25.428  1.00  0.00     0.002 C 
BRANCH  26  27
ATOM     27  C   UNL A   1      37.872  20.761  24.958  1.00  0.00     0.021 C 
BRANCH  27  28
ATOM     28  C   UNL A   1      39.046  21.054  25.887  1.00  0.00     0.116 C 
BRANCH  28  29
ATOM     29  N   UNL A   1      39.953  19.919  25.985  1.00  0.00    -0.352 N 
ATOM     30  C   UNL A   1      41.313  19.908  26.143  1.00  0.00     0.251 C 
ATOM     31  H   UNL A   1      39.527  19.033  25.929  1.00  0.00     0.163 HD
ATOM     32  O   UNL A   1      41.942  18.861  25.976  1.00  0.00    -0.269 OA
BRANCH  30  33
ATOM     33  C   UNL A   1      42.027  21.149  26.504  1.00  0.00     0.039 A 
ATOM     34  C   UNL A   1      42.303  22.090  25.507  1.00  0.00     0.014 A 
ATOM     35  C   UNL A   1      42.436  21.381  27.820  1.00  0.00     0.014 A 
ATOM     36  C   UNL A   1      42.943  23.284  25.842  1.00  0.00     0.010 A 
ATOM     37  C   UNL A   1      43.008  22.602  28.163  1.00  0.00     0.010 A 
ATOM     38  C   UNL A   1      43.275  23.564  27.178  1.00  0.00    -0.014 A 
BRANCH  38  39
ATOM     39  C   UNL A   1      43.899  24.855  27.561  1.00  0.00     0.031 A 
ATOM     40  C   UNL A   1      43.062  25.957  28.152  1.00  0.00     0.074 A 
ATOM     41  C   UNL A   1      45.207  25.061  27.311  1.00  0.00     0.049 A 
ATOM     42  N   UNL A   1      43.419  27.167  28.499  1.00  0.00    -0.248 NA
ATOM     43  C   UNL A   1      41.632  25.672  28.355  1.00  0.00     0.031 C 
ATOM     44  C   UNL A   1      46.113  24.089  26.692  1.00  0.00     0.029 A 
ATOM     45  N   UNL A   1      46.000  26.159  27.533  1.00  0.00    -0.354 N 
ATOM     46  C   UNL A   1      42.258  27.794  28.936  1.00  0.00     0.074 A 
ATOM     47  C   UNL A   1      41.178  26.845  28.770  1.00  0.00     0.031 C 
ATOM     48  C   UNL A   1      47.340  24.628  26.603  1.00  0.00     0.029 A 
ATOM     49  C   UNL A   1      47.300  25.993  27.119  1.00  0.00     0.049 A 
ATOM     50  H   UNL A   1      45.669  26.986  27.950  1.00  0.00     0.167 HD
ATOM     51  C   UNL A   1      42.105  29.040  29.445  1.00  0.00     0.031 A 
ATOM     52  C   UNL A   1      48.344  26.846  27.138  1.00  0.00     0.031 A 
ATOM     53  C   UNL A   1      43.185  29.976  29.617  1.00  0.00     0.049 A 
ATOM     54  C   UNL A   1      48.155  28.220  27.718  1.00  0.00     0.074 A 
ATOM     55  C   UNL A   1      43.148  31.234  30.192  1.00  0.00     0.029 A 
ATOM     56  N   UNL A   1      44.494  29.760  29.210  1.00  0.00    -0.354 N 
ATOM     57  N   UNL A   1      47.067  28.765  28.206  1.00  0.00    -0.248 NA
ATOM     58  C   UNL A   1      49.339  29.089  27.763  1.00  0.00     0.031 C 
ATOM     59  C   UNL A   1      44.421  31.804  30.077  1.00  0.00     0.029 A 
ATOM     60  C   UNL A   1      45.266  30.874  29.491  1.00  0.00     0.049 A 
ATOM     61  H   UNL A   1      44.824  28.937  28.783  1.00  0.00     0.167 HD
ATOM     62  C   UNL A   1      47.438  30.033  28.638  1.00  0.00     0.074 A 
ATOM     63  C   UNL A   1      48.856  30.167  28.367  1.00  0.00     0.031 C 
ATOM     64  C   UNL A   1      46.675  30.999  29.208  1.00  0.00     0.031 A 
BRANCH  51  65
ATOM     65  C   UNL A   1      40.713  29.471  29.833  1.00  0.00    -0.014 A 
ATOM     66  C   UNL A   1      40.203  29.223  31.120  1.00  0.00     0.010 A 
ATOM     67  C   UNL A   1      39.914  30.160  28.903  1.00  0.00     0.010 A 
ATOM     68  C   UNL A   1      38.902  29.611  31.452  1.00  0.00     0.020 A 
ATOM     69  C   UNL A   1      38.624  30.577  29.241  1.00  0.00     0.020 A 
ATOM     70  C   UNL A   1      38.118  30.281  30.509  1.00  0.00     0.054 A 
BRANCH  70  71
ATOM     71  S   UNL A   1      36.436  30.780  30.970  1.00  0.00     0.124 S 
ATOM     72  O   UNL A   1      35.669  30.371  29.796  1.00  0.00    -0.237 OA
ATOM     73  O   UNL A   1      36.192  30.001  32.181  1.00  0.00    -0.237 OA
ATOM     74  O   UNL A   1      36.544  32.223  31.171  1.00  0.00    -0.744 OA
ENDBRANCH  70  71
ENDBRANCH  51  65
BRANCH  52  75
ATOM     75  C   UNL A   1      49.659  26.410  26.596  1.00  0.00    -0.014 A 
ATOM     76  C   UNL A   1      50.033  26.726  25.278  1.00  0.00     0.010 A 
ATOM     77  C   UNL A   1      50.564  25.710  27.415  1.00  0.00     0.010 A 
ATOM     78  C   UNL A   1      51.284  26.341  24.786  1.00  0.00     0.020 A 
ATOM     79  C   UNL A   1      51.826  25.348  26.936  1.00  0.00     0.020 A 
ATOM     80  C   UNL A   1      52.175  25.660  25.621  1.00  0.00     0.054 A 
BRANCH  80  81
ATOM     81  S   UNL A   1      53.821  25.236  24.986  1.00  0.00     0.124 S 
ATOM     82  O   UNL A   1      53.874  25.999  23.744  1.00  0.00    -0.237 OA
ATOM     83  O   UNL A   1      54.702  25.703  26.055  1.00  0.00    -0.237 OA
ATOM     84  O   UNL A   1      53.762  23.784  24.828  1.00  0.00    -0.744 OA
ENDBRANCH  80  81
ENDBRANCH  52  75
BRANCH  64  85
ATOM     85  C   UNL A   1      47.359  32.280  29.605  1.00  0.00    -0.014 A 
ATOM     86  C   UNL A   1      47.969  32.424  30.863  1.00  0.00     0.010 A 
ATOM     87  C   UNL A   1      47.441  33.336  28.678  1.00  0.00     0.010 A 
ATOM     88  C   UNL A   1      48.622  33.613  31.200  1.00  0.00     0.020 A 
ATOM     89  C   UNL A   1      48.118  34.515  29.000  1.00  0.00     0.020 A 
ATOM     90  C   UNL A   1      48.693  34.651  30.265  1.00  0.00     0.054 A 
BRANCH  90  91
ATOM     91  S   UNL A   1      49.583  36.167  30.709  1.00  0.00     0.124 S 
ATOM     92  O   UNL A   1      50.413  36.389  29.529  1.00  0.00    -0.237 OA
ATOM     93  O   UNL A   1      48.501  37.128  30.907  1.00  0.00    -0.237 OA
ATOM     94  O   UNL A   1      50.310  35.799  31.922  1.00  0.00    -0.744 OA
ENDBRANCH  90  91
ENDBRANCH  64  85
ENDBRANCH  38  39
ENDBRANCH  30  33
ENDBRANCH  28  29
ENDBRANCH  27  28
ENDBRANCH  26  27
ENDBRANCH  25  26
ENDBRANCH   1  25
TORSDOF 21
ENDMDL
