MODEL 1
REMARK VINA RESULT:      -6.3      0.000      0.000
REMARK SMILES CCc1ccc(C[NH+]2CCC(Oc3ccccc3OC)(C(=O)NCCCCCCNC(=O)c3ccc(-c4c5nc(c(-c6ccc(S(=O)(=O)[O-])cc6)c6ccc([nH]6)c(-c6ccc(S(=O)(=O)[O-])cc6)c6nc(c(-c7ccc(S(=O)(=O)[O-])cc7)c7ccc4[nH]7)C=C6)C=C5)cc3)CC2)nc1
REMARK SMILES IDX 26 1 25 2 24 3 23 4 21 5 22 6 11 8 8 9 9 10 94 11 10 13
REMARK SMILES IDX 93 14 7 15 6 16 3 17 4 18 96 19 5 20 95 21 2 22 1 23 12 24
REMARK SMILES IDX 13 25 14 26 18 27 15 28 17 29 16 30 19 31 20 32 27 33 28 34
REMARK SMILES IDX 29 35 30 36 31 37 32 39 33 40 34 41 92 42 35 43 91 44 36 45
REMARK SMILES IDX 37 46 38 47 85 48 39 49 90 50 84 51 86 52 40 53 89 54 83 55
REMARK SMILES IDX 82 56 41 58 71 59 52 60 70 61 53 62 56 63 69 64 87 65 54 66
REMARK SMILES IDX 55 67 68 69 88 70 57 71 42 72 43 73 51 74 44 75 50 76 45 77
REMARK SMILES IDX 46 78 47 79 48 80 49 81 72 82 73 83 81 84 74 85 80 86 75 87
REMARK SMILES IDX 76 88 77 89 78 90 79 91 58 92 59 93 67 94 60 95 66 96 61 97
REMARK SMILES IDX 62 98 63 99 64 100 65 101
REMARK H PARENT 23 7 8 12 30 38 86 57 56 68
REMARK Flexibility Score: inf
ROOT
ATOM      1  C   UNL A   1      42.216  27.839  32.018  1.00  0.00     0.002 C 
ENDROOT
BRANCH   1   2
ATOM      2  C   UNL A   1      43.576  28.537  31.949  1.00  0.00     0.021 C 
BRANCH   2   3
ATOM      3  C   UNL A   1      44.764  27.601  31.735  1.00  0.00     0.116 C 
BRANCH   3   4
ATOM      4  N   UNL A   1      44.342  26.232  31.484  1.00  0.00    -0.353 N 
ATOM      5  C   UNL A   1      44.875  25.270  30.669  1.00  0.00     0.264 C 
ATOM      6  O   UNL A   1      44.396  24.136  30.793  1.00  0.00    -0.270 OA
ATOM      7  H   UNL A   1      43.541  25.952  31.983  1.00  0.00     0.163 HD
BRANCH   5   8
ATOM      8  C   UNL A   1      46.008  25.586  29.642  1.00  0.00     0.197 C 
ATOM      9  N   UNL A   1      44.780  25.879  26.972  1.00  0.00    -0.330 N 
ATOM     10  C   UNL A   1      44.555  26.890  28.006  1.00  0.00     0.267 C 
ATOM     11  C   UNL A   1      44.874  24.545  27.575  1.00  0.00     0.267 C 
ATOM     12  H   UNL A   1      45.671  26.086  26.521  1.00  0.00     0.348 HD
ATOM     13  C   UNL A   1      45.744  26.930  28.953  1.00  0.00     0.120 C 
ATOM     14  C   UNL A   1      46.055  24.482  28.558  1.00  0.00     0.120 C 
BRANCH   9  15
ATOM     15  C   UNL A   1      43.762  25.938  25.893  1.00  0.00     0.319 C 
BRANCH  15  16
ATOM     16  C   UNL A   1      42.541  26.801  26.169  1.00  0.00     0.095 A 
ATOM     17  C   UNL A   1      40.537  28.488  27.037  1.00  0.00    -0.030 A 
ATOM     18  C   UNL A   1      41.480  28.955  26.122  1.00  0.00     0.007 A 
ATOM     19  C   UNL A   1      40.639  27.157  27.431  1.00  0.00     0.115 A 
ATOM     20  C   UNL A   1      42.489  28.106  25.677  1.00  0.00     0.030 A 
ATOM     21  N   UNL A   1      41.601  26.308  27.010  1.00  0.00    -0.255 NA
BRANCH  17  22
ATOM     22  C   UNL A   1      39.497  29.391  27.640  1.00  0.00     0.034 C 
ATOM     23  C   UNL A   1      38.242  28.658  28.084  1.00  0.00     0.009 C 
ENDBRANCH  17  22
ENDBRANCH  15  16
ENDBRANCH   9  15
BRANCH   8  24
ATOM     24  O   UNL A   1      47.171  25.675  30.511  1.00  0.00    -0.473 OA
BRANCH  24  25
ATOM     25  C   UNL A   1      48.345  26.192  30.056  1.00  0.00     0.162 A 
ATOM     26  C   UNL A   1      49.227  25.349  29.374  1.00  0.00     0.050 A 
ATOM     27  C   UNL A   1      48.797  27.451  30.474  1.00  0.00     0.160 A 
ATOM     28  C   UNL A   1      50.496  25.794  29.003  1.00  0.00     0.004 A 
ATOM     29  C   UNL A   1      50.062  27.905  30.087  1.00  0.00     0.050 A 
ATOM     30  C   UNL A   1      50.904  27.083  29.335  1.00  0.00     0.004 A 
BRANCH  27  31
ATOM     31  O   UNL A   1      48.169  28.165  31.462  1.00  0.00    -0.493 OA
ATOM     32  C   UNL A   1      47.853  29.500  31.095  1.00  0.00     0.278 C 
ENDBRANCH  27  31
ENDBRANCH  24  25
ENDBRANCH   8  24
ENDBRANCH   5   8
ENDBRANCH   3   4
ENDBRANCH   2   3
ENDBRANCH   1   2
BRANCH   1  33
ATOM     33  C   UNL A   1      41.233  28.203  30.901  1.00  0.00     0.002 C 
BRANCH  33  34
ATOM     34  C   UNL A   1      39.749  28.013  31.231  1.00  0.00     0.021 C 
BRANCH  34  35
ATOM     35  C   UNL A   1      39.409  27.985  32.720  1.00  0.00     0.116 C 
BRANCH  35  36
ATOM     36  N   UNL A   1      38.426  28.992  33.078  1.00  0.00    -0.352 N 
ATOM     37  C   UNL A   1      38.501  30.360  33.023  1.00  0.00     0.251 C 
ATOM     38  H   UNL A   1      37.571  28.635  33.413  1.00  0.00     0.163 HD
ATOM     39  O   UNL A   1      37.623  31.030  33.562  1.00  0.00    -0.269 OA
BRANCH  37  40
ATOM     40  C   UNL A   1      39.625  31.036  32.336  1.00  0.00     0.039 A 
ATOM     41  C   UNL A   1      40.818  31.223  33.040  1.00  0.00     0.014 A 
ATOM     42  C   UNL A   1      39.501  31.534  31.034  1.00  0.00     0.014 A 
ATOM     43  C   UNL A   1      41.895  31.871  32.428  1.00  0.00     0.010 A 
ATOM     44  C   UNL A   1      40.598  32.124  30.404  1.00  0.00     0.010 A 
ATOM     45  C   UNL A   1      41.803  32.307  31.097  1.00  0.00    -0.014 A 
BRANCH  45  46
ATOM     46  C   UNL A   1      42.972  32.941  30.431  1.00  0.00     0.031 A 
ATOM     47  C   UNL A   1      43.272  34.406  30.627  1.00  0.00     0.074 A 
ATOM     48  C   UNL A   1      43.757  32.196  29.627  1.00  0.00     0.049 A 
ATOM     49  N   UNL A   1      44.273  35.109  30.162  1.00  0.00    -0.248 NA
ATOM     50  C   UNL A   1      42.316  35.186  31.429  1.00  0.00     0.031 C 
ATOM     51  C   UNL A   1      43.542  30.781  29.310  1.00  0.00     0.029 A 
ATOM     52  N   UNL A   1      44.895  32.520  28.933  1.00  0.00    -0.354 N 
ATOM     53  C   UNL A   1      44.061  36.412  30.600  1.00  0.00     0.074 A 
ATOM     54  C   UNL A   1      42.815  36.411  31.333  1.00  0.00     0.031 C 
ATOM     55  C   UNL A   1      44.538  30.350  28.520  1.00  0.00     0.029 A 
ATOM     56  C   UNL A   1      45.446  31.461  28.248  1.00  0.00     0.049 A 
ATOM     57  H   UNL A   1      45.284  33.425  28.927  1.00  0.00     0.167 HD
ATOM     58  C   UNL A   1      44.840  37.505  30.419  1.00  0.00     0.031 A 
ATOM     59  C   UNL A   1      46.559  31.389  27.494  1.00  0.00     0.031 A 
ATOM     60  C   UNL A   1      46.093  37.499  29.710  1.00  0.00     0.049 A 
ATOM     61  C   UNL A   1      47.417  32.614  27.333  1.00  0.00     0.074 A 
ATOM     62  C   UNL A   1      46.996  38.537  29.550  1.00  0.00     0.029 A 
ATOM     63  N   UNL A   1      46.618  36.406  29.038  1.00  0.00    -0.354 N 
ATOM     64  N   UNL A   1      47.248  33.811  27.840  1.00  0.00    -0.248 NA
ATOM     65  C   UNL A   1      48.626  32.470  26.509  1.00  0.00     0.031 C 
ATOM     66  C   UNL A   1      48.042  38.086  28.737  1.00  0.00     0.029 A 
ATOM     67  C   UNL A   1      47.817  36.752  28.436  1.00  0.00     0.049 A 
ATOM     68  H   UNL A   1      46.201  35.515  28.994  1.00  0.00     0.167 HD
ATOM     69  C   UNL A   1      48.344  34.556  27.418  1.00  0.00     0.074 A 
ATOM     70  C   UNL A   1      49.178  33.668  26.634  1.00  0.00     0.031 C 
ATOM     71  C   UNL A   1      48.633  35.859  27.655  1.00  0.00     0.031 A 
BRANCH  58  72
ATOM     72  C   UNL A   1      44.365  38.813  30.997  1.00  0.00    -0.014 A 
ATOM     73  C   UNL A   1      44.665  39.176  32.322  1.00  0.00     0.010 A 
ATOM     74  C   UNL A   1      43.673  39.725  30.178  1.00  0.00     0.010 A 
ATOM     75  C   UNL A   1      44.260  40.416  32.825  1.00  0.00     0.020 A 
ATOM     76  C   UNL A   1      43.288  40.975  30.670  1.00  0.00     0.020 A 
ATOM     77  C   UNL A   1      43.573  41.308  31.996  1.00  0.00     0.054 A 
BRANCH  77  78
ATOM     78  S   UNL A   1      43.100  42.928  32.661  1.00  0.00     0.124 S 
ATOM     79  O   UNL A   1      42.512  43.574  31.489  1.00  0.00    -0.237 OA
ATOM     80  O   UNL A   1      42.159  42.577  33.722  1.00  0.00    -0.237 OA
ATOM     81  O   UNL A   1      44.364  43.500  33.118  1.00  0.00    -0.744 OA
ENDBRANCH  77  78
ENDBRANCH  58  72
BRANCH  59  82
ATOM     82  C   UNL A   1      46.947  30.104  26.849  1.00  0.00    -0.014 A 
ATOM     83  C   UNL A   1      46.241  29.624  25.731  1.00  0.00     0.010 A 
ATOM     84  C   UNL A   1      48.014  29.344  27.362  1.00  0.00     0.010 A 
ATOM     85  C   UNL A   1      46.569  28.391  25.162  1.00  0.00     0.020 A 
ATOM     86  C   UNL A   1      48.363  28.124  26.778  1.00  0.00     0.020 A 
ATOM     87  C   UNL A   1      47.625  27.645  25.693  1.00  0.00     0.054 A 
BRANCH  87  88
ATOM     88  S   UNL A   1      48.047  26.055  24.929  1.00  0.00     0.124 S 
ATOM     89  O   UNL A   1      48.548  25.294  26.070  1.00  0.00    -0.237 OA
ATOM     90  O   UNL A   1      46.765  25.612  24.386  1.00  0.00    -0.237 OA
ATOM     91  O   UNL A   1      49.048  26.414  23.927  1.00  0.00    -0.744 OA
ENDBRANCH  87  88
ENDBRANCH  59  82
BRANCH  71  92
ATOM     92  C   UNL A   1      49.921  36.391  27.083  1.00  0.00    -0.014 A 
ATOM     93  C   UNL A   1      49.992  36.850  25.755  1.00  0.00     0.010 A 
ATOM     94  C   UNL A   1      51.071  36.444  27.890  1.00  0.00     0.010 A 
ATOM     95  C   UNL A   1      51.205  37.306  25.230  1.00  0.00     0.020 A 
ATOM     96  C   UNL A   1      52.277  36.927  27.378  1.00  0.00     0.020 A 
ATOM     97  C   UNL A   1      52.342  37.335  26.044  1.00  0.00     0.054 A 
BRANCH  97  98
ATOM     98  S   UNL A   1      53.902  37.939  25.345  1.00  0.00     0.124 S 
ATOM     99  O   UNL A   1      53.640  39.369  25.207  1.00  0.00    -0.237 OA
ATOM    100  O   UNL A   1      54.878  37.574  26.370  1.00  0.00    -0.237 OA
ATOM    101  O   UNL A   1      54.025  37.204  24.088  1.00  0.00    -0.744 OA
ENDBRANCH  97  98
ENDBRANCH  71  92
ENDBRANCH  45  46
ENDBRANCH  37  40
ENDBRANCH  35  36
ENDBRANCH  34  35
ENDBRANCH  33  34
ENDBRANCH   1  33
TORSDOF 22
ENDMDL
MODEL 2
REMARK VINA RESULT:      -6.3      4.012      8.012
REMARK SMILES CCc1ccc(C[NH+]2CCC(Oc3ccccc3OC)(C(=O)NCCCCCCNC(=O)c3ccc(-c4c5nc(c(-c6ccc(S(=O)(=O)[O-])cc6)c6ccc([nH]6)c(-c6ccc(S(=O)(=O)[O-])cc6)c6nc(c(-c7ccc(S(=O)(=O)[O-])cc7)c7ccc4[nH]7)C=C6)C=C5)cc3)CC2)nc1
REMARK SMILES IDX 26 1 25 2 24 3 23 4 21 5 22 6 11 8 8 9 9 10 94 11 10 13
REMARK SMILES IDX 93 14 7 15 6 16 3 17 4 18 96 19 5 20 95 21 2 22 1 23 12 24
REMARK SMILES IDX 13 25 14 26 18 27 15 28 17 29 16 30 19 31 20 32 27 33 28 34
REMARK SMILES IDX 29 35 30 36 31 37 32 39 33 40 34 41 92 42 35 43 91 44 36 45
REMARK SMILES IDX 37 46 38 47 85 48 39 49 90 50 84 51 86 52 40 53 89 54 83 55
REMARK SMILES IDX 82 56 41 58 71 59 52 60 70 61 53 62 56 63 69 64 87 65 54 66
REMARK SMILES IDX 55 67 68 69 88 70 57 71 42 72 43 73 51 74 44 75 50 76 45 77
REMARK SMILES IDX 46 78 47 79 48 80 49 81 72 82 73 83 81 84 74 85 80 86 75 87
REMARK SMILES IDX 76 88 77 89 78 90 79 91 58 92 59 93 67 94 60 95 66 96 61 97
REMARK SMILES IDX 62 98 63 99 64 100 65 101
REMARK H PARENT 23 7 8 12 30 38 86 57 56 68
REMARK Flexibility Score: inf
ROOT
ATOM      1  C   UNL A   1      38.159  31.650  35.768  1.00  0.00     0.002 C 
ENDROOT
BRANCH   1   2
ATOM      2  C   UNL A   1      37.263  32.775  35.248  1.00  0.00     0.021 C 
BRANCH   2   3
ATOM      3  C   UNL A   1      36.864  32.648  33.780  1.00  0.00     0.116 C 
BRANCH   3   4
ATOM      4  N   UNL A   1      37.379  33.746  32.977  1.00  0.00    -0.353 N 
ATOM      5  C   UNL A   1      37.865  33.763  31.697  1.00  0.00     0.264 C 
ATOM      6  O   UNL A   1      38.074  34.884  31.218  1.00  0.00    -0.270 OA
ATOM      7  H   UNL A   1      37.379  34.620  33.429  1.00  0.00     0.163 HD
BRANCH   5   8
ATOM      8  C   UNL A   1      38.147  32.452  30.898  1.00  0.00     0.197 C 
ATOM      9  N   UNL A   1      35.850  31.948  29.109  1.00  0.00    -0.330 N 
ATOM     10  C   UNL A   1      36.763  33.063  28.848  1.00  0.00     0.267 C 
ATOM     11  C   UNL A   1      35.692  31.747  30.554  1.00  0.00     0.267 C 
ATOM     12  H   UNL A   1      36.268  31.104  28.716  1.00  0.00     0.348 HD
ATOM     13  C   UNL A   1      38.145  32.733  29.391  1.00  0.00     0.120 C 
ATOM     14  C   UNL A   1      37.044  31.408  31.202  1.00  0.00     0.120 C 
BRANCH   9  15
ATOM     15  C   UNL A   1      34.547  32.111  28.417  1.00  0.00     0.319 C 
BRANCH  15  16
ATOM     16  C   UNL A   1      34.103  30.949  27.542  1.00  0.00     0.095 A 
ATOM     17  C   UNL A   1      33.160  28.656  26.331  1.00  0.00    -0.030 A 
ATOM     18  C   UNL A   1      32.348  29.788  26.385  1.00  0.00     0.007 A 
ATOM     19  C   UNL A   1      34.441  28.767  26.863  1.00  0.00     0.115 A 
ATOM     20  C   UNL A   1      32.821  30.949  26.989  1.00  0.00     0.030 A 
ATOM     21  N   UNL A   1      34.931  29.882  27.448  1.00  0.00    -0.255 NA
BRANCH  17  22
ATOM     22  C   UNL A   1      32.661  27.343  25.796  1.00  0.00     0.034 C 
ATOM     23  C   UNL A   1      31.579  26.710  26.658  1.00  0.00     0.009 C 
ENDBRANCH  17  22
ENDBRANCH  15  16
ENDBRANCH   9  15
BRANCH   8  24
ATOM     24  O   UNL A   1      39.485  32.115  31.356  1.00  0.00    -0.473 OA
BRANCH  24  25
ATOM     25  C   UNL A   1      39.827  30.825  31.628  1.00  0.00     0.162 A 
ATOM     26  C   UNL A   1      39.670  30.354  32.934  1.00  0.00     0.050 A 
ATOM     27  C   UNL A   1      40.559  30.057  30.712  1.00  0.00     0.160 A 
ATOM     28  C   UNL A   1      40.127  29.085  33.294  1.00  0.00     0.004 A 
ATOM     29  C   UNL A   1      41.000  28.777  31.066  1.00  0.00     0.050 A 
ATOM     30  C   UNL A   1      40.767  28.285  32.352  1.00  0.00     0.004 A 
BRANCH  27  31
ATOM     31  O   UNL A   1      41.094  30.592  29.569  1.00  0.00    -0.493 OA
ATOM     32  C   UNL A   1      42.444  30.217  29.336  1.00  0.00     0.278 C 
ENDBRANCH  27  31
ENDBRANCH  24  25
ENDBRANCH   8  24
ENDBRANCH   5   8
ENDBRANCH   3   4
ENDBRANCH   2   3
ENDBRANCH   1   2
BRANCH   1  33
ATOM     33  C   UNL A   1      38.528  31.736  37.253  1.00  0.00     0.002 C 
BRANCH  33  34
ATOM     34  C   UNL A   1      38.031  32.983  37.992  1.00  0.00     0.021 C 
BRANCH  34  35
ATOM     35  C   UNL A   1      39.057  33.657  38.901  1.00  0.00     0.116 C 
BRANCH  35  36
ATOM     36  N   UNL A   1      39.081  35.098  38.727  1.00  0.00    -0.352 N 
ATOM     37  C   UNL A   1      39.809  35.873  37.860  1.00  0.00     0.251 C 
ATOM     38  H   UNL A   1      38.480  35.598  39.327  1.00  0.00     0.163 HD
ATOM     39  O   UNL A   1      39.824  37.091  38.015  1.00  0.00    -0.269 OA
BRANCH  37  40
ATOM     40  C   UNL A   1      40.579  35.261  36.754  1.00  0.00     0.039 A 
ATOM     41  C   UNL A   1      41.954  35.076  36.924  1.00  0.00     0.014 A 
ATOM     42  C   UNL A   1      39.978  34.922  35.537  1.00  0.00     0.014 A 
ATOM     43  C   UNL A   1      42.716  34.517  35.894  1.00  0.00     0.010 A 
ATOM     44  C   UNL A   1      40.729  34.305  34.534  1.00  0.00     0.010 A 
ATOM     45  C   UNL A   1      42.106  34.104  34.698  1.00  0.00    -0.014 A 
BRANCH  45  46
ATOM     46  C   UNL A   1      42.911  33.454  33.630  1.00  0.00     0.031 A 
ATOM     47  C   UNL A   1      43.380  34.237  32.431  1.00  0.00     0.074 A 
ATOM     48  C   UNL A   1      43.203  32.142  33.732  1.00  0.00     0.049 A 
ATOM     49  N   UNL A   1      44.128  33.842  31.432  1.00  0.00    -0.248 NA
ATOM     50  C   UNL A   1      42.937  35.637  32.327  1.00  0.00     0.031 C 
ATOM     51  C   UNL A   1      42.761  31.258  34.814  1.00  0.00     0.029 A 
ATOM     52  N   UNL A   1      43.944  31.322  32.919  1.00  0.00    -0.354 N 
ATOM     53  C   UNL A   1      44.232  34.934  30.577  1.00  0.00     0.074 A 
ATOM     54  C   UNL A   1      43.438  35.996  31.153  1.00  0.00     0.031 C 
ATOM     55  C   UNL A   1      43.273  30.032  34.620  1.00  0.00     0.029 A 
ATOM     56  C   UNL A   1      44.054  30.032  33.386  1.00  0.00     0.049 A 
ATOM     57  H   UNL A   1      44.360  31.627  32.080  1.00  0.00     0.167 HD
ATOM     58  C   UNL A   1      44.936  35.046  29.425  1.00  0.00     0.031 A 
ATOM     59  C   UNL A   1      44.714  28.972  32.885  1.00  0.00     0.031 A 
ATOM     60  C   UNL A   1      45.747  33.995  28.866  1.00  0.00     0.049 A 
ATOM     61  C   UNL A   1      45.508  29.133  31.617  1.00  0.00     0.074 A 
ATOM     62  C   UNL A   1      46.567  34.043  27.751  1.00  0.00     0.029 A 
ATOM     63  N   UNL A   1      45.837  32.709  29.373  1.00  0.00    -0.354 N 
ATOM     64  N   UNL A   1      45.672  30.205  30.878  1.00  0.00    -0.248 NA
ATOM     65  C   UNL A   1      46.218  27.944  31.126  1.00  0.00     0.031 C 
ATOM     66  C   UNL A   1      47.111  32.770  27.553  1.00  0.00     0.029 A 
ATOM     67  C   UNL A   1      46.674  31.944  28.576  1.00  0.00     0.049 A 
ATOM     68  H   UNL A   1      45.374  32.385  30.180  1.00  0.00     0.167 HD
ATOM     69  C   UNL A   1      46.527  29.824  29.850  1.00  0.00     0.074 A 
ATOM     70  C   UNL A   1      46.861  28.432  30.075  1.00  0.00     0.031 C 
ATOM     71  C   UNL A   1      46.993  30.559  28.810  1.00  0.00     0.031 A 
BRANCH  58  72
ATOM     72  C   UNL A   1      44.866  36.354  28.679  1.00  0.00    -0.014 A 
ATOM     73  C   UNL A   1      45.884  37.316  28.801  1.00  0.00     0.010 A 
ATOM     74  C   UNL A   1      43.804  36.589  27.787  1.00  0.00     0.010 A 
ATOM     75  C   UNL A   1      45.828  38.503  28.062  1.00  0.00     0.020 A 
ATOM     76  C   UNL A   1      43.757  37.763  27.028  1.00  0.00     0.020 A 
ATOM     77  C   UNL A   1      44.764  38.718  27.181  1.00  0.00     0.054 A 
BRANCH  77  78
ATOM     78  S   UNL A   1      44.741  40.245  26.201  1.00  0.00     0.124 S 
ATOM     79  O   UNL A   1      45.808  39.998  25.234  1.00  0.00    -0.237 OA
ATOM     80  O   UNL A   1      43.387  40.252  25.651  1.00  0.00    -0.237 OA
ATOM     81  O   UNL A   1      45.019  41.293  27.180  1.00  0.00    -0.744 OA
ENDBRANCH  77  78
ENDBRANCH  58  72
BRANCH  59  82
ATOM     82  C   UNL A   1      44.679  27.661  33.591  1.00  0.00    -0.014 A 
ATOM     83  C   UNL A   1      45.587  27.385  34.630  1.00  0.00     0.010 A 
ATOM     84  C   UNL A   1      43.750  26.674  33.215  1.00  0.00     0.010 A 
ATOM     85  C   UNL A   1      45.591  26.134  35.252  1.00  0.00     0.020 A 
ATOM     86  C   UNL A   1      43.732  25.432  33.854  1.00  0.00     0.020 A 
ATOM     87  C   UNL A   1      44.667  25.163  34.857  1.00  0.00     0.054 A 
BRANCH  87  88
ATOM     88  S   UNL A   1      44.676  23.551  35.689  1.00  0.00     0.124 S 
ATOM     89  O   UNL A   1      45.890  22.942  35.156  1.00  0.00    -0.237 OA
ATOM     90  O   UNL A   1      44.721  23.923  37.102  1.00  0.00    -0.237 OA
ATOM     91  O   UNL A   1      43.423  22.937  35.256  1.00  0.00    -0.744 OA
ENDBRANCH  87  88
ENDBRANCH  59  82
BRANCH  71  92
ATOM     92  C   UNL A   1      47.937  29.877  27.855  1.00  0.00    -0.014 A 
ATOM     93  C   UNL A   1      49.328  30.043  27.965  1.00  0.00     0.010 A 
ATOM     94  C   UNL A   1      47.422  29.048  26.843  1.00  0.00     0.010 A 
ATOM     95  C   UNL A   1      50.187  29.431  27.047  1.00  0.00     0.020 A 
ATOM     96  C   UNL A   1      48.278  28.410  25.942  1.00  0.00     0.020 A 
ATOM     97  C   UNL A   1      49.655  28.624  26.036  1.00  0.00     0.054 A 
BRANCH  97  98
ATOM     98  S   UNL A   1      50.787  27.832  24.863  1.00  0.00     0.124 S 
ATOM     99  O   UNL A   1      51.760  27.207  25.754  1.00  0.00    -0.237 OA
ATOM    100  O   UNL A   1      49.912  26.911  24.141  1.00  0.00    -0.237 OA
ATOM    101  O   UNL A   1      51.297  28.948  24.068  1.00  0.00    -0.744 OA
ENDBRANCH  97  98
ENDBRANCH  71  92
ENDBRANCH  45  46
ENDBRANCH  37  40
ENDBRANCH  35  36
ENDBRANCH  34  35
ENDBRANCH  33  34
ENDBRANCH   1  33
TORSDOF 22
ENDMDL
MODEL 3
REMARK VINA RESULT:      -6.1      3.879      8.999
REMARK SMILES CCc1ccc(C[NH+]2CCC(Oc3ccccc3OC)(C(=O)NCCCCCCNC(=O)c3ccc(-c4c5nc(c(-c6ccc(S(=O)(=O)[O-])cc6)c6ccc([nH]6)c(-c6ccc(S(=O)(=O)[O-])cc6)c6nc(c(-c7ccc(S(=O)(=O)[O-])cc7)c7ccc4[nH]7)C=C6)C=C5)cc3)CC2)nc1
REMARK SMILES IDX 26 1 25 2 24 3 23 4 21 5 22 6 11 8 8 9 9 10 94 11 10 13
REMARK SMILES IDX 93 14 7 15 6 16 3 17 4 18 96 19 5 20 95 21 2 22 1 23 12 24
REMARK SMILES IDX 13 25 14 26 18 27 15 28 17 29 16 30 19 31 20 32 27 33 28 34
REMARK SMILES IDX 29 35 30 36 31 37 32 39 33 40 34 41 92 42 35 43 91 44 36 45
REMARK SMILES IDX 37 46 38 47 85 48 39 49 90 50 84 51 86 52 40 53 89 54 83 55
REMARK SMILES IDX 82 56 41 58 71 59 52 60 70 61 53 62 56 63 69 64 87 65 54 66
REMARK SMILES IDX 55 67 68 69 88 70 57 71 42 72 43 73 51 74 44 75 50 76 45 77
REMARK SMILES IDX 46 78 47 79 48 80 49 81 72 82 73 83 81 84 74 85 80 86 75 87
REMARK SMILES IDX 76 88 77 89 78 90 79 91 58 92 59 93 67 94 60 95 66 96 61 97
REMARK SMILES IDX 62 98 63 99 64 100 65 101
REMARK H PARENT 23 7 8 12 30 38 86 57 56 68
REMARK Flexibility Score: inf
ROOT
ATOM      1  C   UNL A   1      40.701  33.447  32.447  1.00  0.00     0.002 C 
ENDROOT
BRANCH   1   2
ATOM      2  C   UNL A   1      39.373  32.697  32.335  1.00  0.00     0.021 C 
BRANCH   2   3
ATOM      3  C   UNL A   1      39.473  31.311  31.702  1.00  0.00     0.116 C 
BRANCH   3   4
ATOM      4  N   UNL A   1      38.196  30.614  31.711  1.00  0.00    -0.353 N 
ATOM      5  C   UNL A   1      37.487  30.037  30.691  1.00  0.00     0.264 C 
ATOM      6  O   UNL A   1      36.508  29.364  31.032  1.00  0.00    -0.270 OA
ATOM      7  H   UNL A   1      37.772  30.545  32.597  1.00  0.00     0.163 HD
BRANCH   5   8
ATOM      8  C   UNL A   1      37.885  30.228  29.193  1.00  0.00     0.197 C 
ATOM      9  N   UNL A   1      35.429  30.785  27.649  1.00  0.00    -0.330 N 
ATOM     10  C   UNL A   1      35.960  31.780  28.581  1.00  0.00     0.267 C 
ATOM     11  C   UNL A   1      35.662  29.430  28.162  1.00  0.00     0.267 C 
ATOM     12  H   UNL A   1      35.935  30.880  26.768  1.00  0.00     0.348 HD
ATOM     13  C   UNL A   1      37.467  31.619  28.702  1.00  0.00     0.120 C 
ATOM     14  C   UNL A   1      37.168  29.167  28.323  1.00  0.00     0.120 C 
BRANCH   9  15
ATOM     15  C   UNL A   1      34.002  31.024  27.318  1.00  0.00     0.319 C 
BRANCH  15  16
ATOM     16  C   UNL A   1      33.307  29.936  26.515  1.00  0.00     0.095 A 
ATOM     17  C   UNL A   1      31.822  27.879  25.429  1.00  0.00    -0.030 A 
ATOM     18  C   UNL A   1      31.405  29.198  25.249  1.00  0.00     0.007 A 
ATOM     19  C   UNL A   1      33.012  27.678  26.122  1.00  0.00     0.115 A 
ATOM     20  C   UNL A   1      32.154  30.238  25.790  1.00  0.00     0.030 A 
ATOM     21  N   UNL A   1      33.764  28.668  26.650  1.00  0.00    -0.255 NA
BRANCH  17  22
ATOM     22  C   UNL A   1      30.993  26.712  24.969  1.00  0.00     0.034 C 
ATOM     23  C   UNL A   1      30.513  26.839  23.532  1.00  0.00     0.009 C 
ENDBRANCH  17  22
ENDBRANCH  15  16
ENDBRANCH   9  15
BRANCH   8  24
ATOM     24  O   UNL A   1      39.334  30.121  29.262  1.00  0.00    -0.473 OA
BRANCH  24  25
ATOM     25  C   UNL A   1      39.995  29.144  28.582  1.00  0.00     0.162 A 
ATOM     26  C   UNL A   1      40.146  29.278  27.199  1.00  0.00     0.050 A 
ATOM     27  C   UNL A   1      40.290  27.912  29.181  1.00  0.00     0.160 A 
ATOM     28  C   UNL A   1      40.698  28.246  26.439  1.00  0.00     0.004 A 
ATOM     29  C   UNL A   1      40.861  26.884  28.424  1.00  0.00     0.050 A 
ATOM     30  C   UNL A   1      41.082  27.058  27.056  1.00  0.00     0.004 A 
BRANCH  27  31
ATOM     31  O   UNL A   1      39.811  27.565  30.418  1.00  0.00    -0.493 OA
ATOM     32  C   UNL A   1      40.616  28.021  31.495  1.00  0.00     0.278 C 
ENDBRANCH  27  31
ENDBRANCH  24  25
ENDBRANCH   8  24
ENDBRANCH   5   8
ENDBRANCH   3   4
ENDBRANCH   2   3
ENDBRANCH   1   2
BRANCH   1  33
ATOM     33  C   UNL A   1      40.990  34.444  31.320  1.00  0.00     0.002 C 
BRANCH  33  34
ATOM     34  C   UNL A   1      39.813  34.758  30.390  1.00  0.00     0.021 C 
BRANCH  34  35
ATOM     35  C   UNL A   1      40.097  34.594  28.898  1.00  0.00     0.116 C 
BRANCH  35  36
ATOM     36  N   UNL A   1      40.387  35.861  28.252  1.00  0.00    -0.352 N 
ATOM     37  C   UNL A   1      41.543  36.311  27.664  1.00  0.00     0.251 C 
ATOM     38  H   UNL A   1      39.637  36.498  28.233  1.00  0.00     0.163 HD
ATOM     39  O   UNL A   1      41.634  37.495  27.351  1.00  0.00    -0.269 OA
BRANCH  37  40
ATOM     40  C   UNL A   1      42.678  35.393  27.414  1.00  0.00     0.039 A 
ATOM     41  C   UNL A   1      43.455  34.985  28.502  1.00  0.00     0.014 A 
ATOM     42  C   UNL A   1      43.019  34.978  26.122  1.00  0.00     0.014 A 
ATOM     43  C   UNL A   1      44.544  34.133  28.301  1.00  0.00     0.010 A 
ATOM     44  C   UNL A   1      44.068  34.077  25.931  1.00  0.00     0.010 A 
ATOM     45  C   UNL A   1      44.847  33.651  27.017  1.00  0.00    -0.014 A 
BRANCH  45  46
ATOM     46  C   UNL A   1      45.969  32.697  26.818  1.00  0.00     0.031 A 
ATOM     47  C   UNL A   1      47.365  33.193  26.540  1.00  0.00     0.074 A 
ATOM     48  C   UNL A   1      45.724  31.372  26.867  1.00  0.00     0.049 A 
ATOM     49  N   UNL A   1      48.467  32.503  26.388  1.00  0.00    -0.248 NA
ATOM     50  C   UNL A   1      47.546  34.646  26.392  1.00  0.00     0.031 C 
ATOM     51  C   UNL A   1      44.407  30.762  27.072  1.00  0.00     0.029 A 
ATOM     52  N   UNL A   1      46.570  30.298  26.753  1.00  0.00    -0.354 N 
ATOM     53  C   UNL A   1      49.465  33.432  26.113  1.00  0.00     0.074 A 
ATOM     54  C   UNL A   1      48.831  34.732  26.078  1.00  0.00     0.031 C 
ATOM     55  C   UNL A   1      44.541  29.427  27.111  1.00  0.00     0.029 A 
ATOM     56  C   UNL A   1      45.944  29.082  26.904  1.00  0.00     0.049 A 
ATOM     57  H   UNL A   1      47.536  30.387  26.581  1.00  0.00     0.167 HD
ATOM     58  C   UNL A   1      50.790  33.224  25.921  1.00  0.00     0.031 A 
ATOM     59  C   UNL A   1      46.442  27.831  26.887  1.00  0.00     0.031 A 
ATOM     60  C   UNL A   1      51.424  31.932  25.981  1.00  0.00     0.049 A 
ATOM     61  C   UNL A   1      47.921  27.633  26.696  1.00  0.00     0.074 A 
ATOM     62  C   UNL A   1      52.772  31.631  25.887  1.00  0.00     0.029 A 
ATOM     63  N   UNL A   1      50.756  30.729  26.143  1.00  0.00    -0.354 N 
ATOM     64  N   UNL A   1      48.860  28.535  26.537  1.00  0.00    -0.248 NA
ATOM     65  C   UNL A   1      48.408  26.246  26.700  1.00  0.00     0.031 C 
ATOM     66  C   UNL A   1      52.915  30.240  25.940  1.00  0.00     0.029 A 
ATOM     67  C   UNL A   1      51.660  29.679  26.121  1.00  0.00     0.049 A 
ATOM     68  H   UNL A   1      49.782  30.633  26.257  1.00  0.00     0.167 HD
ATOM     69  C   UNL A   1      50.052  27.824  26.449  1.00  0.00     0.074 A 
ATOM     70  C   UNL A   1      49.717  26.422  26.594  1.00  0.00     0.031 C 
ATOM     71  C   UNL A   1      51.312  28.290  26.262  1.00  0.00     0.031 A 
BRANCH  58  72
ATOM     72  C   UNL A   1      51.657  34.421  25.624  1.00  0.00    -0.014 A 
ATOM     73  C   UNL A   1      52.379  35.067  26.643  1.00  0.00     0.010 A 
ATOM     74  C   UNL A   1      51.809  34.856  24.295  1.00  0.00     0.010 A 
ATOM     75  C   UNL A   1      53.218  36.144  26.342  1.00  0.00     0.020 A 
ATOM     76  C   UNL A   1      52.666  35.917  23.986  1.00  0.00     0.020 A 
ATOM     77  C   UNL A   1      53.356  36.563  25.015  1.00  0.00     0.054 A 
BRANCH  77  78
ATOM     78  S   UNL A   1      54.487  37.932  24.647  1.00  0.00     0.124 S 
ATOM     79  O   UNL A   1      53.647  39.097  24.916  1.00  0.00    -0.237 OA
ATOM     80  O   UNL A   1      55.577  37.712  25.595  1.00  0.00    -0.237 OA
ATOM     81  O   UNL A   1      54.836  37.728  23.243  1.00  0.00    -0.744 OA
ENDBRANCH  77  78
ENDBRANCH  58  72
BRANCH  59  82
ATOM     82  C   UNL A   1      45.542  26.661  27.079  1.00  0.00    -0.014 A 
ATOM     83  C   UNL A   1      44.907  26.060  25.977  1.00  0.00     0.010 A 
ATOM     84  C   UNL A   1      45.299  26.154  28.368  1.00  0.00     0.010 A 
ATOM     85  C   UNL A   1      44.017  24.999  26.164  1.00  0.00     0.020 A 
ATOM     86  C   UNL A   1      44.432  25.074  28.557  1.00  0.00     0.020 A 
ATOM     87  C   UNL A   1      43.781  24.516  27.454  1.00  0.00     0.054 A 
BRANCH  87  88
ATOM     88  S   UNL A   1      42.636  23.126  27.676  1.00  0.00     0.124 S 
ATOM     89  O   UNL A   1      41.429  23.620  27.021  1.00  0.00    -0.237 OA
ATOM     90  O   UNL A   1      43.326  22.034  26.993  1.00  0.00    -0.237 OA
ATOM     91  O   UNL A   1      42.550  22.985  29.127  1.00  0.00    -0.744 OA
ENDBRANCH  87  88
ENDBRANCH  59  82
BRANCH  71  92
ATOM     92  C   UNL A   1      52.422  27.272  26.233  1.00  0.00    -0.014 A 
ATOM     93  C   UNL A   1      53.146  26.953  27.396  1.00  0.00     0.010 A 
ATOM     94  C   UNL A   1      52.733  26.617  25.029  1.00  0.00     0.010 A 
ATOM     95  C   UNL A   1      54.198  26.034  27.342  1.00  0.00     0.020 A 
ATOM     96  C   UNL A   1      53.764  25.675  24.978  1.00  0.00     0.020 A 
ATOM     97  C   UNL A   1      54.504  25.405  26.131  1.00  0.00     0.054 A 
BRANCH  97  98
ATOM     98  S   UNL A   1      55.865  24.209  26.086  1.00  0.00     0.124 S 
ATOM     99  O   UNL A   1      56.585  24.521  27.317  1.00  0.00    -0.237 OA
ATOM    100  O   UNL A   1      55.167  22.925  26.073  1.00  0.00    -0.237 OA
ATOM    101  O   UNL A   1      56.573  24.537  24.850  1.00  0.00    -0.744 OA
ENDBRANCH  97  98
ENDBRANCH  71  92
ENDBRANCH  45  46
ENDBRANCH  37  40
ENDBRANCH  35  36
ENDBRANCH  34  35
ENDBRANCH  33  34
ENDBRANCH   1  33
TORSDOF 22
ENDMDL
