MODEL 1
REMARK VINA RESULT:     -11.9      0.000      0.000
REMARK SMILES O=C(NCCCCCCNC(=O)[C@]12C[NH2+]C[C@H]1CN(C(=O)c1ccccc1-n1cncn1)C2)c1ccc(-c2c3nc(c(-c4ccc(S(=O)(=O)[O-])cc4)c4ccc([nH]4)c(-c4ccc(S(=O)(=O)[O-])cc4)c4nc(c(-c5ccc(S(=O)(=O)[O-])cc5)c5ccc2[nH]5)C=C4)C=C3)cc1
REMARK SMILES IDX 6 1 5 2 4 3 3 4 1 5 2 6 34 8 35 9 93 10 36 11 92 12 37 13
REMARK SMILES IDX 38 14 39 15 86 16 40 17 91 18 85 19 87 20 41 21 90 22 84 23
REMARK SMILES IDX 83 24 42 26 72 27 53 28 71 29 54 30 57 31 70 32 88 33 55 34
REMARK SMILES IDX 56 35 69 37 89 38 58 39 43 40 44 41 52 42 45 43 51 44 46 45
REMARK SMILES IDX 47 46 48 47 49 48 50 49 73 50 74 51 82 52 75 53 81 54 76 55
REMARK SMILES IDX 77 56 78 57 79 58 80 59 59 60 60 61 68 62 61 63 67 64 62 65
REMARK SMILES IDX 63 66 64 67 65 68 66 69 7 70 8 71 9 72 10 73 11 74 12 76
REMARK SMILES IDX 13 77 14 78 17 79 33 80 15 81 16 82 18 83 19 84 20 87 21 88
REMARK SMILES IDX 22 89 23 90 27 91 24 92 26 93 25 94 28 95 29 96 32 97 30 98
REMARK SMILES IDX 31 99
REMARK H PARENT 3 7 87 25 57 36 10 75 15 85 15 86
REMARK Flexibility Score: inf
ROOT
ATOM      1  C   UNL A   1      39.092  23.303  26.820  1.00  0.00     0.002 C 
ENDROOT
BRANCH   1   2
ATOM      2  C   UNL A   1      39.417  21.976  26.129  1.00  0.00     0.021 C 
BRANCH   2   3
ATOM      3  C   UNL A   1      40.844  21.489  26.388  1.00  0.00     0.116 C 
BRANCH   3   4
ATOM      4  N   UNL A   1      41.782  21.830  25.340  1.00  0.00    -0.352 N 
ATOM      5  O   UNL A   1      43.308  22.903  24.132  1.00  0.00    -0.269 OA
ATOM      6  C   UNL A   1      42.618  22.894  25.151  1.00  0.00     0.251 C 
ATOM      7  H   UNL A   1      41.827  21.160  24.619  1.00  0.00     0.163 HD
BRANCH   6   8
ATOM      8  C   UNL A   1      42.655  24.058  26.068  1.00  0.00     0.039 A 
ATOM      9  C   UNL A   1      43.277  24.062  27.319  1.00  0.00     0.014 A 
ATOM     10  C   UNL A   1      41.999  25.215  25.626  1.00  0.00     0.014 A 
ATOM     11  C   UNL A   1      43.113  25.132  28.184  1.00  0.00     0.010 A 
ATOM     12  C   UNL A   1      41.892  26.317  26.459  1.00  0.00     0.010 A 
ATOM     13  C   UNL A   1      42.398  26.247  27.760  1.00  0.00    -0.014 A 
BRANCH  13  14
ATOM     14  C   UNL A   1      42.301  27.383  28.671  1.00  0.00     0.031 A 
ATOM     15  C   UNL A   1      43.416  28.379  28.598  1.00  0.00     0.074 A 
ATOM     16  C   UNL A   1      41.171  27.612  29.365  1.00  0.00     0.049 A 
ATOM     17  N   UNL A   1      44.091  28.929  29.559  1.00  0.00    -0.248 NA
ATOM     18  C   UNL A   1      43.883  28.760  27.252  1.00  0.00     0.031 C 
ATOM     19  C   UNL A   1      39.909  26.868  29.275  1.00  0.00     0.029 A 
ATOM     20  N   UNL A   1      40.852  28.669  30.161  1.00  0.00    -0.354 N 
ATOM     21  C   UNL A   1      44.947  29.849  28.951  1.00  0.00     0.074 A 
ATOM     22  C   UNL A   1      44.860  29.620  27.533  1.00  0.00     0.031 C 
ATOM     23  C   UNL A   1      38.909  27.646  29.740  1.00  0.00     0.029 A 
ATOM     24  C   UNL A   1      39.482  28.871  30.272  1.00  0.00     0.049 A 
ATOM     25  H   UNL A   1      41.523  29.233  30.610  1.00  0.00     0.167 HD
ATOM     26  C   UNL A   1      45.546  30.876  29.618  1.00  0.00     0.031 A 
ATOM     27  C   UNL A   1      38.861  30.017  30.644  1.00  0.00     0.031 A 
ATOM     28  C   UNL A   1      45.569  30.682  31.037  1.00  0.00     0.049 A 
ATOM     29  C   UNL A   1      39.857  30.861  31.346  1.00  0.00     0.074 A 
ATOM     30  C   UNL A   1      46.144  29.758  31.886  1.00  0.00     0.029 A 
ATOM     31  N   UNL A   1      44.640  31.355  31.794  1.00  0.00    -0.354 N 
ATOM     32  N   UNL A   1      40.412  30.535  32.480  1.00  0.00    -0.248 NA
ATOM     33  C   UNL A   1      40.562  31.879  30.582  1.00  0.00     0.031 C 
ATOM     34  C   UNL A   1      45.201  29.591  32.942  1.00  0.00     0.029 A 
ATOM     35  C   UNL A   1      44.128  30.447  32.684  1.00  0.00     0.049 A 
ATOM     36  H   UNL A   1      44.391  32.304  31.712  1.00  0.00     0.167 HD
ATOM     37  C   UNL A   1      41.718  30.992  32.388  1.00  0.00     0.074 A 
ATOM     38  C   UNL A   1      41.720  31.903  31.247  1.00  0.00     0.031 C 
ATOM     39  C   UNL A   1      42.734  30.382  33.071  1.00  0.00     0.031 A 
BRANCH  26  40
ATOM     40  C   UNL A   1      45.807  32.220  28.984  1.00  0.00    -0.014 A 
ATOM     41  C   UNL A   1      47.088  32.800  29.076  1.00  0.00     0.010 A 
ATOM     42  C   UNL A   1      44.755  33.052  28.544  1.00  0.00     0.010 A 
ATOM     43  C   UNL A   1      47.289  34.162  28.801  1.00  0.00     0.020 A 
ATOM     44  C   UNL A   1      44.953  34.396  28.226  1.00  0.00     0.020 A 
ATOM     45  C   UNL A   1      46.212  34.953  28.395  1.00  0.00     0.054 A 
BRANCH  45  46
ATOM     46  S   UNL A   1      46.446  36.736  28.183  1.00  0.00     0.124 S 
ATOM     47  O   UNL A   1      45.380  37.068  27.242  1.00  0.00    -0.237 OA
ATOM     48  O   UNL A   1      46.270  37.237  29.544  1.00  0.00    -0.237 OA
ATOM     49  O   UNL A   1      47.804  36.843  27.656  1.00  0.00    -0.744 OA
ENDBRANCH  45  46
ENDBRANCH  26  40
BRANCH  27  50
ATOM     50  C   UNL A   1      37.598  30.543  30.068  1.00  0.00    -0.014 A 
ATOM     51  C   UNL A   1      36.583  31.068  30.885  1.00  0.00     0.010 A 
ATOM     52  C   UNL A   1      37.492  30.747  28.675  1.00  0.00     0.010 A 
ATOM     53  C   UNL A   1      35.517  31.796  30.327  1.00  0.00     0.020 A 
ATOM     54  C   UNL A   1      36.430  31.459  28.113  1.00  0.00     0.020 A 
ATOM     55  C   UNL A   1      35.454  31.997  28.943  1.00  0.00     0.054 A 
BRANCH  55  56
ATOM     56  S   UNL A   1      34.156  33.058  28.246  1.00  0.00     0.124 S 
ATOM     57  O   UNL A   1      33.577  33.665  29.442  1.00  0.00    -0.237 OA
ATOM     58  O   UNL A   1      34.913  33.958  27.381  1.00  0.00    -0.237 OA
ATOM     59  O   UNL A   1      33.283  32.119  27.544  1.00  0.00    -0.744 OA
ENDBRANCH  55  56
ENDBRANCH  27  50
BRANCH  39  60
ATOM     60  C   UNL A   1      42.376  29.330  34.099  1.00  0.00    -0.014 A 
ATOM     61  C   UNL A   1      41.944  28.037  33.740  1.00  0.00     0.010 A 
ATOM     62  C   UNL A   1      42.660  29.589  35.450  1.00  0.00     0.010 A 
ATOM     63  C   UNL A   1      41.783  27.037  34.708  1.00  0.00     0.020 A 
ATOM     64  C   UNL A   1      42.516  28.591  36.420  1.00  0.00     0.020 A 
ATOM     65  C   UNL A   1      42.074  27.321  36.044  1.00  0.00     0.054 A 
BRANCH  65  66
ATOM     66  S   UNL A   1      41.938  25.995  37.277  1.00  0.00     0.124 S 
ATOM     67  O   UNL A   1      42.900  26.407  38.295  1.00  0.00    -0.237 OA
ATOM     68  O   UNL A   1      40.534  26.065  37.677  1.00  0.00    -0.237 OA
ATOM     69  O   UNL A   1      42.303  24.790  36.533  1.00  0.00    -0.744 OA
ENDBRANCH  65  66
ENDBRANCH  39  60
ENDBRANCH  13  14
ENDBRANCH   6   8
ENDBRANCH   3   4
ENDBRANCH   2   3
ENDBRANCH   1   2
BRANCH   1  70
ATOM     70  C   UNL A   1      37.963  24.095  26.152  1.00  0.00     0.002 C 
BRANCH  70  71
ATOM     71  C   UNL A   1      36.733  23.251  25.790  1.00  0.00     0.021 C 
BRANCH  71  72
ATOM     72  C   UNL A   1      35.457  24.074  25.753  1.00  0.00     0.116 C 
BRANCH  72  73
ATOM     73  N   UNL A   1      35.217  24.498  24.391  1.00  0.00    -0.355 N 
ATOM     74  C   UNL A   1      34.201  24.060  23.585  1.00  0.00     0.234 C 
ATOM     75  H   UNL A   1      35.839  25.159  24.010  1.00  0.00     0.163 HD
ATOM     76  O   UNL A   1      34.191  24.366  22.394  1.00  0.00    -0.274 OA
BRANCH  74  77
ATOM     77  C   UNL A   1      33.106  23.274  24.322  1.00  0.00     0.125 C 
ATOM     78  C   UNL A   1      33.702  21.954  23.671  1.00  0.00     0.280 C 
ATOM     79  C   UNL A   1      31.814  22.463  24.622  1.00  0.00     0.087 C 
ATOM     80  C   UNL A   1      32.156  24.494  23.862  1.00  0.00     0.143 C 
ATOM     81  N   UNL A   1      33.485  20.860  24.650  1.00  0.00    -0.345 N 
ATOM     82  C   UNL A   1      32.199  21.153  25.261  1.00  0.00     0.267 C 
ATOM     83  C   UNL A   1      30.948  23.328  25.511  1.00  0.00     0.130 C 
ATOM     84  N   UNL A   1      31.168  24.621  24.938  1.00  0.00    -0.337 N 
ATOM     85  H   UNL A   1      34.223  20.857  25.354  1.00  0.00     0.346 HD
ATOM     86  H   UNL A   1      33.499  19.941  24.207  1.00  0.00     0.346 HD
BRANCH  84  87
ATOM     87  C   UNL A   1      30.622  25.753  25.513  1.00  0.00     0.256 C 
ATOM     88  O   UNL A   1      30.258  25.783  26.691  1.00  0.00    -0.269 OA
BRANCH  87  89
ATOM     89  C   UNL A   1      30.449  26.976  24.697  1.00  0.00     0.065 A 
ATOM     90  C   UNL A   1      29.431  26.952  23.731  1.00  0.00     0.016 A 
ATOM     91  C   UNL A   1      31.187  28.154  24.899  1.00  0.00     0.079 A 
ATOM     92  C   UNL A   1      29.119  28.104  23.006  1.00  0.00     0.001 A 
ATOM     93  C   UNL A   1      30.827  29.324  24.209  1.00  0.00     0.029 A 
ATOM     94  C   UNL A   1      29.805  29.291  23.257  1.00  0.00     0.002 A 
BRANCH  91  95
ATOM     95  N   UNL A   1      32.288  28.203  25.782  1.00  0.00    -0.220 N 
ATOM     96  C   UNL A   1      32.343  28.620  27.092  1.00  0.00     0.225 A 
ATOM     97  N   UNL A   1      33.537  27.864  25.374  1.00  0.00    -0.155 NA
ATOM     98  N   UNL A   1      33.592  28.712  27.491  1.00  0.00    -0.223 NA
ATOM     99  C   UNL A   1      34.281  28.265  26.406  1.00  0.00     0.246 A 
ENDBRANCH  91  95
ENDBRANCH  87  89
ENDBRANCH  84  87
ENDBRANCH  74  77
ENDBRANCH  72  73
ENDBRANCH  71  72
ENDBRANCH  70  71
ENDBRANCH   1  70
TORSDOF 19
ENDMDL
MODEL 2
REMARK VINA RESULT:     -11.8      1.092      1.818
REMARK SMILES O=C(NCCCCCCNC(=O)[C@]12C[NH2+]C[C@H]1CN(C(=O)c1ccccc1-n1cncn1)C2)c1ccc(-c2c3nc(c(-c4ccc(S(=O)(=O)[O-])cc4)c4ccc([nH]4)c(-c4ccc(S(=O)(=O)[O-])cc4)c4nc(c(-c5ccc(S(=O)(=O)[O-])cc5)c5ccc2[nH]5)C=C4)C=C3)cc1
REMARK SMILES IDX 6 1 5 2 4 3 3 4 1 5 2 6 34 8 35 9 93 10 36 11 92 12 37 13
REMARK SMILES IDX 38 14 39 15 86 16 40 17 91 18 85 19 87 20 41 21 90 22 84 23
REMARK SMILES IDX 83 24 42 26 72 27 53 28 71 29 54 30 57 31 70 32 88 33 55 34
REMARK SMILES IDX 56 35 69 37 89 38 58 39 43 40 44 41 52 42 45 43 51 44 46 45
REMARK SMILES IDX 47 46 48 47 49 48 50 49 73 50 74 51 82 52 75 53 81 54 76 55
REMARK SMILES IDX 77 56 78 57 79 58 80 59 59 60 60 61 68 62 61 63 67 64 62 65
REMARK SMILES IDX 63 66 64 67 65 68 66 69 7 70 8 71 9 72 10 73 11 74 12 76
REMARK SMILES IDX 13 77 14 78 17 79 33 80 15 81 16 82 18 83 19 84 20 87 21 88
REMARK SMILES IDX 22 89 23 90 27 91 24 92 26 93 25 94 28 95 29 96 32 97 30 98
REMARK SMILES IDX 31 99
REMARK H PARENT 3 7 87 25 57 36 10 75 15 85 15 86
REMARK Flexibility Score: inf
ROOT
ATOM      1  C   UNL A   1      38.842  23.087  26.205  1.00  0.00     0.002 C 
ENDROOT
BRANCH   1   2
ATOM      2  C   UNL A   1      39.381  21.660  26.076  1.00  0.00     0.021 C 
BRANCH   2   3
ATOM      3  C   UNL A   1      40.852  21.527  26.474  1.00  0.00     0.116 C 
BRANCH   3   4
ATOM      4  N   UNL A   1      41.782  21.854  25.414  1.00  0.00    -0.352 N 
ATOM      5  O   UNL A   1      43.295  22.914  24.179  1.00  0.00    -0.269 OA
ATOM      6  C   UNL A   1      42.612  22.919  25.203  1.00  0.00     0.251 C 
ATOM      7  H   UNL A   1      41.824  21.174  24.703  1.00  0.00     0.163 HD
BRANCH   6   8
ATOM      8  C   UNL A   1      42.651  24.097  26.101  1.00  0.00     0.039 A 
ATOM      9  C   UNL A   1      43.385  24.165  27.288  1.00  0.00     0.014 A 
ATOM     10  C   UNL A   1      41.875  25.197  25.712  1.00  0.00     0.014 A 
ATOM     11  C   UNL A   1      43.228  25.234  28.154  1.00  0.00     0.010 A 
ATOM     12  C   UNL A   1      41.768  26.302  26.542  1.00  0.00     0.010 A 
ATOM     13  C   UNL A   1      42.397  26.289  27.790  1.00  0.00    -0.014 A 
BRANCH  13  14
ATOM     14  C   UNL A   1      42.305  27.430  28.694  1.00  0.00     0.031 A 
ATOM     15  C   UNL A   1      43.418  28.426  28.610  1.00  0.00     0.074 A 
ATOM     16  C   UNL A   1      41.179  27.661  29.395  1.00  0.00     0.049 A 
ATOM     17  N   UNL A   1      44.098  28.983  29.562  1.00  0.00    -0.248 NA
ATOM     18  C   UNL A   1      43.876  28.801  27.258  1.00  0.00     0.031 C 
ATOM     19  C   UNL A   1      39.917  26.915  29.317  1.00  0.00     0.029 A 
ATOM     20  N   UNL A   1      40.864  28.722  30.187  1.00  0.00    -0.354 N 
ATOM     21  C   UNL A   1      44.950  29.901  28.945  1.00  0.00     0.074 A 
ATOM     22  C   UNL A   1      44.853  29.664  27.528  1.00  0.00     0.031 C 
ATOM     23  C   UNL A   1      38.919  27.695  29.784  1.00  0.00     0.029 A 
ATOM     24  C   UNL A   1      39.494  28.923  30.306  1.00  0.00     0.049 A 
ATOM     25  H   UNL A   1      41.537  29.289  30.629  1.00  0.00     0.167 HD
ATOM     26  C   UNL A   1      45.551  30.932  29.601  1.00  0.00     0.031 A 
ATOM     27  C   UNL A   1      38.874  30.070  30.676  1.00  0.00     0.031 A 
ATOM     28  C   UNL A   1      45.584  30.746  31.022  1.00  0.00     0.049 A 
ATOM     29  C   UNL A   1      39.873  30.920  31.366  1.00  0.00     0.074 A 
ATOM     30  C   UNL A   1      46.165  29.828  31.872  1.00  0.00     0.029 A 
ATOM     31  N   UNL A   1      44.659  31.422  31.780  1.00  0.00    -0.354 N 
ATOM     32  N   UNL A   1      40.436  30.601  32.498  1.00  0.00    -0.248 NA
ATOM     33  C   UNL A   1      40.572  31.934  30.593  1.00  0.00     0.031 C 
ATOM     34  C   UNL A   1      45.230  29.665  32.934  1.00  0.00     0.029 A 
ATOM     35  C   UNL A   1      44.153  30.518  32.680  1.00  0.00     0.049 A 
ATOM     36  H   UNL A   1      44.408  32.371  31.695  1.00  0.00     0.167 HD
ATOM     37  C   UNL A   1      41.742  31.058  32.396  1.00  0.00     0.074 A 
ATOM     38  C   UNL A   1      41.735  31.963  31.250  1.00  0.00     0.031 C 
ATOM     39  C   UNL A   1      42.762  30.453  33.075  1.00  0.00     0.031 A 
BRANCH  26  40
ATOM     40  C   UNL A   1      45.807  32.273  28.958  1.00  0.00    -0.014 A 
ATOM     41  C   UNL A   1      47.088  32.855  29.039  1.00  0.00     0.010 A 
ATOM     42  C   UNL A   1      44.750  33.102  28.522  1.00  0.00     0.010 A 
ATOM     43  C   UNL A   1      47.285  34.215  28.755  1.00  0.00     0.020 A 
ATOM     44  C   UNL A   1      44.944  34.444  28.195  1.00  0.00     0.020 A 
ATOM     45  C   UNL A   1      46.204  35.003  28.352  1.00  0.00     0.054 A 
BRANCH  45  46
ATOM     46  S   UNL A   1      46.435  36.785  28.129  1.00  0.00     0.124 S 
ATOM     47  O   UNL A   1      45.140  37.309  28.552  1.00  0.00    -0.237 OA
ATOM     48  O   UNL A   1      47.556  37.068  29.021  1.00  0.00    -0.237 OA
ATOM     49  O   UNL A   1      46.730  36.917  26.704  1.00  0.00    -0.744 OA
ENDBRANCH  45  46
ENDBRANCH  26  40
BRANCH  27  50
ATOM     50  C   UNL A   1      37.607  30.592  30.105  1.00  0.00    -0.014 A 
ATOM     51  C   UNL A   1      36.599  31.125  30.925  1.00  0.00     0.010 A 
ATOM     52  C   UNL A   1      37.489  30.782  28.711  1.00  0.00     0.010 A 
ATOM     53  C   UNL A   1      35.528  31.849  30.369  1.00  0.00     0.020 A 
ATOM     54  C   UNL A   1      36.423  31.489  28.150  1.00  0.00     0.020 A 
ATOM     55  C   UNL A   1      35.455  32.036  28.984  1.00  0.00     0.054 A 
BRANCH  55  56
ATOM     56  S   UNL A   1      34.151  33.091  28.287  1.00  0.00     0.124 S 
ATOM     57  O   UNL A   1      33.312  32.123  27.586  1.00  0.00    -0.237 OA
ATOM     58  O   UNL A   1      33.563  33.696  29.478  1.00  0.00    -0.237 OA
ATOM     59  O   UNL A   1      34.883  34.016  27.422  1.00  0.00    -0.744 OA
ENDBRANCH  55  56
ENDBRANCH  27  50
BRANCH  39  60
ATOM     60  C   UNL A   1      42.412  29.407  34.111  1.00  0.00    -0.014 A 
ATOM     61  C   UNL A   1      41.885  28.146  33.766  1.00  0.00     0.010 A 
ATOM     62  C   UNL A   1      42.798  29.628  35.444  1.00  0.00     0.010 A 
ATOM     63  C   UNL A   1      41.730  27.141  34.729  1.00  0.00     0.020 A 
ATOM     64  C   UNL A   1      42.660  28.623  36.409  1.00  0.00     0.020 A 
ATOM     65  C   UNL A   1      42.123  27.387  36.047  1.00  0.00     0.054 A 
BRANCH  65  66
ATOM     66  S   UNL A   1      41.992  26.050  37.269  1.00  0.00     0.124 S 
ATOM     67  O   UNL A   1      40.583  26.100  37.646  1.00  0.00    -0.237 OA
ATOM     68  O   UNL A   1      42.397  24.871  36.506  1.00  0.00    -0.237 OA
ATOM     69  O   UNL A   1      42.928  26.448  38.320  1.00  0.00    -0.744 OA
ENDBRANCH  65  66
ENDBRANCH  39  60
ENDBRANCH  13  14
ENDBRANCH   6   8
ENDBRANCH   3   4
ENDBRANCH   2   3
ENDBRANCH   1   2
BRANCH   1  70
ATOM     70  C   UNL A   1      37.321  23.197  26.049  1.00  0.00     0.002 C 
BRANCH  70  71
ATOM     71  C   UNL A   1      36.844  23.273  24.592  1.00  0.00     0.021 C 
BRANCH  71  72
ATOM     72  C   UNL A   1      35.575  24.095  24.441  1.00  0.00     0.116 C 
BRANCH  72  73
ATOM     73  N   UNL A   1      34.702  23.431  23.499  1.00  0.00    -0.355 N 
ATOM     74  C   UNL A   1      33.622  22.655  23.821  1.00  0.00     0.234 C 
ATOM     75  H   UNL A   1      34.902  23.548  22.541  1.00  0.00     0.163 HD
ATOM     76  O   UNL A   1      33.051  22.009  22.943  1.00  0.00    -0.274 OA
BRANCH  74  77
ATOM     77  C   UNL A   1      33.188  22.757  25.291  1.00  0.00     0.125 C 
ATOM     78  C   UNL A   1      33.714  21.272  25.484  1.00  0.00     0.280 C 
ATOM     79  C   UNL A   1      32.394  22.578  26.615  1.00  0.00     0.087 C 
ATOM     80  C   UNL A   1      31.880  23.477  24.680  1.00  0.00     0.143 C 
ATOM     81  N   UNL A   1      34.218  21.176  26.877  1.00  0.00    -0.345 N 
ATOM     82  C   UNL A   1      33.314  22.002  27.661  1.00  0.00     0.267 C 
ATOM     83  C   UNL A   1      31.846  23.938  26.986  1.00  0.00     0.130 C 
ATOM     84  N   UNL A   1      31.480  24.450  25.701  1.00  0.00    -0.337 N 
ATOM     85  H   UNL A   1      35.172  21.531  26.939  1.00  0.00     0.346 HD
ATOM     86  H   UNL A   1      34.243  20.212  27.211  1.00  0.00     0.346 HD
BRANCH  84  87
ATOM     87  C   UNL A   1      31.006  25.740  25.560  1.00  0.00     0.256 C 
ATOM     88  O   UNL A   1      29.813  25.986  25.365  1.00  0.00    -0.269 OA
BRANCH  87  89
ATOM     89  C   UNL A   1      31.951  26.877  25.629  1.00  0.00     0.065 A 
ATOM     90  C   UNL A   1      32.156  27.452  26.893  1.00  0.00     0.016 A 
ATOM     91  C   UNL A   1      32.690  27.340  24.528  1.00  0.00     0.079 A 
ATOM     92  C   UNL A   1      33.122  28.446  27.067  1.00  0.00     0.001 A 
ATOM     93  C   UNL A   1      33.700  28.296  24.723  1.00  0.00     0.029 A 
ATOM     94  C   UNL A   1      33.903  28.854  25.988  1.00  0.00     0.002 A 
BRANCH  91  95
ATOM     95  N   UNL A   1      32.449  26.869  23.218  1.00  0.00    -0.220 N 
ATOM     96  C   UNL A   1      31.362  27.069  22.400  1.00  0.00     0.225 A 
ATOM     97  N   UNL A   1      33.327  26.044  22.592  1.00  0.00    -0.155 NA
ATOM     98  N   UNL A   1      31.431  26.286  21.346  1.00  0.00    -0.223 NA
ATOM     99  C   UNL A   1      32.630  25.666  21.518  1.00  0.00     0.246 A 
ENDBRANCH  91  95
ENDBRANCH  87  89
ENDBRANCH  84  87
ENDBRANCH  74  77
ENDBRANCH  72  73
ENDBRANCH  71  72
ENDBRANCH  70  71
ENDBRANCH   1  70
TORSDOF 19
ENDMDL
MODEL 3
REMARK VINA RESULT:     -11.5      2.457      8.858
REMARK SMILES O=C(NCCCCCCNC(=O)[C@]12C[NH2+]C[C@H]1CN(C(=O)c1ccccc1-n1cncn1)C2)c1ccc(-c2c3nc(c(-c4ccc(S(=O)(=O)[O-])cc4)c4ccc([nH]4)c(-c4ccc(S(=O)(=O)[O-])cc4)c4nc(c(-c5ccc(S(=O)(=O)[O-])cc5)c5ccc2[nH]5)C=C4)C=C3)cc1
REMARK SMILES IDX 6 1 5 2 4 3 3 4 1 5 2 6 34 8 35 9 93 10 36 11 92 12 37 13
REMARK SMILES IDX 38 14 39 15 86 16 40 17 91 18 85 19 87 20 41 21 90 22 84 23
REMARK SMILES IDX 83 24 42 26 72 27 53 28 71 29 54 30 57 31 70 32 88 33 55 34
REMARK SMILES IDX 56 35 69 37 89 38 58 39 43 40 44 41 52 42 45 43 51 44 46 45
REMARK SMILES IDX 47 46 48 47 49 48 50 49 73 50 74 51 82 52 75 53 81 54 76 55
REMARK SMILES IDX 77 56 78 57 79 58 80 59 59 60 60 61 68 62 61 63 67 64 62 65
REMARK SMILES IDX 63 66 64 67 65 68 66 69 7 70 8 71 9 72 10 73 11 74 12 76
REMARK SMILES IDX 13 77 14 78 17 79 33 80 15 81 16 82 18 83 19 84 20 87 21 88
REMARK SMILES IDX 22 89 23 90 27 91 24 92 26 93 25 94 28 95 29 96 32 97 30 98
REMARK SMILES IDX 31 99
REMARK H PARENT 3 7 87 25 57 36 10 75 15 85 15 86
REMARK Flexibility Score: inf
ROOT
ATOM      1  C   UNL A   1      35.309  31.088  27.633  1.00  0.00     0.002 C 
ENDROOT
BRANCH   1   2
ATOM      2  C   UNL A   1      33.976  31.754  27.985  1.00  0.00     0.021 C 
BRANCH   2   3
ATOM      3  C   UNL A   1      34.136  33.066  28.754  1.00  0.00     0.116 C 
BRANCH   3   4
ATOM      4  N   UNL A   1      33.961  32.937  30.185  1.00  0.00    -0.352 N 
ATOM      5  O   UNL A   1      34.322  32.475  32.329  1.00  0.00    -0.269 OA
ATOM      6  C   UNL A   1      34.765  32.458  31.181  1.00  0.00     0.251 C 
ATOM      7  H   UNL A   1      33.086  33.258  30.505  1.00  0.00     0.163 HD
BRANCH   6   8
ATOM      8  C   UNL A   1      36.091  31.850  30.918  1.00  0.00     0.039 A 
ATOM      9  C   UNL A   1      36.372  30.485  31.024  1.00  0.00     0.014 A 
ATOM     10  C   UNL A   1      37.116  32.734  30.554  1.00  0.00     0.014 A 
ATOM     11  C   UNL A   1      37.675  30.024  30.933  1.00  0.00     0.010 A 
ATOM     12  C   UNL A   1      38.411  32.268  30.391  1.00  0.00     0.010 A 
ATOM     13  C   UNL A   1      38.696  30.923  30.642  1.00  0.00    -0.014 A 
BRANCH  13  14
ATOM     14  C   UNL A   1      40.047  30.395  30.486  1.00  0.00     0.031 A 
ATOM     15  C   UNL A   1      40.859  30.290  31.739  1.00  0.00     0.074 A 
ATOM     16  C   UNL A   1      40.439  29.844  29.321  1.00  0.00     0.049 A 
ATOM     17  N   UNL A   1      42.085  30.648  31.956  1.00  0.00    -0.248 NA
ATOM     18  C   UNL A   1      40.173  29.768  32.936  1.00  0.00     0.031 C 
ATOM     19  C   UNL A   1      39.617  29.620  28.126  1.00  0.00     0.029 A 
ATOM     20  N   UNL A   1      41.601  29.202  29.025  1.00  0.00    -0.354 N 
ATOM     21  C   UNL A   1      42.381  30.244  33.260  1.00  0.00     0.074 A 
ATOM     22  C   UNL A   1      41.140  29.816  33.850  1.00  0.00     0.031 C 
ATOM     23  C   UNL A   1      40.195  28.660  27.373  1.00  0.00     0.029 A 
ATOM     24  C   UNL A   1      41.473  28.310  27.968  1.00  0.00     0.049 A 
ATOM     25  H   UNL A   1      42.445  29.353  29.510  1.00  0.00     0.167 HD
ATOM     26  C   UNL A   1      43.650  30.102  33.736  1.00  0.00     0.031 A 
ATOM     27  C   UNL A   1      42.292  27.266  27.686  1.00  0.00     0.031 A 
ATOM     28  C   UNL A   1      44.623  30.799  32.948  1.00  0.00     0.049 A 
ATOM     29  C   UNL A   1      43.575  27.498  28.391  1.00  0.00     0.074 A 
ATOM     30  C   UNL A   1      44.858  32.122  32.634  1.00  0.00     0.029 A 
ATOM     31  N   UNL A   1      45.377  30.067  32.062  1.00  0.00    -0.354 N 
ATOM     32  N   UNL A   1      44.381  28.487  28.121  1.00  0.00    -0.248 NA
ATOM     33  C   UNL A   1      43.773  26.877  29.691  1.00  0.00     0.031 C 
ATOM     34  C   UNL A   1      45.334  32.104  31.292  1.00  0.00     0.029 A 
ATOM     35  C   UNL A   1      45.389  30.769  30.884  1.00  0.00     0.049 A 
ATOM     36  H   UNL A   1      45.822  29.207  32.240  1.00  0.00     0.167 HD
ATOM     37  C   UNL A   1      44.902  28.875  29.347  1.00  0.00     0.074 A 
ATOM     38  C   UNL A   1      44.577  27.781  30.258  1.00  0.00     0.031 C 
ATOM     39  C   UNL A   1      45.305  30.161  29.572  1.00  0.00     0.031 A 
BRANCH  26  40
ATOM     40  C   UNL A   1      44.034  29.039  34.735  1.00  0.00    -0.014 A 
ATOM     41  C   UNL A   1      43.865  27.679  34.410  1.00  0.00     0.010 A 
ATOM     42  C   UNL A   1      44.290  29.349  36.088  1.00  0.00     0.010 A 
ATOM     43  C   UNL A   1      43.892  26.687  35.402  1.00  0.00     0.020 A 
ATOM     44  C   UNL A   1      44.362  28.366  37.076  1.00  0.00     0.020 A 
ATOM     45  C   UNL A   1      44.123  27.044  36.733  1.00  0.00     0.054 A 
BRANCH  45  46
ATOM     46  S   UNL A   1      44.011  25.782  38.026  1.00  0.00     0.124 S 
ATOM     47  O   UNL A   1      42.797  25.067  37.642  1.00  0.00    -0.237 OA
ATOM     48  O   UNL A   1      45.261  25.048  37.855  1.00  0.00    -0.237 OA
ATOM     49  O   UNL A   1      43.916  26.562  39.258  1.00  0.00    -0.744 OA
ENDBRANCH  45  46
ENDBRANCH  26  40
BRANCH  27  50
ATOM     50  C   UNL A   1      41.860  25.938  27.183  1.00  0.00    -0.014 A 
ATOM     51  C   UNL A   1      42.759  25.069  26.543  1.00  0.00     0.010 A 
ATOM     52  C   UNL A   1      40.597  25.424  27.549  1.00  0.00     0.010 A 
ATOM     53  C   UNL A   1      42.415  23.726  26.307  1.00  0.00     0.020 A 
ATOM     54  C   UNL A   1      40.244  24.094  27.308  1.00  0.00     0.020 A 
ATOM     55  C   UNL A   1      41.162  23.244  26.703  1.00  0.00     0.054 A 
BRANCH  55  56
ATOM     56  S   UNL A   1      40.780  21.478  26.527  1.00  0.00     0.124 S 
ATOM     57  O   UNL A   1      40.758  21.026  27.915  1.00  0.00    -0.237 OA
ATOM     58  O   UNL A   1      39.489  21.499  25.846  1.00  0.00    -0.237 OA
ATOM     59  O   UNL A   1      41.891  20.963  25.726  1.00  0.00    -0.744 OA
ENDBRANCH  55  56
ENDBRANCH  27  50
BRANCH  39  60
ATOM     60  C   UNL A   1      45.374  31.108  28.394  1.00  0.00    -0.014 A 
ATOM     61  C   UNL A   1      44.222  31.672  27.808  1.00  0.00     0.010 A 
ATOM     62  C   UNL A   1      46.631  31.586  27.990  1.00  0.00     0.010 A 
ATOM     63  C   UNL A   1      44.326  32.671  26.832  1.00  0.00     0.020 A 
ATOM     64  C   UNL A   1      46.742  32.595  27.026  1.00  0.00     0.020 A 
ATOM     65  C   UNL A   1      45.589  33.129  26.449  1.00  0.00     0.054 A 
BRANCH  65  66
ATOM     66  S   UNL A   1      45.708  34.481  25.242  1.00  0.00     0.124 S 
ATOM     67  O   UNL A   1      45.215  35.628  25.998  1.00  0.00    -0.237 OA
ATOM     68  O   UNL A   1      47.134  34.507  24.924  1.00  0.00    -0.237 OA
ATOM     69  O   UNL A   1      44.845  34.044  24.145  1.00  0.00    -0.744 OA
ENDBRANCH  65  66
ENDBRANCH  39  60
ENDBRANCH  13  14
ENDBRANCH   6   8
ENDBRANCH   3   4
ENDBRANCH   2   3
ENDBRANCH   1   2
BRANCH   1  70
ATOM     70  C   UNL A   1      35.239  29.559  27.542  1.00  0.00     0.002 C 
BRANCH  70  71
ATOM     71  C   UNL A   1      33.814  29.003  27.418  1.00  0.00     0.021 C 
BRANCH  71  72
ATOM     72  C   UNL A   1      33.743  27.791  26.506  1.00  0.00     0.116 C 
BRANCH  72  73
ATOM     73  N   UNL A   1      32.363  27.375  26.393  1.00  0.00    -0.355 N 
ATOM     74  C   UNL A   1      31.668  27.219  25.224  1.00  0.00     0.234 C 
ATOM     75  H   UNL A   1      31.879  27.188  27.231  1.00  0.00     0.163 HD
ATOM     76  O   UNL A   1      30.454  27.019  25.257  1.00  0.00    -0.274 OA
BRANCH  74  77
ATOM     77  C   UNL A   1      32.545  27.230  23.963  1.00  0.00     0.125 C 
ATOM     78  C   UNL A   1      32.224  28.779  23.829  1.00  0.00     0.280 C 
ATOM     79  C   UNL A   1      32.999  27.263  22.477  1.00  0.00     0.087 C 
ATOM     80  C   UNL A   1      31.800  25.837  23.637  1.00  0.00     0.143 C 
ATOM     81  N   UNL A   1      33.423  29.412  23.227  1.00  0.00    -0.345 N 
ATOM     82  C   UNL A   1      33.928  28.434  22.277  1.00  0.00     0.267 C 
ATOM     83  C   UNL A   1      33.650  25.929  22.186  1.00  0.00     0.130 C 
ATOM     84  N   UNL A   1      32.800  25.040  22.918  1.00  0.00    -0.337 N 
ATOM     85  H   UNL A   1      34.123  29.610  23.942  1.00  0.00     0.346 HD
ATOM     86  H   UNL A   1      33.204  30.303  22.779  1.00  0.00     0.346 HD
BRANCH  84  87
ATOM     87  C   UNL A   1      33.090  23.692  23.004  1.00  0.00     0.256 C 
ATOM     88  O   UNL A   1      32.541  22.852  22.286  1.00  0.00    -0.269 OA
BRANCH  87  89
ATOM     89  C   UNL A   1      34.081  23.219  23.998  1.00  0.00     0.065 A 
ATOM     90  C   UNL A   1      35.392  23.024  23.537  1.00  0.00     0.016 A 
ATOM     91  C   UNL A   1      33.789  23.040  25.360  1.00  0.00     0.079 A 
ATOM     92  C   UNL A   1      36.413  22.699  24.434  1.00  0.00     0.001 A 
ATOM     93  C   UNL A   1      34.831  22.773  26.263  1.00  0.00     0.029 A 
ATOM     94  C   UNL A   1      36.135  22.591  25.795  1.00  0.00     0.002 A 
BRANCH  91  95
ATOM     95  N   UNL A   1      32.469  23.122  25.857  1.00  0.00    -0.220 N 
ATOM     96  C   UNL A   1      31.956  23.918  26.855  1.00  0.00     0.225 A 
ATOM     97  N   UNL A   1      31.488  22.305  25.396  1.00  0.00    -0.155 NA
ATOM     98  N   UNL A   1      30.735  23.540  27.160  1.00  0.00    -0.223 NA
ATOM     99  C   UNL A   1      30.503  22.542  26.263  1.00  0.00     0.246 A 
ENDBRANCH  91  95
ENDBRANCH  87  89
ENDBRANCH  84  87
ENDBRANCH  74  77
ENDBRANCH  72  73
ENDBRANCH  71  72
ENDBRANCH  70  71
ENDBRANCH   1  70
TORSDOF 19
ENDMDL
