MODEL 1
REMARK VINA RESULT:      -9.8      0.000      0.000
REMARK SMILES CC(C)[C@H](NC(=O)CCNC(=O)c1ccoc1)C(=O)NCCCCCCNC(=O)c1ccc(-c2c3nc(c(-c4ccc(S(=O)(=O)[O-])cc4)c4ccc([nH]4)c(-c4ccc(S(=O)(=O)[O-])cc4)c4nc(c(-c5ccc(S(=O)(=O)[O-])cc5)c5ccc2[nH]5)C=C4)C=C3)cc1
REMARK SMILES IDX 22 1 21 2 20 3 18 4 19 5 4 7 2 8 1 9 3 10 5 11 6 12 7 14
REMARK SMILES IDX 8 15 9 16 10 17 11 18 12 20 13 21 14 22 17 23 15 24 16 25
REMARK SMILES IDX 23 26 24 27 25 28 26 29 27 30 28 31 29 33 30 34 31 35 89 36
REMARK SMILES IDX 32 37 88 38 33 39 34 40 35 41 82 42 36 43 87 44 81 45 83 46
REMARK SMILES IDX 37 47 86 48 80 49 79 50 38 52 68 53 49 54 67 55 50 56 53 57
REMARK SMILES IDX 66 58 84 59 51 60 52 61 65 63 85 64 54 65 39 66 40 67 48 68
REMARK SMILES IDX 41 69 47 70 42 71 43 72 44 73 45 74 46 75 69 76 70 77 78 78
REMARK SMILES IDX 71 79 77 80 72 81 73 82 74 83 75 84 76 85 55 86 56 87 64 88
REMARK SMILES IDX 57 89 63 90 58 91 59 92 60 93 61 94 62 95
REMARK H PARENT 20 6 5 13 10 19 27 32 83 51 53 62
REMARK Flexibility Score: inf
ROOT
ATOM      1  C   UNL A   1      32.990  29.931  27.119  1.00  0.00     0.021 C 
ENDROOT
BRANCH   1   2
ATOM      2  C   UNL A   1      32.988  28.412  27.108  1.00  0.00     0.116 C 
BRANCH   2   3
ATOM      3  N   UNL A   1      33.689  27.874  25.952  1.00  0.00    -0.354 N 
ATOM      4  C   UNL A   1      33.251  27.114  24.906  1.00  0.00     0.242 C 
ATOM      5  O   UNL A   1      33.972  27.058  23.905  1.00  0.00    -0.273 OA
ATOM      6  H   UNL A   1      34.647  28.096  25.919  1.00  0.00     0.163 HD
BRANCH   4   7
ATOM      7  C   UNL A   1      31.863  26.440  24.905  1.00  0.00     0.173 C 
BRANCH   7   8
ATOM      8  C   UNL A   1      30.703  27.438  24.643  1.00  0.00     0.015 C 
ATOM      9  C   UNL A   1      31.007  28.674  23.800  1.00  0.00     0.010 C 
ATOM     10  C   UNL A   1      29.496  26.713  24.034  1.00  0.00     0.010 C 
ENDBRANCH   7   8
BRANCH   7  11
ATOM     11  N   UNL A   1      31.717  25.581  26.088  1.00  0.00    -0.344 N 
ATOM     12  C   UNL A   1      31.490  24.252  26.215  1.00  0.00     0.222 C 
ATOM     13  H   UNL A   1      31.799  26.059  26.944  1.00  0.00     0.164 HD
ATOM     14  O   UNL A   1      31.496  23.762  27.344  1.00  0.00    -0.275 OA
BRANCH  12  15
ATOM     15  C   UNL A   1      31.252  23.399  25.002  1.00  0.00     0.121 C 
BRANCH  15  16
ATOM     16  C   UNL A   1      32.470  22.552  24.707  1.00  0.00     0.126 C 
BRANCH  16  17
ATOM     17  N   UNL A   1      33.709  23.239  25.011  1.00  0.00    -0.351 N 
ATOM     18  C   UNL A   1      34.684  23.282  24.035  1.00  0.00     0.254 C 
ATOM     19  H   UNL A   1      33.852  23.661  25.888  1.00  0.00     0.163 HD
ATOM     20  O   UNL A   1      34.458  23.288  22.835  1.00  0.00    -0.269 OA
BRANCH  18  21
ATOM     21  C   UNL A   1      35.998  23.053  24.582  1.00  0.00     0.077 A 
ATOM     22  C   UNL A   1      36.775  21.882  24.372  1.00  0.00     0.056 A 
ATOM     23  C   UNL A   1      36.700  23.820  25.484  1.00  0.00     0.208 A 
ATOM     24  C   UNL A   1      37.861  21.989  25.204  1.00  0.00     0.195 A 
ATOM     25  O   UNL A   1      37.830  23.172  25.873  1.00  0.00    -0.472 OA
ENDBRANCH  18  21
ENDBRANCH  16  17
ENDBRANCH  15  16
ENDBRANCH  12  15
ENDBRANCH   7  11
ENDBRANCH   4   7
ENDBRANCH   2   3
ENDBRANCH   1   2
BRANCH   1  26
ATOM     26  C   UNL A   1      34.371  30.528  27.411  1.00  0.00     0.002 C 
BRANCH  26  27
ATOM     27  C   UNL A   1      34.362  31.912  28.074  1.00  0.00     0.002 C 
BRANCH  27  28
ATOM     28  C   UNL A   1      35.686  32.683  28.026  1.00  0.00     0.021 C 
BRANCH  28  29
ATOM     29  C   UNL A   1      36.413  32.806  29.360  1.00  0.00     0.116 C 
BRANCH  29  30
ATOM     30  N   UNL A   1      35.989  31.801  30.317  1.00  0.00    -0.352 N 
ATOM     31  C   UNL A   1      36.619  30.647  30.698  1.00  0.00     0.251 C 
ATOM     32  H   UNL A   1      35.125  31.974  30.756  1.00  0.00     0.163 HD
ATOM     33  O   UNL A   1      36.042  29.853  31.436  1.00  0.00    -0.269 OA
BRANCH  31  34
ATOM     34  C   UNL A   1      37.976  30.346  30.199  1.00  0.00     0.039 A 
ATOM     35  C   UNL A   1      39.024  30.295  31.120  1.00  0.00     0.014 A 
ATOM     36  C   UNL A   1      38.220  30.133  28.839  1.00  0.00     0.014 A 
ATOM     37  C   UNL A   1      40.314  29.993  30.682  1.00  0.00     0.010 A 
ATOM     38  C   UNL A   1      39.495  29.770  28.413  1.00  0.00     0.010 A 
ATOM     39  C   UNL A   1      40.555  29.708  29.329  1.00  0.00    -0.014 A 
BRANCH  39  40
ATOM     40  C   UNL A   1      41.918  29.353  28.865  1.00  0.00     0.031 A 
ATOM     41  C   UNL A   1      42.218  27.958  28.389  1.00  0.00     0.074 A 
ATOM     42  C   UNL A   1      42.893  30.283  28.903  1.00  0.00     0.049 A 
ATOM     43  N   UNL A   1      43.344  27.466  27.942  1.00  0.00    -0.248 NA
ATOM     44  C   UNL A   1      41.117  26.982  28.444  1.00  0.00     0.031 C 
ATOM     45  C   UNL A   1      42.734  31.655  29.392  1.00  0.00     0.029 A 
ATOM     46  N   UNL A   1      44.208  30.216  28.524  1.00  0.00    -0.354 N 
ATOM     47  C   UNL A   1      43.093  26.125  27.675  1.00  0.00     0.074 A 
ATOM     48  C   UNL A   1      41.721  25.869  28.054  1.00  0.00     0.031 C 
ATOM     49  C   UNL A   1      43.899  32.308  29.256  1.00  0.00     0.029 A 
ATOM     50  C   UNL A   1      44.893  31.395  28.699  1.00  0.00     0.049 A 
ATOM     51  H   UNL A   1      44.624  29.400  28.161  1.00  0.00     0.167 HD
ATOM     52  C   UNL A   1      43.924  25.196  27.145  1.00  0.00     0.031 A 
ATOM     53  C   UNL A   1      46.176  31.708  28.435  1.00  0.00     0.031 A 
ATOM     54  C   UNL A   1      45.283  25.461  26.755  1.00  0.00     0.049 A 
ATOM     55  C   UNL A   1      47.072  30.665  27.827  1.00  0.00     0.074 A 
ATOM     56  C   UNL A   1      46.188  24.605  26.152  1.00  0.00     0.029 A 
ATOM     57  N   UNL A   1      45.934  26.673  26.930  1.00  0.00    -0.354 N 
ATOM     58  N   UNL A   1      46.794  29.423  27.513  1.00  0.00    -0.248 NA
ATOM     59  C   UNL A   1      48.449  31.073  27.521  1.00  0.00     0.031 C 
ATOM     60  C   UNL A   1      47.400  25.287  26.001  1.00  0.00     0.029 A 
ATOM     61  C   UNL A   1      47.234  26.583  26.464  1.00  0.00     0.049 A 
ATOM     62  H   UNL A   1      45.530  27.479  27.326  1.00  0.00     0.167 HD
ATOM     63  C   UNL A   1      47.955  28.906  26.952  1.00  0.00     0.074 A 
ATOM     64  C   UNL A   1      48.932  29.977  26.953  1.00  0.00     0.031 C 
ATOM     65  C   UNL A   1      48.194  27.658  26.479  1.00  0.00     0.031 A 
BRANCH  52  66
ATOM     66  C   UNL A   1      43.382  23.803  26.957  1.00  0.00    -0.014 A 
ATOM     67  C   UNL A   1      42.977  23.348  25.690  1.00  0.00     0.010 A 
ATOM     68  C   UNL A   1      43.315  22.925  28.053  1.00  0.00     0.010 A 
ATOM     69  C   UNL A   1      42.478  22.052  25.529  1.00  0.00     0.020 A 
ATOM     70  C   UNL A   1      42.841  21.620  27.892  1.00  0.00     0.020 A 
ATOM     71  C   UNL A   1      42.409  21.197  26.633  1.00  0.00     0.054 A 
BRANCH  71  72
ATOM     72  S   UNL A   1      41.783  19.512  26.392  1.00  0.00     0.124 S 
ATOM     73  O   UNL A   1      42.172  18.865  27.642  1.00  0.00    -0.237 OA
ATOM     74  O   UNL A   1      40.349  19.725  26.215  1.00  0.00    -0.237 OA
ATOM     75  O   UNL A   1      42.492  19.046  25.203  1.00  0.00    -0.744 OA
ENDBRANCH  71  72
ENDBRANCH  52  66
BRANCH  53  76
ATOM     76  C   UNL A   1      46.680  33.077  28.727  1.00  0.00    -0.014 A 
ATOM     77  C   UNL A   1      47.119  33.416  30.019  1.00  0.00     0.010 A 
ATOM     78  C   UNL A   1      46.739  34.045  27.708  1.00  0.00     0.010 A 
ATOM     79  C   UNL A   1      47.586  34.706  30.293  1.00  0.00     0.020 A 
ATOM     80  C   UNL A   1      47.230  35.326  27.971  1.00  0.00     0.020 A 
ATOM     81  C   UNL A   1      47.638  35.652  29.266  1.00  0.00     0.054 A 
BRANCH  81  82
ATOM     82  S   UNL A   1      48.295  37.304  29.630  1.00  0.00     0.124 S 
ATOM     83  O   UNL A   1      47.205  37.903  30.393  1.00  0.00    -0.237 OA
ATOM     84  O   UNL A   1      49.508  37.004  30.386  1.00  0.00    -0.237 OA
ATOM     85  O   UNL A   1      48.524  37.879  28.306  1.00  0.00    -0.744 OA
ENDBRANCH  81  82
ENDBRANCH  53  76
BRANCH  65  86
ATOM     86  C   UNL A   1      49.556  27.391  25.899  1.00  0.00    -0.014 A 
ATOM     87  C   UNL A   1      50.647  27.070  26.726  1.00  0.00     0.010 A 
ATOM     88  C   UNL A   1      49.737  27.427  24.504  1.00  0.00     0.010 A 
ATOM     89  C   UNL A   1      51.906  26.829  26.170  1.00  0.00     0.020 A 
ATOM     90  C   UNL A   1      50.987  27.160  23.943  1.00  0.00     0.020 A 
ATOM     91  C   UNL A   1      52.069  26.879  24.782  1.00  0.00     0.054 A 
BRANCH  91  92
ATOM     92  S   UNL A   1      53.705  26.533  24.080  1.00  0.00     0.124 S 
ATOM     93  O   UNL A   1      53.822  25.092  24.283  1.00  0.00    -0.237 OA
ATOM     94  O   UNL A   1      53.557  26.962  22.692  1.00  0.00    -0.237 OA
ATOM     95  O   UNL A   1      54.607  27.352  24.886  1.00  0.00    -0.744 OA
ENDBRANCH  91  92
ENDBRANCH  65  86
ENDBRANCH  39  40
ENDBRANCH  31  34
ENDBRANCH  29  30
ENDBRANCH  28  29
ENDBRANCH  27  28
ENDBRANCH  26  27
ENDBRANCH   1  26
TORSDOF 22
ENDMDL
MODEL 2
REMARK VINA RESULT:      -9.8      6.091     11.404
REMARK SMILES CC(C)[C@H](NC(=O)CCNC(=O)c1ccoc1)C(=O)NCCCCCCNC(=O)c1ccc(-c2c3nc(c(-c4ccc(S(=O)(=O)[O-])cc4)c4ccc([nH]4)c(-c4ccc(S(=O)(=O)[O-])cc4)c4nc(c(-c5ccc(S(=O)(=O)[O-])cc5)c5ccc2[nH]5)C=C4)C=C3)cc1
REMARK SMILES IDX 22 1 21 2 20 3 18 4 19 5 4 7 2 8 1 9 3 10 5 11 6 12 7 14
REMARK SMILES IDX 8 15 9 16 10 17 11 18 12 20 13 21 14 22 17 23 15 24 16 25
REMARK SMILES IDX 23 26 24 27 25 28 26 29 27 30 28 31 29 33 30 34 31 35 89 36
REMARK SMILES IDX 32 37 88 38 33 39 34 40 35 41 82 42 36 43 87 44 81 45 83 46
REMARK SMILES IDX 37 47 86 48 80 49 79 50 38 52 68 53 49 54 67 55 50 56 53 57
REMARK SMILES IDX 66 58 84 59 51 60 52 61 65 63 85 64 54 65 39 66 40 67 48 68
REMARK SMILES IDX 41 69 47 70 42 71 43 72 44 73 45 74 46 75 69 76 70 77 78 78
REMARK SMILES IDX 71 79 77 80 72 81 73 82 74 83 75 84 76 85 55 86 56 87 64 88
REMARK SMILES IDX 57 89 63 90 58 91 59 92 60 93 61 94 62 95
REMARK H PARENT 20 6 5 13 10 19 27 32 83 51 53 62
REMARK Flexibility Score: inf
ROOT
ATOM      1  C   UNL A   1      35.771  24.122  25.748  1.00  0.00     0.021 C 
ENDROOT
BRANCH   1   2
ATOM      2  C   UNL A   1      34.425  23.450  25.969  1.00  0.00     0.116 C 
BRANCH   2   3
ATOM      3  N   UNL A   1      33.964  22.750  24.781  1.00  0.00    -0.354 N 
ATOM      4  C   UNL A   1      33.075  23.111  23.810  1.00  0.00     0.242 C 
ATOM      5  O   UNL A   1      33.099  22.472  22.753  1.00  0.00    -0.273 OA
ATOM      6  H   UNL A   1      34.362  21.859  24.655  1.00  0.00     0.163 HD
BRANCH   4   7
ATOM      7  C   UNL A   1      32.149  24.337  23.958  1.00  0.00     0.173 C 
BRANCH   7   8
ATOM      8  C   UNL A   1      31.010  24.116  24.989  1.00  0.00     0.015 C 
ATOM      9  C   UNL A   1      30.842  22.714  25.570  1.00  0.00     0.010 C 
ATOM     10  C   UNL A   1      31.131  25.116  26.147  1.00  0.00     0.010 C 
ENDBRANCH   7   8
BRANCH   7  11
ATOM     11  N   UNL A   1      31.734  24.819  22.635  1.00  0.00    -0.344 N 
ATOM     12  C   UNL A   1      32.298  25.706  21.779  1.00  0.00     0.222 C 
ATOM     13  H   UNL A   1      30.891  24.428  22.310  1.00  0.00     0.164 HD
ATOM     14  O   UNL A   1      31.777  25.870  20.677  1.00  0.00    -0.275 OA
BRANCH  12  15
ATOM     15  C   UNL A   1      33.539  26.456  22.168  1.00  0.00     0.121 C 
BRANCH  15  16
ATOM     16  C   UNL A   1      33.180  27.814  22.729  1.00  0.00     0.126 C 
BRANCH  16  17
ATOM     17  N   UNL A   1      33.477  27.925  24.143  1.00  0.00    -0.351 N 
ATOM     18  C   UNL A   1      32.500  28.434  24.974  1.00  0.00     0.254 C 
ATOM     19  H   UNL A   1      34.351  27.646  24.500  1.00  0.00     0.163 HD
ATOM     20  O   UNL A   1      31.300  28.312  24.783  1.00  0.00    -0.269 OA
BRANCH  18  21
ATOM     21  C   UNL A   1      33.048  29.348  25.945  1.00  0.00     0.077 A 
ATOM     22  C   UNL A   1      34.330  29.227  26.546  1.00  0.00     0.056 A 
ATOM     23  C   UNL A   1      32.435  30.412  26.566  1.00  0.00     0.208 A 
ATOM     24  C   UNL A   1      34.384  30.182  27.529  1.00  0.00     0.195 A 
ATOM     25  O   UNL A   1      33.241  30.917  27.539  1.00  0.00    -0.472 OA
ENDBRANCH  18  21
ENDBRANCH  16  17
ENDBRANCH  15  16
ENDBRANCH  12  15
ENDBRANCH   7  11
ENDBRANCH   4   7
ENDBRANCH   2   3
ENDBRANCH   1   2
BRANCH   1  26
ATOM     26  C   UNL A   1      36.926  23.124  25.619  1.00  0.00     0.002 C 
BRANCH  26  27
ATOM     27  C   UNL A   1      38.314  23.676  25.970  1.00  0.00     0.002 C 
BRANCH  27  28
ATOM     28  C   UNL A   1      39.254  22.705  26.694  1.00  0.00     0.021 C 
BRANCH  28  29
ATOM     29  C   UNL A   1      40.565  23.313  27.178  1.00  0.00     0.116 C 
BRANCH  29  30
ATOM     30  N   UNL A   1      41.305  23.959  26.110  1.00  0.00    -0.352 N 
ATOM     31  C   UNL A   1      41.699  25.265  25.994  1.00  0.00     0.251 C 
ATOM     32  H   UNL A   1      41.561  23.374  25.360  1.00  0.00     0.163 HD
ATOM     33  O   UNL A   1      42.212  25.656  24.950  1.00  0.00    -0.269 OA
BRANCH  31  34
ATOM     34  C   UNL A   1      41.478  26.204  27.113  1.00  0.00     0.039 A 
ATOM     35  C   UNL A   1      40.404  25.970  27.973  1.00  0.00     0.014 A 
ATOM     36  C   UNL A   1      42.308  27.314  27.305  1.00  0.00     0.014 A 
ATOM     37  C   UNL A   1      40.182  26.828  29.050  1.00  0.00     0.010 A 
ATOM     38  C   UNL A   1      42.123  28.132  28.417  1.00  0.00     0.010 A 
ATOM     39  C   UNL A   1      41.052  27.903  29.293  1.00  0.00    -0.014 A 
BRANCH  39  40
ATOM     40  C   UNL A   1      40.840  28.796  30.457  1.00  0.00     0.031 A 
ATOM     41  C   UNL A   1      41.690  28.652  31.689  1.00  0.00     0.074 A 
ATOM     42  C   UNL A   1      39.857  29.718  30.411  1.00  0.00     0.049 A 
ATOM     43  N   UNL A   1      41.655  29.344  32.797  1.00  0.00    -0.248 NA
ATOM     44  C   UNL A   1      42.694  27.575  31.685  1.00  0.00     0.031 C 
ATOM     45  C   UNL A   1      38.936  29.918  29.290  1.00  0.00     0.029 A 
ATOM     46  N   UNL A   1      39.472  30.659  31.331  1.00  0.00    -0.354 N 
ATOM     47  C   UNL A   1      42.619  28.782  33.626  1.00  0.00     0.074 A 
ATOM     48  C   UNL A   1      43.190  27.662  32.911  1.00  0.00     0.031 C 
ATOM     49  C   UNL A   1      38.111  30.939  29.576  1.00  0.00     0.029 A 
ATOM     50  C   UNL A   1      38.424  31.444  30.909  1.00  0.00     0.049 A 
ATOM     51  H   UNL A   1      39.903  30.763  32.209  1.00  0.00     0.167 HD
ATOM     52  C   UNL A   1      43.006  29.174  34.864  1.00  0.00     0.031 A 
ATOM     53  C   UNL A   1      37.792  32.461  31.525  1.00  0.00     0.031 A 
ATOM     54  C   UNL A   1      42.447  30.299  35.564  1.00  0.00     0.049 A 
ATOM     55  C   UNL A   1      38.255  32.891  32.889  1.00  0.00     0.074 A 
ATOM     56  C   UNL A   1      42.812  30.816  36.794  1.00  0.00     0.029 A 
ATOM     57  N   UNL A   1      41.401  31.081  35.095  1.00  0.00    -0.354 N 
ATOM     58  N   UNL A   1      39.219  32.393  33.625  1.00  0.00    -0.248 NA
ATOM     59  C   UNL A   1      37.557  34.032  33.495  1.00  0.00     0.031 C 
ATOM     60  C   UNL A   1      41.958  31.885  37.089  1.00  0.00     0.029 A 
ATOM     61  C   UNL A   1      41.095  32.065  36.019  1.00  0.00     0.049 A 
ATOM     62  H   UNL A   1      40.944  30.955  34.232  1.00  0.00     0.167 HD
ATOM     63  C   UNL A   1      39.258  33.174  34.774  1.00  0.00     0.074 A 
ATOM     64  C   UNL A   1      38.234  34.188  34.625  1.00  0.00     0.031 C 
ATOM     65  C   UNL A   1      40.068  33.062  35.856  1.00  0.00     0.031 A 
BRANCH  52  66
ATOM     66  C   UNL A   1      44.091  28.377  35.538  1.00  0.00    -0.014 A 
ATOM     67  C   UNL A   1      45.447  28.711  35.373  1.00  0.00     0.010 A 
ATOM     68  C   UNL A   1      43.749  27.305  36.382  1.00  0.00     0.010 A 
ATOM     69  C   UNL A   1      46.444  27.964  36.007  1.00  0.00     0.020 A 
ATOM     70  C   UNL A   1      44.742  26.571  37.039  1.00  0.00     0.020 A 
ATOM     71  C   UNL A   1      46.084  26.895  36.834  1.00  0.00     0.054 A 
BRANCH  71  72
ATOM     72  S   UNL A   1      47.396  25.959  37.666  1.00  0.00     0.124 S 
ATOM     73  O   UNL A   1      46.627  25.070  38.533  1.00  0.00    -0.237 OA
ATOM     74  O   UNL A   1      48.084  25.310  36.553  1.00  0.00    -0.237 OA
ATOM     75  O   UNL A   1      48.170  26.987  38.359  1.00  0.00    -0.744 OA
ENDBRANCH  71  72
ENDBRANCH  52  66
BRANCH  53  76
ATOM     76  C   UNL A   1      36.665  33.154  30.844  1.00  0.00    -0.014 A 
ATOM     77  C   UNL A   1      36.913  34.056  29.794  1.00  0.00     0.010 A 
ATOM     78  C   UNL A   1      35.337  32.903  31.232  1.00  0.00     0.010 A 
ATOM     79  C   UNL A   1      35.853  34.712  29.159  1.00  0.00     0.020 A 
ATOM     80  C   UNL A   1      34.274  33.536  30.583  1.00  0.00     0.020 A 
ATOM     81  C   UNL A   1      34.540  34.447  29.558  1.00  0.00     0.054 A 
BRANCH  81  82
ATOM     82  S   UNL A   1      33.176  35.270  28.688  1.00  0.00     0.124 S 
ATOM     83  O   UNL A   1      32.429  35.866  29.791  1.00  0.00    -0.237 OA
ATOM     84  O   UNL A   1      33.877  36.210  27.817  1.00  0.00    -0.237 OA
ATOM     85  O   UNL A   1      32.504  34.174  27.995  1.00  0.00    -0.744 OA
ENDBRANCH  81  82
ENDBRANCH  53  76
BRANCH  65  86
ATOM     86  C   UNL A   1      39.895  34.079  36.952  1.00  0.00    -0.014 A 
ATOM     87  C   UNL A   1      40.471  35.358  36.852  1.00  0.00     0.010 A 
ATOM     88  C   UNL A   1      39.116  33.760  38.079  1.00  0.00     0.010 A 
ATOM     89  C   UNL A   1      40.302  36.289  37.881  1.00  0.00     0.020 A 
ATOM     90  C   UNL A   1      38.923  34.697  39.097  1.00  0.00     0.020 A 
ATOM     91  C   UNL A   1      39.533  35.950  38.998  1.00  0.00     0.054 A 
BRANCH  91  92
ATOM     92  S   UNL A   1      39.303  37.183  40.308  1.00  0.00     0.124 S 
ATOM     93  O   UNL A   1      38.558  38.229  39.611  1.00  0.00    -0.237 OA
ATOM     94  O   UNL A   1      38.552  36.445  41.319  1.00  0.00    -0.237 OA
ATOM     95  O   UNL A   1      40.668  37.539  40.691  1.00  0.00    -0.744 OA
ENDBRANCH  91  92
ENDBRANCH  65  86
ENDBRANCH  39  40
ENDBRANCH  31  34
ENDBRANCH  29  30
ENDBRANCH  28  29
ENDBRANCH  27  28
ENDBRANCH  26  27
ENDBRANCH   1  26
TORSDOF 22
ENDMDL
MODEL 3
REMARK VINA RESULT:      -9.6      5.273      9.453
REMARK SMILES CC(C)[C@H](NC(=O)CCNC(=O)c1ccoc1)C(=O)NCCCCCCNC(=O)c1ccc(-c2c3nc(c(-c4ccc(S(=O)(=O)[O-])cc4)c4ccc([nH]4)c(-c4ccc(S(=O)(=O)[O-])cc4)c4nc(c(-c5ccc(S(=O)(=O)[O-])cc5)c5ccc2[nH]5)C=C4)C=C3)cc1
REMARK SMILES IDX 22 1 21 2 20 3 18 4 19 5 4 7 2 8 1 9 3 10 5 11 6 12 7 14
REMARK SMILES IDX 8 15 9 16 10 17 11 18 12 20 13 21 14 22 17 23 15 24 16 25
REMARK SMILES IDX 23 26 24 27 25 28 26 29 27 30 28 31 29 33 30 34 31 35 89 36
REMARK SMILES IDX 32 37 88 38 33 39 34 40 35 41 82 42 36 43 87 44 81 45 83 46
REMARK SMILES IDX 37 47 86 48 80 49 79 50 38 52 68 53 49 54 67 55 50 56 53 57
REMARK SMILES IDX 66 58 84 59 51 60 52 61 65 63 85 64 54 65 39 66 40 67 48 68
REMARK SMILES IDX 41 69 47 70 42 71 43 72 44 73 45 74 46 75 69 76 70 77 78 78
REMARK SMILES IDX 71 79 77 80 72 81 73 82 74 83 75 84 76 85 55 86 56 87 64 88
REMARK SMILES IDX 57 89 63 90 58 91 59 92 60 93 61 94 62 95
REMARK H PARENT 20 6 5 13 10 19 27 32 83 51 53 62
REMARK Flexibility Score: inf
ROOT
ATOM      1  C   UNL A   1      32.317  26.711  26.244  1.00  0.00     0.021 C 
ENDROOT
BRANCH   1   2
ATOM      2  C   UNL A   1      30.811  26.840  26.085  1.00  0.00     0.116 C 
BRANCH   2   3
ATOM      3  N   UNL A   1      30.286  25.912  25.095  1.00  0.00    -0.354 N 
ATOM      4  C   UNL A   1      30.399  25.886  23.735  1.00  0.00     0.242 C 
ATOM      5  O   UNL A   1      30.127  24.826  23.163  1.00  0.00    -0.273 OA
ATOM      6  H   UNL A   1      29.757  25.174  25.472  1.00  0.00     0.163 HD
BRANCH   4   7
ATOM      7  C   UNL A   1      30.953  27.084  22.933  1.00  0.00     0.173 C 
BRANCH   7   8
ATOM      8  C   UNL A   1      29.913  28.221  22.747  1.00  0.00     0.015 C 
ATOM      9  C   UNL A   1      28.457  27.916  23.091  1.00  0.00     0.010 C 
ATOM     10  C   UNL A   1      30.346  29.476  23.516  1.00  0.00     0.010 C 
ENDBRANCH   7   8
BRANCH   7  11
ATOM     11  N   UNL A   1      31.614  26.610  21.710  1.00  0.00    -0.344 N 
ATOM     12  C   UNL A   1      32.782  25.953  21.513  1.00  0.00     0.222 C 
ATOM     13  H   UNL A   1      31.118  26.807  20.883  1.00  0.00     0.164 HD
ATOM     14  O   UNL A   1      33.067  25.594  20.370  1.00  0.00    -0.275 OA
BRANCH  12  15
ATOM     15  C   UNL A   1      33.696  25.660  22.667  1.00  0.00     0.121 C 
BRANCH  15  16
ATOM     16  C   UNL A   1      33.837  24.166  22.862  1.00  0.00     0.126 C 
BRANCH  16  17
ATOM     17  N   UNL A   1      33.705  23.774  24.250  1.00  0.00    -0.351 N 
ATOM     18  C   UNL A   1      33.048  22.594  24.533  1.00  0.00     0.254 C 
ATOM     19  H   UNL A   1      34.074  24.334  24.971  1.00  0.00     0.163 HD
ATOM     20  O   UNL A   1      33.031  21.621  23.796  1.00  0.00    -0.269 OA
BRANCH  18  21
ATOM     21  C   UNL A   1      32.169  22.731  25.667  1.00  0.00     0.077 A 
ATOM     22  C   UNL A   1      30.789  22.393  25.675  1.00  0.00     0.056 A 
ATOM     23  C   UNL A   1      32.427  23.308  26.890  1.00  0.00     0.208 A 
ATOM     24  C   UNL A   1      30.291  22.841  26.872  1.00  0.00     0.195 A 
ATOM     25  O   UNL A   1      31.284  23.387  27.623  1.00  0.00    -0.472 OA
ENDBRANCH  18  21
ENDBRANCH  16  17
ENDBRANCH  15  16
ENDBRANCH  12  15
ENDBRANCH   7  11
ENDBRANCH   4   7
ENDBRANCH   2   3
ENDBRANCH   1   2
BRANCH   1  26
ATOM     26  C   UNL A   1      33.080  27.949  25.763  1.00  0.00     0.002 C 
BRANCH  26  27
ATOM     27  C   UNL A   1      34.421  28.208  26.463  1.00  0.00     0.002 C 
BRANCH  27  28
ATOM     28  C   UNL A   1      34.374  29.171  27.656  1.00  0.00     0.021 C 
BRANCH  28  29
ATOM     29  C   UNL A   1      34.958  30.554  27.394  1.00  0.00     0.116 C 
BRANCH  29  30
ATOM     30  N   UNL A   1      34.491  31.543  28.348  1.00  0.00    -0.352 N 
ATOM     31  C   UNL A   1      35.015  31.892  29.563  1.00  0.00     0.251 C 
ATOM     32  H   UNL A   1      33.679  32.034  28.082  1.00  0.00     0.163 HD
ATOM     33  O   UNL A   1      34.404  32.670  30.289  1.00  0.00    -0.269 OA
BRANCH  31  34
ATOM     34  C   UNL A   1      36.298  31.311  30.008  1.00  0.00     0.039 A 
ATOM     35  C   UNL A   1      37.482  31.912  29.576  1.00  0.00     0.014 A 
ATOM     36  C   UNL A   1      36.339  30.178  30.827  1.00  0.00     0.014 A 
ATOM     37  C   UNL A   1      38.710  31.399  29.996  1.00  0.00     0.010 A 
ATOM     38  C   UNL A   1      37.562  29.707  31.296  1.00  0.00     0.010 A 
ATOM     39  C   UNL A   1      38.759  30.306  30.876  1.00  0.00    -0.014 A 
BRANCH  39  40
ATOM     40  C   UNL A   1      40.060  29.779  31.352  1.00  0.00     0.031 A 
ATOM     41  C   UNL A   1      40.718  30.369  32.569  1.00  0.00     0.074 A 
ATOM     42  C   UNL A   1      40.663  28.788  30.665  1.00  0.00     0.049 A 
ATOM     43  N   UNL A   1      41.848  30.036  33.136  1.00  0.00    -0.248 NA
ATOM     44  C   UNL A   1      40.028  31.495  33.221  1.00  0.00     0.031 C 
ATOM     45  C   UNL A   1      40.146  28.171  29.441  1.00  0.00     0.029 A 
ATOM     46  N   UNL A   1      41.841  28.126  30.900  1.00  0.00    -0.354 N 
ATOM     47  C   UNL A   1      42.012  30.915  34.200  1.00  0.00     0.074 A 
ATOM     48  C   UNL A   1      40.889  31.826  34.173  1.00  0.00     0.031 C 
ATOM     49  C   UNL A   1      40.988  27.201  29.049  1.00  0.00     0.029 A 
ATOM     50  C   UNL A   1      42.116  27.148  29.975  1.00  0.00     0.049 A 
ATOM     51  H   UNL A   1      42.433  28.332  31.659  1.00  0.00     0.167 HD
ATOM     52  C   UNL A   1      42.999  30.949  35.128  1.00  0.00     0.031 A 
ATOM     53  C   UNL A   1      43.157  26.298  29.885  1.00  0.00     0.031 A 
ATOM     54  C   UNL A   1      44.105  30.029  35.160  1.00  0.00     0.049 A 
ATOM     55  C   UNL A   1      44.228  26.341  30.939  1.00  0.00     0.074 A 
ATOM     56  C   UNL A   1      45.123  29.940  36.093  1.00  0.00     0.029 A 
ATOM     57  N   UNL A   1      44.338  29.040  34.217  1.00  0.00    -0.354 N 
ATOM     58  N   UNL A   1      44.327  27.132  31.980  1.00  0.00    -0.248 NA
ATOM     59  C   UNL A   1      45.318  25.365  30.815  1.00  0.00     0.031 C 
ATOM     60  C   UNL A   1      45.996  28.924  35.690  1.00  0.00     0.029 A 
ATOM     61  C   UNL A   1      45.493  28.347  34.534  1.00  0.00     0.049 A 
ATOM     62  H   UNL A   1      43.765  28.856  33.437  1.00  0.00     0.167 HD
ATOM     63  C   UNL A   1      45.479  26.734  32.648  1.00  0.00     0.074 A 
ATOM     64  C   UNL A   1      46.030  25.620  31.903  1.00  0.00     0.031 C 
ATOM     65  C   UNL A   1      46.030  27.245  33.777  1.00  0.00     0.031 A 
BRANCH  52  66
ATOM     66  C   UNL A   1      42.924  32.018  36.185  1.00  0.00    -0.014 A 
ATOM     67  C   UNL A   1      42.258  31.789  37.403  1.00  0.00     0.010 A 
ATOM     68  C   UNL A   1      43.562  33.254  35.977  1.00  0.00     0.010 A 
ATOM     69  C   UNL A   1      42.199  32.790  38.377  1.00  0.00     0.020 A 
ATOM     70  C   UNL A   1      43.527  34.249  36.959  1.00  0.00     0.020 A 
ATOM     71  C   UNL A   1      42.830  34.015  38.146  1.00  0.00     0.054 A 
BRANCH  71  72
ATOM     72  S   UNL A   1      42.760  35.287  39.438  1.00  0.00     0.124 S 
ATOM     73  O   UNL A   1      42.472  34.491  40.628  1.00  0.00    -0.237 OA
ATOM     74  O   UNL A   1      44.096  35.875  39.384  1.00  0.00    -0.237 OA
ATOM     75  O   UNL A   1      41.678  36.166  39.000  1.00  0.00    -0.744 OA
ENDBRANCH  71  72
ENDBRANCH  52  66
BRANCH  53  76
ATOM     76  C   UNL A   1      43.223  25.321  28.764  1.00  0.00    -0.014 A 
ATOM     77  C   UNL A   1      43.842  25.668  27.550  1.00  0.00     0.010 A 
ATOM     78  C   UNL A   1      42.679  24.033  28.912  1.00  0.00     0.010 A 
ATOM     79  C   UNL A   1      43.897  24.751  26.496  1.00  0.00     0.020 A 
ATOM     80  C   UNL A   1      42.754  23.105  27.870  1.00  0.00     0.020 A 
ATOM     81  C   UNL A   1      43.352  23.475  26.663  1.00  0.00     0.054 A 
BRANCH  81  82
ATOM     82  S   UNL A   1      43.478  22.282  25.301  1.00  0.00     0.124 S 
ATOM     83  O   UNL A   1      44.807  21.719  25.513  1.00  0.00    -0.237 OA
ATOM     84  O   UNL A   1      42.359  21.381  25.564  1.00  0.00    -0.237 OA
ATOM     85  O   UNL A   1      43.331  23.112  24.107  1.00  0.00    -0.744 OA
ENDBRANCH  81  82
ENDBRANCH  53  76
BRANCH  65  86
ATOM     86  C   UNL A   1      47.282  26.585  34.288  1.00  0.00    -0.014 A 
ATOM     87  C   UNL A   1      47.219  25.493  35.173  1.00  0.00     0.010 A 
ATOM     88  C   UNL A   1      48.538  27.042  33.848  1.00  0.00     0.010 A 
ATOM     89  C   UNL A   1      48.392  24.895  35.639  1.00  0.00     0.020 A 
ATOM     90  C   UNL A   1      49.712  26.429  34.292  1.00  0.00     0.020 A 
ATOM     91  C   UNL A   1      49.631  25.370  35.199  1.00  0.00     0.054 A 
BRANCH  91  92
ATOM     92  S   UNL A   1      51.140  24.560  35.795  1.00  0.00     0.124 S 
ATOM     93  O   UNL A   1      50.758  23.150  35.767  1.00  0.00    -0.237 OA
ATOM     94  O   UNL A   1      52.135  24.961  34.804  1.00  0.00    -0.237 OA
ATOM     95  O   UNL A   1      51.334  25.127  37.128  1.00  0.00    -0.744 OA
ENDBRANCH  91  92
ENDBRANCH  65  86
ENDBRANCH  39  40
ENDBRANCH  31  34
ENDBRANCH  29  30
ENDBRANCH  28  29
ENDBRANCH  27  28
ENDBRANCH  26  27
ENDBRANCH   1  26
TORSDOF 22
ENDMDL
