MODEL 1
REMARK VINA RESULT:     -10.6      0.000      0.000
REMARK SMILES O=C(NCCCCCCNC(=O)[C@@H](Cc1ccccc1)Nc1ccc(Cl)c(Br)c1)c1ccc(-c2c3nc(c(-c4ccc(S(=O)(=O)[O-])cc4)c4ccc([nH]4)c(-c4ccc(S(=O)(=O)[O-])cc4)c4nc(c(-c5ccc(S(=O)(=O)[O-])cc5)c5ccc2[nH]5)C=C4)C=C3)cc1
REMARK SMILES IDX 6 1 5 2 4 3 3 4 1 5 2 6 30 8 31 9 89 10 32 11 88 12 33 13
REMARK SMILES IDX 34 14 35 15 82 16 36 17 87 18 81 19 83 20 37 21 86 22 80 23
REMARK SMILES IDX 79 24 38 26 68 27 49 28 67 29 50 30 53 31 66 32 84 33 51 34
REMARK SMILES IDX 52 35 65 37 85 38 54 39 39 40 40 41 48 42 41 43 47 44 42 45
REMARK SMILES IDX 43 46 44 47 45 48 46 49 69 50 70 51 78 52 71 53 77 54 72 55
REMARK SMILES IDX 73 56 74 57 75 58 76 59 55 60 56 61 64 62 57 63 63 64 58 65
REMARK SMILES IDX 59 66 60 67 61 68 62 69 7 70 8 71 9 72 10 73 11 74 12 76
REMARK SMILES IDX 13 77 14 78 15 79 16 80 20 81 17 82 19 83 18 84 21 85 22 87
REMARK SMILES IDX 23 88 29 89 24 90 27 91 25 92 28 93 26 94
REMARK H PARENT 3 7 83 25 53 36 10 75 21 86
REMARK Flexibility Score: inf
ROOT
ATOM      1  C   UNL A   1      35.183  22.152  24.447  1.00  0.00     0.002 C 
ENDROOT
BRANCH   1   2
ATOM      2  C   UNL A   1      35.225  23.523  25.126  1.00  0.00     0.021 C 
BRANCH   2   3
ATOM      3  C   UNL A   1      36.368  23.701  26.119  1.00  0.00     0.116 C 
BRANCH   3   4
ATOM      4  N   UNL A   1      37.310  22.594  26.060  1.00  0.00    -0.352 N 
ATOM      5  O   UNL A   1      39.323  21.609  25.834  1.00  0.00    -0.269 OA
ATOM      6  C   UNL A   1      38.680  22.603  26.156  1.00  0.00     0.251 C 
ATOM      7  H   UNL A   1      36.904  21.706  25.931  1.00  0.00     0.163 HD
BRANCH   6   8
ATOM      8  C   UNL A   1      39.373  23.813  26.646  1.00  0.00     0.039 A 
ATOM      9  C   UNL A   1      39.655  23.964  28.004  1.00  0.00     0.014 A 
ATOM     10  C   UNL A   1      39.775  24.795  25.735  1.00  0.00     0.014 A 
ATOM     11  C   UNL A   1      40.203  25.152  28.470  1.00  0.00     0.010 A 
ATOM     12  C   UNL A   1      40.419  25.949  26.194  1.00  0.00     0.010 A 
ATOM     13  C   UNL A   1      40.618  26.147  27.569  1.00  0.00    -0.014 A 
BRANCH  13  14
ATOM     14  C   UNL A   1      41.330  27.339  28.098  1.00  0.00     0.031 A 
ATOM     15  C   UNL A   1      42.826  27.465  28.006  1.00  0.00     0.074 A 
ATOM     16  C   UNL A   1      40.596  28.340  28.625  1.00  0.00     0.049 A 
ATOM     17  N   UNL A   1      43.587  28.465  28.374  1.00  0.00    -0.248 NA
ATOM     18  C   UNL A   1      43.566  26.328  27.436  1.00  0.00     0.031 C 
ATOM     19  C   UNL A   1      39.138  28.323  28.779  1.00  0.00     0.029 A 
ATOM     20  N   UNL A   1      40.963  29.571  29.103  1.00  0.00    -0.354 N 
ATOM     21  C   UNL A   1      44.891  28.082  28.082  1.00  0.00     0.074 A 
ATOM     22  C   UNL A   1      44.823  26.740  27.545  1.00  0.00     0.031 C 
ATOM     23  C   UNL A   1      38.731  29.506  29.263  1.00  0.00     0.029 A 
ATOM     24  C   UNL A   1      39.900  30.337  29.522  1.00  0.00     0.049 A 
ATOM     25  H   UNL A   1      41.897  29.879  29.143  1.00  0.00     0.167 HD
ATOM     26  C   UNL A   1      46.037  28.790  28.237  1.00  0.00     0.031 A 
ATOM     27  C   UNL A   1      39.864  31.564  30.073  1.00  0.00     0.031 A 
ATOM     28  C   UNL A   1      46.098  30.119  28.791  1.00  0.00     0.049 A 
ATOM     29  C   UNL A   1      41.155  32.303  30.277  1.00  0.00     0.074 A 
ATOM     30  C   UNL A   1      47.211  30.920  28.987  1.00  0.00     0.029 A 
ATOM     31  N   UNL A   1      45.004  30.846  29.239  1.00  0.00    -0.354 N 
ATOM     32  N   UNL A   1      42.373  31.932  29.967  1.00  0.00    -0.248 NA
ATOM     33  C   UNL A   1      41.063  33.630  30.899  1.00  0.00     0.031 C 
ATOM     34  C   UNL A   1      46.796  32.106  29.601  1.00  0.00     0.029 A 
ATOM     35  C   UNL A   1      45.417  32.075  29.726  1.00  0.00     0.049 A 
ATOM     36  H   UNL A   1      44.071  30.532  29.214  1.00  0.00     0.167 HD
ATOM     37  C   UNL A   1      43.195  32.990  30.338  1.00  0.00     0.074 A 
ATOM     38  C   UNL A   1      42.328  34.024  30.867  1.00  0.00     0.031 C 
ATOM     39  C   UNL A   1      44.544  33.093  30.255  1.00  0.00     0.031 A 
BRANCH  26  40
ATOM     40  C   UNL A   1      47.328  28.137  27.810  1.00  0.00    -0.014 A 
ATOM     41  C   UNL A   1      47.853  28.347  26.522  1.00  0.00     0.010 A 
ATOM     42  C   UNL A   1      48.060  27.358  28.724  1.00  0.00     0.010 A 
ATOM     43  C   UNL A   1      49.067  27.766  26.147  1.00  0.00     0.020 A 
ATOM     44  C   UNL A   1      49.289  26.797  28.362  1.00  0.00     0.020 A 
ATOM     45  C   UNL A   1      49.778  26.994  27.069  1.00  0.00     0.054 A 
BRANCH  45  46
ATOM     46  S   UNL A   1      51.366  26.279  26.562  1.00  0.00     0.124 S 
ATOM     47  O   UNL A   1      51.248  24.907  27.051  1.00  0.00    -0.237 OA
ATOM     48  O   UNL A   1      51.334  26.431  25.109  1.00  0.00    -0.237 OA
ATOM     49  O   UNL A   1      52.356  27.102  27.252  1.00  0.00    -0.744 OA
ENDBRANCH  45  46
ENDBRANCH  26  40
BRANCH  27  50
ATOM     50  C   UNL A   1      38.563  32.148  30.502  1.00  0.00    -0.014 A 
ATOM     51  C   UNL A   1      38.109  32.016  31.825  1.00  0.00     0.010 A 
ATOM     52  C   UNL A   1      37.768  32.845  29.572  1.00  0.00     0.010 A 
ATOM     53  C   UNL A   1      36.868  32.538  32.202  1.00  0.00     0.020 A 
ATOM     54  C   UNL A   1      36.545  33.401  29.954  1.00  0.00     0.020 A 
ATOM     55  C   UNL A   1      36.094  33.227  31.263  1.00  0.00     0.054 A 
BRANCH  55  56
ATOM     56  S   UNL A   1      34.497  33.915  31.778  1.00  0.00     0.124 S 
ATOM     57  O   UNL A   1      33.894  34.268  30.497  1.00  0.00    -0.237 OA
ATOM     58  O   UNL A   1      33.882  32.793  32.481  1.00  0.00    -0.237 OA
ATOM     59  O   UNL A   1      34.871  35.044  32.627  1.00  0.00    -0.744 OA
ENDBRANCH  55  56
ENDBRANCH  27  50
BRANCH  39  60
ATOM     60  C   UNL A   1      45.160  34.389  30.714  1.00  0.00    -0.014 A 
ATOM     61  C   UNL A   1      45.592  34.564  32.041  1.00  0.00     0.010 A 
ATOM     62  C   UNL A   1      45.330  35.440  29.794  1.00  0.00     0.010 A 
ATOM     63  C   UNL A   1      46.137  35.784  32.452  1.00  0.00     0.020 A 
ATOM     64  C   UNL A   1      45.906  36.648  30.192  1.00  0.00     0.020 A 
ATOM     65  C   UNL A   1      46.289  36.818  31.524  1.00  0.00     0.054 A 
BRANCH  65  66
ATOM     66  S   UNL A   1      47.022  38.383  32.076  1.00  0.00     0.124 S 
ATOM     67  O   UNL A   1      46.069  38.824  33.090  1.00  0.00    -0.237 OA
ATOM     68  O   UNL A   1      48.328  37.963  32.579  1.00  0.00    -0.237 OA
ATOM     69  O   UNL A   1      47.061  39.195  30.861  1.00  0.00    -0.744 OA
ENDBRANCH  65  66
ENDBRANCH  39  60
ENDBRANCH  13  14
ENDBRANCH   6   8
ENDBRANCH   3   4
ENDBRANCH   2   3
ENDBRANCH   1   2
BRANCH   1  70
ATOM     70  C   UNL A   1      34.476  21.048  25.243  1.00  0.00     0.002 C 
BRANCH  70  71
ATOM     71  C   UNL A   1      33.297  21.531  26.088  1.00  0.00     0.021 C 
BRANCH  71  72
ATOM     72  C   UNL A   1      32.072  21.933  25.271  1.00  0.00     0.116 C 
BRANCH  72  73
ATOM     73  N   UNL A   1      30.940  22.165  26.142  1.00  0.00    -0.354 N 
ATOM     74  C   UNL A   1      30.399  23.324  26.609  1.00  0.00     0.242 C 
ATOM     75  H   UNL A   1      30.486  21.348  26.449  1.00  0.00     0.163 HD
ATOM     76  O   UNL A   1      29.580  23.213  27.531  1.00  0.00    -0.273 OA
BRANCH  74  77
ATOM     77  C   UNL A   1      30.722  24.719  26.017  1.00  0.00     0.173 C 
BRANCH  77  78
ATOM     78  C   UNL A   1      32.159  25.230  26.262  1.00  0.00     0.070 C 
BRANCH  78  79
ATOM     79  C   UNL A   1      32.460  26.702  26.449  1.00  0.00    -0.045 A 
ATOM     80  C   UNL A   1      33.727  27.208  26.118  1.00  0.00     0.004 A 
ATOM     81  C   UNL A   1      31.528  27.577  27.025  1.00  0.00     0.004 A 
ATOM     82  C   UNL A   1      34.026  28.565  26.286  1.00  0.00     0.000 A 
ATOM     83  C   UNL A   1      31.816  28.937  27.170  1.00  0.00     0.000 A 
ATOM     84  C   UNL A   1      33.061  29.433  26.793  1.00  0.00     0.000 A 
ENDBRANCH  78  79
ENDBRANCH  77  78
BRANCH  77  85
ATOM     85  N   UNL A   1      30.234  24.838  24.632  1.00  0.00    -0.373 N 
ATOM     86  H   UNL A   1      30.294  24.044  24.053  1.00  0.00     0.161 HD
BRANCH  85  87
ATOM     87  C   UNL A   1      29.696  25.993  24.092  1.00  0.00     0.036 A 
ATOM     88  C   UNL A   1      28.311  26.185  24.164  1.00  0.00     0.027 A 
ATOM     89  C   UNL A   1      30.461  26.990  23.479  1.00  0.00     0.043 A 
ATOM     90  C   UNL A   1      27.709  27.352  23.681  1.00  0.00     0.024 A 
ATOM     91  C   UNL A   1      29.868  28.164  22.987  1.00  0.00     0.038 A 
ATOM     92  C   UNL A   1      28.489  28.349  23.097  1.00  0.00     0.055 A 
ATOM     93  Br  UNL A   1      31.013  29.456  22.192  1.00  0.00    -0.049 Br
ATOM     94  Cl  UNL A   1      27.684  29.774  22.544  1.00  0.00    -0.083 Cl
ENDBRANCH  85  87
ENDBRANCH  77  85
ENDBRANCH  74  77
ENDBRANCH  72  73
ENDBRANCH  71  72
ENDBRANCH  70  71
ENDBRANCH   1  70
TORSDOF 20
ENDMDL
MODEL 2
REMARK VINA RESULT:     -10.2      4.811      6.042
REMARK SMILES O=C(NCCCCCCNC(=O)[C@@H](Cc1ccccc1)Nc1ccc(Cl)c(Br)c1)c1ccc(-c2c3nc(c(-c4ccc(S(=O)(=O)[O-])cc4)c4ccc([nH]4)c(-c4ccc(S(=O)(=O)[O-])cc4)c4nc(c(-c5ccc(S(=O)(=O)[O-])cc5)c5ccc2[nH]5)C=C4)C=C3)cc1
REMARK SMILES IDX 6 1 5 2 4 3 3 4 1 5 2 6 30 8 31 9 89 10 32 11 88 12 33 13
REMARK SMILES IDX 34 14 35 15 82 16 36 17 87 18 81 19 83 20 37 21 86 22 80 23
REMARK SMILES IDX 79 24 38 26 68 27 49 28 67 29 50 30 53 31 66 32 84 33 51 34
REMARK SMILES IDX 52 35 65 37 85 38 54 39 39 40 40 41 48 42 41 43 47 44 42 45
REMARK SMILES IDX 43 46 44 47 45 48 46 49 69 50 70 51 78 52 71 53 77 54 72 55
REMARK SMILES IDX 73 56 74 57 75 58 76 59 55 60 56 61 64 62 57 63 63 64 58 65
REMARK SMILES IDX 59 66 60 67 61 68 62 69 7 70 8 71 9 72 10 73 11 74 12 76
REMARK SMILES IDX 13 77 14 78 15 79 16 80 20 81 17 82 19 83 18 84 21 85 22 87
REMARK SMILES IDX 23 88 29 89 24 90 27 91 25 92 28 93 26 94
REMARK H PARENT 3 7 83 25 53 36 10 75 21 86
REMARK Flexibility Score: inf
ROOT
ATOM      1  C   UNL A   1      37.143  22.655  25.626  1.00  0.00     0.002 C 
ENDROOT
BRANCH   1   2
ATOM      2  C   UNL A   1      38.536  22.849  26.230  1.00  0.00     0.021 C 
BRANCH   2   3
ATOM      3  C   UNL A   1      38.927  24.305  26.460  1.00  0.00     0.116 C 
BRANCH   3   4
ATOM      4  N   UNL A   1      40.157  24.648  25.763  1.00  0.00    -0.352 N 
ATOM      5  O   UNL A   1      41.844  25.981  25.093  1.00  0.00    -0.269 OA
ATOM      6  C   UNL A   1      40.992  25.724  25.937  1.00  0.00     0.251 C 
ATOM      7  H   UNL A   1      40.432  24.013  25.061  1.00  0.00     0.163 HD
BRANCH   6   8
ATOM      8  C   UNL A   1      40.855  26.571  27.141  1.00  0.00     0.039 A 
ATOM      9  C   UNL A   1      41.303  27.893  27.128  1.00  0.00     0.014 A 
ATOM     10  C   UNL A   1      40.244  26.050  28.286  1.00  0.00     0.014 A 
ATOM     11  C   UNL A   1      41.275  28.644  28.296  1.00  0.00     0.010 A 
ATOM     12  C   UNL A   1      40.124  26.843  29.432  1.00  0.00     0.010 A 
ATOM     13  C   UNL A   1      40.660  28.140  29.454  1.00  0.00    -0.014 A 
BRANCH  13  14
ATOM     14  C   UNL A   1      40.523  29.029  30.636  1.00  0.00     0.031 A 
ATOM     15  C   UNL A   1      41.444  28.912  31.819  1.00  0.00     0.074 A 
ATOM     16  C   UNL A   1      39.575  29.988  30.608  1.00  0.00     0.049 A 
ATOM     17  N   UNL A   1      41.485  29.647  32.901  1.00  0.00    -0.248 NA
ATOM     18  C   UNL A   1      42.444  27.831  31.792  1.00  0.00     0.031 C 
ATOM     19  C   UNL A   1      38.614  30.189  29.519  1.00  0.00     0.029 A 
ATOM     20  N   UNL A   1      39.277  30.987  31.498  1.00  0.00    -0.354 N 
ATOM     21  C   UNL A   1      42.509  29.124  33.683  1.00  0.00     0.074 A 
ATOM     22  C   UNL A   1      43.037  27.981  32.969  1.00  0.00     0.031 C 
ATOM     23  C   UNL A   1      37.871  31.274  29.779  1.00  0.00     0.029 A 
ATOM     24  C   UNL A   1      38.251  31.803  31.084  1.00  0.00     0.049 A 
ATOM     25  H   UNL A   1      39.751  31.108  32.352  1.00  0.00     0.167 HD
ATOM     26  C   UNL A   1      42.972  29.564  34.878  1.00  0.00     0.031 A 
ATOM     27  C   UNL A   1      37.662  32.851  31.690  1.00  0.00     0.031 A 
ATOM     28  C   UNL A   1      42.427  30.692  35.591  1.00  0.00     0.049 A 
ATOM     29  C   UNL A   1      38.166  33.285  33.036  1.00  0.00     0.074 A 
ATOM     30  C   UNL A   1      42.829  31.216  36.809  1.00  0.00     0.029 A 
ATOM     31  N   UNL A   1      41.364  31.469  35.157  1.00  0.00    -0.354 N 
ATOM     32  N   UNL A   1      39.154  32.791  33.742  1.00  0.00    -0.248 NA
ATOM     33  C   UNL A   1      37.478  34.420  33.662  1.00  0.00     0.031 C 
ATOM     34  C   UNL A   1      41.975  32.276  37.134  1.00  0.00     0.029 A 
ATOM     35  C   UNL A   1      41.084  32.456  36.088  1.00  0.00     0.049 A 
ATOM     36  H   UNL A   1      40.878  31.338  34.310  1.00  0.00     0.167 HD
ATOM     37  C   UNL A   1      39.221  33.571  34.891  1.00  0.00     0.074 A 
ATOM     38  C   UNL A   1      38.192  34.584  34.767  1.00  0.00     0.031 C 
ATOM     39  C   UNL A   1      40.053  33.455  35.954  1.00  0.00     0.031 A 
BRANCH  26  40
ATOM     40  C   UNL A   1      44.125  28.817  35.502  1.00  0.00    -0.014 A 
ATOM     41  C   UNL A   1      43.900  27.806  36.455  1.00  0.00     0.010 A 
ATOM     42  C   UNL A   1      45.442  29.079  35.085  1.00  0.00     0.010 A 
ATOM     43  C   UNL A   1      44.972  27.096  37.001  1.00  0.00     0.020 A 
ATOM     44  C   UNL A   1      46.516  28.351  35.609  1.00  0.00     0.020 A 
ATOM     45  C   UNL A   1      46.275  27.373  36.576  1.00  0.00     0.054 A 
BRANCH  45  46
ATOM     46  S   UNL A   1      47.642  26.411  37.281  1.00  0.00     0.124 S 
ATOM     47  O   UNL A   1      48.135  25.687  36.112  1.00  0.00    -0.237 OA
ATOM     48  O   UNL A   1      48.530  27.451  37.795  1.00  0.00    -0.237 OA
ATOM     49  O   UNL A   1      46.999  25.585  38.299  1.00  0.00    -0.744 OA
ENDBRANCH  45  46
ENDBRANCH  26  40
BRANCH  27  50
ATOM     50  C   UNL A   1      36.509  33.534  31.040  1.00  0.00    -0.014 A 
ATOM     51  C   UNL A   1      36.529  33.846  29.670  1.00  0.00     0.010 A 
ATOM     52  C   UNL A   1      35.377  33.877  31.804  1.00  0.00     0.010 A 
ATOM     53  C   UNL A   1      35.454  34.521  29.085  1.00  0.00     0.020 A 
ATOM     54  C   UNL A   1      34.286  34.517  31.214  1.00  0.00     0.020 A 
ATOM     55  C   UNL A   1      34.339  34.853  29.861  1.00  0.00     0.054 A 
BRANCH  55  56
ATOM     56  S   UNL A   1      32.946  35.709  29.076  1.00  0.00     0.124 S 
ATOM     57  O   UNL A   1      33.602  36.870  28.482  1.00  0.00    -0.237 OA
ATOM     58  O   UNL A   1      32.451  34.709  28.134  1.00  0.00    -0.237 OA
ATOM     59  O   UNL A   1      32.051  35.999  30.194  1.00  0.00    -0.744 OA
ENDBRANCH  55  56
ENDBRANCH  27  50
BRANCH  39  60
ATOM     60  C   UNL A   1      39.908  34.477  37.052  1.00  0.00    -0.014 A 
ATOM     61  C   UNL A   1      39.169  34.199  38.216  1.00  0.00     0.010 A 
ATOM     62  C   UNL A   1      40.540  35.727  36.923  1.00  0.00     0.010 A 
ATOM     63  C   UNL A   1      39.026  35.171  39.210  1.00  0.00     0.020 A 
ATOM     64  C   UNL A   1      40.427  36.689  37.930  1.00  0.00     0.020 A 
ATOM     65  C   UNL A   1      39.655  36.410  39.059  1.00  0.00     0.054 A 
BRANCH  65  66
ATOM     66  S   UNL A   1      39.473  37.646  40.375  1.00  0.00     0.124 S 
ATOM     67  O   UNL A   1      38.652  38.663  39.726  1.00  0.00    -0.237 OA
ATOM     68  O   UNL A   1      38.814  36.888  41.436  1.00  0.00    -0.237 OA
ATOM     69  O   UNL A   1      40.849  38.046  40.665  1.00  0.00    -0.744 OA
ENDBRANCH  65  66
ENDBRANCH  39  60
ENDBRANCH  13  14
ENDBRANCH   6   8
ENDBRANCH   3   4
ENDBRANCH   2   3
ENDBRANCH   1   2
BRANCH   1  70
ATOM     70  C   UNL A   1      37.087  22.655  24.093  1.00  0.00     0.002 C 
BRANCH  70  71
ATOM     71  C   UNL A   1      35.685  22.825  23.510  1.00  0.00     0.021 C 
BRANCH  71  72
ATOM     72  C   UNL A   1      34.700  23.512  24.452  1.00  0.00     0.116 C 
BRANCH  72  73
ATOM     73  N   UNL A   1      33.430  22.818  24.447  1.00  0.00    -0.354 N 
ATOM     74  C   UNL A   1      32.199  23.210  24.876  1.00  0.00     0.242 C 
ATOM     75  H   UNL A   1      33.462  21.909  24.070  1.00  0.00     0.163 HD
ATOM     76  O   UNL A   1      31.343  22.321  24.968  1.00  0.00    -0.273 OA
BRANCH  74  77
ATOM     77  C   UNL A   1      31.833  24.682  25.193  1.00  0.00     0.173 C 
BRANCH  77  78
ATOM     78  C   UNL A   1      32.646  25.341  26.329  1.00  0.00     0.070 C 
BRANCH  78  79
ATOM     79  C   UNL A   1      32.714  26.844  26.491  1.00  0.00    -0.045 A 
ATOM     80  C   UNL A   1      31.640  27.538  27.073  1.00  0.00     0.004 A 
ATOM     81  C   UNL A   1      33.794  27.591  26.000  1.00  0.00     0.004 A 
ATOM     82  C   UNL A   1      31.682  28.928  27.228  1.00  0.00     0.000 A 
ATOM     83  C   UNL A   1      33.848  28.976  26.177  1.00  0.00     0.000 A 
ATOM     84  C   UNL A   1      32.797  29.644  26.799  1.00  0.00     0.000 A 
ENDBRANCH  78  79
ENDBRANCH  77  78
BRANCH  77  85
ATOM     85  N   UNL A   1      31.705  25.479  23.961  1.00  0.00    -0.373 N 
ATOM     86  H   UNL A   1      32.429  25.419  23.297  1.00  0.00     0.161 HD
BRANCH  85  87
ATOM     87  C   UNL A   1      30.632  26.305  23.675  1.00  0.00     0.036 A 
ATOM     88  C   UNL A   1      29.351  25.904  24.075  1.00  0.00     0.027 A 
ATOM     89  C   UNL A   1      30.753  27.530  23.011  1.00  0.00     0.043 A 
ATOM     90  C   UNL A   1      28.231  26.715  23.860  1.00  0.00     0.024 A 
ATOM     91  C   UNL A   1      29.636  28.350  22.786  1.00  0.00     0.038 A 
ATOM     92  C   UNL A   1      28.372  27.945  23.220  1.00  0.00     0.055 A 
ATOM     93  Br  UNL A   1      29.929  30.001  21.891  1.00  0.00    -0.049 Br
ATOM     94  Cl  UNL A   1      26.953  28.906  23.010  1.00  0.00    -0.083 Cl
ENDBRANCH  85  87
ENDBRANCH  77  85
ENDBRANCH  74  77
ENDBRANCH  72  73
ENDBRANCH  71  72
ENDBRANCH  70  71
ENDBRANCH   1  70
TORSDOF 20
ENDMDL
MODEL 3
REMARK VINA RESULT:     -10.1      5.011      6.883
REMARK SMILES O=C(NCCCCCCNC(=O)[C@@H](Cc1ccccc1)Nc1ccc(Cl)c(Br)c1)c1ccc(-c2c3nc(c(-c4ccc(S(=O)(=O)[O-])cc4)c4ccc([nH]4)c(-c4ccc(S(=O)(=O)[O-])cc4)c4nc(c(-c5ccc(S(=O)(=O)[O-])cc5)c5ccc2[nH]5)C=C4)C=C3)cc1
REMARK SMILES IDX 6 1 5 2 4 3 3 4 1 5 2 6 30 8 31 9 89 10 32 11 88 12 33 13
REMARK SMILES IDX 34 14 35 15 82 16 36 17 87 18 81 19 83 20 37 21 86 22 80 23
REMARK SMILES IDX 79 24 38 26 68 27 49 28 67 29 50 30 53 31 66 32 84 33 51 34
REMARK SMILES IDX 52 35 65 37 85 38 54 39 39 40 40 41 48 42 41 43 47 44 42 45
REMARK SMILES IDX 43 46 44 47 45 48 46 49 69 50 70 51 78 52 71 53 77 54 72 55
REMARK SMILES IDX 73 56 74 57 75 58 76 59 55 60 56 61 64 62 57 63 63 64 58 65
REMARK SMILES IDX 59 66 60 67 61 68 62 69 7 70 8 71 9 72 10 73 11 74 12 76
REMARK SMILES IDX 13 77 14 78 15 79 16 80 20 81 17 82 19 83 18 84 21 85 22 87
REMARK SMILES IDX 23 88 29 89 24 90 27 91 25 92 28 93 26 94
REMARK H PARENT 3 7 83 25 53 36 10 75 21 86
REMARK Flexibility Score: inf
ROOT
ATOM      1  C   UNL A   1      39.262  23.198  27.017  1.00  0.00     0.002 C 
ENDROOT
BRANCH   1   2
ATOM      2  C   UNL A   1      40.575  22.707  26.403  1.00  0.00     0.021 C 
BRANCH   2   3
ATOM      3  C   UNL A   1      41.804  23.506  26.818  1.00  0.00     0.116 C 
BRANCH   3   4
ATOM      4  N   UNL A   1      42.231  24.420  25.769  1.00  0.00    -0.352 N 
ATOM      5  O   UNL A   1      42.340  26.376  24.658  1.00  0.00    -0.269 OA
ATOM      6  C   UNL A   1      42.165  25.791  25.722  1.00  0.00     0.251 C 
ATOM      7  H   UNL A   1      42.625  23.991  24.975  1.00  0.00     0.163 HD
BRANCH   6   8
ATOM      8  C   UNL A   1      41.880  26.555  26.955  1.00  0.00     0.039 A 
ATOM      9  C   UNL A   1      42.708  27.611  27.338  1.00  0.00     0.014 A 
ATOM     10  C   UNL A   1      40.755  26.234  27.722  1.00  0.00     0.014 A 
ATOM     11  C   UNL A   1      42.499  28.248  28.554  1.00  0.00     0.010 A 
ATOM     12  C   UNL A   1      40.488  26.945  28.896  1.00  0.00     0.010 A 
ATOM     13  C   UNL A   1      41.372  27.943  29.335  1.00  0.00    -0.014 A 
BRANCH  13  14
ATOM     14  C   UNL A   1      41.108  28.747  30.556  1.00  0.00     0.031 A 
ATOM     15  C   UNL A   1      41.963  28.613  31.786  1.00  0.00     0.074 A 
ATOM     16  C   UNL A   1      40.104  29.647  30.523  1.00  0.00     0.049 A 
ATOM     17  N   UNL A   1      41.892  29.281  32.909  1.00  0.00    -0.248 NA
ATOM     18  C   UNL A   1      43.030  27.599  31.759  1.00  0.00     0.031 C 
ATOM     19  C   UNL A   1      39.198  29.857  29.389  1.00  0.00     0.029 A 
ATOM     20  N   UNL A   1      39.690  30.569  31.450  1.00  0.00    -0.354 N 
ATOM     21  C   UNL A   1      42.899  28.773  33.722  1.00  0.00     0.074 A 
ATOM     22  C   UNL A   1      43.542  27.711  32.978  1.00  0.00     0.031 C 
ATOM     23  C   UNL A   1      38.373  30.877  29.665  1.00  0.00     0.029 A 
ATOM     24  C   UNL A   1      38.640  31.346  31.019  1.00  0.00     0.049 A 
ATOM     25  H   UNL A   1      40.104  30.666  32.338  1.00  0.00     0.167 HD
ATOM     26  C   UNL A   1      43.262  29.166  34.968  1.00  0.00     0.031 A 
ATOM     27  C   UNL A   1      37.951  32.317  31.647  1.00  0.00     0.031 A 
ATOM     28  C   UNL A   1      42.604  30.212  35.709  1.00  0.00     0.049 A 
ATOM     29  C   UNL A   1      38.344  32.696  33.045  1.00  0.00     0.074 A 
ATOM     30  C   UNL A   1      42.898  30.684  36.978  1.00  0.00     0.029 A 
ATOM     31  N   UNL A   1      41.521  30.950  35.255  1.00  0.00    -0.354 N 
ATOM     32  N   UNL A   1      39.319  32.221  33.782  1.00  0.00    -0.248 NA
ATOM     33  C   UNL A   1      37.549  33.747  33.692  1.00  0.00     0.031 C 
ATOM     34  C   UNL A   1      41.961  31.668  37.309  1.00  0.00     0.029 A 
ATOM     35  C   UNL A   1      41.123  31.858  36.222  1.00  0.00     0.049 A 
ATOM     36  H   UNL A   1      41.096  30.842  34.373  1.00  0.00     0.167 HD
ATOM     37  C   UNL A   1      39.267  32.931  34.977  1.00  0.00     0.074 A 
ATOM     38  C   UNL A   1      38.185  33.886  34.847  1.00  0.00     0.031 C 
ATOM     39  C   UNL A   1      40.041  32.800  36.082  1.00  0.00     0.031 A 
BRANCH  26  40
ATOM     40  C   UNL A   1      44.421  28.452  35.619  1.00  0.00    -0.014 A 
ATOM     41  C   UNL A   1      44.207  27.358  36.476  1.00  0.00     0.010 A 
ATOM     42  C   UNL A   1      45.741  28.836  35.321  1.00  0.00     0.010 A 
ATOM     43  C   UNL A   1      45.288  26.682  37.047  1.00  0.00     0.020 A 
ATOM     44  C   UNL A   1      46.827  28.144  35.867  1.00  0.00     0.020 A 
ATOM     45  C   UNL A   1      46.593  27.079  36.740  1.00  0.00     0.054 A 
BRANCH  45  46
ATOM     46  S   UNL A   1      47.975  26.161  37.472  1.00  0.00     0.124 S 
ATOM     47  O   UNL A   1      47.334  25.514  38.615  1.00  0.00    -0.237 OA
ATOM     48  O   UNL A   1      48.374  25.267  36.387  1.00  0.00    -0.237 OA
ATOM     49  O   UNL A   1      48.945  27.200  37.809  1.00  0.00    -0.744 OA
ENDBRANCH  45  46
ENDBRANCH  26  40
BRANCH  27  50
ATOM     50  C   UNL A   1      36.797  32.968  30.966  1.00  0.00    -0.014 A 
ATOM     51  C   UNL A   1      36.994  33.893  29.928  1.00  0.00     0.010 A 
ATOM     52  C   UNL A   1      35.482  32.658  31.366  1.00  0.00     0.010 A 
ATOM     53  C   UNL A   1      35.901  34.523  29.325  1.00  0.00     0.020 A 
ATOM     54  C   UNL A   1      34.387  33.257  30.740  1.00  0.00     0.020 A 
ATOM     55  C   UNL A   1      34.604  34.201  29.737  1.00  0.00     0.054 A 
BRANCH  55  56
ATOM     56  S   UNL A   1      33.200  35.013  28.927  1.00  0.00     0.124 S 
ATOM     57  O   UNL A   1      33.830  36.193  28.342  1.00  0.00    -0.237 OA
ATOM     58  O   UNL A   1      32.751  33.997  27.979  1.00  0.00    -0.237 OA
ATOM     59  O   UNL A   1      32.277  35.277  30.029  1.00  0.00    -0.744 OA
ENDBRANCH  55  56
ENDBRANCH  27  50
BRANCH  39  60
ATOM     60  C   UNL A   1      39.765  33.740  37.225  1.00  0.00    -0.014 A 
ATOM     61  C   UNL A   1      39.061  33.318  38.367  1.00  0.00     0.010 A 
ATOM     62  C   UNL A   1      40.238  35.064  37.163  1.00  0.00     0.010 A 
ATOM     63  C   UNL A   1      38.794  34.215  39.405  1.00  0.00     0.020 A 
ATOM     64  C   UNL A   1      40.003  35.954  38.214  1.00  0.00     0.020 A 
ATOM     65  C   UNL A   1      39.266  35.528  39.320  1.00  0.00     0.054 A 
BRANCH  65  66
ATOM     66  S   UNL A   1      38.927  36.666  40.691  1.00  0.00     0.124 S 
ATOM     67  O   UNL A   1      38.009  35.885  41.515  1.00  0.00    -0.237 OA
ATOM     68  O   UNL A   1      40.255  36.884  41.261  1.00  0.00    -0.237 OA
ATOM     69  O   UNL A   1      38.338  37.832  40.036  1.00  0.00    -0.744 OA
ENDBRANCH  65  66
ENDBRANCH  39  60
ENDBRANCH  13  14
ENDBRANCH   6   8
ENDBRANCH   3   4
ENDBRANCH   2   3
ENDBRANCH   1   2
BRANCH   1  70
ATOM     70  C   UNL A   1      38.316  23.922  26.050  1.00  0.00     0.002 C 
BRANCH  70  71
ATOM     71  C   UNL A   1      37.341  23.005  25.312  1.00  0.00     0.021 C 
BRANCH  71  72
ATOM     72  C   UNL A   1      36.158  23.735  24.681  1.00  0.00     0.116 C 
BRANCH  72  73
ATOM     73  N   UNL A   1      35.034  23.752  25.592  1.00  0.00    -0.354 N 
ATOM     74  C   UNL A   1      33.806  23.172  25.501  1.00  0.00     0.242 C 
ATOM     75  H   UNL A   1      35.182  24.272  26.414  1.00  0.00     0.163 HD
ATOM     76  O   UNL A   1      32.958  23.554  26.319  1.00  0.00    -0.273 OA
BRANCH  74  77
ATOM     77  C   UNL A   1      33.460  22.057  24.483  1.00  0.00     0.173 C 
BRANCH  77  78
ATOM     78  C   UNL A   1      33.077  20.691  25.094  1.00  0.00     0.070 C 
BRANCH  78  79
ATOM     79  C   UNL A   1      33.215  19.402  24.312  1.00  0.00    -0.045 A 
ATOM     80  C   UNL A   1      34.225  18.484  24.641  1.00  0.00     0.004 A 
ATOM     81  C   UNL A   1      32.406  19.124  23.200  1.00  0.00     0.004 A 
ATOM     82  C   UNL A   1      34.371  17.289  23.928  1.00  0.00     0.000 A 
ATOM     83  C   UNL A   1      32.535  17.920  22.504  1.00  0.00     0.000 A 
ATOM     84  C   UNL A   1      33.511  16.998  22.872  1.00  0.00     0.000 A 
ENDBRANCH  78  79
ENDBRANCH  77  78
BRANCH  77  85
ATOM     85  N   UNL A   1      32.557  22.556  23.430  1.00  0.00    -0.373 N 
ATOM     86  H   UNL A   1      32.266  21.922  22.735  1.00  0.00     0.161 HD
BRANCH  85  87
ATOM     87  C   UNL A   1      32.091  23.856  23.355  1.00  0.00     0.036 A 
ATOM     88  C   UNL A   1      30.767  24.118  23.732  1.00  0.00     0.027 A 
ATOM     89  C   UNL A   1      32.871  24.935  22.927  1.00  0.00     0.043 A 
ATOM     90  C   UNL A   1      30.250  25.417  23.725  1.00  0.00     0.024 A 
ATOM     91  C   UNL A   1      32.360  26.243  22.912  1.00  0.00     0.038 A 
ATOM     92  C   UNL A   1      31.049  26.486  23.322  1.00  0.00     0.055 A 
ATOM     93  Br  UNL A   1      33.523  27.629  22.328  1.00  0.00    -0.049 Br
ATOM     94  Cl  UNL A   1      30.353  28.066  23.362  1.00  0.00    -0.083 Cl
ENDBRANCH  85  87
ENDBRANCH  77  85
ENDBRANCH  74  77
ENDBRANCH  72  73
ENDBRANCH  71  72
ENDBRANCH  70  71
ENDBRANCH   1  70
TORSDOF 20
ENDMDL
