MODEL 1
REMARK VINA RESULT:     -11.5      0.000      0.000
REMARK SMILES C[C@@H]1[C@H](C(=O)NCCCCCCNC(=O)c2ccc(-c3c4nc(c(-c5ccc(S(=O)(=O)[O-])cc5)c5ccc([nH]5)c(-c5ccc(S(=O)(=O)[O-])cc5)c5nc(c(-c6ccc(S(=O)(=O)[O-])cc6)c6ccc3[nH]6)C=C5)C=C4)cc2)CCN1C(=O)c1ccc([N+](=O)[O-])c(F)c1
REMARK SMILES IDX 9 1 8 2 7 3 6 4 4 5 5 6 3 8 1 9 2 10 78 11 76 12 77 13 79 14
REMARK SMILES IDX 80 15 81 16 82 17 90 18 83 19 88 20 84 21 89 22 85 23 86 24
REMARK SMILES IDX 87 25 10 26 11 27 12 28 13 29 14 30 15 32 16 33 17 34 75 35
REMARK SMILES IDX 18 36 74 37 19 38 20 39 21 40 68 41 22 42 73 43 67 44 69 45
REMARK SMILES IDX 23 46 72 47 66 48 65 49 24 51 54 52 35 53 53 54 36 55 39 56
REMARK SMILES IDX 52 57 70 58 37 59 38 60 51 62 71 63 40 64 25 65 26 66 34 67
REMARK SMILES IDX 27 68 33 69 28 70 29 71 30 72 31 73 32 74 55 75 56 76 64 77
REMARK SMILES IDX 57 78 63 79 58 80 59 81 60 82 61 83 62 84 41 85 42 86 50 87
REMARK SMILES IDX 43 88 49 89 44 90 45 91 46 92 47 93 48 94
REMARK H PARENT 6 7 13 31 69 50 39 61
REMARK Flexibility Score: inf
ROOT
ATOM      1  C   UNL A   1      31.283  28.778  25.010  1.00  0.00     0.002 C 
ENDROOT
BRANCH   1   2
ATOM      2  C   UNL A   1      30.741  28.867  23.582  1.00  0.00     0.021 C 
BRANCH   2   3
ATOM      3  C   UNL A   1      30.550  27.529  22.865  1.00  0.00     0.116 C 
BRANCH   3   4
ATOM      4  N   UNL A   1      31.667  27.226  21.987  1.00  0.00    -0.356 N 
ATOM      5  C   UNL A   1      32.377  26.088  21.778  1.00  0.00     0.225 C 
ATOM      6  O   UNL A   1      33.348  26.169  21.017  1.00  0.00    -0.275 OA
ATOM      7  H   UNL A   1      31.965  27.989  21.441  1.00  0.00     0.163 HD
BRANCH   5   8
ATOM      8  C   UNL A   1      32.054  24.750  22.430  1.00  0.00     0.102 C 
ATOM      9  C   UNL A   1      34.252  24.989  23.816  1.00  0.00     0.032 C 
ATOM     10  C   UNL A   1      33.107  24.099  23.357  1.00  0.00     0.094 C 
ATOM     11  N   UNL A   1      32.313  23.482  24.440  1.00  0.00    -0.335 N 
ATOM     12  C   UNL A   1      30.721  24.700  23.175  1.00  0.00     0.037 C 
ATOM     13  C   UNL A   1      30.891  23.565  24.162  1.00  0.00     0.121 C 
BRANCH  11  14
ATOM     14  C   UNL A   1      32.713  22.614  25.446  1.00  0.00     0.254 C 
ATOM     15  O   UNL A   1      32.722  22.909  26.638  1.00  0.00    -0.269 OA
BRANCH  14  16
ATOM     16  C   UNL A   1      33.157  21.258  25.097  1.00  0.00     0.043 A 
ATOM     17  C   UNL A   1      32.206  20.287  24.765  1.00  0.00     0.021 A 
ATOM     18  C   UNL A   1      34.516  20.938  25.175  1.00  0.00     0.060 A 
ATOM     19  C   UNL A   1      32.628  18.999  24.429  1.00  0.00     0.090 A 
ATOM     20  C   UNL A   1      34.936  19.660  24.821  1.00  0.00     0.201 A 
ATOM     21  C   UNL A   1      34.001  18.702  24.436  1.00  0.00     0.304 A 
ATOM     22  F   UNL A   1      36.247  19.391  24.866  1.00  0.00    -0.199 F 
BRANCH  21  23
ATOM     23  N   UNL A   1      34.445  17.385  24.010  1.00  0.00     0.065 N 
ATOM     24  O   UNL A   1      35.107  16.724  24.823  1.00  0.00    -0.258 OA
ATOM     25  O   UNL A   1      34.084  16.982  22.897  1.00  0.00    -0.258 OA
ENDBRANCH  21  23
ENDBRANCH  14  16
ENDBRANCH  11  14
ENDBRANCH   5   8
ENDBRANCH   3   4
ENDBRANCH   2   3
ENDBRANCH   1   2
BRANCH   1  26
ATOM     26  C   UNL A   1      31.780  27.398  25.446  1.00  0.00     0.002 C 
BRANCH  26  27
ATOM     27  C   UNL A   1      32.678  27.372  26.687  1.00  0.00     0.021 C 
BRANCH  27  28
ATOM     28  C   UNL A   1      33.941  28.230  26.610  1.00  0.00     0.116 C 
BRANCH  28  29
ATOM     29  N   UNL A   1      33.717  29.590  27.063  1.00  0.00    -0.352 N 
ATOM     30  C   UNL A   1      34.520  30.405  27.821  1.00  0.00     0.251 C 
ATOM     31  H   UNL A   1      32.862  29.989  26.785  1.00  0.00     0.163 HD
ATOM     32  O   UNL A   1      34.077  31.469  28.242  1.00  0.00    -0.269 OA
BRANCH  30  33
ATOM     33  C   UNL A   1      35.907  30.001  28.150  1.00  0.00     0.039 A 
ATOM     34  C   UNL A   1      36.885  30.102  27.157  1.00  0.00     0.014 A 
ATOM     35  C   UNL A   1      36.239  29.486  29.407  1.00  0.00     0.014 A 
ATOM     36  C   UNL A   1      38.202  29.729  27.437  1.00  0.00     0.010 A 
ATOM     37  C   UNL A   1      37.566  29.171  29.704  1.00  0.00     0.010 A 
ATOM     38  C   UNL A   1      38.559  29.278  28.719  1.00  0.00    -0.014 A 
BRANCH  38  39
ATOM     39  C   UNL A   1      39.963  28.904  29.029  1.00  0.00     0.031 A 
ATOM     40  C   UNL A   1      40.884  29.893  29.692  1.00  0.00     0.074 A 
ATOM     41  C   UNL A   1      40.420  27.683  28.688  1.00  0.00     0.049 A 
ATOM     42  N   UNL A   1      42.139  29.749  30.034  1.00  0.00    -0.248 NA
ATOM     43  C   UNL A   1      40.330  31.223  29.990  1.00  0.00     0.031 C 
ATOM     44  C   UNL A   1      39.640  26.646  28.007  1.00  0.00     0.029 A 
ATOM     45  N   UNL A   1      41.651  27.106  28.867  1.00  0.00    -0.354 N 
ATOM     46  C   UNL A   1      42.528  30.969  30.574  1.00  0.00     0.074 A 
ATOM     47  C   UNL A   1      41.390  31.856  30.472  1.00  0.00     0.031 C 
ATOM     48  C   UNL A   1      40.403  25.552  27.852  1.00  0.00     0.029 A 
ATOM     49  C   UNL A   1      41.732  25.817  28.393  1.00  0.00     0.049 A 
ATOM     50  H   UNL A   1      42.407  27.570  29.295  1.00  0.00     0.167 HD
ATOM     51  C   UNL A   1      43.716  31.315  31.126  1.00  0.00     0.031 A 
ATOM     52  C   UNL A   1      42.760  24.945  28.396  1.00  0.00     0.031 A 
ATOM     53  C   UNL A   1      44.844  30.429  31.240  1.00  0.00     0.049 A 
ATOM     54  C   UNL A   1      44.068  25.351  29.015  1.00  0.00     0.074 A 
ATOM     55  C   UNL A   1      46.073  30.669  31.832  1.00  0.00     0.029 A 
ATOM     56  N   UNL A   1      44.882  29.131  30.753  1.00  0.00    -0.354 N 
ATOM     57  N   UNL A   1      44.394  26.489  29.581  1.00  0.00    -0.248 NA
ATOM     58  C   UNL A   1      45.144  24.349  29.009  1.00  0.00     0.031 C 
ATOM     59  C   UNL A   1      46.869  29.531  31.665  1.00  0.00     0.029 A 
ATOM     60  C   UNL A   1      46.119  28.565  31.013  1.00  0.00     0.049 A 
ATOM     61  H   UNL A   1      44.140  28.679  30.291  1.00  0.00     0.167 HD
ATOM     62  C   UNL A   1      45.705  26.333  30.015  1.00  0.00     0.074 A 
ATOM     63  C   UNL A   1      46.106  24.986  29.664  1.00  0.00     0.031 C 
ATOM     64  C   UNL A   1      46.505  27.225  30.650  1.00  0.00     0.031 A 
BRANCH  51  65
ATOM     65  C   UNL A   1      43.855  32.721  31.648  1.00  0.00    -0.014 A 
ATOM     66  C   UNL A   1      44.385  33.743  30.841  1.00  0.00     0.010 A 
ATOM     67  C   UNL A   1      43.418  33.032  32.949  1.00  0.00     0.010 A 
ATOM     68  C   UNL A   1      44.518  35.042  31.340  1.00  0.00     0.020 A 
ATOM     69  C   UNL A   1      43.526  34.336  33.443  1.00  0.00     0.020 A 
ATOM     70  C   UNL A   1      44.093  35.329  32.640  1.00  0.00     0.054 A 
BRANCH  70  71
ATOM     71  S   UNL A   1      44.263  37.026  33.257  1.00  0.00     0.124 S 
ATOM     72  O   UNL A   1      44.158  37.805  32.026  1.00  0.00    -0.237 OA
ATOM     73  O   UNL A   1      43.134  37.150  34.176  1.00  0.00    -0.237 OA
ATOM     74  O   UNL A   1      45.580  37.034  33.890  1.00  0.00    -0.744 OA
ENDBRANCH  70  71
ENDBRANCH  51  65
BRANCH  52  75
ATOM     75  C   UNL A   1      42.582  23.589  27.810  1.00  0.00    -0.014 A 
ATOM     76  C   UNL A   1      42.950  23.334  26.478  1.00  0.00     0.010 A 
ATOM     77  C   UNL A   1      42.055  22.542  28.587  1.00  0.00     0.010 A 
ATOM     78  C   UNL A   1      42.781  22.060  25.927  1.00  0.00     0.020 A 
ATOM     79  C   UNL A   1      41.908  21.261  28.049  1.00  0.00     0.020 A 
ATOM     80  C   UNL A   1      42.262  21.031  26.717  1.00  0.00     0.054 A 
BRANCH  80  81
ATOM     81  S   UNL A   1      42.104  19.371  26.003  1.00  0.00     0.124 S 
ATOM     82  O   UNL A   1      42.616  18.528  27.077  1.00  0.00    -0.237 OA
ATOM     83  O   UNL A   1      40.670  19.270  25.746  1.00  0.00    -0.237 OA
ATOM     84  O   UNL A   1      42.938  19.436  24.804  1.00  0.00    -0.744 OA
ENDBRANCH  80  81
ENDBRANCH  52  75
BRANCH  64  85
ATOM     85  C   UNL A   1      47.889  26.767  31.023  1.00  0.00    -0.014 A 
ATOM     86  C   UNL A   1      48.992  27.042  30.196  1.00  0.00     0.010 A 
ATOM     87  C   UNL A   1      48.093  26.091  32.240  1.00  0.00     0.010 A 
ATOM     88  C   UNL A   1      50.272  26.620  30.565  1.00  0.00     0.020 A 
ATOM     89  C   UNL A   1      49.375  25.690  32.624  1.00  0.00     0.020 A 
ATOM     90  C   UNL A   1      50.455  25.945  31.776  1.00  0.00     0.054 A 
BRANCH  90  91
ATOM     91  S   UNL A   1      52.132  25.441  32.251  1.00  0.00     0.124 S 
ATOM     92  O   UNL A   1      52.406  26.328  33.378  1.00  0.00    -0.237 OA
ATOM     93  O   UNL A   1      51.962  24.030  32.589  1.00  0.00    -0.237 OA
ATOM     94  O   UNL A   1      52.923  25.696  31.050  1.00  0.00    -0.744 OA
ENDBRANCH  90  91
ENDBRANCH  64  85
ENDBRANCH  38  39
ENDBRANCH  30  33
ENDBRANCH  28  29
ENDBRANCH  27  28
ENDBRANCH  26  27
ENDBRANCH   1  26
TORSDOF 19
ENDMDL
MODEL 2
REMARK VINA RESULT:     -11.3      4.589     10.558
REMARK SMILES C[C@@H]1[C@H](C(=O)NCCCCCCNC(=O)c2ccc(-c3c4nc(c(-c5ccc(S(=O)(=O)[O-])cc5)c5ccc([nH]5)c(-c5ccc(S(=O)(=O)[O-])cc5)c5nc(c(-c6ccc(S(=O)(=O)[O-])cc6)c6ccc3[nH]6)C=C5)C=C4)cc2)CCN1C(=O)c1ccc([N+](=O)[O-])c(F)c1
REMARK SMILES IDX 9 1 8 2 7 3 6 4 4 5 5 6 3 8 1 9 2 10 78 11 76 12 77 13 79 14
REMARK SMILES IDX 80 15 81 16 82 17 90 18 83 19 88 20 84 21 89 22 85 23 86 24
REMARK SMILES IDX 87 25 10 26 11 27 12 28 13 29 14 30 15 32 16 33 17 34 75 35
REMARK SMILES IDX 18 36 74 37 19 38 20 39 21 40 68 41 22 42 73 43 67 44 69 45
REMARK SMILES IDX 23 46 72 47 66 48 65 49 24 51 54 52 35 53 53 54 36 55 39 56
REMARK SMILES IDX 52 57 70 58 37 59 38 60 51 62 71 63 40 64 25 65 26 66 34 67
REMARK SMILES IDX 27 68 33 69 28 70 29 71 30 72 31 73 32 74 55 75 56 76 64 77
REMARK SMILES IDX 57 78 63 79 58 80 59 81 60 82 61 83 62 84 41 85 42 86 50 87
REMARK SMILES IDX 43 88 49 89 44 90 45 91 46 92 47 93 48 94
REMARK H PARENT 6 7 13 31 69 50 39 61
REMARK Flexibility Score: inf
ROOT
ATOM      1  C   UNL A   1      37.572  22.934  25.335  1.00  0.00     0.002 C 
ENDROOT
BRANCH   1   2
ATOM      2  C   UNL A   1      37.359  21.427  25.486  1.00  0.00     0.021 C 
BRANCH   2   3
ATOM      3  C   UNL A   1      35.911  20.950  25.357  1.00  0.00     0.116 C 
BRANCH   3   4
ATOM      4  N   UNL A   1      35.126  21.293  26.531  1.00  0.00    -0.356 N 
ATOM      5  C   UNL A   1      33.928  21.916  26.674  1.00  0.00     0.225 C 
ATOM      6  O   UNL A   1      33.555  22.148  27.830  1.00  0.00    -0.275 OA
ATOM      7  H   UNL A   1      35.540  21.022  27.382  1.00  0.00     0.163 HD
BRANCH   5   8
ATOM      8  C   UNL A   1      33.048  22.346  25.509  1.00  0.00     0.102 C 
ATOM      9  C   UNL A   1      34.533  24.480  25.283  1.00  0.00     0.032 C 
ATOM     10  C   UNL A   1      33.252  23.753  24.899  1.00  0.00     0.094 C 
ATOM     11  N   UNL A   1      33.047  23.559  23.449  1.00  0.00    -0.335 N 
ATOM     12  C   UNL A   1      32.995  21.364  24.340  1.00  0.00     0.037 C 
ATOM     13  C   UNL A   1      32.583  22.215  23.159  1.00  0.00     0.121 C 
BRANCH  11  14
ATOM     14  C   UNL A   1      32.929  24.503  22.438  1.00  0.00     0.254 C 
ATOM     15  O   UNL A   1      33.333  24.330  21.292  1.00  0.00    -0.269 OA
BRANCH  14  16
ATOM     16  C   UNL A   1      32.289  25.794  22.726  1.00  0.00     0.043 A 
ATOM     17  C   UNL A   1      30.914  25.839  22.977  1.00  0.00     0.021 A 
ATOM     18  C   UNL A   1      33.050  26.966  22.670  1.00  0.00     0.060 A 
ATOM     19  C   UNL A   1      30.306  27.066  23.254  1.00  0.00     0.090 A 
ATOM     20  C   UNL A   1      32.447  28.184  22.965  1.00  0.00     0.201 A 
ATOM     21  C   UNL A   1      31.088  28.232  23.270  1.00  0.00     0.304 A 
ATOM     22  F   UNL A   1      33.206  29.287  22.944  1.00  0.00    -0.199 F 
BRANCH  21  23
ATOM     23  N   UNL A   1      30.472  29.497  23.637  1.00  0.00     0.065 N 
ATOM     24  O   UNL A   1      30.800  29.988  24.726  1.00  0.00    -0.258 OA
ATOM     25  O   UNL A   1      29.714  30.032  22.819  1.00  0.00    -0.258 OA
ENDBRANCH  21  23
ENDBRANCH  14  16
ENDBRANCH  11  14
ENDBRANCH   5   8
ENDBRANCH   3   4
ENDBRANCH   2   3
ENDBRANCH   1   2
BRANCH   1  26
ATOM     26  C   UNL A   1      38.571  23.564  26.308  1.00  0.00     0.002 C 
BRANCH  26  27
ATOM     27  C   UNL A   1      39.722  22.661  26.762  1.00  0.00     0.021 C 
BRANCH  27  28
ATOM     28  C   UNL A   1      41.025  23.375  27.119  1.00  0.00     0.116 C 
BRANCH  28  29
ATOM     29  N   UNL A   1      41.526  24.194  26.031  1.00  0.00    -0.352 N 
ATOM     30  C   UNL A   1      41.652  25.558  25.947  1.00  0.00     0.251 C 
ATOM     31  H   UNL A   1      41.821  23.698  25.235  1.00  0.00     0.163 HD
ATOM     32  O   UNL A   1      41.941  26.074  24.872  1.00  0.00    -0.269 OA
BRANCH  30  33
ATOM     33  C   UNL A   1      41.420  26.411  27.136  1.00  0.00     0.039 A 
ATOM     34  C   UNL A   1      42.271  27.497  27.355  1.00  0.00     0.014 A 
ATOM     35  C   UNL A   1      40.405  26.124  28.055  1.00  0.00     0.014 A 
ATOM     36  C   UNL A   1      42.078  28.320  28.468  1.00  0.00     0.010 A 
ATOM     37  C   UNL A   1      40.175  26.981  29.132  1.00  0.00     0.010 A 
ATOM     38  C   UNL A   1      41.017  28.081  29.356  1.00  0.00    -0.014 A 
BRANCH  38  39
ATOM     39  C   UNL A   1      40.792  28.967  30.527  1.00  0.00     0.031 A 
ATOM     40  C   UNL A   1      41.642  28.824  31.762  1.00  0.00     0.074 A 
ATOM     41  C   UNL A   1      39.803  29.882  30.493  1.00  0.00     0.049 A 
ATOM     42  N   UNL A   1      41.590  29.500  32.881  1.00  0.00    -0.248 NA
ATOM     43  C   UNL A   1      42.670  27.770  31.745  1.00  0.00     0.031 C 
ATOM     44  C   UNL A   1      38.885  30.095  29.373  1.00  0.00     0.029 A 
ATOM     45  N   UNL A   1      39.406  30.805  31.427  1.00  0.00    -0.354 N 
ATOM     46  C   UNL A   1      42.565  28.949  33.704  1.00  0.00     0.074 A 
ATOM     47  C   UNL A   1      43.161  27.852  32.973  1.00  0.00     0.031 C 
ATOM     48  C   UNL A   1      38.050  31.103  29.673  1.00  0.00     0.029 A 
ATOM     49  C   UNL A   1      38.352  31.587  31.017  1.00  0.00     0.049 A 
ATOM     50  H   UNL A   1      39.833  30.898  32.310  1.00  0.00     0.167 HD
ATOM     51  C   UNL A   1      42.946  29.333  34.946  1.00  0.00     0.031 A 
ATOM     52  C   UNL A   1      37.704  32.586  31.648  1.00  0.00     0.031 A 
ATOM     53  C   UNL A   1      42.363  30.432  35.668  1.00  0.00     0.049 A 
ATOM     54  C   UNL A   1      38.145  32.995  33.026  1.00  0.00     0.074 A 
ATOM     55  C   UNL A   1      42.717  30.932  36.910  1.00  0.00     0.029 A 
ATOM     56  N   UNL A   1      41.303  31.203  35.214  1.00  0.00    -0.354 N 
ATOM     57  N   UNL A   1      39.115  32.503  33.760  1.00  0.00    -0.248 NA
ATOM     58  C   UNL A   1      37.415  34.105  33.655  1.00  0.00     0.031 C 
ATOM     59  C   UNL A   1      41.843  31.979  37.225  1.00  0.00     0.029 A 
ATOM     60  C   UNL A   1      40.977  32.161  36.159  1.00  0.00     0.049 A 
ATOM     61  H   UNL A   1      40.850  31.085  34.348  1.00  0.00     0.167 HD
ATOM     62  C   UNL A   1      39.123  33.256  34.929  1.00  0.00     0.074 A 
ATOM     63  C   UNL A   1      38.075  34.247  34.797  1.00  0.00     0.031 C 
ATOM     64  C   UNL A   1      39.926  33.137  36.015  1.00  0.00     0.031 A 
BRANCH  51  65
ATOM     65  C   UNL A   1      44.051  28.549  35.605  1.00  0.00    -0.014 A 
ATOM     66  C   UNL A   1      45.401  28.831  35.330  1.00  0.00     0.010 A 
ATOM     67  C   UNL A   1      43.737  27.542  36.537  1.00  0.00     0.010 A 
ATOM     68  C   UNL A   1      46.418  28.091  35.940  1.00  0.00     0.020 A 
ATOM     69  C   UNL A   1      44.752  26.816  37.168  1.00  0.00     0.020 A 
ATOM     70  C   UNL A   1      46.086  27.084  36.852  1.00  0.00     0.054 A 
BRANCH  70  71
ATOM     71  S   UNL A   1      47.425  26.148  37.641  1.00  0.00     0.124 S 
ATOM     72  O   UNL A   1      47.450  24.927  36.839  1.00  0.00    -0.237 OA
ATOM     73  O   UNL A   1      48.576  27.031  37.476  1.00  0.00    -0.237 OA
ATOM     74  O   UNL A   1      46.966  25.981  39.017  1.00  0.00    -0.744 OA
ENDBRANCH  70  71
ENDBRANCH  51  65
BRANCH  52  75
ATOM     75  C   UNL A   1      36.579  33.284  30.970  1.00  0.00    -0.014 A 
ATOM     76  C   UNL A   1      35.273  33.200  31.486  1.00  0.00     0.010 A 
ATOM     77  C   UNL A   1      36.810  34.046  29.811  1.00  0.00     0.010 A 
ATOM     78  C   UNL A   1      34.216  33.855  30.848  1.00  0.00     0.020 A 
ATOM     79  C   UNL A   1      35.760  34.723  29.184  1.00  0.00     0.020 A 
ATOM     80  C   UNL A   1      34.467  34.614  29.700  1.00  0.00     0.054 A 
BRANCH  80  81
ATOM     81  S   UNL A   1      33.091  35.503  28.919  1.00  0.00     0.124 S 
ATOM     82  O   UNL A   1      33.791  36.517  28.138  1.00  0.00    -0.237 OA
ATOM     83  O   UNL A   1      32.431  34.453  28.149  1.00  0.00    -0.237 OA
ATOM     84  O   UNL A   1      32.322  36.005  30.056  1.00  0.00    -0.744 OA
ENDBRANCH  80  81
ENDBRANCH  52  75
BRANCH  64  85
ATOM     85  C   UNL A   1      39.718  34.116  37.138  1.00  0.00    -0.014 A 
ATOM     86  C   UNL A   1      38.943  33.778  38.260  1.00  0.00     0.010 A 
ATOM     87  C   UNL A   1      40.345  35.375  37.087  1.00  0.00     0.010 A 
ATOM     88  C   UNL A   1      38.770  34.696  39.300  1.00  0.00     0.020 A 
ATOM     89  C   UNL A   1      40.195  36.285  38.137  1.00  0.00     0.020 A 
ATOM     90  C   UNL A   1      39.396  35.945  39.230  1.00  0.00     0.054 A 
BRANCH  90  91
ATOM     91  S   UNL A   1      39.190  37.104  40.610  1.00  0.00     0.124 S 
ATOM     92  O   UNL A   1      38.598  36.251  41.637  1.00  0.00    -0.237 OA
ATOM     93  O   UNL A   1      40.558  37.544  40.870  1.00  0.00    -0.237 OA
ATOM     94  O   UNL A   1      38.305  38.132  40.068  1.00  0.00    -0.744 OA
ENDBRANCH  90  91
ENDBRANCH  64  85
ENDBRANCH  38  39
ENDBRANCH  30  33
ENDBRANCH  28  29
ENDBRANCH  27  28
ENDBRANCH  26  27
ENDBRANCH   1  26
TORSDOF 19
ENDMDL
MODEL 3
REMARK VINA RESULT:     -11.1      2.456      3.044
REMARK SMILES C[C@@H]1[C@H](C(=O)NCCCCCCNC(=O)c2ccc(-c3c4nc(c(-c5ccc(S(=O)(=O)[O-])cc5)c5ccc([nH]5)c(-c5ccc(S(=O)(=O)[O-])cc5)c5nc(c(-c6ccc(S(=O)(=O)[O-])cc6)c6ccc3[nH]6)C=C5)C=C4)cc2)CCN1C(=O)c1ccc([N+](=O)[O-])c(F)c1
REMARK SMILES IDX 9 1 8 2 7 3 6 4 4 5 5 6 3 8 1 9 2 10 78 11 76 12 77 13 79 14
REMARK SMILES IDX 80 15 81 16 82 17 90 18 83 19 88 20 84 21 89 22 85 23 86 24
REMARK SMILES IDX 87 25 10 26 11 27 12 28 13 29 14 30 15 32 16 33 17 34 75 35
REMARK SMILES IDX 18 36 74 37 19 38 20 39 21 40 68 41 22 42 73 43 67 44 69 45
REMARK SMILES IDX 23 46 72 47 66 48 65 49 24 51 54 52 35 53 53 54 36 55 39 56
REMARK SMILES IDX 52 57 70 58 37 59 38 60 51 62 71 63 40 64 25 65 26 66 34 67
REMARK SMILES IDX 27 68 33 69 28 70 29 71 30 72 31 73 32 74 55 75 56 76 64 77
REMARK SMILES IDX 57 78 63 79 58 80 59 81 60 82 61 83 62 84 41 85 42 86 50 87
REMARK SMILES IDX 43 88 49 89 44 90 45 91 46 92 47 93 48 94
REMARK H PARENT 6 7 13 31 69 50 39 61
REMARK Flexibility Score: inf
ROOT
ATOM      1  C   UNL A   1      31.055  29.111  24.359  1.00  0.00     0.002 C 
ENDROOT
BRANCH   1   2
ATOM      2  C   UNL A   1      30.459  28.653  23.026  1.00  0.00     0.021 C 
BRANCH   2   3
ATOM      3  C   UNL A   1      30.508  27.146  22.765  1.00  0.00     0.116 C 
BRANCH   3   4
ATOM      4  N   UNL A   1      31.602  26.791  21.877  1.00  0.00    -0.356 N 
ATOM      5  C   UNL A   1      32.307  25.642  21.716  1.00  0.00     0.225 C 
ATOM      6  O   UNL A   1      33.258  25.677  20.927  1.00  0.00    -0.275 OA
ATOM      7  H   UNL A   1      31.886  27.521  21.281  1.00  0.00     0.163 HD
BRANCH   5   8
ATOM      8  C   UNL A   1      32.000  24.345  22.454  1.00  0.00     0.102 C 
ATOM      9  C   UNL A   1      34.456  24.364  23.337  1.00  0.00     0.032 C 
ATOM     10  C   UNL A   1      33.158  23.592  23.151  1.00  0.00     0.094 C 
ATOM     11  N   UNL A   1      32.556  23.061  24.391  1.00  0.00    -0.335 N 
ATOM     12  C   UNL A   1      30.858  24.430  23.464  1.00  0.00     0.037 C 
ATOM     13  C   UNL A   1      31.122  23.286  24.419  1.00  0.00     0.121 C 
BRANCH  11  14
ATOM     14  C   UNL A   1      33.074  22.159  25.311  1.00  0.00     0.254 C 
ATOM     15  O   UNL A   1      33.361  22.452  26.467  1.00  0.00    -0.269 OA
BRANCH  14  16
ATOM     16  C   UNL A   1      33.302  20.765  24.906  1.00  0.00     0.043 A 
ATOM     17  C   UNL A   1      32.217  19.975  24.514  1.00  0.00     0.021 A 
ATOM     18  C   UNL A   1      34.591  20.228  24.990  1.00  0.00     0.060 A 
ATOM     19  C   UNL A   1      32.435  18.652  24.125  1.00  0.00     0.090 A 
ATOM     20  C   UNL A   1      34.810  18.916  24.584  1.00  0.00     0.201 A 
ATOM     21  C   UNL A   1      33.742  18.138  24.140  1.00  0.00     0.304 A 
ATOM     22  F   UNL A   1      36.059  18.437  24.637  1.00  0.00    -0.199 F 
BRANCH  21  23
ATOM     23  N   UNL A   1      33.980  16.786  23.660  1.00  0.00     0.065 N 
ATOM     24  O   UNL A   1      34.187  16.649  22.446  1.00  0.00    -0.258 OA
ATOM     25  O   UNL A   1      34.025  15.873  24.493  1.00  0.00    -0.258 OA
ENDBRANCH  21  23
ENDBRANCH  14  16
ENDBRANCH  11  14
ENDBRANCH   5   8
ENDBRANCH   3   4
ENDBRANCH   2   3
ENDBRANCH   1   2
BRANCH   1  26
ATOM     26  C   UNL A   1      32.580  29.228  24.399  1.00  0.00     0.002 C 
BRANCH  26  27
ATOM     27  C   UNL A   1      33.303  28.233  25.312  1.00  0.00     0.021 C 
BRANCH  27  28
ATOM     28  C   UNL A   1      34.272  28.843  26.323  1.00  0.00     0.116 C 
BRANCH  28  29
ATOM     29  N   UNL A   1      33.901  30.193  26.704  1.00  0.00    -0.352 N 
ATOM     30  C   UNL A   1      34.464  31.027  27.637  1.00  0.00     0.251 C 
ATOM     31  H   UNL A   1      33.130  30.567  26.221  1.00  0.00     0.163 HD
ATOM     32  O   UNL A   1      33.897  32.074  27.934  1.00  0.00    -0.269 OA
BRANCH  30  33
ATOM     33  C   UNL A   1      35.738  30.664  28.302  1.00  0.00     0.039 A 
ATOM     34  C   UNL A   1      35.724  29.648  29.262  1.00  0.00     0.014 A 
ATOM     35  C   UNL A   1      36.928  31.341  28.020  1.00  0.00     0.014 A 
ATOM     36  C   UNL A   1      36.908  29.282  29.905  1.00  0.00     0.010 A 
ATOM     37  C   UNL A   1      38.121  30.934  28.619  1.00  0.00     0.010 A 
ATOM     38  C   UNL A   1      38.121  29.909  29.576  1.00  0.00    -0.014 A 
BRANCH  38  39
ATOM     39  C   UNL A   1      39.388  29.507  30.240  1.00  0.00     0.031 A 
ATOM     40  C   UNL A   1      39.854  30.219  31.482  1.00  0.00     0.074 A 
ATOM     41  C   UNL A   1      40.138  28.521  29.709  1.00  0.00     0.049 A 
ATOM     42  N   UNL A   1      40.932  30.013  32.195  1.00  0.00    -0.248 NA
ATOM     43  C   UNL A   1      39.009  31.319  31.977  1.00  0.00     0.031 C 
ATOM     44  C   UNL A   1      39.819  27.779  28.488  1.00  0.00     0.029 A 
ATOM     45  N   UNL A   1      41.324  27.973  30.129  1.00  0.00    -0.354 N 
ATOM     46  C   UNL A   1      40.903  30.962  33.211  1.00  0.00     0.074 A 
ATOM     47  C   UNL A   1      39.724  31.773  32.995  1.00  0.00     0.031 C 
ATOM     48  C   UNL A   1      40.769  26.854  28.273  1.00  0.00     0.029 A 
ATOM     49  C   UNL A   1      41.779  26.958  29.322  1.00  0.00     0.049 A 
ATOM     50  H   UNL A   1      41.804  28.278  30.933  1.00  0.00     0.167 HD
ATOM     51  C   UNL A   1      41.764  31.129  34.243  1.00  0.00     0.031 A 
ATOM     52  C   UNL A   1      42.885  26.192  29.415  1.00  0.00     0.031 A 
ATOM     53  C   UNL A   1      42.929  30.314  34.466  1.00  0.00     0.049 A 
ATOM     54  C   UNL A   1      43.826  26.396  30.570  1.00  0.00     0.074 A 
ATOM     55  C   UNL A   1      43.833  30.372  35.513  1.00  0.00     0.029 A 
ATOM     56  N   UNL A   1      43.351  29.293  33.628  1.00  0.00    -0.354 N 
ATOM     57  N   UNL A   1      43.743  27.256  31.558  1.00  0.00    -0.248 NA
ATOM     58  C   UNL A   1      45.001  25.516  30.631  1.00  0.00     0.031 C 
ATOM     59  C   UNL A   1      44.826  29.412  35.286  1.00  0.00     0.029 A 
ATOM     60  C   UNL A   1      44.513  28.725  34.124  1.00  0.00     0.049 A 
ATOM     61  H   UNL A   1      42.892  29.013  32.804  1.00  0.00     0.167 HD
ATOM     62  C   UNL A   1      44.845  27.007  32.368  1.00  0.00     0.074 A 
ATOM     63  C   UNL A   1      45.569  25.905  31.766  1.00  0.00     0.031 C 
ATOM     64  C   UNL A   1      45.224  27.634  33.509  1.00  0.00     0.031 A 
BRANCH  51  65
ATOM     65  C   UNL A   1      41.476  32.246  35.212  1.00  0.00    -0.014 A 
ATOM     66  C   UNL A   1      40.679  32.029  36.351  1.00  0.00     0.010 A 
ATOM     67  C   UNL A   1      42.037  33.520  35.001  1.00  0.00     0.010 A 
ATOM     68  C   UNL A   1      40.410  33.075  37.237  1.00  0.00     0.020 A 
ATOM     69  C   UNL A   1      41.791  34.563  35.900  1.00  0.00     0.020 A 
ATOM     70  C   UNL A   1      40.964  34.338  37.003  1.00  0.00     0.054 A 
BRANCH  70  71
ATOM     71  S   UNL A   1      40.611  35.674  38.178  1.00  0.00     0.124 S 
ATOM     72  O   UNL A   1      39.779  34.993  39.165  1.00  0.00    -0.237 OA
ATOM     73  O   UNL A   1      41.943  36.059  38.637  1.00  0.00    -0.237 OA
ATOM     74  O   UNL A   1      39.923  36.676  37.366  1.00  0.00    -0.744 OA
ENDBRANCH  70  71
ENDBRANCH  51  65
BRANCH  52  75
ATOM     75  C   UNL A   1      43.148  25.144  28.393  1.00  0.00    -0.014 A 
ATOM     76  C   UNL A   1      43.964  25.420  27.282  1.00  0.00     0.010 A 
ATOM     77  C   UNL A   1      42.595  23.859  28.534  1.00  0.00     0.010 A 
ATOM     78  C   UNL A   1      44.211  24.436  26.322  1.00  0.00     0.020 A 
ATOM     79  C   UNL A   1      42.859  22.863  27.589  1.00  0.00     0.020 A 
ATOM     80  C   UNL A   1      43.657  23.162  26.481  1.00  0.00     0.054 A 
BRANCH  80  81
ATOM     81  S   UNL A   1      44.035  21.881  25.254  1.00  0.00     0.124 S 
ATOM     82  O   UNL A   1      43.030  20.867  25.554  1.00  0.00    -0.237 OA
ATOM     83  O   UNL A   1      43.862  22.590  23.990  1.00  0.00    -0.237 OA
ATOM     84  O   UNL A   1      45.414  21.509  25.564  1.00  0.00    -0.744 OA
ENDBRANCH  80  81
ENDBRANCH  52  75
BRANCH  64  85
ATOM     85  C   UNL A   1      46.466  27.131  34.193  1.00  0.00    -0.014 A 
ATOM     86  C   UNL A   1      47.727  27.681  33.903  1.00  0.00     0.010 A 
ATOM     87  C   UNL A   1      46.363  26.124  35.170  1.00  0.00     0.010 A 
ATOM     88  C   UNL A   1      48.869  27.210  34.558  1.00  0.00     0.020 A 
ATOM     89  C   UNL A   1      47.499  25.669  35.844  1.00  0.00     0.020 A 
ATOM     90  C   UNL A   1      48.747  26.205  35.522  1.00  0.00     0.054 A 
BRANCH  90  91
ATOM     91  S   UNL A   1      50.238  25.638  36.386  1.00  0.00     0.124 S 
ATOM     92  O   UNL A   1      50.300  26.556  37.519  1.00  0.00    -0.237 OA
ATOM     93  O   UNL A   1      49.913  24.253  36.717  1.00  0.00    -0.237 OA
ATOM     94  O   UNL A   1      51.297  25.801  35.392  1.00  0.00    -0.744 OA
ENDBRANCH  90  91
ENDBRANCH  64  85
ENDBRANCH  38  39
ENDBRANCH  30  33
ENDBRANCH  28  29
ENDBRANCH  27  28
ENDBRANCH  26  27
ENDBRANCH   1  26
TORSDOF 19
ENDMDL
