MODEL 1
REMARK VINA RESULT:      -9.1      0.000      0.000
REMARK SMILES C[C@H](Oc1ccc(/C=N/c2ccc(Cl)cc2Cl)cc1)C(=O)NCCCCCCNC(=O)c1ccc(-c2c3nc(c(-c4ccc(S(=O)(=O)[O-])cc4)c4ccc([nH]4)c(-c4ccc(S(=O)(=O)[O-])cc4)c4nc(c(-c5ccc(S(=O)(=O)[O-])cc5)c5ccc2[nH]5)C=C4)C=C3)cc1
REMARK SMILES IDX 25 1 24 2 23 3 22 4 20 5 21 6 2 8 1 9 3 10 4 11 5 12 19 13
REMARK SMILES IDX 6 14 18 15 7 16 8 17 9 18 10 19 11 20 16 21 12 22 15 23
REMARK SMILES IDX 17 24 13 25 14 26 26 27 27 28 28 29 29 30 30 31 31 33 32 34
REMARK SMILES IDX 33 35 91 36 34 37 90 38 35 39 36 40 37 41 84 42 38 43 89 44
REMARK SMILES IDX 83 45 85 46 39 47 88 48 82 49 81 50 40 52 70 53 51 54 69 55
REMARK SMILES IDX 52 56 55 57 68 58 86 59 53 60 54 61 67 63 87 64 56 65 41 66
REMARK SMILES IDX 42 67 50 68 43 69 49 70 44 71 45 72 46 73 47 74 48 75 71 76
REMARK SMILES IDX 72 77 80 78 73 79 79 80 74 81 75 82 76 83 77 84 78 85 57 86
REMARK SMILES IDX 58 87 66 88 59 89 65 90 60 91 61 92 62 93 63 94 64 95
REMARK H PARENT 22 7 29 32 85 51 55 62
REMARK Flexibility Score: inf
ROOT
ATOM      1  C   UNL A   1      34.870  33.593  31.814  1.00  0.00     0.002 C 
ENDROOT
BRANCH   1   2
ATOM      2  C   UNL A   1      35.568  34.753  32.527  1.00  0.00     0.021 C 
BRANCH   2   3
ATOM      3  C   UNL A   1      36.753  34.323  33.385  1.00  0.00     0.116 C 
BRANCH   3   4
ATOM      4  N   UNL A   1      36.360  34.135  34.772  1.00  0.00    -0.353 N 
ATOM      5  C   UNL A   1      37.047  33.529  35.791  1.00  0.00     0.260 C 
ATOM      6  O   UNL A   1      36.503  33.442  36.895  1.00  0.00    -0.271 OA
ATOM      7  H   UNL A   1      35.476  34.494  35.014  1.00  0.00     0.163 HD
BRANCH   5   8
ATOM      8  C   UNL A   1      38.494  33.059  35.567  1.00  0.00     0.258 C 
ATOM      9  C   UNL A   1      39.390  34.274  35.836  1.00  0.00     0.064 C 
BRANCH   8  10
ATOM     10  O   UNL A   1      38.493  32.429  34.282  1.00  0.00    -0.481 OA
BRANCH  10  11
ATOM     11  C   UNL A   1      39.159  31.283  33.990  1.00  0.00     0.120 A 
ATOM     12  C   UNL A   1      38.677  30.210  33.255  1.00  0.00     0.047 A 
ATOM     13  C   UNL A   1      40.450  31.208  34.537  1.00  0.00     0.047 A 
ATOM     14  C   UNL A   1      39.421  29.033  33.166  1.00  0.00     0.013 A 
ATOM     15  C   UNL A   1      41.224  30.049  34.411  1.00  0.00     0.013 A 
ATOM     16  C   UNL A   1      40.687  28.949  33.749  1.00  0.00    -0.007 A 
BRANCH  16  17
ATOM     17  C   UNL A   1      41.451  27.691  33.635  1.00  0.00     0.119 C 
ATOM     18  N   UNL A   1      42.176  27.296  34.630  1.00  0.00    -0.255 NA
BRANCH  18  19
ATOM     19  C   UNL A   1      42.852  26.067  34.575  1.00  0.00     0.082 A 
ATOM     20  C   UNL A   1      43.928  26.021  33.676  1.00  0.00     0.031 A 
ATOM     21  C   UNL A   1      42.496  24.886  35.251  1.00  0.00     0.068 A 
ATOM     22  C   UNL A   1      44.655  24.849  33.475  1.00  0.00     0.023 A 
ATOM     23  C   UNL A   1      43.231  23.709  35.061  1.00  0.00     0.043 A 
ATOM     24  Cl  UNL A   1      41.133  24.809  36.313  1.00  0.00    -0.082 Cl
ATOM     25  C   UNL A   1      44.307  23.699  34.176  1.00  0.00     0.042 A 
ATOM     26  Cl  UNL A   1      45.209  22.255  33.933  1.00  0.00    -0.084 Cl
ENDBRANCH  18  19
ENDBRANCH  16  17
ENDBRANCH  10  11
ENDBRANCH   8  10
ENDBRANCH   5   8
ENDBRANCH   3   4
ENDBRANCH   2   3
ENDBRANCH   1   2
BRANCH   1  27
ATOM     27  C   UNL A   1      35.346  33.339  30.379  1.00  0.00     0.002 C 
BRANCH  27  28
ATOM     28  C   UNL A   1      34.237  33.314  29.324  1.00  0.00     0.021 C 
BRANCH  28  29
ATOM     29  C   UNL A   1      34.645  32.702  27.988  1.00  0.00     0.116 C 
BRANCH  29  30
ATOM     30  N   UNL A   1      33.967  31.442  27.732  1.00  0.00    -0.352 N 
ATOM     31  C   UNL A   1      34.483  30.171  27.672  1.00  0.00     0.251 C 
ATOM     32  H   UNL A   1      32.996  31.510  27.581  1.00  0.00     0.163 HD
ATOM     33  O   UNL A   1      33.794  29.249  27.254  1.00  0.00    -0.269 OA
BRANCH  31  34
ATOM     34  C   UNL A   1      35.879  29.928  28.093  1.00  0.00     0.039 A 
ATOM     35  C   UNL A   1      36.130  29.563  29.418  1.00  0.00     0.014 A 
ATOM     36  C   UNL A   1      36.935  30.055  27.187  1.00  0.00     0.014 A 
ATOM     37  C   UNL A   1      37.435  29.264  29.816  1.00  0.00     0.010 A 
ATOM     38  C   UNL A   1      38.221  29.682  27.565  1.00  0.00     0.010 A 
ATOM     39  C   UNL A   1      38.486  29.284  28.883  1.00  0.00    -0.014 A 
BRANCH  39  40
ATOM     40  C   UNL A   1      39.859  28.869  29.267  1.00  0.00     0.031 A 
ATOM     41  C   UNL A   1      40.776  29.828  29.976  1.00  0.00     0.074 A 
ATOM     42  C   UNL A   1      40.304  27.647  28.917  1.00  0.00     0.049 A 
ATOM     43  N   UNL A   1      42.016  29.655  30.356  1.00  0.00    -0.248 NA
ATOM     44  C   UNL A   1      40.237  31.164  30.278  1.00  0.00     0.031 C 
ATOM     45  C   UNL A   1      39.529  26.643  28.184  1.00  0.00     0.029 A 
ATOM     46  N   UNL A   1      41.519  27.041  29.124  1.00  0.00    -0.354 N 
ATOM     47  C   UNL A   1      42.409  30.858  30.928  1.00  0.00     0.074 A 
ATOM     48  C   UNL A   1      41.295  31.772  30.793  1.00  0.00     0.031 C 
ATOM     49  C   UNL A   1      40.278  25.541  28.025  1.00  0.00     0.029 A 
ATOM     50  C   UNL A   1      41.598  25.773  28.602  1.00  0.00     0.049 A 
ATOM     51  H   UNL A   1      42.263  27.475  29.601  1.00  0.00     0.167 HD
ATOM     52  C   UNL A   1      43.583  31.171  31.529  1.00  0.00     0.031 A 
ATOM     53  C   UNL A   1      42.619  24.895  28.578  1.00  0.00     0.031 A 
ATOM     54  C   UNL A   1      44.695  30.263  31.648  1.00  0.00     0.049 A 
ATOM     55  C   UNL A   1      43.921  25.265  29.231  1.00  0.00     0.074 A 
ATOM     56  C   UNL A   1      45.908  30.464  32.282  1.00  0.00     0.029 A 
ATOM     57  N   UNL A   1      44.734  28.984  31.109  1.00  0.00    -0.354 N 
ATOM     58  N   UNL A   1      44.248  26.382  29.838  1.00  0.00    -0.248 NA
ATOM     59  C   UNL A   1      44.987  24.255  29.207  1.00  0.00     0.031 C 
ATOM     60  C   UNL A   1      46.705  29.334  32.070  1.00  0.00     0.029 A 
ATOM     61  C   UNL A   1      45.962  28.398  31.366  1.00  0.00     0.049 A 
ATOM     62  H   UNL A   1      43.997  28.556  30.616  1.00  0.00     0.167 HD
ATOM     63  C   UNL A   1      45.552  26.202  30.284  1.00  0.00     0.074 A 
ATOM     64  C   UNL A   1      45.945  24.862  29.895  1.00  0.00     0.031 C 
ATOM     65  C   UNL A   1      46.350  27.069  30.958  1.00  0.00     0.031 A 
BRANCH  52  66
ATOM     66  C   UNL A   1      43.724  32.567  32.083  1.00  0.00    -0.014 A 
ATOM     67  C   UNL A   1      43.499  32.839  33.446  1.00  0.00     0.010 A 
ATOM     68  C   UNL A   1      44.091  33.625  31.231  1.00  0.00     0.010 A 
ATOM     69  C   UNL A   1      43.570  34.148  33.931  1.00  0.00     0.020 A 
ATOM     70  C   UNL A   1      44.198  34.931  31.719  1.00  0.00     0.020 A 
ATOM     71  C   UNL A   1      43.911  35.187  33.061  1.00  0.00     0.054 A 
BRANCH  71  72
ATOM     72  S   UNL A   1      43.978  36.878  33.713  1.00  0.00     0.124 S 
ATOM     73  O   UNL A   1      44.960  36.747  34.787  1.00  0.00    -0.237 OA
ATOM     74  O   UNL A   1      44.416  37.651  32.554  1.00  0.00    -0.237 OA
ATOM     75  O   UNL A   1      42.609  37.137  34.151  1.00  0.00    -0.744 OA
ENDBRANCH  71  72
ENDBRANCH  52  66
BRANCH  53  76
ATOM     76  C   UNL A   1      42.432  23.574  27.915  1.00  0.00    -0.014 A 
ATOM     77  C   UNL A   1      42.863  23.366  26.593  1.00  0.00     0.010 A 
ATOM     78  C   UNL A   1      41.873  22.497  28.629  1.00  0.00     0.010 A 
ATOM     79  C   UNL A   1      42.741  22.107  25.999  1.00  0.00     0.020 A 
ATOM     80  C   UNL A   1      41.776  21.230  28.048  1.00  0.00     0.020 A 
ATOM     81  C   UNL A   1      42.208  21.044  26.734  1.00  0.00     0.054 A 
BRANCH  81  82
ATOM     82  S   UNL A   1      42.146  19.398  25.973  1.00  0.00     0.124 S 
ATOM     83  O   UNL A   1      42.683  18.551  27.033  1.00  0.00    -0.237 OA
ATOM     84  O   UNL A   1      40.722  19.235  25.693  1.00  0.00    -0.237 OA
ATOM     85  O   UNL A   1      42.993  19.535  24.791  1.00  0.00    -0.744 OA
ENDBRANCH  81  82
ENDBRANCH  53  76
BRANCH  65  86
ATOM     86  C   UNL A   1      47.729  26.591  31.334  1.00  0.00    -0.014 A 
ATOM     87  C   UNL A   1      47.978  25.983  32.577  1.00  0.00     0.010 A 
ATOM     88  C   UNL A   1      48.780  26.705  30.405  1.00  0.00     0.010 A 
ATOM     89  C   UNL A   1      49.260  25.526  32.897  1.00  0.00     0.020 A 
ATOM     90  C   UNL A   1      50.055  26.221  30.709  1.00  0.00     0.020 A 
ATOM     91  C   UNL A   1      50.291  25.647  31.959  1.00  0.00     0.054 A 
BRANCH  91  92
ATOM     92  S   UNL A   1      51.934  25.006  32.383  1.00  0.00     0.124 S 
ATOM     93  O   UNL A   1      52.091  25.460  33.762  1.00  0.00    -0.237 OA
ATOM     94  O   UNL A   1      51.769  23.565  32.210  1.00  0.00    -0.237 OA
ATOM     95  O   UNL A   1      52.818  25.647  31.411  1.00  0.00    -0.744 OA
ENDBRANCH  91  92
ENDBRANCH  65  86
ENDBRANCH  39  40
ENDBRANCH  31  34
ENDBRANCH  29  30
ENDBRANCH  28  29
ENDBRANCH  27  28
ENDBRANCH   1  27
TORSDOF 20
ENDMDL
MODEL 2
REMARK VINA RESULT:      -8.1      2.864      5.155
REMARK SMILES C[C@H](Oc1ccc(/C=N/c2ccc(Cl)cc2Cl)cc1)C(=O)NCCCCCCNC(=O)c1ccc(-c2c3nc(c(-c4ccc(S(=O)(=O)[O-])cc4)c4ccc([nH]4)c(-c4ccc(S(=O)(=O)[O-])cc4)c4nc(c(-c5ccc(S(=O)(=O)[O-])cc5)c5ccc2[nH]5)C=C4)C=C3)cc1
REMARK SMILES IDX 25 1 24 2 23 3 22 4 20 5 21 6 2 8 1 9 3 10 4 11 5 12 19 13
REMARK SMILES IDX 6 14 18 15 7 16 8 17 9 18 10 19 11 20 16 21 12 22 15 23
REMARK SMILES IDX 17 24 13 25 14 26 26 27 27 28 28 29 29 30 30 31 31 33 32 34
REMARK SMILES IDX 33 35 91 36 34 37 90 38 35 39 36 40 37 41 84 42 38 43 89 44
REMARK SMILES IDX 83 45 85 46 39 47 88 48 82 49 81 50 40 52 70 53 51 54 69 55
REMARK SMILES IDX 52 56 55 57 68 58 86 59 53 60 54 61 67 63 87 64 56 65 41 66
REMARK SMILES IDX 42 67 50 68 43 69 49 70 44 71 45 72 46 73 47 74 48 75 71 76
REMARK SMILES IDX 72 77 80 78 73 79 79 80 74 81 75 82 76 83 77 84 78 85 57 86
REMARK SMILES IDX 58 87 66 88 59 89 65 90 60 91 61 92 62 93 63 94 64 95
REMARK H PARENT 22 7 29 32 85 51 55 62
REMARK Flexibility Score: inf
ROOT
ATOM      1  C   UNL A   1      34.738  32.631  31.964  1.00  0.00     0.002 C 
ENDROOT
BRANCH   1   2
ATOM      2  C   UNL A   1      35.977  32.955  32.804  1.00  0.00     0.021 C 
BRANCH   2   3
ATOM      3  C   UNL A   1      37.198  32.114  32.446  1.00  0.00     0.116 C 
BRANCH   3   4
ATOM      4  N   UNL A   1      36.922  30.694  32.590  1.00  0.00    -0.353 N 
ATOM      5  C   UNL A   1      37.708  29.710  33.129  1.00  0.00     0.260 C 
ATOM      6  O   UNL A   1      37.290  28.550  33.113  1.00  0.00    -0.271 OA
ATOM      7  H   UNL A   1      36.046  30.397  32.253  1.00  0.00     0.163 HD
BRANCH   5   8
ATOM      8  C   UNL A   1      39.035  30.079  33.815  1.00  0.00     0.258 C 
ATOM      9  C   UNL A   1      40.048  29.004  33.404  1.00  0.00     0.064 C 
BRANCH   8  10
ATOM     10  O   UNL A   1      38.705  30.275  35.194  1.00  0.00    -0.481 OA
BRANCH  10  11
ATOM     11  C   UNL A   1      38.983  31.404  35.895  1.00  0.00     0.120 A 
ATOM     12  C   UNL A   1      40.238  31.951  36.117  1.00  0.00     0.047 A 
ATOM     13  C   UNL A   1      37.859  32.026  36.460  1.00  0.00     0.047 A 
ATOM     14  C   UNL A   1      40.385  33.032  36.988  1.00  0.00     0.013 A 
ATOM     15  C   UNL A   1      37.991  33.141  37.295  1.00  0.00     0.013 A 
ATOM     16  C   UNL A   1      39.266  33.621  37.582  1.00  0.00    -0.007 A 
BRANCH  16  17
ATOM     17  C   UNL A   1      39.454  34.764  38.496  1.00  0.00     0.119 C 
ATOM     18  N   UNL A   1      40.059  35.825  38.071  1.00  0.00    -0.255 NA
BRANCH  18  19
ATOM     19  C   UNL A   1      40.184  36.953  38.896  1.00  0.00     0.082 A 
ATOM     20  C   UNL A   1      38.975  37.461  39.395  1.00  0.00     0.031 A 
ATOM     21  C   UNL A   1      41.370  37.654  39.179  1.00  0.00     0.068 A 
ATOM     22  C   UNL A   1      38.942  38.611  40.180  1.00  0.00     0.023 A 
ATOM     23  C   UNL A   1      41.343  38.804  39.978  1.00  0.00     0.043 A 
ATOM     24  Cl  UNL A   1      42.902  37.167  38.541  1.00  0.00    -0.082 Cl
ATOM     25  C   UNL A   1      40.129  39.274  40.475  1.00  0.00     0.042 A 
ATOM     26  Cl  UNL A   1      40.088  40.690  41.451  1.00  0.00    -0.084 Cl
ENDBRANCH  18  19
ENDBRANCH  16  17
ENDBRANCH  10  11
ENDBRANCH   8  10
ENDBRANCH   5   8
ENDBRANCH   3   4
ENDBRANCH   2   3
ENDBRANCH   1   2
BRANCH   1  27
ATOM     27  C   UNL A   1      35.030  32.231  30.513  1.00  0.00     0.002 C 
BRANCH  27  28
ATOM     28  C   UNL A   1      34.312  33.071  29.454  1.00  0.00     0.021 C 
BRANCH  28  29
ATOM     29  C   UNL A   1      34.647  32.699  28.013  1.00  0.00     0.116 C 
BRANCH  29  30
ATOM     30  N   UNL A   1      34.016  31.454  27.609  1.00  0.00    -0.352 N 
ATOM     31  C   UNL A   1      34.566  30.202  27.471  1.00  0.00     0.251 C 
ATOM     32  H   UNL A   1      33.055  31.515  27.404  1.00  0.00     0.163 HD
ATOM     33  O   UNL A   1      33.926  29.307  26.933  1.00  0.00    -0.269 OA
BRANCH  31  34
ATOM     34  C   UNL A   1      35.940  29.950  27.956  1.00  0.00     0.039 A 
ATOM     35  C   UNL A   1      36.118  29.440  29.244  1.00  0.00     0.014 A 
ATOM     36  C   UNL A   1      37.047  30.210  27.144  1.00  0.00     0.014 A 
ATOM     37  C   UNL A   1      37.404  29.132  29.693  1.00  0.00     0.010 A 
ATOM     38  C   UNL A   1      38.319  29.831  27.563  1.00  0.00     0.010 A 
ATOM     39  C   UNL A   1      38.511  29.289  28.842  1.00  0.00    -0.014 A 
BRANCH  39  40
ATOM     40  C   UNL A   1      39.870  28.870  29.268  1.00  0.00     0.031 A 
ATOM     41  C   UNL A   1      40.760  29.819  30.026  1.00  0.00     0.074 A 
ATOM     42  C   UNL A   1      40.330  27.654  28.915  1.00  0.00     0.049 A 
ATOM     43  N   UNL A   1      41.986  29.641  30.447  1.00  0.00    -0.248 NA
ATOM     44  C   UNL A   1      40.207  31.148  30.330  1.00  0.00     0.031 C 
ATOM     45  C   UNL A   1      39.584  26.662  28.137  1.00  0.00     0.029 A 
ATOM     46  N   UNL A   1      41.538  27.047  29.155  1.00  0.00    -0.354 N 
ATOM     47  C   UNL A   1      42.355  30.835  31.054  1.00  0.00     0.074 A 
ATOM     48  C   UNL A   1      41.245  31.749  30.893  1.00  0.00     0.031 C 
ATOM     49  C   UNL A   1      40.341  25.564  27.987  1.00  0.00     0.029 A 
ATOM     50  C   UNL A   1      41.638  25.788  28.616  1.00  0.00     0.049 A 
ATOM     51  H   UNL A   1      42.263  27.474  29.666  1.00  0.00     0.167 HD
ATOM     52  C   UNL A   1      43.506  31.140  31.701  1.00  0.00     0.031 A 
ATOM     53  C   UNL A   1      42.661  24.911  28.613  1.00  0.00     0.031 A 
ATOM     54  C   UNL A   1      44.614  30.231  31.845  1.00  0.00     0.049 A 
ATOM     55  C   UNL A   1      43.938  25.273  29.319  1.00  0.00     0.074 A 
ATOM     56  C   UNL A   1      45.803  30.423  32.526  1.00  0.00     0.029 A 
ATOM     57  N   UNL A   1      44.675  28.961  31.286  1.00  0.00    -0.354 N 
ATOM     58  N   UNL A   1      44.241  26.380  29.956  1.00  0.00    -0.248 NA
ATOM     59  C   UNL A   1      45.006  24.265  29.317  1.00  0.00     0.031 C 
ATOM     60  C   UNL A   1      46.610  29.298  32.324  1.00  0.00     0.029 A 
ATOM     61  C   UNL A   1      45.895  28.372  31.578  1.00  0.00     0.049 A 
ATOM     62  H   UNL A   1      43.958  28.541  30.761  1.00  0.00     0.167 HD
ATOM     63  C   UNL A   1      45.528  26.195  30.446  1.00  0.00     0.074 A 
ATOM     64  C   UNL A   1      45.938  24.862  30.049  1.00  0.00     0.031 C 
ATOM     65  C   UNL A   1      46.300  27.051  31.162  1.00  0.00     0.031 A 
BRANCH  52  66
ATOM     66  C   UNL A   1      43.624  32.526  32.283  1.00  0.00    -0.014 A 
ATOM     67  C   UNL A   1      44.040  33.616  31.496  1.00  0.00     0.010 A 
ATOM     68  C   UNL A   1      43.312  32.746  33.638  1.00  0.00     0.010 A 
ATOM     69  C   UNL A   1      44.206  34.882  32.065  1.00  0.00     0.020 A 
ATOM     70  C   UNL A   1      43.443  34.018  34.204  1.00  0.00     0.020 A 
ATOM     71  C   UNL A   1      43.915  35.072  33.419  1.00  0.00     0.054 A 
BRANCH  71  72
ATOM     72  S   UNL A   1      44.157  36.720  34.136  1.00  0.00     0.124 S 
ATOM     73  O   UNL A   1      44.342  37.542  32.943  1.00  0.00    -0.237 OA
ATOM     74  O   UNL A   1      42.910  36.940  34.862  1.00  0.00    -0.237 OA
ATOM     75  O   UNL A   1      45.343  36.564  34.974  1.00  0.00    -0.744 OA
ENDBRANCH  71  72
ENDBRANCH  52  66
BRANCH  53  76
ATOM     76  C   UNL A   1      42.501  23.602  27.922  1.00  0.00    -0.014 A 
ATOM     77  C   UNL A   1      42.763  23.479  26.547  1.00  0.00     0.010 A 
ATOM     78  C   UNL A   1      42.142  22.455  28.655  1.00  0.00     0.010 A 
ATOM     79  C   UNL A   1      42.670  22.234  25.918  1.00  0.00     0.020 A 
ATOM     80  C   UNL A   1      42.077  21.204  28.036  1.00  0.00     0.020 A 
ATOM     81  C   UNL A   1      42.338  21.103  26.669  1.00  0.00     0.054 A 
BRANCH  81  82
ATOM     82  S   UNL A   1      42.317  19.484  25.848  1.00  0.00     0.124 S 
ATOM     83  O   UNL A   1      43.358  19.640  24.838  1.00  0.00    -0.237 OA
ATOM     84  O   UNL A   1      42.631  18.572  26.946  1.00  0.00    -0.237 OA
ATOM     85  O   UNL A   1      40.954  19.379  25.332  1.00  0.00    -0.744 OA
ENDBRANCH  81  82
ENDBRANCH  53  76
BRANCH  65  86
ATOM     86  C   UNL A   1      47.665  26.569  31.580  1.00  0.00    -0.014 A 
ATOM     87  C   UNL A   1      47.867  25.925  32.814  1.00  0.00     0.010 A 
ATOM     88  C   UNL A   1      48.752  26.715  30.698  1.00  0.00     0.010 A 
ATOM     89  C   UNL A   1      49.138  25.466  33.172  1.00  0.00     0.020 A 
ATOM     90  C   UNL A   1      50.017  26.229  31.040  1.00  0.00     0.020 A 
ATOM     91  C   UNL A   1      50.205  25.619  32.281  1.00  0.00     0.054 A 
BRANCH  91  92
ATOM     92  S   UNL A   1      51.834  24.974  32.752  1.00  0.00     0.124 S 
ATOM     93  O   UNL A   1      51.737  24.938  34.209  1.00  0.00    -0.237 OA
ATOM     94  O   UNL A   1      51.865  23.671  32.092  1.00  0.00    -0.237 OA
ATOM     95  O   UNL A   1      52.767  25.961  32.214  1.00  0.00    -0.744 OA
ENDBRANCH  91  92
ENDBRANCH  65  86
ENDBRANCH  39  40
ENDBRANCH  31  34
ENDBRANCH  29  30
ENDBRANCH  28  29
ENDBRANCH  27  28
ENDBRANCH   1  27
TORSDOF 20
ENDMDL
MODEL 3
REMARK VINA RESULT:      -7.9      2.949      4.512
REMARK SMILES C[C@H](Oc1ccc(/C=N/c2ccc(Cl)cc2Cl)cc1)C(=O)NCCCCCCNC(=O)c1ccc(-c2c3nc(c(-c4ccc(S(=O)(=O)[O-])cc4)c4ccc([nH]4)c(-c4ccc(S(=O)(=O)[O-])cc4)c4nc(c(-c5ccc(S(=O)(=O)[O-])cc5)c5ccc2[nH]5)C=C4)C=C3)cc1
REMARK SMILES IDX 25 1 24 2 23 3 22 4 20 5 21 6 2 8 1 9 3 10 4 11 5 12 19 13
REMARK SMILES IDX 6 14 18 15 7 16 8 17 9 18 10 19 11 20 16 21 12 22 15 23
REMARK SMILES IDX 17 24 13 25 14 26 26 27 27 28 28 29 29 30 30 31 31 33 32 34
REMARK SMILES IDX 33 35 91 36 34 37 90 38 35 39 36 40 37 41 84 42 38 43 89 44
REMARK SMILES IDX 83 45 85 46 39 47 88 48 82 49 81 50 40 52 70 53 51 54 69 55
REMARK SMILES IDX 52 56 55 57 68 58 86 59 53 60 54 61 67 63 87 64 56 65 41 66
REMARK SMILES IDX 42 67 50 68 43 69 49 70 44 71 45 72 46 73 47 74 48 75 71 76
REMARK SMILES IDX 72 77 80 78 73 79 79 80 74 81 75 82 76 83 77 84 78 85 57 86
REMARK SMILES IDX 58 87 66 88 59 89 65 90 60 91 61 92 62 93 63 94 64 95
REMARK H PARENT 22 7 29 32 85 51 55 62
REMARK Flexibility Score: inf
ROOT
ATOM      1  C   UNL A   1      34.771  33.258  31.931  1.00  0.00     0.002 C 
ENDROOT
BRANCH   1   2
ATOM      2  C   UNL A   1      35.843  34.301  32.257  1.00  0.00     0.021 C 
BRANCH   2   3
ATOM      3  C   UNL A   1      37.254  33.874  31.865  1.00  0.00     0.116 C 
BRANCH   3   4
ATOM      4  N   UNL A   1      37.586  32.573  32.422  1.00  0.00    -0.353 N 
ATOM      5  C   UNL A   1      38.581  32.237  33.301  1.00  0.00     0.260 C 
ATOM      6  O   UNL A   1      38.711  31.051  33.614  1.00  0.00    -0.271 OA
ATOM      7  H   UNL A   1      37.014  31.828  32.126  1.00  0.00     0.163 HD
BRANCH   5   8
ATOM      8  C   UNL A   1      39.443  33.338  33.941  1.00  0.00     0.258 C 
ATOM      9  C   UNL A   1      40.649  32.632  34.573  1.00  0.00     0.064 C 
BRANCH   8  10
ATOM     10  O   UNL A   1      38.542  34.100  34.751  1.00  0.00    -0.481 OA
BRANCH  10  11
ATOM     11  C   UNL A   1      38.403  33.949  36.092  1.00  0.00     0.120 A 
ATOM     12  C   UNL A   1      39.121  34.609  37.079  1.00  0.00     0.047 A 
ATOM     13  C   UNL A   1      37.447  32.993  36.471  1.00  0.00     0.047 A 
ATOM     14  C   UNL A   1      38.976  34.238  38.416  1.00  0.00     0.013 A 
ATOM     15  C   UNL A   1      37.258  32.649  37.814  1.00  0.00     0.013 A 
ATOM     16  C   UNL A   1      38.053  33.255  38.783  1.00  0.00    -0.007 A 
BRANCH  16  17
ATOM     17  C   UNL A   1      37.921  32.887  40.206  1.00  0.00     0.119 C 
ATOM     18  N   UNL A   1      37.306  31.795  40.525  1.00  0.00    -0.255 NA
BRANCH  18  19
ATOM     19  C   UNL A   1      37.231  31.384  41.865  1.00  0.00     0.082 A 
ATOM     20  C   UNL A   1      38.074  30.316  42.206  1.00  0.00     0.031 A 
ATOM     21  C   UNL A   1      36.343  31.871  42.840  1.00  0.00     0.068 A 
ATOM     22  C   UNL A   1      38.065  29.766  43.486  1.00  0.00     0.023 A 
ATOM     23  C   UNL A   1      36.338  31.329  44.132  1.00  0.00     0.043 A 
ATOM     24  Cl  UNL A   1      35.200  33.124  42.501  1.00  0.00    -0.082 Cl
ATOM     25  C   UNL A   1      37.201  30.281  44.446  1.00  0.00     0.042 A 
ATOM     26  Cl  UNL A   1      37.194  29.606  46.029  1.00  0.00    -0.084 Cl
ENDBRANCH  18  19
ENDBRANCH  16  17
ENDBRANCH  10  11
ENDBRANCH   8  10
ENDBRANCH   5   8
ENDBRANCH   3   4
ENDBRANCH   2   3
ENDBRANCH   1   2
BRANCH   1  27
ATOM     27  C   UNL A   1      34.950  32.548  30.584  1.00  0.00     0.002 C 
BRANCH  27  28
ATOM     28  C   UNL A   1      34.210  33.194  29.410  1.00  0.00     0.021 C 
BRANCH  28  29
ATOM     29  C   UNL A   1      34.484  32.548  28.055  1.00  0.00     0.116 C 
BRANCH  29  30
ATOM     30  N   UNL A   1      33.828  31.258  27.921  1.00  0.00    -0.352 N 
ATOM     31  C   UNL A   1      34.378  29.999  27.898  1.00  0.00     0.251 C 
ATOM     32  H   UNL A   1      32.847  31.291  27.835  1.00  0.00     0.163 HD
ATOM     33  O   UNL A   1      33.689  29.036  27.583  1.00  0.00    -0.269 OA
BRANCH  31  34
ATOM     34  C   UNL A   1      35.806  29.819  28.232  1.00  0.00     0.039 A 
ATOM     35  C   UNL A   1      36.153  29.451  29.534  1.00  0.00     0.014 A 
ATOM     36  C   UNL A   1      36.799  30.008  27.267  1.00  0.00     0.014 A 
ATOM     37  C   UNL A   1      37.491  29.210  29.850  1.00  0.00     0.010 A 
ATOM     38  C   UNL A   1      38.122  29.693  27.563  1.00  0.00     0.010 A 
ATOM     39  C   UNL A   1      38.483  29.291  28.857  1.00  0.00    -0.014 A 
BRANCH  39  40
ATOM     40  C   UNL A   1      39.894  28.939  29.153  1.00  0.00     0.031 A 
ATOM     41  C   UNL A   1      40.825  29.955  29.758  1.00  0.00     0.074 A 
ATOM     42  C   UNL A   1      40.358  27.720  28.815  1.00  0.00     0.049 A 
ATOM     43  N   UNL A   1      42.095  29.839  30.051  1.00  0.00    -0.248 NA
ATOM     44  C   UNL A   1      40.260  31.282  30.052  1.00  0.00     0.031 C 
ATOM     45  C   UNL A   1      39.569  26.664  28.177  1.00  0.00     0.029 A 
ATOM     46  N   UNL A   1      41.606  27.165  28.954  1.00  0.00    -0.354 N 
ATOM     47  C   UNL A   1      42.484  31.076  30.550  1.00  0.00     0.074 A 
ATOM     48  C   UNL A   1      41.329  31.945  30.465  1.00  0.00     0.031 C 
ATOM     49  C   UNL A   1      40.345  25.582  28.003  1.00  0.00     0.029 A 
ATOM     50  C   UNL A   1      41.694  25.881  28.473  1.00  0.00     0.049 A 
ATOM     51  H   UNL A   1      42.366  27.642  29.359  1.00  0.00     0.167 HD
ATOM     52  C   UNL A   1      43.686  31.452  31.051  1.00  0.00     0.031 A 
ATOM     53  C   UNL A   1      42.741  25.037  28.404  1.00  0.00     0.031 A 
ATOM     54  C   UNL A   1      44.835  30.587  31.120  1.00  0.00     0.049 A 
ATOM     55  C   UNL A   1      44.073  25.477  28.945  1.00  0.00     0.074 A 
ATOM     56  C   UNL A   1      46.083  30.854  31.655  1.00  0.00     0.029 A 
ATOM     57  N   UNL A   1      44.882  29.290  30.625  1.00  0.00    -0.354 N 
ATOM     58  N   UNL A   1      44.402  26.626  29.487  1.00  0.00    -0.248 NA
ATOM     59  C   UNL A   1      45.171  24.504  28.879  1.00  0.00     0.031 C 
ATOM     60  C   UNL A   1      46.904  29.744  31.426  1.00  0.00     0.029 A 
ATOM     61  C   UNL A   1      46.147  28.757  30.812  1.00  0.00     0.049 A 
ATOM     62  H   UNL A   1      44.128  28.819  30.204  1.00  0.00     0.167 HD
ATOM     63  C   UNL A   1      45.741  26.509  29.842  1.00  0.00     0.074 A 
ATOM     64  C   UNL A   1      46.153  25.169  29.472  1.00  0.00     0.031 C 
ATOM     65  C   UNL A   1      46.553  27.427  30.424  1.00  0.00     0.031 A 
BRANCH  52  66
ATOM     66  C   UNL A   1      43.815  32.872  31.543  1.00  0.00    -0.014 A 
ATOM     67  C   UNL A   1      43.652  33.191  32.905  1.00  0.00     0.010 A 
ATOM     68  C   UNL A   1      44.107  33.904  30.633  1.00  0.00     0.010 A 
ATOM     69  C   UNL A   1      43.711  34.519  33.335  1.00  0.00     0.020 A 
ATOM     70  C   UNL A   1      44.202  35.231  31.064  1.00  0.00     0.020 A 
ATOM     71  C   UNL A   1      43.977  35.532  32.409  1.00  0.00     0.054 A 
BRANCH  71  72
ATOM     72  S   UNL A   1      44.029  37.249  32.992  1.00  0.00     0.124 S 
ATOM     73  O   UNL A   1      45.336  37.306  33.642  1.00  0.00    -0.237 OA
ATOM     74  O   UNL A   1      43.912  38.012  31.752  1.00  0.00    -0.237 OA
ATOM     75  O   UNL A   1      42.882  37.347  33.890  1.00  0.00    -0.744 OA
ENDBRANCH  71  72
ENDBRANCH  52  66
BRANCH  53  76
ATOM     76  C   UNL A   1      42.556  23.687  27.804  1.00  0.00    -0.014 A 
ATOM     77  C   UNL A   1      42.866  23.452  26.453  1.00  0.00     0.010 A 
ATOM     78  C   UNL A   1      42.123  22.612  28.603  1.00  0.00     0.010 A 
ATOM     79  C   UNL A   1      42.748  22.168  25.913  1.00  0.00     0.020 A 
ATOM     80  C   UNL A   1      42.032  21.322  28.074  1.00  0.00     0.020 A 
ATOM     81  C   UNL A   1      42.342  21.109  26.731  1.00  0.00     0.054 A 
BRANCH  81  82
ATOM     82  S   UNL A   1      42.287  19.436  26.030  1.00  0.00     0.124 S 
ATOM     83  O   UNL A   1      40.872  19.288  25.703  1.00  0.00    -0.237 OA
ATOM     84  O   UNL A   1      43.192  19.545  24.889  1.00  0.00    -0.237 OA
ATOM     85  O   UNL A   1      42.770  18.592  27.120  1.00  0.00    -0.744 OA
ENDBRANCH  81  82
ENDBRANCH  53  76
BRANCH  65  86
ATOM     86  C   UNL A   1      47.972  27.011  30.714  1.00  0.00    -0.014 A 
ATOM     87  C   UNL A   1      49.021  27.326  29.831  1.00  0.00     0.010 A 
ATOM     88  C   UNL A   1      48.267  26.343  31.917  1.00  0.00     0.010 A 
ATOM     89  C   UNL A   1      50.334  26.949  30.131  1.00  0.00     0.020 A 
ATOM     90  C   UNL A   1      49.582  25.993  32.234  1.00  0.00     0.020 A 
ATOM     91  C   UNL A   1      50.607  26.287  31.332  1.00  0.00     0.054 A 
BRANCH  91  92
ATOM     92  S   UNL A   1      52.324  25.851  31.716  1.00  0.00     0.124 S 
ATOM     93  O   UNL A   1      52.996  26.114  30.447  1.00  0.00    -0.237 OA
ATOM     94  O   UNL A   1      52.652  26.770  32.803  1.00  0.00    -0.237 OA
ATOM     95  O   UNL A   1      52.247  24.443  32.100  1.00  0.00    -0.744 OA
ENDBRANCH  91  92
ENDBRANCH  65  86
ENDBRANCH  39  40
ENDBRANCH  31  34
ENDBRANCH  29  30
ENDBRANCH  28  29
ENDBRANCH  27  28
ENDBRANCH   1  27
TORSDOF 20
ENDMDL
