MODEL 1
REMARK VINA RESULT:     -13.0      0.000      0.000
REMARK SMILES Cc1ccc2c(c1)c(-c1ccnc3c(C)cccc13)c(C)n2CC(=O)NCCCCCCNC(=O)c1ccc(-c2c3nc(c(-c4ccc(S(=O)(=O)[O-])cc4)c4ccc([nH]4)c(-c4ccc(S(=O)(=O)[O-])cc4)c4nc(c(-c5ccc(S(=O)(=O)[O-])cc5)c5ccc2[nH]5)C=C4)C=C3)cc1
REMARK SMILES IDX 30 1 29 2 28 3 27 4 26 5 24 6 25 7 23 9 22 10 1 11 2 12 3 13
REMARK SMILES IDX 7 14 4 15 6 16 5 17 8 18 20 19 21 20 9 21 10 22 19 23 11 24
REMARK SMILES IDX 13 25 18 26 12 27 14 28 17 29 15 30 16 31 31 32 32 33 33 34
REMARK SMILES IDX 34 35 35 37 36 38 37 39 95 40 38 41 94 42 39 43 40 44 41 45
REMARK SMILES IDX 88 46 42 47 93 48 87 49 89 50 43 51 92 52 86 53 85 54 44 56
REMARK SMILES IDX 74 57 55 58 73 59 56 60 59 61 72 62 90 63 57 64 58 65 71 67
REMARK SMILES IDX 91 68 60 69 45 70 46 71 54 72 47 73 53 74 48 75 49 76 50 77
REMARK SMILES IDX 51 78 52 79 75 80 76 81 84 82 77 83 83 84 78 85 79 86 80 87
REMARK SMILES IDX 81 88 82 89 61 90 62 91 70 92 63 93 69 94 64 95 65 96 66 97
REMARK SMILES IDX 67 98 68 99
REMARK H PARENT 26 8 33 36 89 55 59 66
REMARK Flexibility Score: inf
ROOT
ATOM      1  C   UNL A   1      37.081  22.411  24.498  1.00  0.00     0.002 C 
ENDROOT
BRANCH   1   2
ATOM      2  C   UNL A   1      36.249  21.266  25.086  1.00  0.00     0.002 C 
BRANCH   2   3
ATOM      3  C   UNL A   1      34.739  21.533  25.126  1.00  0.00     0.021 C 
BRANCH   3   4
ATOM      4  C   UNL A   1      34.113  21.309  26.500  1.00  0.00     0.116 C 
BRANCH   4   5
ATOM      5  N   UNL A   1      32.715  21.701  26.507  1.00  0.00    -0.355 N 
ATOM      6  C   UNL A   1      32.169  22.951  26.525  1.00  0.00     0.239 C 
ATOM      7  O   UNL A   1      30.940  23.046  26.599  1.00  0.00    -0.273 OA
ATOM      8  H   UNL A   1      32.068  20.958  26.497  1.00  0.00     0.163 HD
BRANCH   6   9
ATOM      9  C   UNL A   1      33.042  24.184  26.390  1.00  0.00     0.222 C 
BRANCH   9  10
ATOM     10  N   UNL A   1      32.526  25.182  25.456  1.00  0.00    -0.335 N 
ATOM     11  C   UNL A   1      32.622  25.591  19.814  1.00  0.00     0.044 C 
ATOM     12  C   UNL A   1      32.570  25.385  21.299  1.00  0.00    -0.050 A 
ATOM     13  C   UNL A   1      32.982  24.180  21.866  1.00  0.00     0.005 A 
ATOM     14  C   UNL A   1      32.123  26.422  22.133  1.00  0.00     0.014 A 
ATOM     15  C   UNL A   1      32.968  23.986  23.250  1.00  0.00     0.027 A 
ATOM     16  C   UNL A   1      32.109  26.255  23.536  1.00  0.00     0.008 A 
ATOM     17  C   UNL A   1      32.552  25.046  24.076  1.00  0.00     0.049 A 
ATOM     18  C   UNL A   1      31.729  27.091  24.627  1.00  0.00     0.011 A 
ATOM     19  C   UNL A   1      31.933  26.383  25.803  1.00  0.00     0.024 A 
ATOM     20  C   UNL A   1      31.649  26.795  27.211  1.00  0.00     0.065 C 
BRANCH  18  21
ATOM     21  C   UNL A   1      31.198  28.448  24.581  1.00  0.00    -0.005 A 
ATOM     22  C   UNL A   1      31.935  29.451  25.205  1.00  0.00     0.029 A 
ATOM     23  C   UNL A   1      29.964  28.758  23.952  1.00  0.00     0.008 A 
ATOM     24  C   UNL A   1      31.433  30.731  25.172  1.00  0.00     0.112 A 
ATOM     25  C   UNL A   1      29.538  30.107  23.973  1.00  0.00     0.074 A 
ATOM     26  C   UNL A   1      29.147  27.791  23.322  1.00  0.00     0.011 A 
ATOM     27  N   UNL A   1      30.272  31.068  24.572  1.00  0.00    -0.256 NA
ATOM     28  C   UNL A   1      28.321  30.434  23.353  1.00  0.00    -0.025 A 
ATOM     29  C   UNL A   1      27.940  28.127  22.724  1.00  0.00     0.001 A 
ATOM     30  C   UNL A   1      27.806  31.850  23.325  1.00  0.00     0.047 C 
ATOM     31  C   UNL A   1      27.528  29.448  22.739  1.00  0.00     0.005 A 
ENDBRANCH  18  21
ENDBRANCH   9  10
ENDBRANCH   6   9
ENDBRANCH   4   5
ENDBRANCH   3   4
ENDBRANCH   2   3
ENDBRANCH   1   2
BRANCH   1  32
ATOM     32  C   UNL A   1      37.920  23.193  25.517  1.00  0.00     0.021 C 
BRANCH  32  33
ATOM     33  C   UNL A   1      38.810  22.313  26.397  1.00  0.00     0.116 C 
BRANCH  33  34
ATOM     34  N   UNL A   1      40.152  22.158  25.877  1.00  0.00    -0.352 N 
ATOM     35  C   UNL A   1      41.310  22.878  25.972  1.00  0.00     0.251 C 
ATOM     36  H   UNL A   1      40.254  21.347  25.328  1.00  0.00     0.163 HD
ATOM     37  O   UNL A   1      42.304  22.368  25.446  1.00  0.00    -0.269 OA
BRANCH  35  38
ATOM     38  C   UNL A   1      41.436  24.225  26.592  1.00  0.00     0.039 A 
ATOM     39  C   UNL A   1      41.926  24.494  27.870  1.00  0.00     0.014 A 
ATOM     40  C   UNL A   1      40.941  25.297  25.825  1.00  0.00     0.014 A 
ATOM     41  C   UNL A   1      41.807  25.768  28.415  1.00  0.00     0.010 A 
ATOM     42  C   UNL A   1      40.843  26.578  26.356  1.00  0.00     0.010 A 
ATOM     43  C   UNL A   1      41.215  26.795  27.677  1.00  0.00    -0.014 A 
BRANCH  43  44
ATOM     44  C   UNL A   1      41.052  28.091  28.324  1.00  0.00     0.031 A 
ATOM     45  C   UNL A   1      42.167  29.055  28.109  1.00  0.00     0.074 A 
ATOM     46  C   UNL A   1      39.946  28.443  29.010  1.00  0.00     0.049 A 
ATOM     47  N   UNL A   1      42.973  29.558  28.986  1.00  0.00    -0.248 NA
ATOM     48  C   UNL A   1      42.492  29.413  26.720  1.00  0.00     0.031 C 
ATOM     49  C   UNL A   1      38.665  27.734  29.100  1.00  0.00     0.029 A 
ATOM     50  N   UNL A   1      39.709  29.587  29.707  1.00  0.00    -0.354 N 
ATOM     51  C   UNL A   1      43.801  30.438  28.291  1.00  0.00     0.074 A 
ATOM     52  C   UNL A   1      43.550  30.205  26.890  1.00  0.00     0.031 C 
ATOM     53  C   UNL A   1      37.724  28.570  29.599  1.00  0.00     0.029 A 
ATOM     54  C   UNL A   1      38.372  29.798  30.020  1.00  0.00     0.049 A 
ATOM     55  H   UNL A   1      40.423  30.212  29.968  1.00  0.00     0.167 HD
ATOM     56  C   UNL A   1      44.502  31.428  28.910  1.00  0.00     0.031 A 
ATOM     57  C   UNL A   1      37.831  30.925  30.545  1.00  0.00     0.031 A 
ATOM     58  C   UNL A   1      44.622  31.202  30.323  1.00  0.00     0.049 A 
ATOM     59  C   UNL A   1      38.930  31.667  31.208  1.00  0.00     0.074 A 
ATOM     60  C   UNL A   1      45.227  30.241  31.105  1.00  0.00     0.029 A 
ATOM     61  N   UNL A   1      43.746  31.865  31.147  1.00  0.00    -0.354 N 
ATOM     62  N   UNL A   1      39.574  31.226  32.252  1.00  0.00    -0.248 NA
ATOM     63  C   UNL A   1      39.600  32.713  30.453  1.00  0.00     0.031 C 
ATOM     64  C   UNL A   1      44.346  30.060  32.210  1.00  0.00     0.029 A 
ATOM     65  C   UNL A   1      43.287  30.960  32.069  1.00  0.00     0.049 A 
ATOM     66  H   UNL A   1      43.494  32.815  31.087  1.00  0.00     0.167 HD
ATOM     67  C   UNL A   1      40.887  31.628  32.056  1.00  0.00     0.074 A 
ATOM     68  C   UNL A   1      40.821  32.619  30.984  1.00  0.00     0.031 C 
ATOM     69  C   UNL A   1      41.934  30.936  32.594  1.00  0.00     0.031 A 
BRANCH  56  70
ATOM     70  C   UNL A   1      44.789  32.768  28.280  1.00  0.00    -0.014 A 
ATOM     71  C   UNL A   1      43.791  33.743  28.076  1.00  0.00     0.010 A 
ATOM     72  C   UNL A   1      46.127  33.186  28.113  1.00  0.00     0.010 A 
ATOM     73  C   UNL A   1      44.095  35.057  27.720  1.00  0.00     0.020 A 
ATOM     74  C   UNL A   1      46.447  34.515  27.797  1.00  0.00     0.020 A 
ATOM     75  C   UNL A   1      45.424  35.441  27.600  1.00  0.00     0.054 A 
BRANCH  75  76
ATOM     76  S   UNL A   1      45.780  37.185  27.270  1.00  0.00     0.124 S 
ATOM     77  O   UNL A   1      46.670  37.093  26.112  1.00  0.00    -0.237 OA
ATOM     78  O   UNL A   1      44.449  37.726  26.996  1.00  0.00    -0.237 OA
ATOM     79  O   UNL A   1      46.399  37.650  28.501  1.00  0.00    -0.744 OA
ENDBRANCH  75  76
ENDBRANCH  56  70
BRANCH  57  80
ATOM     80  C   UNL A   1      36.583  31.597  30.097  1.00  0.00    -0.014 A 
ATOM     81  C   UNL A   1      36.519  32.153  28.803  1.00  0.00     0.010 A 
ATOM     82  C   UNL A   1      35.588  31.967  31.022  1.00  0.00     0.010 A 
ATOM     83  C   UNL A   1      35.543  33.096  28.462  1.00  0.00     0.020 A 
ATOM     84  C   UNL A   1      34.602  32.912  30.685  1.00  0.00     0.020 A 
ATOM     85  C   UNL A   1      34.608  33.495  29.415  1.00  0.00     0.054 A 
BRANCH  85  86
ATOM     86  S   UNL A   1      33.464  34.840  28.988  1.00  0.00     0.124 S 
ATOM     87  O   UNL A   1      32.544  34.177  28.068  1.00  0.00    -0.237 OA
ATOM     88  O   UNL A   1      32.900  35.197  30.288  1.00  0.00    -0.237 OA
ATOM     89  O   UNL A   1      34.327  35.854  28.389  1.00  0.00    -0.744 OA
ENDBRANCH  85  86
ENDBRANCH  57  80
BRANCH  69  90
ATOM     90  C   UNL A   1      41.659  29.861  33.626  1.00  0.00    -0.014 A 
ATOM     91  C   UNL A   1      41.966  30.161  34.966  1.00  0.00     0.010 A 
ATOM     92  C   UNL A   1      41.362  28.524  33.290  1.00  0.00     0.010 A 
ATOM     93  C   UNL A   1      42.045  29.153  35.929  1.00  0.00     0.020 A 
ATOM     94  C   UNL A   1      41.415  27.510  34.260  1.00  0.00     0.020 A 
ATOM     95  C   UNL A   1      41.794  27.829  35.567  1.00  0.00     0.054 A 
BRANCH  95  96
ATOM     96  S   UNL A   1      42.033  26.540  36.822  1.00  0.00     0.124 S 
ATOM     97  O   UNL A   1      42.480  25.403  36.017  1.00  0.00    -0.237 OA
ATOM     98  O   UNL A   1      43.051  27.122  37.695  1.00  0.00    -0.237 OA
ATOM     99  O   UNL A   1      40.714  26.385  37.430  1.00  0.00    -0.744 OA
ENDBRANCH  95  96
ENDBRANCH  69  90
ENDBRANCH  43  44
ENDBRANCH  35  38
ENDBRANCH  33  34
ENDBRANCH  32  33
ENDBRANCH   1  32
TORSDOF 18
ENDMDL
MODEL 2
REMARK VINA RESULT:     -12.9      2.954      9.464
REMARK SMILES Cc1ccc2c(c1)c(-c1ccnc3c(C)cccc13)c(C)n2CC(=O)NCCCCCCNC(=O)c1ccc(-c2c3nc(c(-c4ccc(S(=O)(=O)[O-])cc4)c4ccc([nH]4)c(-c4ccc(S(=O)(=O)[O-])cc4)c4nc(c(-c5ccc(S(=O)(=O)[O-])cc5)c5ccc2[nH]5)C=C4)C=C3)cc1
REMARK SMILES IDX 30 1 29 2 28 3 27 4 26 5 24 6 25 7 23 9 22 10 1 11 2 12 3 13
REMARK SMILES IDX 7 14 4 15 6 16 5 17 8 18 20 19 21 20 9 21 10 22 19 23 11 24
REMARK SMILES IDX 13 25 18 26 12 27 14 28 17 29 15 30 16 31 31 32 32 33 33 34
REMARK SMILES IDX 34 35 35 37 36 38 37 39 95 40 38 41 94 42 39 43 40 44 41 45
REMARK SMILES IDX 88 46 42 47 93 48 87 49 89 50 43 51 92 52 86 53 85 54 44 56
REMARK SMILES IDX 74 57 55 58 73 59 56 60 59 61 72 62 90 63 57 64 58 65 71 67
REMARK SMILES IDX 91 68 60 69 45 70 46 71 54 72 47 73 53 74 48 75 49 76 50 77
REMARK SMILES IDX 51 78 52 79 75 80 76 81 84 82 77 83 83 84 78 85 79 86 80 87
REMARK SMILES IDX 81 88 82 89 61 90 62 91 70 92 63 93 69 94 64 95 65 96 66 97
REMARK SMILES IDX 67 98 68 99
REMARK H PARENT 26 8 33 36 89 55 59 66
REMARK Flexibility Score: inf
ROOT
ATOM      1  C   UNL A   1      37.274  32.148  28.762  1.00  0.00     0.002 C 
ENDROOT
BRANCH   1   2
ATOM      2  C   UNL A   1      36.983  30.643  28.761  1.00  0.00     0.002 C 
BRANCH   2   3
ATOM      3  C   UNL A   1      36.363  30.117  27.461  1.00  0.00     0.021 C 
BRANCH   3   4
ATOM      4  C   UNL A   1      35.170  29.190  27.682  1.00  0.00     0.116 C 
BRANCH   4   5
ATOM      5  N   UNL A   1      33.925  29.937  27.702  1.00  0.00    -0.355 N 
ATOM      6  C   UNL A   1      33.080  30.235  26.672  1.00  0.00     0.239 C 
ATOM      7  O   UNL A   1      32.103  30.952  26.913  1.00  0.00    -0.273 OA
ATOM      8  H   UNL A   1      33.651  30.278  28.584  1.00  0.00     0.163 HD
BRANCH   6   9
ATOM      9  C   UNL A   1      33.299  29.649  25.290  1.00  0.00     0.222 C 
BRANCH   9  10
ATOM     10  N   UNL A   1      32.413  28.533  24.969  1.00  0.00    -0.335 N 
ATOM     11  C   UNL A   1      27.110  28.267  23.013  1.00  0.00     0.044 C 
ATOM     12  C   UNL A   1      28.535  28.409  23.461  1.00  0.00    -0.050 A 
ATOM     13  C   UNL A   1      29.162  29.655  23.460  1.00  0.00     0.005 A 
ATOM     14  C   UNL A   1      29.242  27.282  23.909  1.00  0.00     0.014 A 
ATOM     15  C   UNL A   1      30.478  29.805  23.904  1.00  0.00     0.027 A 
ATOM     16  C   UNL A   1      30.570  27.410  24.374  1.00  0.00     0.008 A 
ATOM     17  C   UNL A   1      31.162  28.674  24.384  1.00  0.00     0.049 A 
ATOM     18  C   UNL A   1      31.531  26.488  24.884  1.00  0.00     0.011 A 
ATOM     19  C   UNL A   1      32.688  27.194  25.184  1.00  0.00     0.024 A 
ATOM     20  C   UNL A   1      33.994  26.686  25.701  1.00  0.00     0.065 C 
BRANCH  18  21
ATOM     21  C   UNL A   1      31.392  25.048  25.066  1.00  0.00    -0.005 A 
ATOM     22  C   UNL A   1      30.720  24.603  26.200  1.00  0.00     0.029 A 
ATOM     23  C   UNL A   1      31.936  24.112  24.147  1.00  0.00     0.008 A 
ATOM     24  C   UNL A   1      30.595  23.244  26.380  1.00  0.00     0.112 A 
ATOM     25  C   UNL A   1      31.750  22.738  24.424  1.00  0.00     0.074 A 
ATOM     26  C   UNL A   1      32.655  24.487  22.988  1.00  0.00     0.011 A 
ATOM     27  N   UNL A   1      31.084  22.324  25.523  1.00  0.00    -0.256 NA
ATOM     28  C   UNL A   1      32.278  21.797  23.526  1.00  0.00    -0.025 A 
ATOM     29  C   UNL A   1      33.181  23.545  22.115  1.00  0.00     0.001 A 
ATOM     30  C   UNL A   1      32.112  20.316  23.747  1.00  0.00     0.047 C 
ATOM     31  C   UNL A   1      32.993  22.201  22.383  1.00  0.00     0.005 A 
ENDBRANCH  18  21
ENDBRANCH   9  10
ENDBRANCH   6   9
ENDBRANCH   4   5
ENDBRANCH   3   4
ENDBRANCH   2   3
ENDBRANCH   1   2
BRANCH   1  32
ATOM     32  C   UNL A   1      36.251  33.006  29.517  1.00  0.00     0.021 C 
BRANCH  32  33
ATOM     33  C   UNL A   1      35.147  32.199  30.203  1.00  0.00     0.116 C 
BRANCH  33  34
ATOM     34  N   UNL A   1      35.173  32.310  31.647  1.00  0.00    -0.352 N 
ATOM     35  C   UNL A   1      36.069  31.973  32.622  1.00  0.00     0.251 C 
ATOM     36  H   UNL A   1      34.357  32.726  32.009  1.00  0.00     0.163 HD
ATOM     37  O   UNL A   1      35.767  32.314  33.769  1.00  0.00    -0.269 OA
BRANCH  35  38
ATOM     38  C   UNL A   1      37.316  31.189  32.409  1.00  0.00     0.039 A 
ATOM     39  C   UNL A   1      38.594  31.718  32.228  1.00  0.00     0.014 A 
ATOM     40  C   UNL A   1      37.150  29.794  32.315  1.00  0.00     0.014 A 
ATOM     41  C   UNL A   1      39.646  30.898  31.837  1.00  0.00     0.010 A 
ATOM     42  C   UNL A   1      38.204  28.966  31.948  1.00  0.00     0.010 A 
ATOM     43  C   UNL A   1      39.436  29.531  31.644  1.00  0.00    -0.014 A 
BRANCH  43  44
ATOM     44  C   UNL A   1      40.557  28.731  31.166  1.00  0.00     0.031 A 
ATOM     45  C   UNL A   1      41.638  28.489  32.162  1.00  0.00     0.074 A 
ATOM     46  C   UNL A   1      40.600  28.175  29.939  1.00  0.00     0.049 A 
ATOM     47  N   UNL A   1      42.870  28.880  32.120  1.00  0.00    -0.248 NA
ATOM     48  C   UNL A   1      41.262  27.821  33.418  1.00  0.00     0.031 C 
ATOM     49  C   UNL A   1      39.530  28.088  28.939  1.00  0.00     0.029 A 
ATOM     50  N   UNL A   1      41.612  27.472  29.361  1.00  0.00    -0.354 N 
ATOM     51  C   UNL A   1      43.480  28.359  33.259  1.00  0.00     0.074 A 
ATOM     52  C   UNL A   1      42.417  27.836  34.083  1.00  0.00     0.031 C 
ATOM     53  C   UNL A   1      39.869  27.176  27.998  1.00  0.00     0.029 A 
ATOM     54  C   UNL A   1      41.236  26.753  28.234  1.00  0.00     0.049 A 
ATOM     55  H   UNL A   1      42.532  27.473  29.711  1.00  0.00     0.167 HD
ATOM     56  C   UNL A   1      44.831  28.223  33.371  1.00  0.00     0.031 A 
ATOM     57  C   UNL A   1      41.985  25.837  27.571  1.00  0.00     0.031 A 
ATOM     58  C   UNL A   1      45.535  29.030  32.413  1.00  0.00     0.049 A 
ATOM     59  C   UNL A   1      43.402  26.111  27.904  1.00  0.00     0.074 A 
ATOM     60  C   UNL A   1      45.657  30.385  32.188  1.00  0.00     0.029 A 
ATOM     61  N   UNL A   1      45.976  28.413  31.267  1.00  0.00    -0.354 N 
ATOM     62  N   UNL A   1      44.030  27.200  27.556  1.00  0.00    -0.248 NA
ATOM     63  C   UNL A   1      44.007  25.358  28.991  1.00  0.00     0.031 C 
ATOM     64  C   UNL A   1      45.703  30.517  30.770  1.00  0.00     0.029 A 
ATOM     65  C   UNL A   1      45.665  29.235  30.215  1.00  0.00     0.049 A 
ATOM     66  H   UNL A   1      46.431  27.542  31.213  1.00  0.00     0.167 HD
ATOM     67  C   UNL A   1      44.858  27.491  28.630  1.00  0.00     0.074 A 
ATOM     68  C   UNL A   1      44.870  26.273  29.438  1.00  0.00     0.031 C 
ATOM     69  C   UNL A   1      45.247  28.771  28.905  1.00  0.00     0.031 A 
BRANCH  56  70
ATOM     70  C   UNL A   1      45.499  27.103  34.128  1.00  0.00    -0.014 A 
ATOM     71  C   UNL A   1      45.958  27.248  35.453  1.00  0.00     0.010 A 
ATOM     72  C   UNL A   1      45.447  25.789  33.614  1.00  0.00     0.010 A 
ATOM     73  C   UNL A   1      46.352  26.156  36.228  1.00  0.00     0.020 A 
ATOM     74  C   UNL A   1      45.800  24.680  34.398  1.00  0.00     0.020 A 
ATOM     75  C   UNL A   1      46.254  24.875  35.702  1.00  0.00     0.054 A 
BRANCH  75  76
ATOM     76  S   UNL A   1      46.646  23.478  36.783  1.00  0.00     0.124 S 
ATOM     77  O   UNL A   1      47.236  24.153  37.939  1.00  0.00    -0.237 OA
ATOM     78  O   UNL A   1      45.328  22.883  37.010  1.00  0.00    -0.237 OA
ATOM     79  O   UNL A   1      47.563  22.674  35.991  1.00  0.00    -0.744 OA
ENDBRANCH  75  76
ENDBRANCH  56  70
BRANCH  57  80
ATOM     80  C   UNL A   1      41.529  24.505  27.091  1.00  0.00    -0.014 A 
ATOM     81  C   UNL A   1      40.651  23.742  27.889  1.00  0.00     0.010 A 
ATOM     82  C   UNL A   1      42.185  23.856  26.028  1.00  0.00     0.010 A 
ATOM     83  C   UNL A   1      40.485  22.369  27.680  1.00  0.00     0.020 A 
ATOM     84  C   UNL A   1      42.020  22.476  25.811  1.00  0.00     0.020 A 
ATOM     85  C   UNL A   1      41.196  21.736  26.662  1.00  0.00     0.054 A 
BRANCH  85  86
ATOM     86  S   UNL A   1      41.083  19.927  26.530  1.00  0.00     0.124 S 
ATOM     87  O   UNL A   1      41.041  19.520  27.932  1.00  0.00    -0.237 OA
ATOM     88  O   UNL A   1      39.837  19.744  25.788  1.00  0.00    -0.237 OA
ATOM     89  O   UNL A   1      42.295  19.554  25.806  1.00  0.00    -0.744 OA
ENDBRANCH  85  86
ENDBRANCH  57  80
BRANCH  69  90
ATOM     90  C   UNL A   1      44.981  29.861  27.886  1.00  0.00    -0.014 A 
ATOM     91  C   UNL A   1      46.041  30.213  27.029  1.00  0.00     0.010 A 
ATOM     92  C   UNL A   1      43.844  30.693  27.922  1.00  0.00     0.010 A 
ATOM     93  C   UNL A   1      46.003  31.393  26.285  1.00  0.00     0.020 A 
ATOM     94  C   UNL A   1      43.790  31.869  27.155  1.00  0.00     0.020 A 
ATOM     95  C   UNL A   1      44.888  32.229  26.370  1.00  0.00     0.054 A 
BRANCH  95  96
ATOM     96  S   UNL A   1      44.937  33.812  25.485  1.00  0.00     0.124 S 
ATOM     97  O   UNL A   1      44.487  33.433  24.146  1.00  0.00    -0.237 OA
ATOM     98  O   UNL A   1      44.000  34.638  26.244  1.00  0.00    -0.237 OA
ATOM     99  O   UNL A   1      46.335  34.226  25.571  1.00  0.00    -0.744 OA
ENDBRANCH  95  96
ENDBRANCH  69  90
ENDBRANCH  43  44
ENDBRANCH  35  38
ENDBRANCH  33  34
ENDBRANCH  32  33
ENDBRANCH   1  32
TORSDOF 18
ENDMDL
MODEL 3
REMARK VINA RESULT:     -12.4      2.800      9.644
REMARK SMILES Cc1ccc2c(c1)c(-c1ccnc3c(C)cccc13)c(C)n2CC(=O)NCCCCCCNC(=O)c1ccc(-c2c3nc(c(-c4ccc(S(=O)(=O)[O-])cc4)c4ccc([nH]4)c(-c4ccc(S(=O)(=O)[O-])cc4)c4nc(c(-c5ccc(S(=O)(=O)[O-])cc5)c5ccc2[nH]5)C=C4)C=C3)cc1
REMARK SMILES IDX 30 1 29 2 28 3 27 4 26 5 24 6 25 7 23 9 22 10 1 11 2 12 3 13
REMARK SMILES IDX 7 14 4 15 6 16 5 17 8 18 20 19 21 20 9 21 10 22 19 23 11 24
REMARK SMILES IDX 13 25 18 26 12 27 14 28 17 29 15 30 16 31 31 32 32 33 33 34
REMARK SMILES IDX 34 35 35 37 36 38 37 39 95 40 38 41 94 42 39 43 40 44 41 45
REMARK SMILES IDX 88 46 42 47 93 48 87 49 89 50 43 51 92 52 86 53 85 54 44 56
REMARK SMILES IDX 74 57 55 58 73 59 56 60 59 61 72 62 90 63 57 64 58 65 71 67
REMARK SMILES IDX 91 68 60 69 45 70 46 71 54 72 47 73 53 74 48 75 49 76 50 77
REMARK SMILES IDX 51 78 52 79 75 80 76 81 84 82 77 83 83 84 78 85 79 86 80 87
REMARK SMILES IDX 81 88 82 89 61 90 62 91 70 92 63 93 69 94 64 95 65 96 66 97
REMARK SMILES IDX 67 98 68 99
REMARK H PARENT 26 8 33 36 89 55 59 66
REMARK Flexibility Score: inf
ROOT
ATOM      1  C   UNL A   1      34.663  31.192  28.322  1.00  0.00     0.002 C 
ENDROOT
BRANCH   1   2
ATOM      2  C   UNL A   1      34.197  30.316  27.154  1.00  0.00     0.002 C 
BRANCH   2   3
ATOM      3  C   UNL A   1      32.739  30.541  26.733  1.00  0.00     0.021 C 
BRANCH   3   4
ATOM      4  C   UNL A   1      32.245  29.551  25.681  1.00  0.00     0.116 C 
BRANCH   4   5
ATOM      5  N   UNL A   1      31.443  28.503  26.287  1.00  0.00    -0.355 N 
ATOM      6  C   UNL A   1      31.766  27.199  26.527  1.00  0.00     0.239 C 
ATOM      7  O   UNL A   1      30.892  26.462  26.994  1.00  0.00    -0.273 OA
ATOM      8  H   UNL A   1      30.538  28.771  26.564  1.00  0.00     0.163 HD
BRANCH   6   9
ATOM      9  C   UNL A   1      33.176  26.689  26.291  1.00  0.00     0.222 C 
BRANCH   9  10
ATOM     10  N   UNL A   1      33.255  25.566  25.361  1.00  0.00    -0.335 N 
ATOM     11  C   UNL A   1      32.697  25.170  19.744  1.00  0.00     0.044 C 
ATOM     12  C   UNL A   1      32.904  25.357  21.218  1.00  0.00    -0.050 A 
ATOM     13  C   UNL A   1      32.973  26.635  21.771  1.00  0.00     0.005 A 
ATOM     14  C   UNL A   1      33.005  24.236  22.057  1.00  0.00     0.014 A 
ATOM     15  C   UNL A   1      33.134  26.822  23.147  1.00  0.00     0.027 A 
ATOM     16  C   UNL A   1      33.158  24.399  23.453  1.00  0.00     0.008 A 
ATOM     17  C   UNL A   1      33.199  25.691  23.980  1.00  0.00     0.049 A 
ATOM     18  C   UNL A   1      33.282  23.492  24.545  1.00  0.00     0.011 A 
ATOM     19  C   UNL A   1      33.408  24.235  25.711  1.00  0.00     0.024 A 
ATOM     20  C   UNL A   1      33.609  23.762  27.113  1.00  0.00     0.065 C 
BRANCH  18  21
ATOM     21  C   UNL A   1      33.300  22.034  24.510  1.00  0.00    -0.005 A 
ATOM     22  C   UNL A   1      32.079  21.377  24.385  1.00  0.00     0.029 A 
ATOM     23  C   UNL A   1      34.501  21.288  24.625  1.00  0.00     0.008 A 
ATOM     24  C   UNL A   1      32.090  20.001  24.360  1.00  0.00     0.112 A 
ATOM     25  C   UNL A   1      34.404  19.877  24.587  1.00  0.00     0.074 A 
ATOM     26  C   UNL A   1      35.775  21.883  24.784  1.00  0.00     0.011 A 
ATOM     27  N   UNL A   1      33.212  19.257  24.451  1.00  0.00    -0.256 NA
ATOM     28  C   UNL A   1      35.582  19.121  24.696  1.00  0.00    -0.025 A 
ATOM     29  C   UNL A   1      36.930  21.122  24.902  1.00  0.00     0.001 A 
ATOM     30  C   UNL A   1      35.560  17.615  24.654  1.00  0.00     0.047 C 
ATOM     31  C   UNL A   1      36.834  19.742  24.858  1.00  0.00     0.005 A 
ENDBRANCH  18  21
ENDBRANCH   9  10
ENDBRANCH   6   9
ENDBRANCH   4   5
ENDBRANCH   3   4
ENDBRANCH   2   3
ENDBRANCH   1   2
BRANCH   1  32
ATOM     32  C   UNL A   1      35.210  32.569  27.922  1.00  0.00     0.021 C 
BRANCH  32  33
ATOM     33  C   UNL A   1      35.495  33.494  29.107  1.00  0.00     0.116 C 
BRANCH  33  34
ATOM     34  N   UNL A   1      34.947  33.006  30.356  1.00  0.00    -0.352 N 
ATOM     35  C   UNL A   1      35.409  32.209  31.364  1.00  0.00     0.251 C 
ATOM     36  H   UNL A   1      34.028  33.325  30.515  1.00  0.00     0.163 HD
ATOM     37  O   UNL A   1      34.660  32.085  32.338  1.00  0.00    -0.269 OA
BRANCH  35  38
ATOM     38  C   UNL A   1      36.688  31.448  31.340  1.00  0.00     0.039 A 
ATOM     39  C   UNL A   1      37.969  32.002  31.344  1.00  0.00     0.014 A 
ATOM     40  C   UNL A   1      36.564  30.050  31.229  1.00  0.00     0.014 A 
ATOM     41  C   UNL A   1      39.082  31.201  31.116  1.00  0.00     0.010 A 
ATOM     42  C   UNL A   1      37.676  29.242  31.025  1.00  0.00     0.010 A 
ATOM     43  C   UNL A   1      38.928  29.830  30.901  1.00  0.00    -0.014 A 
BRANCH  43  44
ATOM     44  C   UNL A   1      40.122  29.051  30.596  1.00  0.00     0.031 A 
ATOM     45  C   UNL A   1      41.084  28.891  31.722  1.00  0.00     0.074 A 
ATOM     46  C   UNL A   1      40.328  28.445  29.410  1.00  0.00     0.049 A 
ATOM     47  N   UNL A   1      42.300  29.324  31.806  1.00  0.00    -0.248 NA
ATOM     48  C   UNL A   1      40.583  28.265  32.955  1.00  0.00     0.031 C 
ATOM     49  C   UNL A   1      39.387  28.276  28.297  1.00  0.00     0.029 A 
ATOM     50  N   UNL A   1      41.422  27.754  28.988  1.00  0.00    -0.354 N 
ATOM     51  C   UNL A   1      42.786  28.875  33.033  1.00  0.00     0.074 A 
ATOM     52  C   UNL A   1      41.649  28.350  33.749  1.00  0.00     0.031 C 
ATOM     53  C   UNL A   1      39.863  27.337  27.446  1.00  0.00     0.029 A 
ATOM     54  C   UNL A   1      41.205  26.974  27.860  1.00  0.00     0.049 A 
ATOM     55  H   UNL A   1      42.293  27.803  29.444  1.00  0.00     0.167 HD
ATOM     56  C   UNL A   1      44.117  28.793  33.308  1.00  0.00     0.031 A 
ATOM     57  C   UNL A   1      42.055  26.057  27.333  1.00  0.00     0.031 A 
ATOM     58  C   UNL A   1      44.906  29.582  32.402  1.00  0.00     0.049 A 
ATOM     59  C   UNL A   1      43.414  26.397  27.817  1.00  0.00     0.074 A 
ATOM     60  C   UNL A   1      45.012  30.930  32.129  1.00  0.00     0.029 A 
ATOM     61  N   UNL A   1      45.498  28.933  31.347  1.00  0.00    -0.354 N 
ATOM     62  N   UNL A   1      44.045  27.491  27.494  1.00  0.00    -0.248 NA
ATOM     63  C   UNL A   1      43.908  25.714  29.001  1.00  0.00     0.031 C 
ATOM     64  C   UNL A   1      45.221  31.002  30.722  1.00  0.00     0.029 A 
ATOM     65  C   UNL A   1      45.290  29.697  30.228  1.00  0.00     0.049 A 
ATOM     66  H   UNL A   1      45.982  28.076  31.387  1.00  0.00     0.167 HD
ATOM     67  C   UNL A   1      44.730  27.858  28.643  1.00  0.00     0.074 A 
ATOM     68  C   UNL A   1      44.683  26.678  29.503  1.00  0.00     0.031 C 
ATOM     69  C   UNL A   1      45.044  29.161  28.901  1.00  0.00     0.031 A 
BRANCH  56  70
ATOM     70  C   UNL A   1      44.725  27.731  34.190  1.00  0.00    -0.014 A 
ATOM     71  C   UNL A   1      44.779  27.847  35.594  1.00  0.00     0.010 A 
ATOM     72  C   UNL A   1      45.023  26.463  33.647  1.00  0.00     0.010 A 
ATOM     73  C   UNL A   1      45.117  26.773  36.418  1.00  0.00     0.020 A 
ATOM     74  C   UNL A   1      45.323  25.364  34.467  1.00  0.00     0.020 A 
ATOM     75  C   UNL A   1      45.370  25.531  35.850  1.00  0.00     0.054 A 
BRANCH  75  76
ATOM     76  S   UNL A   1      45.671  24.133  36.960  1.00  0.00     0.124 S 
ATOM     77  O   UNL A   1      47.114  23.938  36.807  1.00  0.00    -0.237 OA
ATOM     78  O   UNL A   1      45.245  24.668  38.254  1.00  0.00    -0.237 OA
ATOM     79  O   UNL A   1      44.835  23.075  36.418  1.00  0.00    -0.744 OA
ENDBRANCH  75  76
ENDBRANCH  56  70
BRANCH  57  80
ATOM     80  C   UNL A   1      41.700  24.691  26.867  1.00  0.00    -0.014 A 
ATOM     81  C   UNL A   1      40.855  23.884  27.657  1.00  0.00     0.010 A 
ATOM     82  C   UNL A   1      42.424  24.069  25.832  1.00  0.00     0.010 A 
ATOM     83  C   UNL A   1      40.785  22.499  27.469  1.00  0.00     0.020 A 
ATOM     84  C   UNL A   1      42.356  22.678  25.635  1.00  0.00     0.020 A 
ATOM     85  C   UNL A   1      41.562  21.899  26.480  1.00  0.00     0.054 A 
BRANCH  85  86
ATOM     86  S   UNL A   1      41.571  20.085  26.377  1.00  0.00     0.124 S 
ATOM     87  O   UNL A   1      42.032  19.706  27.711  1.00  0.00    -0.237 OA
ATOM     88  O   UNL A   1      40.172  19.779  26.088  1.00  0.00    -0.237 OA
ATOM     89  O   UNL A   1      42.504  19.802  25.290  1.00  0.00    -0.744 OA
ENDBRANCH  85  86
ENDBRANCH  57  80
BRANCH  69  90
ATOM     90  C   UNL A   1      44.868  30.197  27.808  1.00  0.00    -0.014 A 
ATOM     91  C   UNL A   1      46.032  30.818  27.317  1.00  0.00     0.010 A 
ATOM     92  C   UNL A   1      43.617  30.738  27.449  1.00  0.00     0.010 A 
ATOM     93  C   UNL A   1      45.957  31.983  26.551  1.00  0.00     0.020 A 
ATOM     94  C   UNL A   1      43.535  31.896  26.658  1.00  0.00     0.020 A 
ATOM     95  C   UNL A   1      44.710  32.531  26.247  1.00  0.00     0.054 A 
BRANCH  95  96
ATOM     96  S   UNL A   1      44.666  34.114  25.359  1.00  0.00     0.124 S 
ATOM     97  O   UNL A   1      44.808  33.692  23.966  1.00  0.00    -0.237 OA
ATOM     98  O   UNL A   1      43.354  34.649  25.715  1.00  0.00    -0.237 OA
ATOM     99  O   UNL A   1      45.803  34.857  25.898  1.00  0.00    -0.744 OA
ENDBRANCH  95  96
ENDBRANCH  69  90
ENDBRANCH  43  44
ENDBRANCH  35  38
ENDBRANCH  33  34
ENDBRANCH  32  33
ENDBRANCH   1  32
TORSDOF 18
ENDMDL
