MODEL 1
REMARK VINA RESULT:     -11.5      0.000      0.000
REMARK SMILES Cc1cc(=O)n2nc(C[N@@H+](C)CC(=O)NCCCCCCNC(=O)c3ccc(-c4c5nc(c(-c6ccc(S(=O)(=O)[O-])cc6)c6ccc([nH]6)c(-c6ccc(S(=O)(=O)[O-])cc6)c6nc(c(-c7ccc(S(=O)(=O)[O-])cc7)c7ccc4[nH]7)C=C6)C=C5)cc3)sc2n1
REMARK SMILES IDX 18 1 17 2 16 3 15 4 13 5 14 6 12 8 10 9 11 10 9 12 8 13 1 14
REMARK SMILES IDX 2 15 3 16 87 17 4 18 86 19 5 20 6 21 85 22 7 23 19 24 20 25
REMARK SMILES IDX 21 26 22 27 23 28 24 30 25 31 26 32 84 33 27 34 83 35 28 36
REMARK SMILES IDX 29 37 30 38 77 39 31 40 82 41 76 42 78 43 32 44 81 45 75 46
REMARK SMILES IDX 74 47 33 49 63 50 44 51 62 52 45 53 48 54 61 55 79 56 46 57
REMARK SMILES IDX 47 58 60 60 80 61 49 62 34 63 35 64 43 65 36 66 42 67 37 68
REMARK SMILES IDX 38 69 39 70 40 71 41 72 64 73 65 74 73 75 66 76 72 77 67 78
REMARK SMILES IDX 68 79 69 80 70 81 71 82 50 83 51 84 59 85 52 86 58 87 53 88
REMARK SMILES IDX 54 89 55 90 56 91 57 92
REMARK H PARENT 15 7 10 11 22 29 78 48 48 59
REMARK Flexibility Score: inf
ROOT
ATOM      1  C   UNL A   1      39.441  21.864  25.874  1.00  0.00     0.002 C 
ENDROOT
BRANCH   1   2
ATOM      2  C   UNL A   1      38.958  23.254  26.296  1.00  0.00     0.021 C 
BRANCH   2   3
ATOM      3  C   UNL A   1      37.465  23.496  26.073  1.00  0.00     0.116 C 
BRANCH   3   4
ATOM      4  N   UNL A   1      37.172  23.612  24.665  1.00  0.00    -0.351 N 
ATOM      5  C   UNL A   1      36.497  22.751  23.855  1.00  0.00     0.275 C 
ATOM      6  O   UNL A   1      36.445  23.022  22.652  1.00  0.00    -0.269 OA
ATOM      7  H   UNL A   1      37.506  24.429  24.229  1.00  0.00     0.163 HD
BRANCH   5   8
ATOM      8  C   UNL A   1      35.783  21.524  24.428  1.00  0.00     0.363 C 
BRANCH   8   9
ATOM      9  N   UNL A   1      34.402  21.732  24.885  1.00  0.00    -0.324 N 
ATOM     10  C   UNL A   1      34.070  21.289  26.222  1.00  0.00     0.333 C 
ATOM     11  H   UNL A   1      34.426  22.748  24.978  1.00  0.00     0.348 HD
BRANCH   9  12
ATOM     12  C   UNL A   1      33.339  21.482  23.904  1.00  0.00     0.333 C 
BRANCH  12  13
ATOM     13  C   UNL A   1      32.663  22.783  23.556  1.00  0.00     0.172 A 
ATOM     14  C   UNL A   1      29.679  27.952  23.255  1.00  0.00     0.067 C 
ATOM     15  C   UNL A   1      30.605  26.807  22.967  1.00  0.00     0.046 A 
ATOM     16  C   UNL A   1      31.488  26.863  21.957  1.00  0.00     0.097 A 
ATOM     17  N   UNL A   1      30.481  25.734  23.817  1.00  0.00    -0.224 NA
ATOM     18  C   UNL A   1      32.399  25.721  21.714  1.00  0.00     0.275 A 
ATOM     19  C   UNL A   1      31.284  24.749  23.595  1.00  0.00     0.215 A 
ATOM     20  O   UNL A   1      33.201  25.784  20.786  1.00  0.00    -0.267 OA
ATOM     21  N   UNL A   1      32.232  24.686  22.608  1.00  0.00    -0.167 N 
ATOM     22  S   UNL A   1      31.313  23.309  24.545  1.00  0.00    -0.073 S 
ATOM     23  N   UNL A   1      33.026  23.564  22.585  1.00  0.00    -0.150 NA
ENDBRANCH  12  13
ENDBRANCH   9  12
ENDBRANCH   8   9
ENDBRANCH   5   8
ENDBRANCH   3   4
ENDBRANCH   2   3
ENDBRANCH   1   2
BRANCH   1  24
ATOM     24  C   UNL A   1      40.386  21.159  26.857  1.00  0.00     0.002 C 
BRANCH  24  25
ATOM     25  C   UNL A   1      41.083  19.890  26.344  1.00  0.00     0.021 C 
BRANCH  25  26
ATOM     26  C   UNL A   1      42.448  19.647  26.964  1.00  0.00     0.116 C 
BRANCH  26  27
ATOM     27  N   UNL A   1      43.508  19.544  25.960  1.00  0.00    -0.352 N 
ATOM     28  C   UNL A   1      44.046  20.550  25.174  1.00  0.00     0.251 C 
ATOM     29  H   UNL A   1      43.889  18.646  25.828  1.00  0.00     0.163 HD
ATOM     30  O   UNL A   1      44.646  20.292  24.145  1.00  0.00    -0.269 OA
BRANCH  28  31
ATOM     31  C   UNL A   1      43.876  21.943  25.626  1.00  0.00     0.039 A 
ATOM     32  C   UNL A   1      43.003  22.833  24.997  1.00  0.00     0.014 A 
ATOM     33  C   UNL A   1      44.603  22.329  26.747  1.00  0.00     0.014 A 
ATOM     34  C   UNL A   1      42.821  24.096  25.559  1.00  0.00     0.010 A 
ATOM     35  C   UNL A   1      44.262  23.474  27.409  1.00  0.00     0.010 A 
ATOM     36  C   UNL A   1      43.450  24.402  26.776  1.00  0.00    -0.014 A 
BRANCH  36  37
ATOM     37  C   UNL A   1      43.252  25.678  27.449  1.00  0.00     0.031 A 
ATOM     38  C   UNL A   1      44.231  26.740  27.101  1.00  0.00     0.074 A 
ATOM     39  C   UNL A   1      42.142  25.952  28.169  1.00  0.00     0.049 A 
ATOM     40  N   UNL A   1      45.153  27.228  27.858  1.00  0.00    -0.248 NA
ATOM     41  C   UNL A   1      44.276  27.229  25.713  1.00  0.00     0.031 C 
ATOM     42  C   UNL A   1      40.933  25.136  28.355  1.00  0.00     0.029 A 
ATOM     43  N   UNL A   1      41.810  27.106  28.799  1.00  0.00    -0.354 N 
ATOM     44  C   UNL A   1      45.773  28.229  27.120  1.00  0.00     0.074 A 
ATOM     45  C   UNL A   1      45.309  28.074  25.762  1.00  0.00     0.031 C 
ATOM     46  C   UNL A   1      39.925  25.912  28.814  1.00  0.00     0.029 A 
ATOM     47  C   UNL A   1      40.469  27.215  29.144  1.00  0.00     0.049 A 
ATOM     48  H   UNL A   1      42.468  27.812  28.996  1.00  0.00     0.167 HD
ATOM     49  C   UNL A   1      46.457  29.244  27.717  1.00  0.00     0.031 A 
ATOM     50  C   UNL A   1      39.854  28.315  29.643  1.00  0.00     0.031 A 
ATOM     51  C   UNL A   1      46.649  29.005  29.124  1.00  0.00     0.049 A 
ATOM     52  C   UNL A   1      40.919  29.169  30.226  1.00  0.00     0.074 A 
ATOM     53  C   UNL A   1      47.301  28.040  29.864  1.00  0.00     0.029 A 
ATOM     54  N   UNL A   1      45.753  29.602  29.982  1.00  0.00    -0.354 N 
ATOM     55  N   UNL A   1      41.635  28.811  31.255  1.00  0.00    -0.248 NA
ATOM     56  C   UNL A   1      41.507  30.199  29.386  1.00  0.00     0.031 C 
ATOM     57  C   UNL A   1      46.434  27.776  30.964  1.00  0.00     0.029 A 
ATOM     58  C   UNL A   1      45.344  28.645  30.878  1.00  0.00     0.049 A 
ATOM     59  H   UNL A   1      45.462  30.541  29.959  1.00  0.00     0.167 HD
ATOM     60  C   UNL A   1      42.923  29.234  30.958  1.00  0.00     0.074 A 
ATOM     61  C   UNL A   1      42.764  30.165  29.841  1.00  0.00     0.031 C 
ATOM     62  C   UNL A   1      44.017  28.583  31.457  1.00  0.00     0.031 A 
BRANCH  49  63
ATOM     63  C   UNL A   1      46.639  30.609  27.114  1.00  0.00    -0.014 A 
ATOM     64  C   UNL A   1      47.904  31.225  27.176  1.00  0.00     0.010 A 
ATOM     65  C   UNL A   1      45.548  31.409  26.718  1.00  0.00     0.010 A 
ATOM     66  C   UNL A   1      48.062  32.587  26.889  1.00  0.00     0.020 A 
ATOM     67  C   UNL A   1      45.701  32.758  26.392  1.00  0.00     0.020 A 
ATOM     68  C   UNL A   1      46.954  33.346  26.506  1.00  0.00     0.054 A 
BRANCH  68  69
ATOM     69  S   UNL A   1      47.156  35.123  26.226  1.00  0.00     0.124 S 
ATOM     70  O   UNL A   1      45.771  35.578  26.159  1.00  0.00    -0.237 OA
ATOM     71  O   UNL A   1      47.905  35.538  27.409  1.00  0.00    -0.237 OA
ATOM     72  O   UNL A   1      47.899  35.188  24.969  1.00  0.00    -0.744 OA
ENDBRANCH  68  69
ENDBRANCH  49  63
BRANCH  50  73
ATOM     73  C   UNL A   1      38.500  28.835  29.324  1.00  0.00    -0.014 A 
ATOM     74  C   UNL A   1      37.620  29.206  30.357  1.00  0.00     0.010 A 
ATOM     75  C   UNL A   1      38.199  29.269  28.016  1.00  0.00     0.010 A 
ATOM     76  C   UNL A   1      36.532  30.059  30.109  1.00  0.00     0.020 A 
ATOM     77  C   UNL A   1      37.112  30.114  27.761  1.00  0.00     0.020 A 
ATOM     78  C   UNL A   1      36.305  30.534  28.815  1.00  0.00     0.054 A 
BRANCH  78  79
ATOM     79  S   UNL A   1      35.037  31.810  28.546  1.00  0.00     0.124 S 
ATOM     80  O   UNL A   1      35.710  32.732  27.637  1.00  0.00    -0.237 OA
ATOM     81  O   UNL A   1      33.937  31.042  27.970  1.00  0.00    -0.237 OA
ATOM     82  O   UNL A   1      34.788  32.332  29.889  1.00  0.00    -0.744 OA
ENDBRANCH  78  79
ENDBRANCH  50  73
BRANCH  62  83
ATOM     83  C   UNL A   1      43.805  27.565  32.557  1.00  0.00    -0.014 A 
ATOM     84  C   UNL A   1      43.248  27.862  33.819  1.00  0.00     0.010 A 
ATOM     85  C   UNL A   1      44.064  26.219  32.245  1.00  0.00     0.010 A 
ATOM     86  C   UNL A   1      42.998  26.843  34.753  1.00  0.00     0.020 A 
ATOM     87  C   UNL A   1      43.800  25.199  33.162  1.00  0.00     0.020 A 
ATOM     88  C   UNL A   1      43.281  25.516  34.417  1.00  0.00     0.054 A 
BRANCH  88  89
ATOM     89  S   UNL A   1      42.957  24.197  35.622  1.00  0.00     0.124 S 
ATOM     90  O   UNL A   1      41.499  24.169  35.680  1.00  0.00    -0.237 OA
ATOM     91  O   UNL A   1      43.584  23.031  35.002  1.00  0.00    -0.237 OA
ATOM     92  O   UNL A   1      43.613  24.667  36.841  1.00  0.00    -0.744 OA
ENDBRANCH  88  89
ENDBRANCH  62  83
ENDBRANCH  36  37
ENDBRANCH  28  31
ENDBRANCH  26  27
ENDBRANCH  25  26
ENDBRANCH  24  25
ENDBRANCH   1  24
TORSDOF 19
ENDMDL
MODEL 2
REMARK VINA RESULT:     -10.6      2.761      9.474
REMARK SMILES Cc1cc(=O)n2nc(C[N@@H+](C)CC(=O)NCCCCCCNC(=O)c3ccc(-c4c5nc(c(-c6ccc(S(=O)(=O)[O-])cc6)c6ccc([nH]6)c(-c6ccc(S(=O)(=O)[O-])cc6)c6nc(c(-c7ccc(S(=O)(=O)[O-])cc7)c7ccc4[nH]7)C=C6)C=C5)cc3)sc2n1
REMARK SMILES IDX 18 1 17 2 16 3 15 4 13 5 14 6 12 8 10 9 11 10 9 12 8 13 1 14
REMARK SMILES IDX 2 15 3 16 87 17 4 18 86 19 5 20 6 21 85 22 7 23 19 24 20 25
REMARK SMILES IDX 21 26 22 27 23 28 24 30 25 31 26 32 84 33 27 34 83 35 28 36
REMARK SMILES IDX 29 37 30 38 77 39 31 40 82 41 76 42 78 43 32 44 81 45 75 46
REMARK SMILES IDX 74 47 33 49 63 50 44 51 62 52 45 53 48 54 61 55 79 56 46 57
REMARK SMILES IDX 47 58 60 60 80 61 49 62 34 63 35 64 43 65 36 66 42 67 37 68
REMARK SMILES IDX 38 69 39 70 40 71 41 72 64 73 65 74 73 75 66 76 72 77 67 78
REMARK SMILES IDX 68 79 69 80 70 81 71 82 50 83 51 84 59 85 52 86 58 87 53 88
REMARK SMILES IDX 54 89 55 90 56 91 57 92
REMARK H PARENT 15 7 10 11 22 29 78 48 48 59
REMARK Flexibility Score: inf
ROOT
ATOM      1  C   UNL A   1      36.873  30.504  28.777  1.00  0.00     0.002 C 
ENDROOT
BRANCH   1   2
ATOM      2  C   UNL A   1      36.285  30.000  27.456  1.00  0.00     0.021 C 
BRANCH   2   3
ATOM      3  C   UNL A   1      34.997  29.191  27.608  1.00  0.00     0.116 C 
BRANCH   3   4
ATOM      4  N   UNL A   1      33.841  30.051  27.523  1.00  0.00    -0.351 N 
ATOM      5  C   UNL A   1      32.584  29.759  27.092  1.00  0.00     0.275 C 
ATOM      6  O   UNL A   1      31.774  30.687  27.026  1.00  0.00    -0.269 OA
ATOM      7  H   UNL A   1      33.983  30.980  27.820  1.00  0.00     0.163 HD
BRANCH   5   8
ATOM      8  C   UNL A   1      32.179  28.321  26.758  1.00  0.00     0.363 C 
BRANCH   8   9
ATOM      9  N   UNL A   1      32.375  27.900  25.364  1.00  0.00    -0.324 N 
ATOM     10  C   UNL A   1      32.730  28.922  24.402  1.00  0.00     0.333 C 
ATOM     11  H   UNL A   1      33.246  27.383  25.484  1.00  0.00     0.348 HD
BRANCH   9  12
ATOM     12  C   UNL A   1      31.432  26.904  24.839  1.00  0.00     0.333 C 
BRANCH  12  13
ATOM     13  C   UNL A   1      32.072  25.541  24.874  1.00  0.00     0.172 A 
ATOM     14  C   UNL A   1      33.614  19.772  24.649  1.00  0.00     0.067 C 
ATOM     15  C   UNL A   1      33.657  21.271  24.703  1.00  0.00     0.046 A 
ATOM     16  C   UNL A   1      34.816  21.938  24.594  1.00  0.00     0.097 A 
ATOM     17  N   UNL A   1      32.433  21.879  24.850  1.00  0.00    -0.224 NA
ATOM     18  C   UNL A   1      34.817  23.420  24.632  1.00  0.00     0.275 A 
ATOM     19  C   UNL A   1      32.450  23.169  24.878  1.00  0.00     0.215 A 
ATOM     20  O   UNL A   1      35.884  24.019  24.534  1.00  0.00    -0.267 OA
ATOM     21  N   UNL A   1      33.560  23.965  24.769  1.00  0.00    -0.167 N 
ATOM     22  S   UNL A   1      31.032  24.138  25.042  1.00  0.00    -0.073 S 
ATOM     23  N   UNL A   1      33.346  25.323  24.762  1.00  0.00    -0.150 NA
ENDBRANCH  12  13
ENDBRANCH   9  12
ENDBRANCH   8   9
ENDBRANCH   5   8
ENDBRANCH   3   4
ENDBRANCH   2   3
ENDBRANCH   1   2
BRANCH   1  24
ATOM     24  C   UNL A   1      37.216  32.000  28.827  1.00  0.00     0.002 C 
BRANCH  24  25
ATOM     25  C   UNL A   1      36.130  32.931  29.386  1.00  0.00     0.021 C 
BRANCH  25  26
ATOM     26  C   UNL A   1      35.171  32.248  30.346  1.00  0.00     0.116 C 
BRANCH  26  27
ATOM     27  N   UNL A   1      35.227  32.818  31.693  1.00  0.00    -0.352 N 
ATOM     28  C   UNL A   1      35.906  32.337  32.800  1.00  0.00     0.251 C 
ATOM     29  H   UNL A   1      34.720  33.650  31.829  1.00  0.00     0.163 HD
ATOM     30  O   UNL A   1      35.593  32.679  33.927  1.00  0.00    -0.269 OA
BRANCH  28  31
ATOM     31  C   UNL A   1      37.024  31.404  32.572  1.00  0.00     0.039 A 
ATOM     32  C   UNL A   1      36.835  30.026  32.440  1.00  0.00     0.014 A 
ATOM     33  C   UNL A   1      38.291  31.964  32.450  1.00  0.00     0.014 A 
ATOM     34  C   UNL A   1      37.933  29.232  32.114  1.00  0.00     0.010 A 
ATOM     35  C   UNL A   1      39.309  31.221  31.924  1.00  0.00     0.010 A 
ATOM     36  C   UNL A   1      39.168  29.844  31.845  1.00  0.00    -0.014 A 
BRANCH  36  37
ATOM     37  C   UNL A   1      40.338  29.080  31.438  1.00  0.00     0.031 A 
ATOM     38  C   UNL A   1      41.266  28.702  32.535  1.00  0.00     0.074 A 
ATOM     39  C   UNL A   1      40.468  28.563  30.196  1.00  0.00     0.049 A 
ATOM     40  N   UNL A   1      42.452  29.162  32.745  1.00  0.00    -0.248 NA
ATOM     41  C   UNL A   1      40.776  27.804  33.593  1.00  0.00     0.031 C 
ATOM     42  C   UNL A   1      39.505  28.569  29.084  1.00  0.00     0.029 A 
ATOM     43  N   UNL A   1      41.472  27.797  29.703  1.00  0.00    -0.354 N 
ATOM     44  C   UNL A   1      42.946  28.472  33.845  1.00  0.00     0.074 A 
ATOM     45  C   UNL A   1      41.822  27.776  34.423  1.00  0.00     0.031 C 
ATOM     46  C   UNL A   1      39.858  27.636  28.171  1.00  0.00     0.029 A 
ATOM     47  C   UNL A   1      41.165  27.120  28.529  1.00  0.00     0.049 A 
ATOM     48  H   UNL A   1      42.350  27.724  30.144  1.00  0.00     0.167 HD
ATOM     49  C   UNL A   1      44.283  28.352  34.076  1.00  0.00     0.031 A 
ATOM     50  C   UNL A   1      41.929  26.183  27.917  1.00  0.00     0.031 A 
ATOM     51  C   UNL A   1      45.055  29.206  33.210  1.00  0.00     0.049 A 
ATOM     52  C   UNL A   1      43.317  26.385  28.404  1.00  0.00     0.074 A 
ATOM     53  C   UNL A   1      45.142  30.569  33.019  1.00  0.00     0.029 A 
ATOM     54  N   UNL A   1      45.578  28.628  32.075  1.00  0.00    -0.354 N 
ATOM     55  N   UNL A   1      44.012  27.459  28.152  1.00  0.00    -0.248 NA
ATOM     56  C   UNL A   1      43.757  25.614  29.556  1.00  0.00     0.031 C 
ATOM     57  C   UNL A   1      45.249  30.734  31.606  1.00  0.00     0.029 A 
ATOM     58  C   UNL A   1      45.300  29.465  31.023  1.00  0.00     0.049 A 
ATOM     59  H   UNL A   1      46.063  27.774  32.027  1.00  0.00     0.167 HD
ATOM     60  C   UNL A   1      44.679  27.738  29.336  1.00  0.00     0.074 A 
ATOM     61  C   UNL A   1      44.558  26.516  30.132  1.00  0.00     0.031 C 
ATOM     62  C   UNL A   1      45.025  29.017  29.673  1.00  0.00     0.031 A 
BRANCH  49  63
ATOM     63  C   UNL A   1      44.911  27.212  34.827  1.00  0.00    -0.014 A 
ATOM     64  C   UNL A   1      45.058  25.965  34.189  1.00  0.00     0.010 A 
ATOM     65  C   UNL A   1      45.127  27.256  36.220  1.00  0.00     0.010 A 
ATOM     66  C   UNL A   1      45.371  24.810  34.918  1.00  0.00     0.020 A 
ATOM     67  C   UNL A   1      45.478  26.118  36.950  1.00  0.00     0.020 A 
ATOM     68  C   UNL A   1      45.570  24.895  36.297  1.00  0.00     0.054 A 
BRANCH  68  69
ATOM     69  S   UNL A   1      45.884  23.382  37.239  1.00  0.00     0.124 S 
ATOM     70  O   UNL A   1      45.180  22.380  36.446  1.00  0.00    -0.237 OA
ATOM     71  O   UNL A   1      47.342  23.301  37.214  1.00  0.00    -0.237 OA
ATOM     72  O   UNL A   1      45.302  23.668  38.549  1.00  0.00    -0.744 OA
ENDBRANCH  68  69
ENDBRANCH  49  63
BRANCH  50  73
ATOM     73  C   UNL A   1      41.491  24.930  27.253  1.00  0.00    -0.014 A 
ATOM     74  C   UNL A   1      42.369  24.232  26.402  1.00  0.00     0.010 A 
ATOM     75  C   UNL A   1      40.339  24.254  27.706  1.00  0.00     0.010 A 
ATOM     76  C   UNL A   1      42.154  22.879  26.093  1.00  0.00     0.020 A 
ATOM     77  C   UNL A   1      40.116  22.907  27.397  1.00  0.00     0.020 A 
ATOM     78  C   UNL A   1      41.044  22.216  26.621  1.00  0.00     0.054 A 
BRANCH  78  79
ATOM     79  S   UNL A   1      40.895  20.417  26.403  1.00  0.00     0.124 S 
ATOM     80  O   UNL A   1      42.034  20.111  25.543  1.00  0.00    -0.237 OA
ATOM     81  O   UNL A   1      40.986  19.926  27.775  1.00  0.00    -0.237 OA
ATOM     82  O   UNL A   1      39.583  20.256  25.776  1.00  0.00    -0.744 OA
ENDBRANCH  78  79
ENDBRANCH  50  73
BRANCH  62  83
ATOM     83  C   UNL A   1      44.915  30.091  28.612  1.00  0.00    -0.014 A 
ATOM     84  C   UNL A   1      43.697  30.642  28.162  1.00  0.00     0.010 A 
ATOM     85  C   UNL A   1      46.114  30.659  28.145  1.00  0.00     0.010 A 
ATOM     86  C   UNL A   1      43.684  31.702  27.240  1.00  0.00     0.020 A 
ATOM     87  C   UNL A   1      46.108  31.725  27.244  1.00  0.00     0.020 A 
ATOM     88  C   UNL A   1      44.893  32.234  26.783  1.00  0.00     0.054 A 
BRANCH  88  89
ATOM     89  S   UNL A   1      44.879  33.606  25.594  1.00  0.00     0.124 S 
ATOM     90  O   UNL A   1      46.297  33.916  25.447  1.00  0.00    -0.237 OA
ATOM     91  O   UNL A   1      44.240  33.010  24.422  1.00  0.00    -0.237 OA
ATOM     92  O   UNL A   1      44.088  34.639  26.262  1.00  0.00    -0.744 OA
ENDBRANCH  88  89
ENDBRANCH  62  83
ENDBRANCH  36  37
ENDBRANCH  28  31
ENDBRANCH  26  27
ENDBRANCH  25  26
ENDBRANCH  24  25
ENDBRANCH   1  24
TORSDOF 19
ENDMDL
MODEL 3
REMARK VINA RESULT:     -10.5      3.003      9.439
REMARK SMILES Cc1cc(=O)n2nc(C[N@@H+](C)CC(=O)NCCCCCCNC(=O)c3ccc(-c4c5nc(c(-c6ccc(S(=O)(=O)[O-])cc6)c6ccc([nH]6)c(-c6ccc(S(=O)(=O)[O-])cc6)c6nc(c(-c7ccc(S(=O)(=O)[O-])cc7)c7ccc4[nH]7)C=C6)C=C5)cc3)sc2n1
REMARK SMILES IDX 18 1 17 2 16 3 15 4 13 5 14 6 12 8 10 9 11 10 9 12 8 13 1 14
REMARK SMILES IDX 2 15 3 16 87 17 4 18 86 19 5 20 6 21 85 22 7 23 19 24 20 25
REMARK SMILES IDX 21 26 22 27 23 28 24 30 25 31 26 32 84 33 27 34 83 35 28 36
REMARK SMILES IDX 29 37 30 38 77 39 31 40 82 41 76 42 78 43 32 44 81 45 75 46
REMARK SMILES IDX 74 47 33 49 63 50 44 51 62 52 45 53 48 54 61 55 79 56 46 57
REMARK SMILES IDX 47 58 60 60 80 61 49 62 34 63 35 64 43 65 36 66 42 67 37 68
REMARK SMILES IDX 38 69 39 70 40 71 41 72 64 73 65 74 73 75 66 76 72 77 67 78
REMARK SMILES IDX 68 79 69 80 70 81 71 82 50 83 51 84 59 85 52 86 58 87 53 88
REMARK SMILES IDX 54 89 55 90 56 91 57 92
REMARK H PARENT 15 7 10 11 22 29 78 48 48 59
REMARK Flexibility Score: inf
ROOT
ATOM      1  C   UNL A   1      33.592  28.626  27.086  1.00  0.00     0.002 C 
ENDROOT
BRANCH   1   2
ATOM      2  C   UNL A   1      32.078  28.818  27.202  1.00  0.00     0.021 C 
BRANCH   2   3
ATOM      3  C   UNL A   1      31.258  27.574  26.856  1.00  0.00     0.116 C 
BRANCH   3   4
ATOM      4  N   UNL A   1      32.117  26.426  26.692  1.00  0.00    -0.351 N 
ATOM      5  C   UNL A   1      31.834  25.215  26.140  1.00  0.00     0.275 C 
ATOM      6  O   UNL A   1      32.711  24.348  26.188  1.00  0.00    -0.269 OA
ATOM      7  H   UNL A   1      33.038  26.535  27.026  1.00  0.00     0.163 HD
BRANCH   5   8
ATOM      8  C   UNL A   1      30.500  24.961  25.435  1.00  0.00     0.363 C 
BRANCH   8   9
ATOM      9  N   UNL A   1      30.530  24.965  23.966  1.00  0.00    -0.324 N 
ATOM     10  C   UNL A   1      30.566  23.682  23.297  1.00  0.00     0.333 C 
ATOM     11  H   UNL A   1      29.578  25.288  23.797  1.00  0.00     0.348 HD
BRANCH   9  12
ATOM     12  C   UNL A   1      31.377  25.981  23.328  1.00  0.00     0.333 C 
BRANCH  12  13
ATOM     13  C   UNL A   1      30.591  27.257  23.167  1.00  0.00     0.172 A 
ATOM     14  C   UNL A   1      28.315  32.623  21.848  1.00  0.00     0.067 C 
ATOM     15  C   UNL A   1      28.477  31.200  22.295  1.00  0.00     0.046 A 
ATOM     16  C   UNL A   1      27.417  30.457  22.650  1.00  0.00     0.097 A 
ATOM     17  N   UNL A   1      29.770  30.734  22.289  1.00  0.00    -0.224 NA
ATOM     18  C   UNL A   1      27.613  29.049  23.069  1.00  0.00     0.275 A 
ATOM     19  C   UNL A   1      29.925  29.506  22.652  1.00  0.00     0.215 A 
ATOM     20  O   UNL A   1      26.636  28.381  23.394  1.00  0.00    -0.267 OA
ATOM     21  N   UNL A   1      28.929  28.644  23.028  1.00  0.00    -0.167 N 
ATOM     22  S   UNL A   1      31.456  28.713  22.706  1.00  0.00    -0.073 S 
ATOM     23  N   UNL A   1      29.307  27.354  23.320  1.00  0.00    -0.150 NA
ENDBRANCH  12  13
ENDBRANCH   9  12
ENDBRANCH   8   9
ENDBRANCH   5   8
ENDBRANCH   3   4
ENDBRANCH   2   3
ENDBRANCH   1   2
BRANCH   1  24
ATOM     24  C   UNL A   1      34.439  29.898  27.236  1.00  0.00     0.002 C 
BRANCH  24  25
ATOM     25  C   UNL A   1      33.672  31.203  27.496  1.00  0.00     0.021 C 
BRANCH  25  26
ATOM     26  C   UNL A   1      34.555  32.351  27.955  1.00  0.00     0.116 C 
BRANCH  26  27
ATOM     27  N   UNL A   1      34.320  32.713  29.354  1.00  0.00    -0.352 N 
ATOM     28  C   UNL A   1      35.006  32.283  30.478  1.00  0.00     0.251 C 
ATOM     29  H   UNL A   1      33.581  33.342  29.517  1.00  0.00     0.163 HD
ATOM     30  O   UNL A   1      34.507  32.357  31.587  1.00  0.00    -0.269 OA
BRANCH  28  31
ATOM     31  C   UNL A   1      36.364  31.741  30.291  1.00  0.00     0.039 A 
ATOM     32  C   UNL A   1      37.484  32.562  30.139  1.00  0.00     0.014 A 
ATOM     33  C   UNL A   1      36.494  30.357  30.312  1.00  0.00     0.014 A 
ATOM     34  C   UNL A   1      38.743  31.967  30.080  1.00  0.00     0.010 A 
ATOM     35  C   UNL A   1      37.730  29.798  30.471  1.00  0.00     0.010 A 
ATOM     36  C   UNL A   1      38.856  30.579  30.259  1.00  0.00    -0.014 A 
BRANCH  36  37
ATOM     37  C   UNL A   1      40.144  29.903  30.273  1.00  0.00     0.031 A 
ATOM     38  C   UNL A   1      40.675  29.570  31.620  1.00  0.00     0.074 A 
ATOM     39  C   UNL A   1      40.718  29.417  29.150  1.00  0.00     0.049 A 
ATOM     40  N   UNL A   1      41.687  30.105  32.213  1.00  0.00    -0.248 NA
ATOM     41  C   UNL A   1      39.922  28.624  32.459  1.00  0.00     0.031 C 
ATOM     42  C   UNL A   1      40.186  29.376  27.780  1.00  0.00     0.029 A 
ATOM     43  N   UNL A   1      41.879  28.728  29.028  1.00  0.00    -0.354 N 
ATOM     44  C   UNL A   1      41.831  29.431  33.419  1.00  0.00     0.074 A 
ATOM     45  C   UNL A   1      40.629  28.652  33.592  1.00  0.00     0.031 C 
ATOM     46  C   UNL A   1      40.887  28.485  27.044  1.00  0.00     0.029 A 
ATOM     47  C   UNL A   1      42.031  28.052  27.823  1.00  0.00     0.049 A 
ATOM     48  H   UNL A   1      42.562  28.708  29.738  1.00  0.00     0.167 HD
ATOM     49  C   UNL A   1      43.018  29.398  34.086  1.00  0.00     0.031 A 
ATOM     50  C   UNL A   1      43.019  27.179  27.510  1.00  0.00     0.031 A 
ATOM     51  C   UNL A   1      43.974  30.315  33.524  1.00  0.00     0.049 A 
ATOM     52  C   UNL A   1      44.146  27.466  28.433  1.00  0.00     0.074 A 
ATOM     53  C   UNL A   1      44.026  31.685  33.364  1.00  0.00     0.029 A 
ATOM     54  N   UNL A   1      44.886  29.794  32.634  1.00  0.00    -0.354 N 
ATOM     55  N   UNL A   1      44.809  28.588  28.421  1.00  0.00    -0.248 NA
ATOM     56  C   UNL A   1      44.226  26.707  29.670  1.00  0.00     0.031 C 
ATOM     57  C   UNL A   1      44.588  31.880  32.068  1.00  0.00     0.029 A 
ATOM     58  C   UNL A   1      44.919  30.628  31.544  1.00  0.00     0.049 A 
ATOM     59  H   UNL A   1      45.417  28.975  32.757  1.00  0.00     0.167 HD
ATOM     60  C   UNL A   1      45.021  28.892  29.758  1.00  0.00     0.074 A 
ATOM     61  C   UNL A   1      44.724  27.651  30.476  1.00  0.00     0.031 C 
ATOM     62  C   UNL A   1      45.145  30.185  30.183  1.00  0.00     0.031 A 
BRANCH  49  63
ATOM     63  C   UNL A   1      43.435  28.290  35.012  1.00  0.00    -0.014 A 
ATOM     64  C   UNL A   1      44.122  28.607  36.200  1.00  0.00     0.010 A 
ATOM     65  C   UNL A   1      43.399  26.933  34.628  1.00  0.00     0.010 A 
ATOM     66  C   UNL A   1      44.773  27.617  36.948  1.00  0.00     0.020 A 
ATOM     67  C   UNL A   1      44.010  25.933  35.387  1.00  0.00     0.020 A 
ATOM     68  C   UNL A   1      44.718  26.286  36.530  1.00  0.00     0.054 A 
BRANCH  68  69
ATOM     69  S   UNL A   1      45.638  25.032  37.455  1.00  0.00     0.124 S 
ATOM     70  O   UNL A   1      45.740  23.951  36.480  1.00  0.00    -0.237 OA
ATOM     71  O   UNL A   1      46.883  25.728  37.764  1.00  0.00    -0.237 OA
ATOM     72  O   UNL A   1      44.779  24.758  38.606  1.00  0.00    -0.744 OA
ENDBRANCH  68  69
ENDBRANCH  49  63
BRANCH  50  73
ATOM     73  C   UNL A   1      42.917  25.911  26.745  1.00  0.00    -0.014 A 
ATOM     74  C   UNL A   1      43.503  25.800  25.470  1.00  0.00     0.010 A 
ATOM     75  C   UNL A   1      42.531  24.721  27.397  1.00  0.00     0.010 A 
ATOM     76  C   UNL A   1      43.780  24.543  24.909  1.00  0.00     0.020 A 
ATOM     77  C   UNL A   1      42.800  23.465  26.840  1.00  0.00     0.020 A 
ATOM     78  C   UNL A   1      43.456  23.382  25.614  1.00  0.00     0.054 A 
BRANCH  78  79
ATOM     79  S   UNL A   1      44.021  21.772  24.986  1.00  0.00     0.124 S 
ATOM     80  O   UNL A   1      42.902  20.896  25.319  1.00  0.00    -0.237 OA
ATOM     81  O   UNL A   1      44.215  22.041  23.564  1.00  0.00    -0.237 OA
ATOM     82  O   UNL A   1      45.250  21.524  25.740  1.00  0.00    -0.744 OA
ENDBRANCH  78  79
ENDBRANCH  50  73
BRANCH  62  83
ATOM     83  C   UNL A   1      45.322  31.267  29.139  1.00  0.00    -0.014 A 
ATOM     84  C   UNL A   1      46.573  31.726  28.675  1.00  0.00     0.010 A 
ATOM     85  C   UNL A   1      44.162  31.747  28.507  1.00  0.00     0.010 A 
ATOM     86  C   UNL A   1      46.653  32.669  27.637  1.00  0.00     0.020 A 
ATOM     87  C   UNL A   1      44.235  32.670  27.461  1.00  0.00     0.020 A 
ATOM     88  C   UNL A   1      45.479  33.138  27.039  1.00  0.00     0.054 A 
BRANCH  88  89
ATOM     89  S   UNL A   1      45.581  34.355  25.696  1.00  0.00     0.124 S 
ATOM     90  O   UNL A   1      47.007  34.369  25.385  1.00  0.00    -0.237 OA
ATOM     91  O   UNL A   1      44.719  33.774  24.668  1.00  0.00    -0.237 OA
ATOM     92  O   UNL A   1      45.069  35.585  26.298  1.00  0.00    -0.744 OA
ENDBRANCH  88  89
ENDBRANCH  62  83
ENDBRANCH  36  37
ENDBRANCH  28  31
ENDBRANCH  26  27
ENDBRANCH  25  26
ENDBRANCH  24  25
ENDBRANCH   1  24
TORSDOF 19
ENDMDL
