MODEL 1
REMARK VINA RESULT:     -11.8      0.000      0.000
REMARK SMILES Cc1ccc(S(=O)(=O)Nc2cc(C(=O)NCCCCCCNC(=O)c3ccc(-c4c5nc(c(-c6ccc(S(=O)(=O)[O-])cc6)c6ccc([nH]6)c(-c6ccc(S(=O)(=O)[O-])cc6)c6nc(c(-c7ccc(S(=O)(=O)[O-])cc7)c7ccc4[nH]7)C=C6)C=C5)cc3)cnc2N2CCCC2)c(C)c1
REMARK SMILES IDX 18 1 17 2 16 3 15 4 13 5 14 6 12 8 10 9 11 10 87 11 86 12
REMARK SMILES IDX 85 13 9 14 6 16 7 17 8 18 5 19 1 20 2 21 3 22 95 23 4 24
REMARK SMILES IDX 93 25 94 26 88 27 89 28 92 29 90 30 91 31 19 32 20 33 21 34
REMARK SMILES IDX 22 35 23 36 24 38 25 39 26 40 84 41 27 42 83 43 28 44 29 45
REMARK SMILES IDX 30 46 77 47 31 48 82 49 76 50 78 51 32 52 81 53 75 54 74 55
REMARK SMILES IDX 33 57 63 58 44 59 62 60 45 61 48 62 61 63 79 64 46 65 47 66
REMARK SMILES IDX 60 68 80 69 49 70 34 71 35 72 43 73 36 74 42 75 37 76 38 77
REMARK SMILES IDX 39 78 40 79 41 80 64 81 65 82 73 83 66 84 72 85 67 86 68 87
REMARK SMILES IDX 69 88 70 89 71 90 50 91 51 92 59 93 52 94 58 95 53 96 54 97
REMARK SMILES IDX 55 98 56 99 57 100
REMARK H PARENT 15 7 9 15 22 37 78 56 48 67
REMARK Flexibility Score: inf
ROOT
ATOM      1  C   UNL A   1      34.490  32.870  28.052  1.00  0.00     0.002 C 
ENDROOT
BRANCH   1   2
ATOM      2  C   UNL A   1      35.232  31.558  27.768  1.00  0.00     0.021 C 
BRANCH   2   3
ATOM      3  C   UNL A   1      34.298  30.433  27.324  1.00  0.00     0.116 C 
BRANCH   3   4
ATOM      4  N   UNL A   1      33.078  30.982  26.756  1.00  0.00    -0.352 N 
ATOM      5  C   UNL A   1      31.978  30.406  26.177  1.00  0.00     0.252 C 
ATOM      6  O   UNL A   1      31.072  31.152  25.802  1.00  0.00    -0.269 OA
ATOM      7  H   UNL A   1      33.033  31.965  26.796  1.00  0.00     0.163 HD
BRANCH   5   8
ATOM      8  C   UNL A   1      31.790  28.942  26.044  1.00  0.00     0.060 A 
ATOM      9  C   UNL A   1      31.850  26.827  24.921  1.00  0.00     0.092 A 
ATOM     10  C   UNL A   1      31.835  28.218  24.860  1.00  0.00     0.046 A 
ATOM     11  C   UNL A   1      31.594  26.170  26.146  1.00  0.00     0.153 A 
ATOM     12  N   UNL A   1      31.427  26.871  27.285  1.00  0.00    -0.236 NA
ATOM     13  C   UNL A   1      31.569  28.221  27.217  1.00  0.00     0.127 A 
BRANCH   9  14
ATOM     14  N   UNL A   1      32.130  26.029  23.778  1.00  0.00    -0.276 N 
ATOM     15  H   UNL A   1      31.384  25.847  23.161  1.00  0.00     0.180 HD
BRANCH  14  16
ATOM     16  S   UNL A   1      33.617  25.376  23.392  1.00  0.00     0.262 S 
ATOM     17  O   UNL A   1      34.500  25.717  24.491  1.00  0.00    -0.201 OA
ATOM     18  O   UNL A   1      33.867  25.833  22.042  1.00  0.00    -0.201 OA
BRANCH  16  19
ATOM     19  C   UNL A   1      33.583  23.582  23.330  1.00  0.00     0.090 A 
ATOM     20  C   UNL A   1      33.041  19.457  24.469  1.00  0.00     0.044 C 
ATOM     21  C   UNL A   1      33.254  20.866  23.999  1.00  0.00    -0.051 A 
ATOM     22  C   UNL A   1      32.291  21.527  23.235  1.00  0.00     0.005 A 
ATOM     23  C   UNL A   1      34.452  21.525  24.283  1.00  0.00     0.008 A 
ATOM     24  C   UNL A   1      32.464  22.872  22.882  1.00  0.00     0.023 A 
ATOM     25  C   UNL A   1      34.640  22.878  23.944  1.00  0.00    -0.030 A 
ATOM     26  C   UNL A   1      35.989  23.475  24.250  1.00  0.00     0.046 C 
ENDBRANCH  16  19
ENDBRANCH  14  16
ENDBRANCH   9  14
BRANCH  11  27
ATOM     27  N   UNL A   1      31.447  24.810  26.199  1.00  0.00    -0.355 N 
ATOM     28  C   UNL A   1      30.389  24.007  25.619  1.00  0.00     0.118 C 
ATOM     29  C   UNL A   1      32.483  24.002  26.821  1.00  0.00     0.118 C 
ATOM     30  C   UNL A   1      30.422  22.778  26.523  1.00  0.00     0.023 C 
ATOM     31  C   UNL A   1      31.916  22.580  26.768  1.00  0.00     0.023 C 
ENDBRANCH  11  27
ENDBRANCH   5   8
ENDBRANCH   3   4
ENDBRANCH   2   3
ENDBRANCH   1   2
BRANCH   1  32
ATOM     32  C   UNL A   1      35.093  33.713  29.183  1.00  0.00     0.002 C 
BRANCH  32  33
ATOM     33  C   UNL A   1      36.624  33.778  29.207  1.00  0.00     0.021 C 
BRANCH  33  34
ATOM     34  C   UNL A   1      37.265  33.307  30.511  1.00  0.00     0.116 C 
BRANCH  34  35
ATOM     35  N   UNL A   1      36.520  32.213  31.116  1.00  0.00    -0.352 N 
ATOM     36  C   UNL A   1      36.795  30.869  31.113  1.00  0.00     0.251 C 
ATOM     37  H   UNL A   1      35.702  32.475  31.596  1.00  0.00     0.163 HD
ATOM     38  O   UNL A   1      35.950  30.071  31.507  1.00  0.00    -0.269 OA
BRANCH  36  39
ATOM     39  C   UNL A   1      38.102  30.382  30.620  1.00  0.00     0.039 A 
ATOM     40  C   UNL A   1      38.301  30.261  29.242  1.00  0.00     0.014 A 
ATOM     41  C   UNL A   1      39.116  30.019  31.512  1.00  0.00     0.014 A 
ATOM     42  C   UNL A   1      39.534  29.821  28.755  1.00  0.00     0.010 A 
ATOM     43  C   UNL A   1      40.360  29.628  31.025  1.00  0.00     0.010 A 
ATOM     44  C   UNL A   1      40.579  29.520  29.643  1.00  0.00    -0.014 A 
BRANCH  44  45
ATOM     45  C   UNL A   1      41.907  29.090  29.145  1.00  0.00     0.031 A 
ATOM     46  C   UNL A   1      43.035  30.079  29.047  1.00  0.00     0.074 A 
ATOM     47  C   UNL A   1      42.078  27.828  28.710  1.00  0.00     0.049 A 
ATOM     48  N   UNL A   1      44.246  29.905  28.582  1.00  0.00    -0.248 NA
ATOM     49  C   UNL A   1      42.755  31.448  29.509  1.00  0.00     0.031 C 
ATOM     50  C   UNL A   1      41.048  26.788  28.705  1.00  0.00     0.029 A 
ATOM     51  N   UNL A   1      43.179  27.211  28.172  1.00  0.00    -0.354 N 
ATOM     52  C   UNL A   1      44.865  31.146  28.671  1.00  0.00     0.074 A 
ATOM     53  C   UNL A   1      43.885  32.070  29.204  1.00  0.00     0.031 C 
ATOM     54  C   UNL A   1      41.567  25.660  28.196  1.00  0.00     0.029 A 
ATOM     55  C   UNL A   1      42.957  25.902  27.818  1.00  0.00     0.049 A 
ATOM     56  H   UNL A   1      44.046  27.663  28.052  1.00  0.00     0.167 HD
ATOM     57  C   UNL A   1      46.136  31.486  28.348  1.00  0.00     0.031 A 
ATOM     58  C   UNL A   1      43.775  24.999  27.247  1.00  0.00     0.031 A 
ATOM     59  C   UNL A   1      47.113  30.567  27.829  1.00  0.00     0.049 A 
ATOM     60  C   UNL A   1      45.191  25.384  26.928  1.00  0.00     0.074 A 
ATOM     61  C   UNL A   1      48.444  30.798  27.532  1.00  0.00     0.029 A 
ATOM     62  N   UNL A   1      46.860  29.238  27.523  1.00  0.00    -0.354 N 
ATOM     63  N   UNL A   1      45.781  26.543  27.086  1.00  0.00    -0.248 NA
ATOM     64  C   UNL A   1      46.053  24.334  26.368  1.00  0.00     0.031 C 
ATOM     65  C   UNL A   1      48.989  29.616  27.017  1.00  0.00     0.029 A 
ATOM     66  C   UNL A   1      48.005  28.639  27.026  1.00  0.00     0.049 A 
ATOM     67  H   UNL A   1      45.993  28.786  27.642  1.00  0.00     0.167 HD
ATOM     68  C   UNL A   1      47.090  26.362  26.657  1.00  0.00     0.074 A 
ATOM     69  C   UNL A   1      47.209  24.977  26.246  1.00  0.00     0.031 C 
ATOM     70  C   UNL A   1      48.104  27.262  26.611  1.00  0.00     0.031 A 
BRANCH  57  71
ATOM     71  C   UNL A   1      46.523  32.927  28.537  1.00  0.00    -0.014 A 
ATOM     72  C   UNL A   1      46.379  33.860  27.492  1.00  0.00     0.010 A 
ATOM     73  C   UNL A   1      47.059  33.352  29.765  1.00  0.00     0.010 A 
ATOM     74  C   UNL A   1      46.822  35.175  27.652  1.00  0.00     0.020 A 
ATOM     75  C   UNL A   1      47.482  34.673  29.938  1.00  0.00     0.020 A 
ATOM     76  C   UNL A   1      47.387  35.569  28.870  1.00  0.00     0.054 A 
BRANCH  76  77
ATOM     77  S   UNL A   1      47.985  37.272  29.050  1.00  0.00     0.124 S 
ATOM     78  O   UNL A   1      47.181  37.976  28.053  1.00  0.00    -0.237 OA
ATOM     79  O   UNL A   1      47.670  37.583  30.443  1.00  0.00    -0.237 OA
ATOM     80  O   UNL A   1      49.409  37.170  28.745  1.00  0.00    -0.744 OA
ENDBRANCH  76  77
ENDBRANCH  57  71
BRANCH  58  81
ATOM     81  C   UNL A   1      43.263  23.632  26.971  1.00  0.00    -0.014 A 
ATOM     82  C   UNL A   1      43.181  23.160  25.651  1.00  0.00     0.010 A 
ATOM     83  C   UNL A   1      42.932  22.771  28.032  1.00  0.00     0.010 A 
ATOM     84  C   UNL A   1      42.787  21.844  25.395  1.00  0.00     0.020 A 
ATOM     85  C   UNL A   1      42.554  21.449  27.782  1.00  0.00     0.020 A 
ATOM     86  C   UNL A   1      42.483  20.994  26.463  1.00  0.00     0.054 A 
BRANCH  86  87
ATOM     87  S   UNL A   1      42.083  19.257  26.117  1.00  0.00     0.124 S 
ATOM     88  O   UNL A   1      42.501  18.598  27.350  1.00  0.00    -0.237 OA
ATOM     89  O   UNL A   1      40.642  19.303  25.880  1.00  0.00    -0.237 OA
ATOM     90  O   UNL A   1      42.888  18.952  24.937  1.00  0.00    -0.744 OA
ENDBRANCH  86  87
ENDBRANCH  58  81
BRANCH  70  91
ATOM     91  C   UNL A   1      49.433  26.775  26.108  1.00  0.00    -0.014 A 
ATOM     92  C   UNL A   1      49.899  27.137  24.832  1.00  0.00     0.010 A 
ATOM     93  C   UNL A   1      50.248  25.988  26.942  1.00  0.00     0.010 A 
ATOM     94  C   UNL A   1      51.150  26.699  24.388  1.00  0.00     0.020 A 
ATOM     95  C   UNL A   1      51.507  25.564  26.508  1.00  0.00     0.020 A 
ATOM     96  C   UNL A   1      51.945  25.912  25.228  1.00  0.00     0.054 A 
BRANCH  96  97
ATOM     97  S   UNL A   1      53.585  25.392  24.653  1.00  0.00     0.124 S 
ATOM     98  O   UNL A   1      54.469  26.107  25.569  1.00  0.00    -0.237 OA
ATOM     99  O   UNL A   1      53.544  23.942  24.823  1.00  0.00    -0.237 OA
ATOM    100  O   UNL A   1      53.624  25.848  23.265  1.00  0.00    -0.744 OA
ENDBRANCH  96  97
ENDBRANCH  70  91
ENDBRANCH  44  45
ENDBRANCH  36  39
ENDBRANCH  34  35
ENDBRANCH  33  34
ENDBRANCH  32  33
ENDBRANCH   1  32
TORSDOF 20
ENDMDL
MODEL 2
REMARK VINA RESULT:     -10.9      1.481      2.354
REMARK SMILES Cc1ccc(S(=O)(=O)Nc2cc(C(=O)NCCCCCCNC(=O)c3ccc(-c4c5nc(c(-c6ccc(S(=O)(=O)[O-])cc6)c6ccc([nH]6)c(-c6ccc(S(=O)(=O)[O-])cc6)c6nc(c(-c7ccc(S(=O)(=O)[O-])cc7)c7ccc4[nH]7)C=C6)C=C5)cc3)cnc2N2CCCC2)c(C)c1
REMARK SMILES IDX 18 1 17 2 16 3 15 4 13 5 14 6 12 8 10 9 11 10 87 11 86 12
REMARK SMILES IDX 85 13 9 14 6 16 7 17 8 18 5 19 1 20 2 21 3 22 95 23 4 24
REMARK SMILES IDX 93 25 94 26 88 27 89 28 92 29 90 30 91 31 19 32 20 33 21 34
REMARK SMILES IDX 22 35 23 36 24 38 25 39 26 40 84 41 27 42 83 43 28 44 29 45
REMARK SMILES IDX 30 46 77 47 31 48 82 49 76 50 78 51 32 52 81 53 75 54 74 55
REMARK SMILES IDX 33 57 63 58 44 59 62 60 45 61 48 62 61 63 79 64 46 65 47 66
REMARK SMILES IDX 60 68 80 69 49 70 34 71 35 72 43 73 36 74 42 75 37 76 38 77
REMARK SMILES IDX 39 78 40 79 41 80 64 81 65 82 73 83 66 84 72 85 67 86 68 87
REMARK SMILES IDX 69 88 70 89 71 90 50 91 51 92 59 93 52 94 58 95 53 96 54 97
REMARK SMILES IDX 55 98 56 99 57 100
REMARK H PARENT 15 7 9 15 22 37 78 56 48 67
REMARK Flexibility Score: inf
ROOT
ATOM      1  C   UNL A   1      32.360  32.544  26.989  1.00  0.00     0.002 C 
ENDROOT
BRANCH   1   2
ATOM      2  C   UNL A   1      31.473  31.302  26.838  1.00  0.00     0.021 C 
BRANCH   2   3
ATOM      3  C   UNL A   1      31.781  30.504  25.571  1.00  0.00     0.116 C 
BRANCH   3   4
ATOM      4  N   UNL A   1      30.661  30.570  24.647  1.00  0.00    -0.352 N 
ATOM      5  C   UNL A   1      30.093  29.652  23.803  1.00  0.00     0.252 C 
ATOM      6  O   UNL A   1      29.115  30.009  23.145  1.00  0.00    -0.269 OA
ATOM      7  H   UNL A   1      30.222  31.451  24.624  1.00  0.00     0.163 HD
BRANCH   5   8
ATOM      8  C   UNL A   1      30.546  28.246  23.693  1.00  0.00     0.060 A 
ATOM      9  C   UNL A   1      30.827  25.980  24.420  1.00  0.00     0.092 A 
ATOM     10  C   UNL A   1      30.576  27.316  24.724  1.00  0.00     0.046 A 
ATOM     11  C   UNL A   1      31.268  25.621  23.126  1.00  0.00     0.153 A 
ATOM     12  N   UNL A   1      31.360  26.541  22.146  1.00  0.00    -0.236 NA
ATOM     13  C   UNL A   1      30.962  27.808  22.436  1.00  0.00     0.127 A 
BRANCH   9  14
ATOM     14  N   UNL A   1      30.642  24.945  25.377  1.00  0.00    -0.276 N 
ATOM     15  H   UNL A   1      29.823  24.403  25.302  1.00  0.00     0.180 HD
BRANCH  14  16
ATOM     16  S   UNL A   1      31.695  24.569  26.615  1.00  0.00     0.262 S 
ATOM     17  O   UNL A   1      31.053  23.515  27.379  1.00  0.00    -0.201 OA
ATOM     18  O   UNL A   1      32.023  25.848  27.206  1.00  0.00    -0.201 OA
BRANCH  16  19
ATOM     19  C   UNL A   1      33.236  23.868  26.016  1.00  0.00     0.090 A 
ATOM     20  C   UNL A   1      37.322  22.495  25.864  1.00  0.00     0.044 C 
ATOM     21  C   UNL A   1      35.892  22.947  25.839  1.00  0.00    -0.051 A 
ATOM     22  C   UNL A   1      34.844  22.048  26.043  1.00  0.00     0.005 A 
ATOM     23  C   UNL A   1      35.585  24.282  25.560  1.00  0.00     0.008 A 
ATOM     24  C   UNL A   1      33.521  22.501  26.109  1.00  0.00     0.023 A 
ATOM     25  C   UNL A   1      34.262  24.757  25.630  1.00  0.00    -0.030 A 
ATOM     26  C   UNL A   1      34.037  26.200  25.261  1.00  0.00     0.046 C 
ENDBRANCH  16  19
ENDBRANCH  14  16
ENDBRANCH   9  14
BRANCH  11  27
ATOM     27  N   UNL A   1      31.672  24.343  22.849  1.00  0.00    -0.355 N 
ATOM     28  C   UNL A   1      30.907  23.119  22.987  1.00  0.00     0.118 C 
ATOM     29  C   UNL A   1      32.982  24.117  22.261  1.00  0.00     0.118 C 
ATOM     30  C   UNL A   1      32.022  22.092  23.163  1.00  0.00     0.023 C 
ATOM     31  C   UNL A   1      33.095  22.591  22.197  1.00  0.00     0.023 C 
ENDBRANCH  11  27
ENDBRANCH   5   8
ENDBRANCH   3   4
ENDBRANCH   2   3
ENDBRANCH   1   2
BRANCH   1  32
ATOM     32  C   UNL A   1      33.402  32.451  28.111  1.00  0.00     0.002 C 
BRANCH  32  33
ATOM     33  C   UNL A   1      34.860  32.367  27.645  1.00  0.00     0.021 C 
BRANCH  33  34
ATOM     34  C   UNL A   1      35.638  31.172  28.192  1.00  0.00     0.116 C 
BRANCH  34  35
ATOM     35  N   UNL A   1      35.477  31.033  29.631  1.00  0.00    -0.352 N 
ATOM     36  C   UNL A   1      36.300  30.419  30.541  1.00  0.00     0.251 C 
ATOM     37  H   UNL A   1      34.662  31.438  30.005  1.00  0.00     0.163 HD
ATOM     38  O   UNL A   1      35.907  30.229  31.689  1.00  0.00    -0.269 OA
BRANCH  36  39
ATOM     39  C   UNL A   1      37.651  29.973  30.137  1.00  0.00     0.039 A 
ATOM     40  C   UNL A   1      37.968  29.929  28.776  1.00  0.00     0.014 A 
ATOM     41  C   UNL A   1      38.590  29.574  31.092  1.00  0.00     0.014 A 
ATOM     42  C   UNL A   1      39.244  29.529  28.374  1.00  0.00     0.010 A 
ATOM     43  C   UNL A   1      39.877  29.222  30.693  1.00  0.00     0.010 A 
ATOM     44  C   UNL A   1      40.214  29.192  29.331  1.00  0.00    -0.014 A 
BRANCH  44  45
ATOM     45  C   UNL A   1      41.587  28.804  28.926  1.00  0.00     0.031 A 
ATOM     46  C   UNL A   1      42.681  29.832  28.882  1.00  0.00     0.074 A 
ATOM     47  C   UNL A   1      41.830  27.542  28.527  1.00  0.00     0.049 A 
ATOM     48  N   UNL A   1      43.925  29.696  28.499  1.00  0.00    -0.248 NA
ATOM     49  C   UNL A   1      42.324  31.197  29.300  1.00  0.00     0.031 C 
ATOM     50  C   UNL A   1      40.841  26.464  28.475  1.00  0.00     0.029 A 
ATOM     51  N   UNL A   1      42.985  26.958  28.071  1.00  0.00    -0.354 N 
ATOM     52  C   UNL A   1      44.492  30.960  28.604  1.00  0.00     0.074 A 
ATOM     53  C   UNL A   1      43.448  31.856  29.057  1.00  0.00     0.031 C 
ATOM     54  C   UNL A   1      41.432  25.349  28.021  1.00  0.00     0.029 A 
ATOM     55  C   UNL A   1      42.834  25.636  27.728  1.00  0.00     0.049 A 
ATOM     56  H   UNL A   1      43.841  27.440  27.998  1.00  0.00     0.167 HD
ATOM     57  C   UNL A   1      45.769  31.342  28.356  1.00  0.00     0.031 A 
ATOM     58  C   UNL A   1      43.719  24.756  27.226  1.00  0.00     0.031 A 
ATOM     59  C   UNL A   1      46.809  30.452  27.917  1.00  0.00     0.049 A 
ATOM     60  C   UNL A   1      45.137  25.187  26.991  1.00  0.00     0.074 A 
ATOM     61  C   UNL A   1      48.148  30.728  27.701  1.00  0.00     0.029 A 
ATOM     62  N   UNL A   1      46.624  29.110  27.620  1.00  0.00    -0.354 N 
ATOM     63  N   UNL A   1      45.674  26.370  27.165  1.00  0.00    -0.248 NA
ATOM     64  C   UNL A   1      46.071  24.161  26.507  1.00  0.00     0.031 C 
ATOM     65  C   UNL A   1      48.767  29.558  27.244  1.00  0.00     0.029 A 
ATOM     66  C   UNL A   1      47.821  28.546  27.209  1.00  0.00     0.049 A 
ATOM     67  H   UNL A   1      45.769  28.628  27.692  1.00  0.00     0.167 HD
ATOM     68  C   UNL A   1      47.014  26.231  26.824  1.00  0.00     0.074 A 
ATOM     69  C   UNL A   1      47.208  24.845  26.446  1.00  0.00     0.031 C 
ATOM     70  C   UNL A   1      47.995  27.167  26.826  1.00  0.00     0.031 A 
BRANCH  57  71
ATOM     71  C   UNL A   1      46.091  32.800  28.543  1.00  0.00    -0.014 A 
ATOM     72  C   UNL A   1      46.504  33.297  29.793  1.00  0.00     0.010 A 
ATOM     73  C   UNL A   1      45.957  33.689  27.462  1.00  0.00     0.010 A 
ATOM     74  C   UNL A   1      46.716  34.666  29.975  1.00  0.00     0.020 A 
ATOM     75  C   UNL A   1      46.190  35.056  27.634  1.00  0.00     0.020 A 
ATOM     76  C   UNL A   1      46.541  35.539  28.896  1.00  0.00     0.054 A 
BRANCH  76  77
ATOM     77  S   UNL A   1      46.790  37.317  29.158  1.00  0.00     0.124 S 
ATOM     78  O   UNL A   1      48.207  37.470  28.830  1.00  0.00    -0.237 OA
ATOM     79  O   UNL A   1      45.859  37.921  28.208  1.00  0.00    -0.237 OA
ATOM     80  O   UNL A   1      46.450  37.509  30.565  1.00  0.00    -0.744 OA
ENDBRANCH  76  77
ENDBRANCH  57  71
BRANCH  58  81
ATOM     81  C   UNL A   1      43.275  23.366  26.944  1.00  0.00    -0.014 A 
ATOM     82  C   UNL A   1      43.251  22.886  25.624  1.00  0.00     0.010 A 
ATOM     83  C   UNL A   1      42.953  22.495  28.000  1.00  0.00     0.010 A 
ATOM     84  C   UNL A   1      42.921  21.552  25.364  1.00  0.00     0.020 A 
ATOM     85  C   UNL A   1      42.641  21.157  27.746  1.00  0.00     0.020 A 
ATOM     86  C   UNL A   1      42.626  20.694  26.428  1.00  0.00     0.054 A 
BRANCH  86  87
ATOM     87  S   UNL A   1      42.312  18.940  26.080  1.00  0.00     0.124 S 
ATOM     88  O   UNL A   1      42.628  18.315  27.361  1.00  0.00    -0.237 OA
ATOM     89  O   UNL A   1      40.901  18.937  25.704  1.00  0.00    -0.237 OA
ATOM     90  O   UNL A   1      43.237  18.640  24.990  1.00  0.00    -0.744 OA
ENDBRANCH  86  87
ENDBRANCH  58  81
BRANCH  70  91
ATOM     91  C   UNL A   1      49.371  26.722  26.417  1.00  0.00    -0.014 A 
ATOM     92  C   UNL A   1      50.264  26.183  27.359  1.00  0.00     0.010 A 
ATOM     93  C   UNL A   1      49.756  26.798  25.067  1.00  0.00     0.010 A 
ATOM     94  C   UNL A   1      51.531  25.747  26.960  1.00  0.00     0.020 A 
ATOM     95  C   UNL A   1      51.015  26.345  24.662  1.00  0.00     0.020 A 
ATOM     96  C   UNL A   1      51.899  25.834  25.614  1.00  0.00     0.054 A 
BRANCH  96  97
ATOM     97  S   UNL A   1      53.530  25.221  25.107  1.00  0.00     0.124 S 
ATOM     98  O   UNL A   1      53.565  25.585  23.693  1.00  0.00    -0.237 OA
ATOM     99  O   UNL A   1      54.441  25.969  25.970  1.00  0.00    -0.237 OA
ATOM    100  O   UNL A   1      53.460  23.788  25.382  1.00  0.00    -0.744 OA
ENDBRANCH  96  97
ENDBRANCH  70  91
ENDBRANCH  44  45
ENDBRANCH  36  39
ENDBRANCH  34  35
ENDBRANCH  33  34
ENDBRANCH  32  33
ENDBRANCH   1  32
TORSDOF 20
ENDMDL
MODEL 3
REMARK VINA RESULT:     -10.0      1.161      7.920
REMARK SMILES Cc1ccc(S(=O)(=O)Nc2cc(C(=O)NCCCCCCNC(=O)c3ccc(-c4c5nc(c(-c6ccc(S(=O)(=O)[O-])cc6)c6ccc([nH]6)c(-c6ccc(S(=O)(=O)[O-])cc6)c6nc(c(-c7ccc(S(=O)(=O)[O-])cc7)c7ccc4[nH]7)C=C6)C=C5)cc3)cnc2N2CCCC2)c(C)c1
REMARK SMILES IDX 18 1 17 2 16 3 15 4 13 5 14 6 12 8 10 9 11 10 87 11 86 12
REMARK SMILES IDX 85 13 9 14 6 16 7 17 8 18 5 19 1 20 2 21 3 22 95 23 4 24
REMARK SMILES IDX 93 25 94 26 88 27 89 28 92 29 90 30 91 31 19 32 20 33 21 34
REMARK SMILES IDX 22 35 23 36 24 38 25 39 26 40 84 41 27 42 83 43 28 44 29 45
REMARK SMILES IDX 30 46 77 47 31 48 82 49 76 50 78 51 32 52 81 53 75 54 74 55
REMARK SMILES IDX 33 57 63 58 44 59 62 60 45 61 48 62 61 63 79 64 46 65 47 66
REMARK SMILES IDX 60 68 80 69 49 70 34 71 35 72 43 73 36 74 42 75 37 76 38 77
REMARK SMILES IDX 39 78 40 79 41 80 64 81 65 82 73 83 66 84 72 85 67 86 68 87
REMARK SMILES IDX 69 88 70 89 71 90 50 91 51 92 59 93 52 94 58 95 53 96 54 97
REMARK SMILES IDX 55 98 56 99 57 100
REMARK H PARENT 15 7 9 15 22 37 78 56 48 67
REMARK Flexibility Score: inf
ROOT
ATOM      1  C   UNL A   1      34.511  32.534  28.803  1.00  0.00     0.002 C 
ENDROOT
BRANCH   1   2
ATOM      2  C   UNL A   1      35.304  31.578  27.903  1.00  0.00     0.021 C 
BRANCH   2   3
ATOM      3  C   UNL A   1      34.429  30.494  27.273  1.00  0.00     0.116 C 
BRANCH   3   4
ATOM      4  N   UNL A   1      33.176  31.064  26.806  1.00  0.00    -0.352 N 
ATOM      5  C   UNL A   1      32.014  30.505  26.343  1.00  0.00     0.252 C 
ATOM      6  O   UNL A   1      31.096  31.267  26.036  1.00  0.00    -0.269 OA
ATOM      7  H   UNL A   1      33.158  32.048  26.829  1.00  0.00     0.163 HD
BRANCH   5   8
ATOM      8  C   UNL A   1      31.780  29.044  26.260  1.00  0.00     0.060 A 
ATOM      9  C   UNL A   1      31.739  26.897  25.199  1.00  0.00     0.092 A 
ATOM     10  C   UNL A   1      31.762  28.285  25.097  1.00  0.00     0.046 A 
ATOM     11  C   UNL A   1      31.507  26.283  26.452  1.00  0.00     0.153 A 
ATOM     12  N   UNL A   1      31.401  27.021  27.574  1.00  0.00    -0.236 NA
ATOM     13  C   UNL A   1      31.579  28.364  27.461  1.00  0.00     0.127 A 
BRANCH   9  14
ATOM     14  N   UNL A   1      31.957  26.058  24.072  1.00  0.00    -0.276 N 
ATOM     15  H   UNL A   1      31.172  25.600  23.693  1.00  0.00     0.180 HD
BRANCH  14  16
ATOM     16  S   UNL A   1      33.429  25.785  23.335  1.00  0.00     0.262 S 
ATOM     17  O   UNL A   1      34.238  26.956  23.616  1.00  0.00    -0.201 OA
ATOM     18  O   UNL A   1      33.086  25.400  21.983  1.00  0.00    -0.201 OA
BRANCH  16  19
ATOM     19  C   UNL A   1      34.311  24.397  24.057  1.00  0.00     0.090 A 
ATOM     20  C   UNL A   1      37.206  21.260  24.670  1.00  0.00     0.044 C 
ATOM     21  C   UNL A   1      36.164  22.330  24.528  1.00  0.00    -0.051 A 
ATOM     22  C   UNL A   1      36.282  23.550  25.195  1.00  0.00     0.005 A 
ATOM     23  C   UNL A   1      35.024  22.097  23.754  1.00  0.00     0.008 A 
ATOM     24  C   UNL A   1      35.348  24.571  24.980  1.00  0.00     0.023 A 
ATOM     25  C   UNL A   1      34.080  23.114  23.519  1.00  0.00    -0.030 A 
ATOM     26  C   UNL A   1      32.863  22.740  22.713  1.00  0.00     0.046 C 
ENDBRANCH  16  19
ENDBRANCH  14  16
ENDBRANCH   9  14
BRANCH  11  27
ATOM     27  N   UNL A   1      31.323  24.931  26.550  1.00  0.00    -0.355 N 
ATOM     28  C   UNL A   1      32.310  23.921  26.875  1.00  0.00     0.118 C 
ATOM     29  C   UNL A   1      29.986  24.378  26.409  1.00  0.00     0.118 C 
ATOM     30  C   UNL A   1      31.701  22.687  26.213  1.00  0.00     0.023 C 
ATOM     31  C   UNL A   1      30.209  22.864  26.483  1.00  0.00     0.023 C 
ENDBRANCH  11  27
ENDBRANCH   5   8
ENDBRANCH   3   4
ENDBRANCH   2   3
ENDBRANCH   1   2
BRANCH   1  32
ATOM     32  C   UNL A   1      34.799  32.385  30.302  1.00  0.00     0.002 C 
BRANCH  32  33
ATOM     33  C   UNL A   1      36.250  32.047  30.661  1.00  0.00     0.021 C 
BRANCH  33  34
ATOM     34  C   UNL A   1      36.459  30.646  31.233  1.00  0.00     0.116 C 
BRANCH  34  35
ATOM     35  N   UNL A   1      36.869  30.687  32.628  1.00  0.00    -0.352 N 
ATOM     36  C   UNL A   1      38.057  30.301  33.195  1.00  0.00     0.251 C 
ATOM     37  H   UNL A   1      36.198  31.042  33.254  1.00  0.00     0.163 HD
ATOM     38  O   UNL A   1      38.155  30.224  34.417  1.00  0.00    -0.269 OA
BRANCH  36  39
ATOM     39  C   UNL A   1      39.213  29.963  32.337  1.00  0.00     0.039 A 
ATOM     40  C   UNL A   1      39.291  30.523  31.059  1.00  0.00     0.014 A 
ATOM     41  C   UNL A   1      40.200  29.076  32.778  1.00  0.00     0.014 A 
ATOM     42  C   UNL A   1      40.384  30.232  30.240  1.00  0.00     0.010 A 
ATOM     43  C   UNL A   1      41.313  28.825  31.980  1.00  0.00     0.010 A 
ATOM     44  C   UNL A   1      41.413  29.396  30.703  1.00  0.00    -0.014 A 
BRANCH  44  45
ATOM     45  C   UNL A   1      42.601  29.108  29.864  1.00  0.00     0.031 A 
ATOM     46  C   UNL A   1      42.727  27.788  29.158  1.00  0.00     0.074 A 
ATOM     47  C   UNL A   1      43.602  30.005  29.799  1.00  0.00     0.049 A 
ATOM     48  N   UNL A   1      43.715  27.332  28.430  1.00  0.00    -0.248 NA
ATOM     49  C   UNL A   1      41.605  26.848  29.309  1.00  0.00     0.031 C 
ATOM     50  C   UNL A   1      43.623  31.301  30.480  1.00  0.00     0.029 A 
ATOM     51  N   UNL A   1      44.804  29.955  29.140  1.00  0.00    -0.354 N 
ATOM     52  C   UNL A   1      43.348  26.045  28.059  1.00  0.00     0.074 A 
ATOM     53  C   UNL A   1      42.060  25.781  28.668  1.00  0.00     0.031 C 
ATOM     54  C   UNL A   1      44.776  31.926  30.198  1.00  0.00     0.029 A 
ATOM     55  C   UNL A   1      45.586  31.067  29.336  1.00  0.00     0.049 A 
ATOM     56  H   UNL A   1      45.080  29.194  28.578  1.00  0.00     0.167 HD
ATOM     57  C   UNL A   1      44.015  25.164  27.275  1.00  0.00     0.031 A 
ATOM     58  C   UNL A   1      46.818  31.363  28.882  1.00  0.00     0.031 A 
ATOM     59  C   UNL A   1      45.288  25.430  26.661  1.00  0.00     0.049 A 
ATOM     60  C   UNL A   1      47.527  30.390  27.986  1.00  0.00     0.074 A 
ATOM     61  C   UNL A   1      46.014  24.628  25.798  1.00  0.00     0.029 A 
ATOM     62  N   UNL A   1      46.028  26.587  26.852  1.00  0.00    -0.354 N 
ATOM     63  N   UNL A   1      47.133  29.205  27.586  1.00  0.00    -0.248 NA
ATOM     64  C   UNL A   1      48.840  30.800  27.469  1.00  0.00     0.031 C 
ATOM     65  C   UNL A   1      47.210  25.289  25.490  1.00  0.00     0.029 A 
ATOM     66  C   UNL A   1      47.211  26.516  26.135  1.00  0.00     0.049 A 
ATOM     67  H   UNL A   1      45.754  27.347  27.414  1.00  0.00     0.167 HD
ATOM     68  C   UNL A   1      48.143  28.730  26.758  1.00  0.00     0.074 A 
ATOM     69  C   UNL A   1      49.160  29.762  26.705  1.00  0.00     0.031 C 
ATOM     70  C   UNL A   1      48.218  27.547  26.100  1.00  0.00     0.031 A 
BRANCH  57  71
ATOM     71  C   UNL A   1      43.371  23.822  27.060  1.00  0.00    -0.014 A 
ATOM     72  C   UNL A   1      43.321  22.868  28.094  1.00  0.00     0.010 A 
ATOM     73  C   UNL A   1      42.827  23.500  25.804  1.00  0.00     0.010 A 
ATOM     74  C   UNL A   1      42.798  21.594  27.857  1.00  0.00     0.020 A 
ATOM     75  C   UNL A   1      42.282  22.234  25.569  1.00  0.00     0.020 A 
ATOM     76  C   UNL A   1      42.297  21.280  26.589  1.00  0.00     0.054 A 
BRANCH  76  77
ATOM     77  S   UNL A   1      41.649  19.612  26.290  1.00  0.00     0.124 S 
ATOM     78  O   UNL A   1      40.220  19.872  26.131  1.00  0.00    -0.237 OA
ATOM     79  O   UNL A   1      42.350  19.202  25.075  1.00  0.00    -0.237 OA
ATOM     80  O   UNL A   1      42.020  18.878  27.496  1.00  0.00    -0.744 OA
ENDBRANCH  76  77
ENDBRANCH  57  71
BRANCH  58  81
ATOM     81  C   UNL A   1      47.435  32.661  29.258  1.00  0.00    -0.014 A 
ATOM     82  C   UNL A   1      48.331  32.733  30.337  1.00  0.00     0.010 A 
ATOM     83  C   UNL A   1      47.189  33.812  28.489  1.00  0.00     0.010 A 
ATOM     84  C   UNL A   1      48.982  33.933  30.635  1.00  0.00     0.020 A 
ATOM     85  C   UNL A   1      47.851  35.010  28.773  1.00  0.00     0.020 A 
ATOM     86  C   UNL A   1      48.745  35.062  29.846  1.00  0.00     0.054 A 
BRANCH  86  87
ATOM     87  S   UNL A   1      49.683  36.580  30.177  1.00  0.00     0.124 S 
ATOM     88  O   UNL A   1      50.779  36.476  29.219  1.00  0.00    -0.237 OA
ATOM     89  O   UNL A   1      48.702  37.628  29.906  1.00  0.00    -0.237 OA
ATOM     90  O   UNL A   1      50.061  36.444  31.582  1.00  0.00    -0.744 OA
ENDBRANCH  86  87
ENDBRANCH  58  81
BRANCH  70  91
ATOM     91  C   UNL A   1      49.438  27.307  25.256  1.00  0.00    -0.014 A 
ATOM     92  C   UNL A   1      49.469  27.697  23.905  1.00  0.00     0.010 A 
ATOM     93  C   UNL A   1      50.583  26.730  25.833  1.00  0.00     0.010 A 
ATOM     94  C   UNL A   1      50.620  27.493  23.139  1.00  0.00     0.020 A 
ATOM     95  C   UNL A   1      51.742  26.542  25.074  1.00  0.00     0.020 A 
ATOM     96  C   UNL A   1      51.748  26.914  23.728  1.00  0.00     0.054 A 
BRANCH  96  97
ATOM     97  S   UNL A   1      53.248  26.699  22.729  1.00  0.00     0.124 S 
ATOM     98  O   UNL A   1      53.641  28.081  22.471  1.00  0.00    -0.237 OA
ATOM     99  O   UNL A   1      54.129  25.952  23.623  1.00  0.00    -0.237 OA
ATOM    100  O   UNL A   1      52.781  25.954  21.562  1.00  0.00    -0.744 OA
ENDBRANCH  96  97
ENDBRANCH  70  91
ENDBRANCH  44  45
ENDBRANCH  36  39
ENDBRANCH  34  35
ENDBRANCH  33  34
ENDBRANCH  32  33
ENDBRANCH   1  32
TORSDOF 20
ENDMDL
