MODEL 1
REMARK VINA RESULT:      -6.4      0.000      0.000
REMARK SMILES NS(=O)(=O)c1ccc(-n2nc(NC(=O)NCCCCCCCCCCC(=O)NCCCCCCNC(=O)c3ccc(-c4c5nc(c(-c6ccc(S(=O)(=O)[O-])cc6)c6ccc([nH]6)c(-c6ccc(S(=O)(=O)[O-])cc6)c6nc(c(-c7ccc(S(=O)(=O)[O-])cc7)c7ccc4[nH]7)C=C6)C=C5)cc3)cc2-c2ccccc2)cc1
REMARK SMILES IDX 24 1 23 2 22 3 21 4 20 5 19 6 18 7 17 8 16 9 15 10 12 11
REMARK SMILES IDX 13 12 14 14 11 16 9 17 10 18 99 19 98 20 8 21 5 22 6 23
REMARK SMILES IDX 107 24 7 25 106 26 2 27 3 28 4 29 1 30 100 33 101 34 105 35
REMARK SMILES IDX 102 36 104 37 103 38 25 39 26 40 27 41 28 42 29 44 30 45
REMARK SMILES IDX 31 46 32 47 33 48 34 49 35 50 36 51 37 53 38 54 39 55 97 56
REMARK SMILES IDX 40 57 96 58 41 59 42 60 43 61 90 62 44 63 95 64 89 65 91 66
REMARK SMILES IDX 45 67 94 68 88 69 87 70 46 72 76 73 57 74 75 75 58 76 61 77
REMARK SMILES IDX 74 78 92 79 59 80 60 81 73 83 93 84 62 85 47 86 48 87 56 88
REMARK SMILES IDX 49 89 55 90 50 91 51 92 52 93 53 94 54 95 77 96 78 97 86 98
REMARK SMILES IDX 79 99 85 100 80 101 81 102 82 103 83 104 84 105 63 106
REMARK SMILES IDX 64 107 72 108 65 109 71 110 66 111 67 112 68 113 69 114
REMARK SMILES IDX 70 115
REMARK H PARENT 12 13 15 15 1 31 1 32 28 43 35 52 91 71 61 82
REMARK Flexibility Score: inf
ROOT
ATOM      1  C   UNL A   1      44.288  38.528  35.531  1.00  0.00     0.010 C 
ENDROOT
BRANCH   1   2
ATOM      2  C   UNL A   1      43.421  38.210  34.313  1.00  0.00     0.001 C 
BRANCH   2   3
ATOM      3  C   UNL A   1      42.571  36.940  34.438  1.00  0.00     0.000 C 
BRANCH   3   4
ATOM      4  C   UNL A   1      42.093  36.655  35.849  1.00  0.00     0.000 C 
BRANCH   4   5
ATOM      5  C   UNL A   1      40.599  36.369  35.948  1.00  0.00     0.000 C 
BRANCH   5   6
ATOM      6  C   UNL A   1      40.048  36.053  37.343  1.00  0.00     0.000 C 
BRANCH   6   7
ATOM      7  C   UNL A   1      39.282  34.732  37.492  1.00  0.00     0.002 C 
BRANCH   7   8
ATOM      8  C   UNL A   1      39.504  33.688  36.398  1.00  0.00     0.021 C 
BRANCH   8   9
ATOM      9  C   UNL A   1      40.607  32.676  36.658  1.00  0.00     0.117 C 
BRANCH   9  10
ATOM     10  N   UNL A   1      41.913  33.215  36.924  1.00  0.00    -0.338 N 
ATOM     11  N   UNL A   1      43.154  32.314  35.094  1.00  0.00    -0.291 N 
ATOM     12  C   UNL A   1      43.060  33.051  36.227  1.00  0.00     0.320 C 
ATOM     13  H   UNL A   1      44.070  32.020  34.884  1.00  0.00     0.173 HD
ATOM     14  O   UNL A   1      44.087  33.505  36.742  1.00  0.00    -0.248 OA
ATOM     15  H   UNL A   1      41.981  33.783  37.726  1.00  0.00     0.165 HD
BRANCH  11  16
ATOM     16  C   UNL A   1      42.209  31.900  34.177  1.00  0.00     0.157 A 
ATOM     17  N   UNL A   1      40.446  31.878  32.988  1.00  0.00    -0.231 N 
ATOM     18  N   UNL A   1      41.375  32.699  33.510  1.00  0.00    -0.149 NA
ATOM     19  C   UNL A   1      40.867  30.555  32.998  1.00  0.00     0.076 A 
ATOM     20  C   UNL A   1      42.004  30.552  33.789  1.00  0.00     0.078 A 
BRANCH  17  21
ATOM     21  C   UNL A   1      39.178  32.394  32.601  1.00  0.00     0.065 A 
ATOM     22  C   UNL A   1      36.680  33.325  31.793  1.00  0.00     0.082 A 
ATOM     23  C   UNL A   1      36.811  32.709  33.040  1.00  0.00     0.024 A 
ATOM     24  C   UNL A   1      37.791  33.506  30.962  1.00  0.00     0.024 A 
ATOM     25  C   UNL A   1      38.062  32.240  33.441  1.00  0.00     0.030 A 
ATOM     26  C   UNL A   1      39.048  33.055  31.374  1.00  0.00     0.030 A 
BRANCH  22  27
ATOM     27  S   UNL A   1      35.086  33.870  31.257  1.00  0.00     0.238 S 
ATOM     28  O   UNL A   1      34.703  35.024  32.046  1.00  0.00    -0.207 OA
ATOM     29  O   UNL A   1      34.221  32.728  31.105  1.00  0.00    -0.207 OA
BRANCH  27  30
ATOM     30  N   UNL A   1      35.384  34.421  29.707  1.00  0.00    -0.225 NA
ATOM     31  H   UNL A   1      35.643  33.636  29.110  1.00  0.00     0.137 HD
ATOM     32  H   UNL A   1      36.147  35.099  29.727  1.00  0.00     0.137 HD
ENDBRANCH  27  30
ENDBRANCH  22  27
ENDBRANCH  17  21
BRANCH  19  33
ATOM     33  C   UNL A   1      40.193  29.495  32.249  1.00  0.00     0.000 A 
ATOM     34  C   UNL A   1      40.498  29.315  30.889  1.00  0.00     0.010 A 
ATOM     35  C   UNL A   1      39.183  28.722  32.827  1.00  0.00     0.010 A 
ATOM     36  C   UNL A   1      39.769  28.423  30.106  1.00  0.00     0.001 A 
ATOM     37  C   UNL A   1      38.461  27.817  32.042  1.00  0.00     0.001 A 
ATOM     38  C   UNL A   1      38.745  27.679  30.682  1.00  0.00     0.000 A 
ENDBRANCH  19  33
ENDBRANCH  11  16
ENDBRANCH   9  10
ENDBRANCH   8   9
ENDBRANCH   7   8
ENDBRANCH   6   7
ENDBRANCH   5   6
ENDBRANCH   4   5
ENDBRANCH   3   4
ENDBRANCH   2   3
ENDBRANCH   1   2
BRANCH   1  39
ATOM     39  C   UNL A   1      44.537  40.003  35.846  1.00  0.00     0.100 C 
BRANCH  39  40
ATOM     40  C   UNL A   1      44.999  40.842  34.672  1.00  0.00     0.219 C 
ATOM     41  O   UNL A   1      46.058  40.589  34.093  1.00  0.00    -0.275 OA
ATOM     42  N   UNL A   1      44.239  41.865  34.194  1.00  0.00    -0.356 N 
ATOM     43  H   UNL A   1      44.617  42.332  33.414  1.00  0.00     0.163 HD
BRANCH  42  44
ATOM     44  C   UNL A   1      42.963  42.376  34.649  1.00  0.00     0.116 C 
BRANCH  44  45
ATOM     45  C   UNL A   1      42.304  43.263  33.587  1.00  0.00     0.021 C 
BRANCH  45  46
ATOM     46  C   UNL A   1      43.258  43.738  32.492  1.00  0.00     0.002 C 
BRANCH  46  47
ATOM     47  C   UNL A   1      42.942  43.227  31.079  1.00  0.00     0.002 C 
BRANCH  47  48
ATOM     48  C   UNL A   1      41.880  42.121  30.977  1.00  0.00     0.021 C 
BRANCH  48  49
ATOM     49  C   UNL A   1      42.381  40.862  30.286  1.00  0.00     0.116 C 
BRANCH  49  50
ATOM     50  N   UNL A   1      42.095  40.871  28.851  1.00  0.00    -0.352 N 
ATOM     51  C   UNL A   1      42.532  39.999  27.875  1.00  0.00     0.251 C 
ATOM     52  H   UNL A   1      41.511  41.598  28.539  1.00  0.00     0.163 HD
ATOM     53  O   UNL A   1      42.485  40.317  26.692  1.00  0.00    -0.269 OA
BRANCH  51  54
ATOM     54  C   UNL A   1      43.050  38.683  28.279  1.00  0.00     0.039 A 
ATOM     55  C   UNL A   1      42.205  37.579  28.426  1.00  0.00     0.014 A 
ATOM     56  C   UNL A   1      44.419  38.566  28.506  1.00  0.00     0.014 A 
ATOM     57  C   UNL A   1      42.767  36.343  28.739  1.00  0.00     0.010 A 
ATOM     58  C   UNL A   1      44.986  37.328  28.633  1.00  0.00     0.010 A 
ATOM     59  C   UNL A   1      44.162  36.228  28.829  1.00  0.00    -0.014 A 
BRANCH  59  60
ATOM     60  C   UNL A   1      44.801  34.940  29.052  1.00  0.00     0.031 A 
ATOM     61  C   UNL A   1      45.155  34.663  30.468  1.00  0.00     0.074 A 
ATOM     62  C   UNL A   1      44.845  33.980  28.104  1.00  0.00     0.049 A 
ATOM     63  N   UNL A   1      46.337  34.584  30.980  1.00  0.00    -0.248 NA
ATOM     64  C   UNL A   1      44.069  34.608  31.461  1.00  0.00     0.031 C 
ATOM     65  C   UNL A   1      44.225  33.976  26.772  1.00  0.00     0.029 A 
ATOM     66  N   UNL A   1      45.346  32.723  28.196  1.00  0.00    -0.354 N 
ATOM     67  C   UNL A   1      46.152  34.249  32.318  1.00  0.00     0.074 A 
ATOM     68  C   UNL A   1      44.756  34.474  32.598  1.00  0.00     0.031 C 
ATOM     69  C   UNL A   1      44.155  32.706  26.313  1.00  0.00     0.029 A 
ATOM     70  C   UNL A   1      44.878  31.843  27.228  1.00  0.00     0.049 A 
ATOM     71  H   UNL A   1      45.988  32.455  28.891  1.00  0.00     0.167 HD
ATOM     72  C   UNL A   1      47.105  33.580  33.026  1.00  0.00     0.031 A 
ATOM     73  C   UNL A   1      45.026  30.493  27.221  1.00  0.00     0.031 A 
ATOM     74  C   UNL A   1      48.367  33.557  32.327  1.00  0.00     0.049 A 
ATOM     75  C   UNL A   1      46.170  30.188  28.123  1.00  0.00     0.074 A 
ATOM     76  C   UNL A   1      49.216  34.529  31.835  1.00  0.00     0.029 A 
ATOM     77  N   UNL A   1      48.693  32.400  31.652  1.00  0.00    -0.354 N 
ATOM     78  N   UNL A   1      47.394  30.574  27.878  1.00  0.00    -0.248 NA
ATOM     79  C   UNL A   1      45.877  29.903  29.520  1.00  0.00     0.031 C 
ATOM     80  C   UNL A   1      49.625  34.042  30.559  1.00  0.00     0.029 A 
ATOM     81  C   UNL A   1      49.082  32.766  30.388  1.00  0.00     0.049 A 
ATOM     82  H   UNL A   1      48.653  31.483  32.011  1.00  0.00     0.167 HD
ATOM     83  C   UNL A   1      47.886  31.000  29.105  1.00  0.00     0.074 A 
ATOM     84  C   UNL A   1      46.936  30.484  30.092  1.00  0.00     0.031 C 
ATOM     85  C   UNL A   1      48.847  31.969  29.199  1.00  0.00     0.031 A 
BRANCH  72  86
ATOM     86  C   UNL A   1      46.797  32.626  34.152  1.00  0.00    -0.014 A 
ATOM     87  C   UNL A   1      47.325  32.886  35.432  1.00  0.00     0.010 A 
ATOM     88  C   UNL A   1      46.221  31.355  33.946  1.00  0.00     0.010 A 
ATOM     89  C   UNL A   1      47.329  31.902  36.431  1.00  0.00     0.020 A 
ATOM     90  C   UNL A   1      46.179  30.383  34.947  1.00  0.00     0.020 A 
ATOM     91  C   UNL A   1      46.764  30.651  36.176  1.00  0.00     0.054 A 
BRANCH  91  92
ATOM     92  S   UNL A   1      46.856  29.360  37.440  1.00  0.00     0.124 S 
ATOM     93  O   UNL A   1      45.695  28.536  37.114  1.00  0.00    -0.237 OA
ATOM     94  O   UNL A   1      48.157  28.753  37.172  1.00  0.00    -0.237 OA
ATOM     95  O   UNL A   1      46.767  30.096  38.701  1.00  0.00    -0.744 OA
ENDBRANCH  91  92
ENDBRANCH  72  86
BRANCH  73  96
ATOM     96  C   UNL A   1      44.017  29.483  26.798  1.00  0.00    -0.014 A 
ATOM     97  C   UNL A   1      44.402  28.247  26.245  1.00  0.00     0.010 A 
ATOM     98  C   UNL A   1      42.667  29.625  27.187  1.00  0.00     0.010 A 
ATOM     99  C   UNL A   1      43.488  27.179  26.145  1.00  0.00     0.020 A 
ATOM    100  C   UNL A   1      41.751  28.571  27.084  1.00  0.00     0.020 A 
ATOM    101  C   UNL A   1      42.172  27.342  26.587  1.00  0.00     0.054 A 
BRANCH 101 102
ATOM    102  S   UNL A   1      41.046  25.914  26.635  1.00  0.00     0.124 S 
ATOM    103  O   UNL A   1      39.862  26.469  27.281  1.00  0.00    -0.237 OA
ATOM    104  O   UNL A   1      40.897  25.577  25.222  1.00  0.00    -0.237 OA
ATOM    105  O   UNL A   1      41.776  24.923  27.426  1.00  0.00    -0.744 OA
ENDBRANCH 101 102
ENDBRANCH  73  96
BRANCH  85 106
ATOM    106  C   UNL A   1      49.568  32.419  27.944  1.00  0.00    -0.014 A 
ATOM    107  C   UNL A   1      49.022  33.303  26.991  1.00  0.00     0.010 A 
ATOM    108  C   UNL A   1      50.925  32.066  27.820  1.00  0.00     0.010 A 
ATOM    109  C   UNL A   1      49.807  33.797  25.934  1.00  0.00     0.020 A 
ATOM    110  C   UNL A   1      51.715  32.569  26.783  1.00  0.00     0.020 A 
ATOM    111  C   UNL A   1      51.151  33.424  25.838  1.00  0.00     0.054 A 
BRANCH 111 112
ATOM    112  S   UNL A   1      52.175  34.090  24.494  1.00  0.00     0.124 S 
ATOM    113  O   UNL A   1      51.587  35.407  24.269  1.00  0.00    -0.237 OA
ATOM    114  O   UNL A   1      53.516  34.090  25.075  1.00  0.00    -0.237 OA
ATOM    115  O   UNL A   1      51.984  33.134  23.404  1.00  0.00    -0.744 OA
ENDBRANCH 111 112
ENDBRANCH  85 106
ENDBRANCH  59  60
ENDBRANCH  51  54
ENDBRANCH  49  50
ENDBRANCH  48  49
ENDBRANCH  47  48
ENDBRANCH  46  47
ENDBRANCH  45  46
ENDBRANCH  44  45
ENDBRANCH  42  44
ENDBRANCH  39  40
ENDBRANCH   1  39
TORSDOF 31
ENDMDL
MODEL 2
REMARK VINA RESULT:      -6.4      4.175     11.959
REMARK SMILES NS(=O)(=O)c1ccc(-n2nc(NC(=O)NCCCCCCCCCCC(=O)NCCCCCCNC(=O)c3ccc(-c4c5nc(c(-c6ccc(S(=O)(=O)[O-])cc6)c6ccc([nH]6)c(-c6ccc(S(=O)(=O)[O-])cc6)c6nc(c(-c7ccc(S(=O)(=O)[O-])cc7)c7ccc4[nH]7)C=C6)C=C5)cc3)cc2-c2ccccc2)cc1
REMARK SMILES IDX 24 1 23 2 22 3 21 4 20 5 19 6 18 7 17 8 16 9 15 10 12 11
REMARK SMILES IDX 13 12 14 14 11 16 9 17 10 18 99 19 98 20 8 21 5 22 6 23
REMARK SMILES IDX 107 24 7 25 106 26 2 27 3 28 4 29 1 30 100 33 101 34 105 35
REMARK SMILES IDX 102 36 104 37 103 38 25 39 26 40 27 41 28 42 29 44 30 45
REMARK SMILES IDX 31 46 32 47 33 48 34 49 35 50 36 51 37 53 38 54 39 55 97 56
REMARK SMILES IDX 40 57 96 58 41 59 42 60 43 61 90 62 44 63 95 64 89 65 91 66
REMARK SMILES IDX 45 67 94 68 88 69 87 70 46 72 76 73 57 74 75 75 58 76 61 77
REMARK SMILES IDX 74 78 92 79 59 80 60 81 73 83 93 84 62 85 47 86 48 87 56 88
REMARK SMILES IDX 49 89 55 90 50 91 51 92 52 93 53 94 54 95 77 96 78 97 86 98
REMARK SMILES IDX 79 99 85 100 80 101 81 102 82 103 83 104 84 105 63 106
REMARK SMILES IDX 64 107 72 108 65 109 71 110 66 111 67 112 68 113 69 114
REMARK SMILES IDX 70 115
REMARK H PARENT 12 13 15 15 1 31 1 32 28 43 35 52 91 71 61 82
REMARK Flexibility Score: inf
ROOT
ATOM      1  C   UNL A   1      53.886  29.175  25.559  1.00  0.00     0.010 C 
ENDROOT
BRANCH   1   2
ATOM      2  C   UNL A   1      54.453  28.181  24.545  1.00  0.00     0.001 C 
BRANCH   2   3
ATOM      3  C   UNL A   1      54.815  26.806  25.118  1.00  0.00     0.000 C 
BRANCH   3   4
ATOM      4  C   UNL A   1      55.945  26.838  26.129  1.00  0.00     0.000 C 
BRANCH   4   5
ATOM      5  C   UNL A   1      55.567  26.276  27.495  1.00  0.00     0.000 C 
BRANCH   5   6
ATOM      6  C   UNL A   1      54.785  27.205  28.430  1.00  0.00     0.000 C 
BRANCH   6   7
ATOM      7  C   UNL A   1      53.467  26.657  28.993  1.00  0.00     0.002 C 
BRANCH   7   8
ATOM      8  C   UNL A   1      52.257  27.586  28.921  1.00  0.00     0.021 C 
BRANCH   8   9
ATOM      9  C   UNL A   1      51.151  27.319  29.928  1.00  0.00     0.117 C 
BRANCH   9  10
ATOM     10  N   UNL A   1      51.309  26.149  30.747  1.00  0.00    -0.338 N 
ATOM     11  N   UNL A   1      49.075  25.307  30.768  1.00  0.00    -0.291 N 
ATOM     12  C   UNL A   1      50.379  25.245  31.130  1.00  0.00     0.320 C 
ATOM     13  H   UNL A   1      48.471  24.801  31.358  1.00  0.00     0.173 HD
ATOM     14  O   UNL A   1      50.739  24.401  31.957  1.00  0.00    -0.248 OA
ATOM     15  H   UNL A   1      52.223  25.981  31.075  1.00  0.00     0.165 HD
BRANCH  11  16
ATOM     16  C   UNL A   1      48.432  25.944  29.725  1.00  0.00     0.157 A 
ATOM     17  N   UNL A   1      47.988  26.616  27.757  1.00  0.00    -0.231 N 
ATOM     18  N   UNL A   1      48.468  25.565  28.446  1.00  0.00    -0.149 NA
ATOM     19  C   UNL A   1      47.310  27.504  28.581  1.00  0.00     0.076 A 
ATOM     20  C   UNL A   1      47.611  27.090  29.868  1.00  0.00     0.078 A 
BRANCH  17  21
ATOM     21  C   UNL A   1      48.287  26.754  26.372  1.00  0.00     0.065 A 
ATOM     22  C   UNL A   1      48.886  27.118  23.676  1.00  0.00     0.082 A 
ATOM     23  C   UNL A   1      49.881  26.661  24.544  1.00  0.00     0.024 A 
ATOM     24  C   UNL A   1      47.589  27.365  24.139  1.00  0.00     0.024 A 
ATOM     25  C   UNL A   1      49.580  26.483  25.894  1.00  0.00     0.030 A 
ATOM     26  C   UNL A   1      47.283  27.166  25.488  1.00  0.00     0.030 A 
BRANCH  22  27
ATOM     27  S   UNL A   1      49.278  27.399  21.976  1.00  0.00     0.238 S 
ATOM     28  O   UNL A   1      50.718  27.358  21.821  1.00  0.00    -0.207 OA
ATOM     29  O   UNL A   1      48.489  28.500  21.484  1.00  0.00    -0.207 OA
BRANCH  27  30
ATOM     30  N   UNL A   1      48.670  26.035  21.223  1.00  0.00    -0.225 NA
ATOM     31  H   UNL A   1      49.161  25.886  20.342  1.00  0.00     0.137 HD
ATOM     32  H   UNL A   1      47.675  26.162  21.041  1.00  0.00     0.137 HD
ENDBRANCH  27  30
ENDBRANCH  22  27
ENDBRANCH  17  21
BRANCH  19  33
ATOM     33  C   UNL A   1      46.455  28.575  28.071  1.00  0.00     0.000 A 
ATOM     34  C   UNL A   1      45.174  28.259  27.587  1.00  0.00     0.010 A 
ATOM     35  C   UNL A   1      46.917  29.889  27.963  1.00  0.00     0.010 A 
ATOM     36  C   UNL A   1      44.392  29.222  26.954  1.00  0.00     0.001 A 
ATOM     37  C   UNL A   1      46.125  30.858  27.339  1.00  0.00     0.001 A 
ATOM     38  C   UNL A   1      44.872  30.521  26.824  1.00  0.00     0.000 A 
ENDBRANCH  19  33
ENDBRANCH  11  16
ENDBRANCH   9  10
ENDBRANCH   8   9
ENDBRANCH   7   8
ENDBRANCH   6   7
ENDBRANCH   5   6
ENDBRANCH   4   5
ENDBRANCH   3   4
ENDBRANCH   2   3
ENDBRANCH   1   2
BRANCH   1  39
ATOM     39  C   UNL A   1      52.865  30.191  25.046  1.00  0.00     0.100 C 
BRANCH  39  40
ATOM     40  C   UNL A   1      53.180  31.637  25.370  1.00  0.00     0.219 C 
ATOM     41  O   UNL A   1      54.282  32.120  25.096  1.00  0.00    -0.275 OA
ATOM     42  N   UNL A   1      52.246  32.455  25.927  1.00  0.00    -0.356 N 
ATOM     43  H   UNL A   1      52.542  33.382  26.076  1.00  0.00     0.163 HD
BRANCH  42  44
ATOM     44  C   UNL A   1      50.884  32.179  26.335  1.00  0.00     0.116 C 
BRANCH  44  45
ATOM     45  C   UNL A   1      50.695  32.394  27.841  1.00  0.00     0.021 C 
BRANCH  45  46
ATOM     46  C   UNL A   1      49.483  33.252  28.200  1.00  0.00     0.002 C 
BRANCH  46  47
ATOM     47  C   UNL A   1      48.386  33.320  27.128  1.00  0.00     0.002 C 
BRANCH  47  48
ATOM     48  C   UNL A   1      47.963  34.725  26.673  1.00  0.00     0.021 C 
BRANCH  48  49
ATOM     49  C   UNL A   1      47.850  35.723  27.816  1.00  0.00     0.116 C 
BRANCH  49  50
ATOM     50  N   UNL A   1      46.874  36.775  27.532  1.00  0.00    -0.352 N 
ATOM     51  C   UNL A   1      45.501  36.745  27.668  1.00  0.00     0.251 C 
ATOM     52  H   UNL A   1      47.248  37.622  27.198  1.00  0.00     0.163 HD
ATOM     53  O   UNL A   1      44.801  37.567  27.089  1.00  0.00    -0.269 OA
BRANCH  51  54
ATOM     54  C   UNL A   1      44.896  35.711  28.522  1.00  0.00     0.039 A 
ATOM     55  C   UNL A   1      44.880  35.832  29.915  1.00  0.00     0.014 A 
ATOM     56  C   UNL A   1      44.328  34.603  27.899  1.00  0.00     0.014 A 
ATOM     57  C   UNL A   1      44.227  34.856  30.664  1.00  0.00     0.010 A 
ATOM     58  C   UNL A   1      43.537  33.748  28.615  1.00  0.00     0.010 A 
ATOM     59  C   UNL A   1      43.548  33.823  30.001  1.00  0.00    -0.014 A 
BRANCH  59  60
ATOM     60  C   UNL A   1      42.766  32.839  30.734  1.00  0.00     0.031 A 
ATOM     61  C   UNL A   1      43.373  31.484  30.788  1.00  0.00     0.074 A 
ATOM     62  C   UNL A   1      41.712  33.181  31.503  1.00  0.00     0.049 A 
ATOM     63  N   UNL A   1      42.946  30.409  30.214  1.00  0.00    -0.248 NA
ATOM     64  C   UNL A   1      44.686  31.332  31.437  1.00  0.00     0.031 C 
ATOM     65  C   UNL A   1      41.210  34.522  31.831  1.00  0.00     0.029 A 
ATOM     66  N   UNL A   1      40.942  32.383  32.285  1.00  0.00    -0.354 N 
ATOM     67  C   UNL A   1      43.812  29.395  30.611  1.00  0.00     0.074 A 
ATOM     68  C   UNL A   1      44.959  30.050  31.187  1.00  0.00     0.031 C 
ATOM     69  C   UNL A   1      40.423  34.452  32.928  1.00  0.00     0.029 A 
ATOM     70  C   UNL A   1      40.225  33.055  33.267  1.00  0.00     0.049 A 
ATOM     71  H   UNL A   1      40.894  31.407  32.166  1.00  0.00     0.167 HD
ATOM     72  C   UNL A   1      43.413  28.093  30.659  1.00  0.00     0.031 A 
ATOM     73  C   UNL A   1      39.570  32.496  34.318  1.00  0.00     0.031 A 
ATOM     74  C   UNL A   1      42.153  27.898  29.983  1.00  0.00     0.049 A 
ATOM     75  C   UNL A   1      39.332  31.072  33.959  1.00  0.00     0.074 A 
ATOM     76  C   UNL A   1      41.701  28.134  28.700  1.00  0.00     0.029 A 
ATOM     77  N   UNL A   1      41.024  27.807  30.767  1.00  0.00    -0.354 N 
ATOM     78  N   UNL A   1      38.568  30.705  32.965  1.00  0.00    -0.248 NA
ATOM     79  C   UNL A   1      40.326  30.092  34.373  1.00  0.00     0.031 C 
ATOM     80  C   UNL A   1      40.396  28.684  28.871  1.00  0.00     0.029 A 
ATOM     81  C   UNL A   1      40.093  28.663  30.234  1.00  0.00     0.049 A 
ATOM     82  H   UNL A   1      40.908  27.235  31.561  1.00  0.00     0.167 HD
ATOM     83  C   UNL A   1      39.253  29.664  32.353  1.00  0.00     0.074 A 
ATOM     84  C   UNL A   1      40.287  29.277  33.315  1.00  0.00     0.031 C 
ATOM     85  C   UNL A   1      39.119  29.399  31.018  1.00  0.00     0.031 A 
BRANCH  72  86
ATOM     86  C   UNL A   1      43.959  27.085  31.639  1.00  0.00    -0.014 A 
ATOM     87  C   UNL A   1      44.321  25.805  31.174  1.00  0.00     0.010 A 
ATOM     88  C   UNL A   1      43.894  27.260  33.037  1.00  0.00     0.010 A 
ATOM     89  C   UNL A   1      44.545  24.744  32.062  1.00  0.00     0.020 A 
ATOM     90  C   UNL A   1      44.160  26.223  33.933  1.00  0.00     0.020 A 
ATOM     91  C   UNL A   1      44.451  24.960  33.438  1.00  0.00     0.054 A 
BRANCH  91  92
ATOM     92  S   UNL A   1      44.653  23.564  34.572  1.00  0.00     0.124 S 
ATOM     93  O   UNL A   1      43.893  22.516  33.898  1.00  0.00    -0.237 OA
ATOM     94  O   UNL A   1      46.102  23.383  34.589  1.00  0.00    -0.237 OA
ATOM     95  O   UNL A   1      44.077  24.046  35.827  1.00  0.00    -0.744 OA
ENDBRANCH  91  92
ENDBRANCH  72  86
BRANCH  73  96
ATOM     96  C   UNL A   1      39.499  33.020  35.709  1.00  0.00    -0.014 A 
ATOM     97  C   UNL A   1      38.270  33.153  36.383  1.00  0.00     0.010 A 
ATOM     98  C   UNL A   1      40.675  33.139  36.482  1.00  0.00     0.010 A 
ATOM     99  C   UNL A   1      38.221  33.335  37.779  1.00  0.00     0.020 A 
ATOM    100  C   UNL A   1      40.635  33.328  37.869  1.00  0.00     0.020 A 
ATOM    101  C   UNL A   1      39.406  33.399  38.517  1.00  0.00     0.054 A 
BRANCH 101 102
ATOM    102  S   UNL A   1      39.343  33.444  40.335  1.00  0.00     0.124 S 
ATOM    103  O   UNL A   1      37.976  33.885  40.591  1.00  0.00    -0.237 OA
ATOM    104  O   UNL A   1      39.640  32.061  40.699  1.00  0.00    -0.237 OA
ATOM    105  O   UNL A   1      40.383  34.408  40.694  1.00  0.00    -0.744 OA
ENDBRANCH 101 102
ENDBRANCH  73  96
BRANCH  85 106
ATOM    106  C   UNL A   1      38.022  30.091  30.233  1.00  0.00    -0.014 A 
ATOM    107  C   UNL A   1      36.781  29.501  29.917  1.00  0.00     0.010 A 
ATOM    108  C   UNL A   1      38.194  31.461  29.960  1.00  0.00     0.010 A 
ATOM    109  C   UNL A   1      35.755  30.256  29.322  1.00  0.00     0.020 A 
ATOM    110  C   UNL A   1      37.172  32.222  29.386  1.00  0.00     0.020 A 
ATOM    111  C   UNL A   1      35.960  31.614  29.061  1.00  0.00     0.054 A 
BRANCH 111 112
ATOM    112  S   UNL A   1      34.622  32.600  28.326  1.00  0.00     0.124 S 
ATOM    113  O   UNL A   1      35.351  33.576  27.522  1.00  0.00    -0.237 OA
ATOM    114  O   UNL A   1      33.860  31.606  27.573  1.00  0.00    -0.237 OA
ATOM    115  O   UNL A   1      33.922  33.155  29.485  1.00  0.00    -0.744 OA
ENDBRANCH 111 112
ENDBRANCH  85 106
ENDBRANCH  59  60
ENDBRANCH  51  54
ENDBRANCH  49  50
ENDBRANCH  48  49
ENDBRANCH  47  48
ENDBRANCH  46  47
ENDBRANCH  45  46
ENDBRANCH  44  45
ENDBRANCH  42  44
ENDBRANCH  39  40
ENDBRANCH   1  39
TORSDOF 31
ENDMDL
MODEL 3
REMARK VINA RESULT:      -6.4      5.819     11.593
REMARK SMILES NS(=O)(=O)c1ccc(-n2nc(NC(=O)NCCCCCCCCCCC(=O)NCCCCCCNC(=O)c3ccc(-c4c5nc(c(-c6ccc(S(=O)(=O)[O-])cc6)c6ccc([nH]6)c(-c6ccc(S(=O)(=O)[O-])cc6)c6nc(c(-c7ccc(S(=O)(=O)[O-])cc7)c7ccc4[nH]7)C=C6)C=C5)cc3)cc2-c2ccccc2)cc1
REMARK SMILES IDX 24 1 23 2 22 3 21 4 20 5 19 6 18 7 17 8 16 9 15 10 12 11
REMARK SMILES IDX 13 12 14 14 11 16 9 17 10 18 99 19 98 20 8 21 5 22 6 23
REMARK SMILES IDX 107 24 7 25 106 26 2 27 3 28 4 29 1 30 100 33 101 34 105 35
REMARK SMILES IDX 102 36 104 37 103 38 25 39 26 40 27 41 28 42 29 44 30 45
REMARK SMILES IDX 31 46 32 47 33 48 34 49 35 50 36 51 37 53 38 54 39 55 97 56
REMARK SMILES IDX 40 57 96 58 41 59 42 60 43 61 90 62 44 63 95 64 89 65 91 66
REMARK SMILES IDX 45 67 94 68 88 69 87 70 46 72 76 73 57 74 75 75 58 76 61 77
REMARK SMILES IDX 74 78 92 79 59 80 60 81 73 83 93 84 62 85 47 86 48 87 56 88
REMARK SMILES IDX 49 89 55 90 50 91 51 92 52 93 53 94 54 95 77 96 78 97 86 98
REMARK SMILES IDX 79 99 85 100 80 101 81 102 82 103 83 104 84 105 63 106
REMARK SMILES IDX 64 107 72 108 65 109 71 110 66 111 67 112 68 113 69 114
REMARK SMILES IDX 70 115
REMARK H PARENT 12 13 15 15 1 31 1 32 28 43 35 52 91 71 61 82
REMARK Flexibility Score: inf
ROOT
ATOM      1  C   UNL A   1      41.999  36.605  28.244  1.00  0.00     0.010 C 
ENDROOT
BRANCH   1   2
ATOM      2  C   UNL A   1      42.720  37.200  27.036  1.00  0.00     0.001 C 
BRANCH   2   3
ATOM      3  C   UNL A   1      44.120  37.754  27.325  1.00  0.00     0.000 C 
BRANCH   3   4
ATOM      4  C   UNL A   1      44.258  39.243  27.073  1.00  0.00     0.000 C 
BRANCH   4   5
ATOM      5  C   UNL A   1      45.611  39.815  27.481  1.00  0.00     0.000 C 
BRANCH   5   6
ATOM      6  C   UNL A   1      45.597  41.147  28.238  1.00  0.00     0.000 C 
BRANCH   6   7
ATOM      7  C   UNL A   1      44.710  42.255  27.655  1.00  0.00     0.002 C 
BRANCH   7   8
ATOM      8  C   UNL A   1      45.297  43.059  26.495  1.00  0.00     0.021 C 
BRANCH   8   9
ATOM      9  C   UNL A   1      44.316  43.480  25.413  1.00  0.00     0.117 C 
BRANCH   9  10
ATOM     10  N   UNL A   1      43.315  42.514  25.055  1.00  0.00    -0.338 N 
ATOM     11  N   UNL A   1      43.248  42.792  22.684  1.00  0.00    -0.291 N 
ATOM     12  C   UNL A   1      42.828  42.205  23.831  1.00  0.00     0.320 C 
ATOM     13  H   UNL A   1      42.608  42.716  21.939  1.00  0.00     0.173 HD
ATOM     14  O   UNL A   1      41.863  41.435  23.801  1.00  0.00    -0.248 OA
ATOM     15  H   UNL A   1      42.928  42.006  25.805  1.00  0.00     0.165 HD
BRANCH  11  16
ATOM     16  C   UNL A   1      44.404  43.473  22.361  1.00  0.00     0.157 A 
ATOM     17  N   UNL A   1      45.694  44.968  21.572  1.00  0.00    -0.231 N 
ATOM     18  N   UNL A   1      44.495  44.788  22.154  1.00  0.00    -0.149 NA
ATOM     19  C   UNL A   1      46.516  43.860  21.736  1.00  0.00     0.076 A 
ATOM     20  C   UNL A   1      45.681  42.872  22.229  1.00  0.00     0.078 A 
BRANCH  17  21
ATOM     21  C   UNL A   1      45.948  46.146  20.814  1.00  0.00     0.065 A 
ATOM     22  C   UNL A   1      46.365  48.489  19.367  1.00  0.00     0.082 A 
ATOM     23  C   UNL A   1      47.035  48.303  20.578  1.00  0.00     0.024 A 
ATOM     24  C   UNL A   1      45.514  47.501  18.859  1.00  0.00     0.024 A 
ATOM     25  C   UNL A   1      46.822  47.131  21.303  1.00  0.00     0.030 A 
ATOM     26  C   UNL A   1      45.318  46.317  19.576  1.00  0.00     0.030 A 
BRANCH  22  27
ATOM     27  S   UNL A   1      46.589  49.997  18.472  1.00  0.00     0.238 S 
ATOM     28  O   UNL A   1      47.578  49.777  17.437  1.00  0.00    -0.207 OA
ATOM     29  O   UNL A   1      46.690  51.090  19.404  1.00  0.00    -0.207 OA
BRANCH  27  30
ATOM     30  N   UNL A   1      45.118  50.193  17.701  1.00  0.00    -0.225 NA
ATOM     31  H   UNL A   1      45.214  50.879  16.953  1.00  0.00     0.137 HD
ATOM     32  H   UNL A   1      44.423  50.520  18.373  1.00  0.00     0.137 HD
ENDBRANCH  27  30
ENDBRANCH  22  27
ENDBRANCH  17  21
BRANCH  19  33
ATOM     33  C   UNL A   1      47.951  43.880  21.456  1.00  0.00     0.000 A 
ATOM     34  C   UNL A   1      48.420  43.367  20.235  1.00  0.00     0.010 A 
ATOM     35  C   UNL A   1      48.875  44.306  22.413  1.00  0.00     0.010 A 
ATOM     36  C   UNL A   1      49.784  43.226  19.996  1.00  0.00     0.001 A 
ATOM     37  C   UNL A   1      50.245  44.177  22.167  1.00  0.00     0.001 A 
ATOM     38  C   UNL A   1      50.697  43.626  20.966  1.00  0.00     0.000 A 
ENDBRANCH  19  33
ENDBRANCH  11  16
ENDBRANCH   9  10
ENDBRANCH   8   9
ENDBRANCH   7   8
ENDBRANCH   6   7
ENDBRANCH   5   6
ENDBRANCH   4   5
ENDBRANCH   3   4
ENDBRANCH   2   3
ENDBRANCH   1   2
BRANCH   1  39
ATOM     39  C   UNL A   1      42.863  36.170  29.429  1.00  0.00     0.100 C 
BRANCH  39  40
ATOM     40  C   UNL A   1      42.791  34.696  29.770  1.00  0.00     0.219 C 
ATOM     41  O   UNL A   1      43.670  33.917  29.395  1.00  0.00    -0.275 OA
ATOM     42  N   UNL A   1      41.782  34.197  30.536  1.00  0.00    -0.356 N 
ATOM     43  H   UNL A   1      41.839  33.232  30.720  1.00  0.00     0.163 HD
BRANCH  42  44
ATOM     44  C   UNL A   1      40.638  34.862  31.126  1.00  0.00     0.116 C 
BRANCH  44  45
ATOM     45  C   UNL A   1      39.335  34.119  30.809  1.00  0.00     0.021 C 
BRANCH  45  46
ATOM     46  C   UNL A   1      38.081  34.804  31.351  1.00  0.00     0.002 C 
BRANCH  46  47
ATOM     47  C   UNL A   1      37.010  33.861  31.916  1.00  0.00     0.002 C 
BRANCH  47  48
ATOM     48  C   UNL A   1      35.875  33.467  30.959  1.00  0.00     0.021 C 
BRANCH  48  49
ATOM     49  C   UNL A   1      35.577  31.976  30.953  1.00  0.00     0.116 C 
BRANCH  49  50
ATOM     50  N   UNL A   1      35.079  31.519  29.656  1.00  0.00    -0.352 N 
ATOM     51  C   UNL A   1      35.792  31.149  28.534  1.00  0.00     0.251 C 
ATOM     52  H   UNL A   1      34.100  31.468  29.570  1.00  0.00     0.163 HD
ATOM     53  O   UNL A   1      35.249  31.109  27.436  1.00  0.00    -0.269 OA
BRANCH  51  54
ATOM     54  C   UNL A   1      37.215  30.801  28.681  1.00  0.00     0.039 A 
ATOM     55  C   UNL A   1      38.000  31.350  29.699  1.00  0.00     0.014 A 
ATOM     56  C   UNL A   1      37.758  29.895  27.774  1.00  0.00     0.014 A 
ATOM     57  C   UNL A   1      39.319  30.924  29.830  1.00  0.00     0.010 A 
ATOM     58  C   UNL A   1      38.988  29.346  28.013  1.00  0.00     0.010 A 
ATOM     59  C   UNL A   1      39.800  29.911  28.987  1.00  0.00    -0.014 A 
BRANCH  59  60
ATOM     60  C   UNL A   1      41.136  29.362  29.152  1.00  0.00     0.031 A 
ATOM     61  C   UNL A   1      41.504  29.042  30.556  1.00  0.00     0.074 A 
ATOM     62  C   UNL A   1      41.883  28.949  28.107  1.00  0.00     0.049 A 
ATOM     63  N   UNL A   1      42.383  29.635  31.292  1.00  0.00    -0.248 NA
ATOM     64  C   UNL A   1      40.702  28.038  31.276  1.00  0.00     0.031 C 
ATOM     65  C   UNL A   1      41.513  28.872  26.687  1.00  0.00     0.029 A 
ATOM     66  N   UNL A   1      43.106  28.362  28.120  1.00  0.00    -0.354 N 
ATOM     67  C   UNL A   1      42.405  28.939  32.496  1.00  0.00     0.074 A 
ATOM     68  C   UNL A   1      41.227  28.109  32.501  1.00  0.00     0.031 C 
ATOM     69  C   UNL A   1      42.363  28.041  26.044  1.00  0.00     0.029 A 
ATOM     70  C   UNL A   1      43.430  27.674  26.958  1.00  0.00     0.049 A 
ATOM     71  H   UNL A   1      43.716  28.420  28.890  1.00  0.00     0.167 HD
ATOM     72  C   UNL A   1      43.515  28.914  33.286  1.00  0.00     0.031 A 
ATOM     73  C   UNL A   1      44.468  26.815  26.787  1.00  0.00     0.031 A 
ATOM     74  C   UNL A   1      44.482  29.903  32.876  1.00  0.00     0.049 A 
ATOM     75  C   UNL A   1      45.454  27.125  27.858  1.00  0.00     0.074 A 
ATOM     76  C   UNL A   1      44.451  31.275  32.723  1.00  0.00     0.029 A 
ATOM     77  N   UNL A   1      45.552  29.466  32.127  1.00  0.00    -0.354 N 
ATOM     78  N   UNL A   1      46.085  28.266  27.939  1.00  0.00    -0.248 NA
ATOM     79  C   UNL A   1      45.360  26.377  29.104  1.00  0.00     0.031 C 
ATOM     80  C   UNL A   1      45.155  31.520  31.507  1.00  0.00     0.029 A 
ATOM     81  C   UNL A   1      45.652  30.301  31.041  1.00  0.00     0.049 A 
ATOM     82  H   UNL A   1      46.136  28.700  32.332  1.00  0.00     0.167 HD
ATOM     83  C   UNL A   1      46.078  28.583  29.291  1.00  0.00     0.074 A 
ATOM     84  C   UNL A   1      45.692  27.343  29.967  1.00  0.00     0.031 C 
ATOM     85  C   UNL A   1      46.099  29.879  29.727  1.00  0.00     0.031 A 
BRANCH  72  86
ATOM     86  C   UNL A   1      43.888  27.750  34.171  1.00  0.00    -0.014 A 
ATOM     87  C   UNL A   1      43.656  27.843  35.557  1.00  0.00     0.010 A 
ATOM     88  C   UNL A   1      44.685  26.674  33.729  1.00  0.00     0.010 A 
ATOM     89  C   UNL A   1      44.244  26.941  36.455  1.00  0.00     0.020 A 
ATOM     90  C   UNL A   1      45.238  25.743  34.610  1.00  0.00     0.020 A 
ATOM     91  C   UNL A   1      45.041  25.902  35.973  1.00  0.00     0.054 A 
BRANCH  91  92
ATOM     92  S   UNL A   1      45.867  24.799  37.146  1.00  0.00     0.124 S 
ATOM     93  O   UNL A   1      46.597  23.903  36.254  1.00  0.00    -0.237 OA
ATOM     94  O   UNL A   1      46.687  25.726  37.921  1.00  0.00    -0.237 OA
ATOM     95  O   UNL A   1      44.765  24.184  37.885  1.00  0.00    -0.744 OA
ENDBRANCH  91  92
ENDBRANCH  72  86
BRANCH  73  96
ATOM     96  C   UNL A   1      44.459  25.541  26.017  1.00  0.00    -0.014 A 
ATOM     97  C   UNL A   1      45.554  25.157  25.220  1.00  0.00     0.010 A 
ATOM     98  C   UNL A   1      43.475  24.563  26.278  1.00  0.00     0.010 A 
ATOM     99  C   UNL A   1      45.688  23.833  24.756  1.00  0.00     0.020 A 
ATOM    100  C   UNL A   1      43.596  23.247  25.815  1.00  0.00     0.020 A 
ATOM    101  C   UNL A   1      44.717  22.880  25.077  1.00  0.00     0.054 A 
BRANCH 101 102
ATOM    102  S   UNL A   1      44.981  21.132  24.642  1.00  0.00     0.124 S 
ATOM    103  O   UNL A   1      44.673  21.114  23.216  1.00  0.00    -0.237 OA
ATOM    104  O   UNL A   1      46.383  20.925  24.989  1.00  0.00    -0.237 OA
ATOM    105  O   UNL A   1      44.028  20.417  25.491  1.00  0.00    -0.744 OA
ENDBRANCH 101 102
ENDBRANCH  73  96
BRANCH  85 106
ATOM    106  C   UNL A   1      46.379  30.989  28.734  1.00  0.00    -0.014 A 
ATOM    107  C   UNL A   1      45.440  31.471  27.798  1.00  0.00     0.010 A 
ATOM    108  C   UNL A   1      47.590  31.690  28.877  1.00  0.00     0.010 A 
ATOM    109  C   UNL A   1      45.719  32.605  27.015  1.00  0.00     0.020 A 
ATOM    110  C   UNL A   1      47.867  32.829  28.116  1.00  0.00     0.020 A 
ATOM    111  C   UNL A   1      46.935  33.276  27.181  1.00  0.00     0.054 A 
BRANCH 111 112
ATOM    112  S   UNL A   1      47.282  34.763  26.197  1.00  0.00     0.124 S 
ATOM    113  O   UNL A   1      48.241  35.480  27.031  1.00  0.00    -0.237 OA
ATOM    114  O   UNL A   1      47.816  34.213  24.953  1.00  0.00    -0.237 OA
ATOM    115  O   UNL A   1      45.975  35.407  26.066  1.00  0.00    -0.744 OA
ENDBRANCH 111 112
ENDBRANCH  85 106
ENDBRANCH  59  60
ENDBRANCH  51  54
ENDBRANCH  49  50
ENDBRANCH  48  49
ENDBRANCH  47  48
ENDBRANCH  46  47
ENDBRANCH  45  46
ENDBRANCH  44  45
ENDBRANCH  42  44
ENDBRANCH  39  40
ENDBRANCH   1  39
TORSDOF 31
ENDMDL
