MODEL 1
REMARK VINA RESULT:     -13.0      0.000      0.000
REMARK SMILES C[C@]12CC[C@H]3[C@@H](CCC4=CC(=O)C=C[C@@]43C)[C@@H]1CC[C@H]2O[C@@H]1O[C@H](C(=O)NCCCCCCNC(=O)c2ccc(-c3c4nc(c(-c5ccc(S(=O)(=O)[O-])cc5)c5ccc([nH]5)c(-c5ccc(S(=O)(=O)[O-])cc5)c5nc(c(-c6ccc(S(=O)(=O)[O-])cc6)c6ccc3[nH]6)C=C5)C=C4)cc2)[C@@H](O)[C@H](O)[C@H]1O
REMARK SMILES IDX 31 1 30 2 29 3 28 4 27 5 25 6 26 7 24 9 22 10 23 11 101 12
REMARK SMILES IDX 99 13 97 14 21 15 20 16 1 17 2 18 3 19 17 20 4 21 6 22 18 23
REMARK SMILES IDX 19 24 5 25 7 26 15 27 8 28 9 29 14 30 16 31 10 32 13 33
REMARK SMILES IDX 11 34 12 35 102 36 100 38 98 40 32 42 33 43 34 44 35 45
REMARK SMILES IDX 36 47 37 48 38 49 96 50 39 51 95 52 40 53 41 54 42 55 89 56
REMARK SMILES IDX 43 57 94 58 88 59 90 60 44 61 93 62 87 63 86 64 45 66 75 67
REMARK SMILES IDX 56 68 74 69 57 70 60 71 73 72 91 73 58 74 59 75 72 77 92 78
REMARK SMILES IDX 61 79 46 80 47 81 55 82 48 83 54 84 49 85 50 86 51 87 52 88
REMARK SMILES IDX 53 89 76 90 77 91 85 92 78 93 84 94 79 95 80 96 81 97 82 98
REMARK SMILES IDX 83 99 62 100 63 101 71 102 64 103 70 104 65 105 66 106
REMARK SMILES IDX 67 107 68 108 69 109
REMARK H PARENT 27 8 102 37 100 39 98 41 34 46 90 65 60 76
REMARK Flexibility Score: inf
ROOT
ATOM      1  C   UNL A   1      37.163  32.928  33.369  1.00  0.00     0.002 C 
ENDROOT
BRANCH   1   2
ATOM      2  C   UNL A   1      35.756  33.369  33.760  1.00  0.00     0.002 C 
BRANCH   2   3
ATOM      3  C   UNL A   1      34.463  33.671  32.747  1.00  0.00     0.021 C 
BRANCH   3   4
ATOM      4  C   UNL A   1      33.650  34.965  31.292  1.00  0.00     0.116 C 
BRANCH   4   5
ATOM      5  N   UNL A   1      33.147  34.885  29.851  1.00  0.00    -0.354 N 
ATOM      6  C   UNL A   1      33.352  34.019  28.801  1.00  0.00     0.252 C 
ATOM      7  O   UNL A   1      32.742  34.286  27.756  1.00  0.00    -0.272 OA
ATOM      8  H   UNL A   1      32.536  35.622  29.621  1.00  0.00     0.163 HD
BRANCH   6   9
ATOM      9  C   UNL A   1      34.271  32.759  28.837  1.00  0.00     0.241 C 
ATOM     10  C   UNL A   1      34.726  30.546  27.934  1.00  0.00     0.282 C 
ATOM     11  O   UNL A   1      33.916  31.729  27.918  1.00  0.00    -0.334 OA
ATOM     12  C   UNL A   1      36.259  30.806  27.980  1.00  0.00     0.202 C 
ATOM     13  C   UNL A   1      36.626  31.936  28.943  1.00  0.00     0.180 C 
ATOM     14  C   UNL A   1      35.743  33.164  28.722  1.00  0.00     0.184 C 
BRANCH  10  15
ATOM     15  O   UNL A   1      34.330  29.583  26.931  1.00  0.00    -0.346 OA
BRANCH  15  16
ATOM     16  C   UNL A   1      33.042  29.456  26.297  1.00  0.00     0.127 C 
ATOM     17  C   UNL A   1      31.616  28.534  24.384  1.00  0.00     0.014 C 
ATOM     18  C   UNL A   1      32.844  28.266  25.319  1.00  0.00    -0.003 C 
ATOM     19  C   UNL A   1      34.029  27.969  24.355  1.00  0.00     0.010 C 
ATOM     20  C   UNL A   1      32.499  27.202  26.389  1.00  0.00     0.001 C 
ATOM     21  C   UNL A   1      33.996  26.579  23.654  1.00  0.00     0.006 C 
ATOM     22  C   UNL A   1      32.366  25.827  25.812  1.00  0.00    -0.003 C 
ATOM     23  C   UNL A   1      31.402  27.837  27.234  1.00  0.00     0.007 C 
ATOM     24  C   UNL A   1      31.821  29.333  27.253  1.00  0.00     0.033 C 
ATOM     25  C   UNL A   1      33.988  25.513  24.746  1.00  0.00     0.006 C 
ATOM     26  C   UNL A   1      31.771  24.425  27.035  1.00  0.00     0.009 C 
ATOM     27  C   UNL A   1      34.523  23.682  24.313  1.00  0.00     0.010 C 
ATOM     28  C   UNL A   1      32.365  22.597  26.647  1.00  0.00     0.032 C 
ATOM     29  C   UNL A   1      33.820  22.285  25.425  1.00  0.00    -0.056 C 
ATOM     30  C   UNL A   1      36.050  23.431  24.266  1.00  0.00    -0.012 C 
ATOM     31  C   UNL A   1      34.356  23.420  22.757  1.00  0.00     0.021 C 
ATOM     32  C   UNL A   1      34.560  21.176  25.589  1.00  0.00     0.052 C 
ATOM     33  C   UNL A   1      36.623  22.236  24.496  1.00  0.00     0.048 C 
ATOM     34  C   UNL A   1      35.905  21.024  24.978  1.00  0.00     0.178 C 
ATOM     35  O   UNL A   1      36.467  19.933  24.985  1.00  0.00    -0.290 OA
ENDBRANCH  15  16
ENDBRANCH  10  15
BRANCH  12  36
ATOM     36  O   UNL A   1      37.008  29.627  28.307  1.00  0.00    -0.385 OA
ATOM     37  H   UNL A   1      37.956  29.815  28.232  1.00  0.00     0.211 HD
ENDBRANCH  12  36
BRANCH  13  38
ATOM     38  O   UNL A   1      37.993  32.365  28.784  1.00  0.00    -0.387 OA
ATOM     39  H   UNL A   1      38.081  32.865  27.958  1.00  0.00     0.211 HD
ENDBRANCH  13  38
BRANCH  14  40
ATOM     40  O   UNL A   1      36.110  34.149  29.693  1.00  0.00    -0.387 OA
ATOM     41  H   UNL A   1      36.793  34.729  29.323  1.00  0.00     0.211 HD
ENDBRANCH  14  40
ENDBRANCH   6   9
ENDBRANCH   4   5
ENDBRANCH   3   4
ENDBRANCH   2   3
ENDBRANCH   1   2
BRANCH   1  42
ATOM     42  C   UNL A   1      37.996  32.379  34.525  1.00  0.00     0.021 C 
BRANCH  42  43
ATOM     43  C   UNL A   1      38.834  31.144  34.178  1.00  0.00     0.116 C 
BRANCH  43  44
ATOM     44  N   UNL A   1      38.020  29.941  34.001  1.00  0.00    -0.352 N 
ATOM     45  C   UNL A   1      38.203  28.943  33.082  1.00  0.00     0.251 C 
ATOM     46  H   UNL A   1      37.254  29.839  34.611  1.00  0.00     0.163 HD
ATOM     47  O   UNL A   1      37.376  28.059  32.891  1.00  0.00    -0.269 OA
BRANCH  45  48
ATOM     48  C   UNL A   1      39.479  28.968  32.366  1.00  0.00     0.039 A 
ATOM     49  C   UNL A   1      40.615  28.409  32.948  1.00  0.00     0.014 A 
ATOM     50  C   UNL A   1      39.443  29.356  31.023  1.00  0.00     0.014 A 
ATOM     51  C   UNL A   1      41.740  28.215  32.152  1.00  0.00     0.010 A 
ATOM     52  C   UNL A   1      40.536  29.088  30.221  1.00  0.00     0.010 A 
ATOM     53  C   UNL A   1      41.698  28.539  30.785  1.00  0.00    -0.014 A 
BRANCH  53  54
ATOM     54  C   UNL A   1      42.891  28.376  29.930  1.00  0.00     0.031 A 
ATOM     55  C   UNL A   1      43.862  29.517  29.825  1.00  0.00     0.074 A 
ATOM     56  C   UNL A   1      43.063  27.241  29.225  1.00  0.00     0.049 A 
ATOM     57  N   UNL A   1      44.952  29.607  29.112  1.00  0.00    -0.248 NA
ATOM     58  C   UNL A   1      43.545  30.735  30.595  1.00  0.00     0.031 C 
ATOM     59  C   UNL A   1      42.146  26.099  29.217  1.00  0.00     0.029 A 
ATOM     60  N   UNL A   1      44.072  26.863  28.381  1.00  0.00    -0.354 N 
ATOM     61  C   UNL A   1      45.436  30.891  29.334  1.00  0.00     0.074 A 
ATOM     62  C   UNL A   1      44.486  31.568  30.185  1.00  0.00     0.031 C 
ATOM     63  C   UNL A   1      42.657  25.132  28.436  1.00  0.00     0.029 A 
ATOM     64  C   UNL A   1      43.918  25.597  27.868  1.00  0.00     0.049 A 
ATOM     65  H   UNL A   1      44.839  27.443  28.163  1.00  0.00     0.167 HD
ATOM     66  C   UNL A   1      46.590  31.443  28.897  1.00  0.00     0.031 A 
ATOM     67  C   UNL A   1      44.713  24.894  27.038  1.00  0.00     0.031 A 
ATOM     68  C   UNL A   1      47.537  30.744  28.077  1.00  0.00     0.049 A 
ATOM     69  C   UNL A   1      46.000  25.524  26.577  1.00  0.00     0.074 A 
ATOM     70  C   UNL A   1      48.768  31.176  27.623  1.00  0.00     0.029 A 
ATOM     71  N   UNL A   1      47.354  29.457  27.592  1.00  0.00    -0.354 N 
ATOM     72  N   UNL A   1      46.483  26.713  26.858  1.00  0.00    -0.248 NA
ATOM     73  C   UNL A   1      46.857  24.716  25.702  1.00  0.00     0.031 C 
ATOM     74  C   UNL A   1      49.311  30.166  26.823  1.00  0.00     0.029 A 
ATOM     75  C   UNL A   1      48.442  29.084  26.825  1.00  0.00     0.049 A 
ATOM     76  H   UNL A   1      46.568  28.892  27.770  1.00  0.00     0.167 HD
ATOM     77  C   UNL A   1      47.711  26.786  26.213  1.00  0.00     0.074 A 
ATOM     78  C   UNL A   1      47.905  25.514  25.543  1.00  0.00     0.031 C 
ATOM     79  C   UNL A   1      48.601  27.809  26.172  1.00  0.00     0.031 A 
BRANCH  66  80
ATOM     80  C   UNL A   1      46.878  32.863  29.308  1.00  0.00    -0.014 A 
ATOM     81  C   UNL A   1      46.370  33.949  28.571  1.00  0.00     0.010 A 
ATOM     82  C   UNL A   1      47.657  33.116  30.450  1.00  0.00     0.010 A 
ATOM     83  C   UNL A   1      46.674  35.262  28.941  1.00  0.00     0.020 A 
ATOM     84  C   UNL A   1      47.937  34.428  30.843  1.00  0.00     0.020 A 
ATOM     85  C   UNL A   1      47.459  35.491  30.075  1.00  0.00     0.054 A 
BRANCH  85  86
ATOM     86  S   UNL A   1      47.817  37.206  30.548  1.00  0.00     0.124 S 
ATOM     87  O   UNL A   1      49.045  37.472  29.803  1.00  0.00    -0.237 OA
ATOM     88  O   UNL A   1      46.632  37.920  30.080  1.00  0.00    -0.237 OA
ATOM     89  O   UNL A   1      47.970  37.140  31.999  1.00  0.00    -0.744 OA
ENDBRANCH  85  86
ENDBRANCH  66  80
BRANCH  67  90
ATOM     90  C   UNL A   1      44.332  23.518  26.622  1.00  0.00    -0.014 A 
ATOM     91  C   UNL A   1      45.242  22.700  25.931  1.00  0.00     0.010 A 
ATOM     92  C   UNL A   1      43.056  23.009  26.929  1.00  0.00     0.010 A 
ATOM     93  C   UNL A   1      44.880  21.407  25.537  1.00  0.00     0.020 A 
ATOM     94  C   UNL A   1      42.699  21.708  26.561  1.00  0.00     0.020 A 
ATOM     95  C   UNL A   1      43.610  20.919  25.857  1.00  0.00     0.054 A 
BRANCH  95  96
ATOM     96  S   UNL A   1      43.178  19.222  25.379  1.00  0.00     0.124 S 
ATOM     97  O   UNL A   1      43.794  18.441  26.447  1.00  0.00    -0.237 OA
ATOM     98  O   UNL A   1      41.719  19.256  25.377  1.00  0.00    -0.237 OA
ATOM     99  O   UNL A   1      43.791  19.075  24.060  1.00  0.00    -0.744 OA
ENDBRANCH  95  96
ENDBRANCH  67  90
BRANCH  79 100
ATOM    100  C   UNL A   1      49.870  27.586  25.399  1.00  0.00    -0.014 A 
ATOM    101  C   UNL A   1      51.011  27.049  26.018  1.00  0.00     0.010 A 
ATOM    102  C   UNL A   1      49.894  27.851  24.017  1.00  0.00     0.010 A 
ATOM    103  C   UNL A   1      52.167  26.807  25.274  1.00  0.00     0.020 A 
ATOM    104  C   UNL A   1      51.038  27.582  23.264  1.00  0.00     0.020 A 
ATOM    105  C   UNL A   1      52.171  27.074  23.901  1.00  0.00     0.054 A 
BRANCH 105 106
ATOM    106  S   UNL A   1      53.668  26.701  22.947  1.00  0.00     0.124 S 
ATOM    107  O   UNL A   1      54.198  28.035  22.683  1.00  0.00    -0.237 OA
ATOM    108  O   UNL A   1      54.446  25.889  23.879  1.00  0.00    -0.237 OA
ATOM    109  O   UNL A   1      53.164  25.986  21.777  1.00  0.00    -0.744 OA
ENDBRANCH 105 106
ENDBRANCH  79 100
ENDBRANCH  53  54
ENDBRANCH  45  48
ENDBRANCH  43  44
ENDBRANCH  42  43
ENDBRANCH   1  42
TORSDOF 21
ENDMDL
MODEL 2
REMARK VINA RESULT:     -13.0      3.409      5.155
REMARK SMILES C[C@]12CC[C@H]3[C@@H](CCC4=CC(=O)C=C[C@@]43C)[C@@H]1CC[C@H]2O[C@@H]1O[C@H](C(=O)NCCCCCCNC(=O)c2ccc(-c3c4nc(c(-c5ccc(S(=O)(=O)[O-])cc5)c5ccc([nH]5)c(-c5ccc(S(=O)(=O)[O-])cc5)c5nc(c(-c6ccc(S(=O)(=O)[O-])cc6)c6ccc3[nH]6)C=C5)C=C4)cc2)[C@@H](O)[C@H](O)[C@H]1O
REMARK SMILES IDX 31 1 30 2 29 3 28 4 27 5 25 6 26 7 24 9 22 10 23 11 101 12
REMARK SMILES IDX 99 13 97 14 21 15 20 16 1 17 2 18 3 19 17 20 4 21 6 22 18 23
REMARK SMILES IDX 19 24 5 25 7 26 15 27 8 28 9 29 14 30 16 31 10 32 13 33
REMARK SMILES IDX 11 34 12 35 102 36 100 38 98 40 32 42 33 43 34 44 35 45
REMARK SMILES IDX 36 47 37 48 38 49 96 50 39 51 95 52 40 53 41 54 42 55 89 56
REMARK SMILES IDX 43 57 94 58 88 59 90 60 44 61 93 62 87 63 86 64 45 66 75 67
REMARK SMILES IDX 56 68 74 69 57 70 60 71 73 72 91 73 58 74 59 75 72 77 92 78
REMARK SMILES IDX 61 79 46 80 47 81 55 82 48 83 54 84 49 85 50 86 51 87 52 88
REMARK SMILES IDX 53 89 76 90 77 91 85 92 78 93 84 94 79 95 80 96 81 97 82 98
REMARK SMILES IDX 83 99 62 100 63 101 71 102 64 103 70 104 65 105 66 106
REMARK SMILES IDX 67 107 68 108 69 109
REMARK H PARENT 27 8 102 37 100 39 98 41 34 46 90 65 60 76
REMARK Flexibility Score: inf
ROOT
ATOM      1  C   UNL A   1      36.644  33.825  34.474  1.00  0.00     0.002 C 
ENDROOT
BRANCH   1   2
ATOM      2  C   UNL A   1      35.149  33.752  34.175  1.00  0.00     0.002 C 
BRANCH   2   3
ATOM      3  C   UNL A   1      34.403  33.818  32.682  1.00  0.00     0.021 C 
BRANCH   3   4
ATOM      4  C   UNL A   1      33.620  35.070  31.175  1.00  0.00     0.116 C 
BRANCH   4   5
ATOM      5  N   UNL A   1      33.097  34.940  29.745  1.00  0.00    -0.354 N 
ATOM      6  C   UNL A   1      33.291  34.040  28.722  1.00  0.00     0.252 C 
ATOM      7  O   UNL A   1      32.665  34.269  27.677  1.00  0.00    -0.272 OA
ATOM      8  H   UNL A   1      32.481  35.666  29.500  1.00  0.00     0.163 HD
BRANCH   6   9
ATOM      9  C   UNL A   1      34.214  32.784  28.788  1.00  0.00     0.241 C 
ATOM     10  C   UNL A   1      34.680  30.553  27.934  1.00  0.00     0.282 C 
ATOM     11  O   UNL A   1      33.866  31.733  27.890  1.00  0.00    -0.334 OA
ATOM     12  C   UNL A   1      36.211  30.821  27.978  1.00  0.00     0.202 C 
ATOM     13  C   UNL A   1      36.572  31.973  28.916  1.00  0.00     0.180 C 
ATOM     14  C   UNL A   1      35.685  33.192  28.667  1.00  0.00     0.184 C 
BRANCH  10  15
ATOM     15  O   UNL A   1      34.290  29.568  26.950  1.00  0.00    -0.346 OA
BRANCH  15  16
ATOM     16  C   UNL A   1      33.009  29.433  26.305  1.00  0.00     0.127 C 
ATOM     17  C   UNL A   1      31.607  28.503  24.377  1.00  0.00     0.014 C 
ATOM     18  C   UNL A   1      32.829  28.243  25.322  1.00  0.00    -0.003 C 
ATOM     19  C   UNL A   1      34.025  27.958  24.369  1.00  0.00     0.010 C 
ATOM     20  C   UNL A   1      32.483  27.174  26.387  1.00  0.00     0.001 C 
ATOM     21  C   UNL A   1      34.009  26.569  23.664  1.00  0.00     0.006 C 
ATOM     22  C   UNL A   1      32.366  25.799  25.805  1.00  0.00    -0.003 C 
ATOM     23  C   UNL A   1      31.374  27.798  27.223  1.00  0.00     0.007 C 
ATOM     24  C   UNL A   1      31.780  29.297  27.250  1.00  0.00     0.033 C 
ATOM     25  C   UNL A   1      34.000  25.500  24.753  1.00  0.00     0.006 C 
ATOM     26  C   UNL A   1      31.772  24.389  27.019  1.00  0.00     0.009 C 
ATOM     27  C   UNL A   1      34.554  23.675  24.321  1.00  0.00     0.010 C 
ATOM     28  C   UNL A   1      32.383  22.567  26.633  1.00  0.00     0.032 C 
ATOM     29  C   UNL A   1      33.851  22.270  25.423  1.00  0.00    -0.056 C 
ATOM     30  C   UNL A   1      36.083  23.437  24.287  1.00  0.00    -0.012 C 
ATOM     31  C   UNL A   1      34.402  23.416  22.762  1.00  0.00     0.021 C 
ATOM     32  C   UNL A   1      34.599  21.166  25.591  1.00  0.00     0.052 C 
ATOM     33  C   UNL A   1      36.664  22.245  24.519  1.00  0.00     0.048 C 
ATOM     34  C   UNL A   1      35.950  21.026  24.991  1.00  0.00     0.178 C 
ATOM     35  O   UNL A   1      36.521  19.940  25.001  1.00  0.00    -0.290 OA
ENDBRANCH  15  16
ENDBRANCH  10  15
BRANCH  12  36
ATOM     36  O   UNL A   1      36.965  29.652  28.331  1.00  0.00    -0.385 OA
ATOM     37  H   UNL A   1      37.069  29.614  29.294  1.00  0.00     0.211 HD
ENDBRANCH  12  36
BRANCH  13  38
ATOM     38  O   UNL A   1      37.938  32.404  28.751  1.00  0.00    -0.387 OA
ATOM     39  H   UNL A   1      38.364  32.470  29.621  1.00  0.00     0.211 HD
ENDBRANCH  13  38
BRANCH  14  40
ATOM     40  O   UNL A   1      36.046  34.200  29.617  1.00  0.00    -0.387 OA
ATOM     41  H   UNL A   1      37.006  34.336  29.595  1.00  0.00     0.211 HD
ENDBRANCH  14  40
ENDBRANCH   6   9
ENDBRANCH   4   5
ENDBRANCH   3   4
ENDBRANCH   2   3
ENDBRANCH   1   2
BRANCH   1  42
ATOM     42  C   UNL A   1      37.031  33.346  35.871  1.00  0.00     0.021 C 
BRANCH  42  43
ATOM     43  C   UNL A   1      38.172  32.322  35.901  1.00  0.00     0.116 C 
BRANCH  43  44
ATOM     44  N   UNL A   1      37.780  31.025  35.348  1.00  0.00    -0.352 N 
ATOM     45  C   UNL A   1      38.205  30.461  34.175  1.00  0.00     0.251 C 
ATOM     46  H   UNL A   1      37.139  30.500  35.879  1.00  0.00     0.163 HD
ATOM     47  O   UNL A   1      37.696  29.450  33.705  1.00  0.00    -0.269 OA
BRANCH  45  48
ATOM     48  C   UNL A   1      39.343  31.118  33.533  1.00  0.00     0.039 A 
ATOM     49  C   UNL A   1      40.630  30.925  34.031  1.00  0.00     0.014 A 
ATOM     50  C   UNL A   1      39.107  31.733  32.299  1.00  0.00     0.014 A 
ATOM     51  C   UNL A   1      41.710  31.343  33.260  1.00  0.00     0.010 A 
ATOM     52  C   UNL A   1      40.184  32.073  31.505  1.00  0.00     0.010 A 
ATOM     53  C   UNL A   1      41.490  31.903  31.990  1.00  0.00    -0.014 A 
BRANCH  53  54
ATOM     54  C   UNL A   1      42.619  32.388  31.169  1.00  0.00     0.031 A 
ATOM     55  C   UNL A   1      42.970  33.847  31.219  1.00  0.00     0.074 A 
ATOM     56  C   UNL A   1      43.274  31.536  30.358  1.00  0.00     0.049 A 
ATOM     57  N   UNL A   1      43.895  34.494  30.563  1.00  0.00    -0.248 NA
ATOM     58  C   UNL A   1      42.148  34.700  32.098  1.00  0.00     0.031 C 
ATOM     59  C   UNL A   1      42.970  30.111  30.196  1.00  0.00     0.029 A 
ATOM     60  N   UNL A   1      44.336  31.745  29.519  1.00  0.00    -0.354 N 
ATOM     61  C   UNL A   1      43.751  35.825  30.934  1.00  0.00     0.074 A 
ATOM     62  C   UNL A   1      42.608  35.907  31.813  1.00  0.00     0.031 C 
ATOM     63  C   UNL A   1      43.852  29.569  29.340  1.00  0.00     0.029 A 
ATOM     64  C   UNL A   1      44.761  30.609  28.872  1.00  0.00     0.049 A 
ATOM     65  H   UNL A   1      44.756  32.627  29.391  1.00  0.00     0.167 HD
ATOM     66  C   UNL A   1      44.527  36.881  30.601  1.00  0.00     0.031 A 
ATOM     67  C   UNL A   1      45.778  30.434  28.006  1.00  0.00     0.031 A 
ATOM     68  C   UNL A   1      45.678  36.776  29.751  1.00  0.00     0.049 A 
ATOM     69  C   UNL A   1      46.638  31.621  27.661  1.00  0.00     0.074 A 
ATOM     70  C   UNL A   1      46.577  37.761  29.392  1.00  0.00     0.029 A 
ATOM     71  N   UNL A   1      46.089  35.605  29.129  1.00  0.00    -0.354 N 
ATOM     72  N   UNL A   1      46.537  32.861  28.083  1.00  0.00    -0.248 NA
ATOM     73  C   UNL A   1      47.757  31.384  26.741  1.00  0.00     0.031 C 
ATOM     74  C   UNL A   1      47.506  37.197  28.513  1.00  0.00     0.029 A 
ATOM     75  C   UNL A   1      47.218  35.847  28.370  1.00  0.00     0.049 A 
ATOM     76  H   UNL A   1      45.643  34.732  29.216  1.00  0.00     0.167 HD
ATOM     77  C   UNL A   1      47.592  33.548  27.496  1.00  0.00     0.074 A 
ATOM     78  C   UNL A   1      48.330  32.580  26.706  1.00  0.00     0.031 C 
ATOM     79  C   UNL A   1      47.926  34.859  27.596  1.00  0.00     0.031 A 
BRANCH  66  80
ATOM     80  C   UNL A   1      44.150  38.224  31.167  1.00  0.00    -0.014 A 
ATOM     81  C   UNL A   1      43.445  39.166  30.394  1.00  0.00     0.010 A 
ATOM     82  C   UNL A   1      44.495  38.547  32.491  1.00  0.00     0.010 A 
ATOM     83  C   UNL A   1      43.133  40.423  30.918  1.00  0.00     0.020 A 
ATOM     84  C   UNL A   1      44.156  39.792  33.030  1.00  0.00     0.020 A 
ATOM     85  C   UNL A   1      43.493  40.727  32.234  1.00  0.00     0.054 A 
BRANCH  85  86
ATOM     86  S   UNL A   1      43.052  42.357  32.897  1.00  0.00     0.124 S 
ATOM     87  O   UNL A   1      42.749  43.105  31.679  1.00  0.00    -0.237 OA
ATOM     88  O   UNL A   1      41.906  42.055  33.750  1.00  0.00    -0.237 OA
ATOM     89  O   UNL A   1      44.257  42.780  33.605  1.00  0.00    -0.744 OA
ENDBRANCH  85  86
ENDBRANCH  66  80
BRANCH  67  90
ATOM     90  C   UNL A   1      46.052  29.088  27.435  1.00  0.00    -0.014 A 
ATOM     91  C   UNL A   1      45.603  28.751  26.146  1.00  0.00     0.010 A 
ATOM     92  C   UNL A   1      46.780  28.135  28.173  1.00  0.00     0.010 A 
ATOM     93  C   UNL A   1      45.858  27.483  25.613  1.00  0.00     0.020 A 
ATOM     94  C   UNL A   1      47.061  26.876  27.633  1.00  0.00     0.020 A 
ATOM     95  C   UNL A   1      46.588  26.554  26.361  1.00  0.00     0.054 A 
BRANCH  95  96
ATOM     96  S   UNL A   1      46.949  24.933  25.630  1.00  0.00     0.124 S 
ATOM     97  O   UNL A   1      45.677  24.237  25.790  1.00  0.00    -0.237 OA
ATOM     98  O   UNL A   1      47.317  25.278  24.260  1.00  0.00    -0.237 OA
ATOM     99  O   UNL A   1      48.048  24.428  26.452  1.00  0.00    -0.744 OA
ENDBRANCH  95  96
ENDBRANCH  67  90
BRANCH  79 100
ATOM    100  C   UNL A   1      49.150  35.316  26.853  1.00  0.00    -0.014 A 
ATOM    101  C   UNL A   1      50.424  35.242  27.441  1.00  0.00     0.010 A 
ATOM    102  C   UNL A   1      49.028  35.755  25.522  1.00  0.00     0.010 A 
ATOM    103  C   UNL A   1      51.555  35.628  26.719  1.00  0.00     0.020 A 
ATOM    104  C   UNL A   1      50.160  36.114  24.787  1.00  0.00     0.020 A 
ATOM    105  C   UNL A   1      51.414  36.060  25.396  1.00  0.00     0.054 A 
BRANCH 105 106
ATOM    106  S   UNL A   1      52.905  36.506  24.464  1.00  0.00     0.124 S 
ATOM    107  O   UNL A   1      53.948  35.810  25.211  1.00  0.00    -0.237 OA
ATOM    108  O   UNL A   1      52.622  35.972  23.134  1.00  0.00    -0.237 OA
ATOM    109  O   UNL A   1      52.943  37.964  24.550  1.00  0.00    -0.744 OA
ENDBRANCH 105 106
ENDBRANCH  79 100
ENDBRANCH  53  54
ENDBRANCH  45  48
ENDBRANCH  43  44
ENDBRANCH  42  43
ENDBRANCH   1  42
TORSDOF 21
ENDMDL
MODEL 3
REMARK VINA RESULT:     -12.9      4.305      6.933
REMARK SMILES C[C@]12CC[C@H]3[C@@H](CCC4=CC(=O)C=C[C@@]43C)[C@@H]1CC[C@H]2O[C@@H]1O[C@H](C(=O)NCCCCCCNC(=O)c2ccc(-c3c4nc(c(-c5ccc(S(=O)(=O)[O-])cc5)c5ccc([nH]5)c(-c5ccc(S(=O)(=O)[O-])cc5)c5nc(c(-c6ccc(S(=O)(=O)[O-])cc6)c6ccc3[nH]6)C=C5)C=C4)cc2)[C@@H](O)[C@H](O)[C@H]1O
REMARK SMILES IDX 31 1 30 2 29 3 28 4 27 5 25 6 26 7 24 9 22 10 23 11 101 12
REMARK SMILES IDX 99 13 97 14 21 15 20 16 1 17 2 18 3 19 17 20 4 21 6 22 18 23
REMARK SMILES IDX 19 24 5 25 7 26 15 27 8 28 9 29 14 30 16 31 10 32 13 33
REMARK SMILES IDX 11 34 12 35 102 36 100 38 98 40 32 42 33 43 34 44 35 45
REMARK SMILES IDX 36 47 37 48 38 49 96 50 39 51 95 52 40 53 41 54 42 55 89 56
REMARK SMILES IDX 43 57 94 58 88 59 90 60 44 61 93 62 87 63 86 64 45 66 75 67
REMARK SMILES IDX 56 68 74 69 57 70 60 71 73 72 91 73 58 74 59 75 72 77 92 78
REMARK SMILES IDX 61 79 46 80 47 81 55 82 48 83 54 84 49 85 50 86 51 87 52 88
REMARK SMILES IDX 53 89 76 90 77 91 85 92 78 93 84 94 79 95 80 96 81 97 82 98
REMARK SMILES IDX 83 99 62 100 63 101 71 102 64 103 70 104 65 105 66 106
REMARK SMILES IDX 67 107 68 108 69 109
REMARK H PARENT 27 8 102 37 100 39 98 41 34 46 90 65 60 76
REMARK Flexibility Score: inf
ROOT
ATOM      1  C   UNL A   1      39.132  33.240  29.894  1.00  0.00     0.002 C 
ENDROOT
BRANCH   1   2
ATOM      2  C   UNL A   1      37.911  32.440  29.447  1.00  0.00     0.002 C 
BRANCH   2   3
ATOM      3  C   UNL A   1      36.563  33.005  28.638  1.00  0.00     0.021 C 
BRANCH   3   4
ATOM      4  C   UNL A   1      35.496  34.709  28.000  1.00  0.00     0.116 C 
BRANCH   4   5
ATOM      5  N   UNL A   1      34.092  35.294  28.147  1.00  0.00    -0.354 N 
ATOM      6  C   UNL A   1      33.242  35.515  29.207  1.00  0.00     0.252 C 
ATOM      7  O   UNL A   1      32.153  36.036  28.925  1.00  0.00    -0.272 OA
ATOM      8  H   UNL A   1      33.707  35.578  27.287  1.00  0.00     0.163 HD
BRANCH   6   9
ATOM      9  C   UNL A   1      33.547  35.168  30.697  1.00  0.00     0.241 C 
ATOM     10  C   UNL A   1      35.165  34.300  32.294  1.00  0.00     0.282 C 
ATOM     11  O   UNL A   1      34.852  34.648  30.939  1.00  0.00    -0.334 OA
ATOM     12  C   UNL A   1      34.733  35.353  33.353  1.00  0.00     0.202 C 
ATOM     13  C   UNL A   1      33.346  35.930  33.066  1.00  0.00     0.180 C 
ATOM     14  C   UNL A   1      33.213  36.355  31.604  1.00  0.00     0.184 C 
BRANCH  10  15
ATOM     15  O   UNL A   1      36.526  33.838  32.453  1.00  0.00    -0.346 OA
BRANCH  15  16
ATOM     16  C   UNL A   1      37.115  33.231  33.620  1.00  0.00     0.127 C 
ATOM     17  C   UNL A   1      37.795  31.118  34.890  1.00  0.00     0.014 C 
ATOM     18  C   UNL A   1      37.637  31.775  33.477  1.00  0.00    -0.003 C 
ATOM     19  C   UNL A   1      36.729  30.799  32.676  1.00  0.00     0.010 C 
ATOM     20  C   UNL A   1      39.020  32.132  32.878  1.00  0.00     0.001 C 
ATOM     21  C   UNL A   1      37.405  29.474  32.213  1.00  0.00     0.006 C 
ATOM     22  C   UNL A   1      39.797  30.920  32.464  1.00  0.00    -0.003 C 
ATOM     23  C   UNL A   1      39.595  33.183  33.818  1.00  0.00     0.007 C 
ATOM     24  C   UNL A   1      38.330  33.981  34.238  1.00  0.00     0.033 C 
ATOM     25  C   UNL A   1      38.596  29.848  31.336  1.00  0.00     0.006 C 
ATOM     26  C   UNL A   1      41.624  31.230  31.847  1.00  0.00     0.009 C 
ATOM     27  C   UNL A   1      39.348  28.523  30.109  1.00  0.00     0.010 C 
ATOM     28  C   UNL A   1      42.357  29.945  30.560  1.00  0.00     0.032 C 
ATOM     29  C   UNL A   1      41.189  28.740  29.616  1.00  0.00    -0.056 C 
ATOM     30  C   UNL A   1      38.587  28.352  28.771  1.00  0.00    -0.012 C 
ATOM     31  C   UNL A   1      38.974  27.059  30.596  1.00  0.00     0.021 C 
ATOM     32  C   UNL A   1      41.574  28.301  28.406  1.00  0.00     0.052 C 
ATOM     33  C   UNL A   1      39.159  27.924  27.631  1.00  0.00     0.048 C 
ATOM     34  C   UNL A   1      40.619  27.701  27.440  1.00  0.00     0.178 C 
ATOM     35  O   UNL A   1      41.032  27.137  26.432  1.00  0.00    -0.290 OA
ENDBRANCH  15  16
ENDBRANCH  10  15
BRANCH  12  36
ATOM     36  O   UNL A   1      34.777  34.837  34.692  1.00  0.00    -0.385 OA
ATOM     37  H   UNL A   1      35.697  34.808  34.997  1.00  0.00     0.211 HD
ENDBRANCH  12  36
BRANCH  13  38
ATOM     38  O   UNL A   1      33.061  37.091  33.871  1.00  0.00    -0.387 OA
ATOM     39  H   UNL A   1      32.126  37.084  34.131  1.00  0.00     0.211 HD
ENDBRANCH  13  38
BRANCH  14  40
ATOM     40  O   UNL A   1      31.878  36.829  31.405  1.00  0.00    -0.387 OA
ATOM     41  H   UNL A   1      31.865  37.797  31.466  1.00  0.00     0.211 HD
ENDBRANCH  14  40
ENDBRANCH   6   9
ENDBRANCH   4   5
ENDBRANCH   3   4
ENDBRANCH   2   3
ENDBRANCH   1   2
BRANCH   1  42
ATOM     42  C   UNL A   1      39.368  34.524  29.103  1.00  0.00     0.021 C 
BRANCH  42  43
ATOM     43  C   UNL A   1      40.829  34.987  29.059  1.00  0.00     0.116 C 
BRANCH  43  44
ATOM     44  N   UNL A   1      41.032  36.130  28.170  1.00  0.00    -0.352 N 
ATOM     45  C   UNL A   1      42.095  36.355  27.337  1.00  0.00     0.251 C 
ATOM     46  H   UNL A   1      40.325  36.815  28.171  1.00  0.00     0.163 HD
ATOM     47  O   UNL A   1      42.267  37.420  26.755  1.00  0.00    -0.269 OA
BRANCH  45  48
ATOM     48  C   UNL A   1      42.999  35.221  27.144  1.00  0.00     0.039 A 
ATOM     49  C   UNL A   1      43.339  34.812  25.856  1.00  0.00     0.014 A 
ATOM     50  C   UNL A   1      43.663  34.741  28.278  1.00  0.00     0.014 A 
ATOM     51  C   UNL A   1      44.388  33.912  25.701  1.00  0.00     0.010 A 
ATOM     52  C   UNL A   1      44.754  33.909  28.111  1.00  0.00     0.010 A 
ATOM     53  C   UNL A   1      45.107  33.471  26.825  1.00  0.00    -0.014 A 
BRANCH  53  54
ATOM     54  C   UNL A   1      46.201  32.488  26.689  1.00  0.00     0.031 A 
ATOM     55  C   UNL A   1      47.604  32.993  26.515  1.00  0.00     0.074 A 
ATOM     56  C   UNL A   1      45.922  31.170  26.671  1.00  0.00     0.049 A 
ATOM     57  N   UNL A   1      48.708  32.316  26.345  1.00  0.00    -0.248 NA
ATOM     58  C   UNL A   1      47.787  34.457  26.491  1.00  0.00     0.031 C 
ATOM     59  C   UNL A   1      44.584  30.583  26.775  1.00  0.00     0.029 A 
ATOM     60  N   UNL A   1      46.752  30.087  26.560  1.00  0.00    -0.354 N 
ATOM     61  C   UNL A   1      49.706  33.269  26.177  1.00  0.00     0.074 A 
ATOM     62  C   UNL A   1      49.070  34.565  26.190  1.00  0.00     0.031 C 
ATOM     63  C   UNL A   1      44.691  29.243  26.763  1.00  0.00     0.029 A 
ATOM     64  C   UNL A   1      46.096  28.880  26.619  1.00  0.00     0.049 A 
ATOM     65  H   UNL A   1      47.728  30.165  26.449  1.00  0.00     0.167 HD
ATOM     66  C   UNL A   1      51.039  33.080  26.058  1.00  0.00     0.031 A 
ATOM     67  C   UNL A   1      46.584  27.625  26.571  1.00  0.00     0.031 A 
ATOM     68  C   UNL A   1      51.656  31.785  26.078  1.00  0.00     0.049 A 
ATOM     69  C   UNL A   1      48.073  27.439  26.454  1.00  0.00     0.074 A 
ATOM     70  C   UNL A   1      53.000  31.470  26.029  1.00  0.00     0.029 A 
ATOM     71  N   UNL A   1      50.961  30.586  26.158  1.00  0.00    -0.354 N 
ATOM     72  N   UNL A   1      49.013  28.353  26.374  1.00  0.00    -0.248 NA
ATOM     73  C   UNL A   1      48.570  26.059  26.439  1.00  0.00     0.031 C 
ATOM     74  C   UNL A   1      53.117  30.077  26.031  1.00  0.00     0.029 A 
ATOM     75  C   UNL A   1      51.847  29.526  26.139  1.00  0.00     0.049 A 
ATOM     76  H   UNL A   1      49.982  30.504  26.221  1.00  0.00     0.167 HD
ATOM     77  C   UNL A   1      50.215  27.658  26.321  1.00  0.00     0.074 A 
ATOM     78  C   UNL A   1      49.882  26.248  26.398  1.00  0.00     0.031 C 
ATOM     79  C   UNL A   1      51.480  28.135  26.217  1.00  0.00     0.031 A 
BRANCH  66  80
ATOM     80  C   UNL A   1      51.901  34.304  25.905  1.00  0.00    -0.014 A 
ATOM     81  C   UNL A   1      52.453  34.950  27.028  1.00  0.00     0.010 A 
ATOM     82  C   UNL A   1      52.173  34.812  24.622  1.00  0.00     0.010 A 
ATOM     83  C   UNL A   1      53.222  36.106  26.874  1.00  0.00     0.020 A 
ATOM     84  C   UNL A   1      52.969  35.950  24.462  1.00  0.00     0.020 A 
ATOM     85  C   UNL A   1      53.473  36.600  25.591  1.00  0.00     0.054 A 
BRANCH  85  86
ATOM     86  S   UNL A   1      54.495  38.088  25.420  1.00  0.00     0.124 S 
ATOM     87  O   UNL A   1      53.487  39.145  25.407  1.00  0.00    -0.237 OA
ATOM     88  O   UNL A   1      55.336  38.037  26.613  1.00  0.00    -0.237 OA
ATOM     89  O   UNL A   1      55.198  37.882  24.156  1.00  0.00    -0.744 OA
ENDBRANCH  85  86
ENDBRANCH  66  80
BRANCH  67  90
ATOM     90  C   UNL A   1      45.663  26.461  26.663  1.00  0.00    -0.014 A 
ATOM     91  C   UNL A   1      45.054  25.935  25.509  1.00  0.00     0.010 A 
ATOM     92  C   UNL A   1      45.399  25.856  27.907  1.00  0.00     0.010 A 
ATOM     93  C   UNL A   1      44.186  24.842  25.598  1.00  0.00     0.020 A 
ATOM     94  C   UNL A   1      44.553  24.747  27.996  1.00  0.00     0.020 A 
ATOM     95  C   UNL A   1      43.942  24.254  26.843  1.00  0.00     0.054 A 
BRANCH  95  96
ATOM     96  S   UNL A   1      42.851  22.807  26.929  1.00  0.00     0.124 S 
ATOM     97  O   UNL A   1      43.660  21.778  26.285  1.00  0.00    -0.237 OA
ATOM     98  O   UNL A   1      42.647  22.649  28.366  1.00  0.00    -0.237 OA
ATOM     99  O   UNL A   1      41.666  23.231  26.184  1.00  0.00    -0.744 OA
ENDBRANCH  95  96
ENDBRANCH  67  90
BRANCH  79 100
ATOM    100  C   UNL A   1      52.596  27.128  26.203  1.00  0.00    -0.014 A 
ATOM    101  C   UNL A   1      53.201  26.734  24.997  1.00  0.00     0.010 A 
ATOM    102  C   UNL A   1      53.091  26.628  27.421  1.00  0.00     0.010 A 
ATOM    103  C   UNL A   1      54.267  25.832  25.008  1.00  0.00     0.020 A 
ATOM    104  C   UNL A   1      54.176  25.749  27.437  1.00  0.00     0.020 A 
ATOM    105  C   UNL A   1      54.748  25.347  26.229  1.00  0.00     0.054 A 
BRANCH 105 106
ATOM    106  S   UNL A   1      56.167  24.218  26.217  1.00  0.00     0.124 S 
ATOM    107  O   UNL A   1      55.531  22.932  26.490  1.00  0.00    -0.237 OA
ATOM    108  O   UNL A   1      56.696  24.383  24.866  1.00  0.00    -0.237 OA
ATOM    109  O   UNL A   1      57.025  24.729  27.284  1.00  0.00    -0.744 OA
ENDBRANCH 105 106
ENDBRANCH  79 100
ENDBRANCH  53  54
ENDBRANCH  45  48
ENDBRANCH  43  44
ENDBRANCH  42  43
ENDBRANCH   1  42
TORSDOF 21
ENDMDL
