MODEL 1
REMARK VINA RESULT:     -10.5      0.000      0.000
REMARK SMILES CC(C)=CC(=O)Nc1ccc(C(=O)NCCCCCCNC(=O)c2ccc(-c3c4nc(c(-c5ccc(S(=O)(=O)[O-])cc5)c5ccc([nH]5)c(-c5ccc(S(=O)(=O)[O-])cc5)c5nc(c(-c6ccc(S(=O)(=O)[O-])cc6)c6ccc3[nH]6)C=C5)C=C4)cc2)cc1
REMARK SMILES IDX 18 1 17 2 16 3 15 4 14 5 12 6 13 7 11 9 8 10 9 11 85 12
REMARK SMILES IDX 10 13 84 14 7 15 5 16 6 17 4 19 1 20 2 21 3 22 19 23 20 24
REMARK SMILES IDX 21 25 22 26 23 28 24 29 25 30 83 31 26 32 82 33 27 34 28 35
REMARK SMILES IDX 29 36 76 37 30 38 81 39 75 40 77 41 31 42 80 43 74 44 73 45
REMARK SMILES IDX 32 47 62 48 43 49 61 50 44 51 47 52 60 53 78 54 45 55 46 56
REMARK SMILES IDX 59 58 79 59 48 60 33 61 34 62 42 63 35 64 41 65 36 66 37 67
REMARK SMILES IDX 38 68 39 69 40 70 63 71 64 72 72 73 65 74 71 75 66 76 67 77
REMARK SMILES IDX 68 78 69 79 70 80 49 81 50 82 58 83 51 84 57 85 52 86 53 87
REMARK SMILES IDX 54 88 55 89 56 90
REMARK H PARENT 14 8 7 18 21 27 77 46 47 57
REMARK Flexibility Score: inf
ROOT
ATOM      1  C   UNL A   1      31.715  28.186  25.547  1.00  0.00     0.002 C 
ENDROOT
BRANCH   1   2
ATOM      2  C   UNL A   1      32.488  28.738  24.342  1.00  0.00     0.002 C 
BRANCH   2   3
ATOM      3  C   UNL A   1      31.632  28.997  23.096  1.00  0.00     0.021 C 
BRANCH   3   4
ATOM      4  C   UNL A   1      30.896  27.749  22.602  1.00  0.00     0.116 C 
BRANCH   4   5
ATOM      5  N   UNL A   1      31.662  27.110  21.544  1.00  0.00    -0.352 N 
ATOM      6  C   UNL A   1      32.562  26.075  21.556  1.00  0.00     0.251 C 
ATOM      7  O   UNL A   1      33.089  25.743  20.496  1.00  0.00    -0.269 OA
ATOM      8  H   UNL A   1      31.504  27.493  20.650  1.00  0.00     0.163 HD
BRANCH   6   9
ATOM      9  C   UNL A   1      32.826  25.276  22.780  1.00  0.00     0.039 A 
ATOM     10  C   UNL A   1      32.912  24.068  25.292  1.00  0.00     0.041 A 
ATOM     11  C   UNL A   1      31.911  23.709  24.390  1.00  0.00     0.027 A 
ATOM     12  C   UNL A   1      33.970  24.873  24.871  1.00  0.00     0.027 A 
ATOM     13  C   UNL A   1      31.847  24.343  23.149  1.00  0.00     0.016 A 
ATOM     14  C   UNL A   1      33.947  25.443  23.596  1.00  0.00     0.016 A 
BRANCH  10  15
ATOM     15  N   UNL A   1      32.764  23.649  26.617  1.00  0.00    -0.323 N 
ATOM     16  C   UNL A   1      33.213  22.513  27.227  1.00  0.00     0.248 C 
ATOM     17  O   UNL A   1      32.828  22.242  28.366  1.00  0.00    -0.270 OA
ATOM     18  H   UNL A   1      32.261  24.265  27.197  1.00  0.00     0.170 HD
BRANCH  16  19
ATOM     19  C   UNL A   1      34.204  21.607  26.579  1.00  0.00     0.070 C 
ATOM     20  C   UNL A   1      32.667  20.223  25.088  1.00  0.00     0.039 C 
ATOM     21  C   UNL A   1      33.996  20.648  25.652  1.00  0.00    -0.071 C 
ATOM     22  C   UNL A   1      35.166  19.918  25.040  1.00  0.00     0.039 C 
ENDBRANCH  16  19
ENDBRANCH  10  15
ENDBRANCH   6   9
ENDBRANCH   4   5
ENDBRANCH   3   4
ENDBRANCH   2   3
ENDBRANCH   1   2
BRANCH   1  23
ATOM     23  C   UNL A   1      32.581  27.563  26.646  1.00  0.00     0.021 C 
BRANCH  23  24
ATOM     24  C   UNL A   1      33.896  28.290  26.919  1.00  0.00     0.116 C 
BRANCH  24  25
ATOM     25  N   UNL A   1      33.682  29.655  27.366  1.00  0.00    -0.352 N 
ATOM     26  C   UNL A   1      34.492  30.472  28.112  1.00  0.00     0.251 C 
ATOM     27  H   UNL A   1      32.825  30.055  27.090  1.00  0.00     0.163 HD
ATOM     28  O   UNL A   1      34.044  31.528  28.551  1.00  0.00    -0.269 OA
BRANCH  26  29
ATOM     29  C   UNL A   1      35.891  30.086  28.405  1.00  0.00     0.039 A 
ATOM     30  C   UNL A   1      36.836  30.174  27.377  1.00  0.00     0.014 A 
ATOM     31  C   UNL A   1      36.268  29.592  29.658  1.00  0.00     0.014 A 
ATOM     32  C   UNL A   1      38.161  29.805  27.617  1.00  0.00     0.010 A 
ATOM     33  C   UNL A   1      37.605  29.283  29.913  1.00  0.00     0.010 A 
ATOM     34  C   UNL A   1      38.563  29.373  28.892  1.00  0.00    -0.014 A 
BRANCH  34  35
ATOM     35  C   UNL A   1      39.980  29.014  29.158  1.00  0.00     0.031 A 
ATOM     36  C   UNL A   1      40.914  30.005  29.801  1.00  0.00     0.074 A 
ATOM     37  C   UNL A   1      40.436  27.800  28.794  1.00  0.00     0.049 A 
ATOM     38  N   UNL A   1      42.173  29.859  30.127  1.00  0.00    -0.248 NA
ATOM     39  C   UNL A   1      40.370  31.340  30.097  1.00  0.00     0.031 C 
ATOM     40  C   UNL A   1      39.647  26.768  28.117  1.00  0.00     0.029 A 
ATOM     41  N   UNL A   1      41.673  27.225  28.945  1.00  0.00    -0.354 N 
ATOM     42  C   UNL A   1      42.574  31.080  30.656  1.00  0.00     0.074 A 
ATOM     43  C   UNL A   1      41.438  31.972  30.562  1.00  0.00     0.031 C 
ATOM     44  C   UNL A   1      40.409  25.676  27.942  1.00  0.00     0.029 A 
ATOM     45  C   UNL A   1      41.745  25.938  28.469  1.00  0.00     0.049 A 
ATOM     46  H   UNL A   1      42.436  27.692  29.357  1.00  0.00     0.167 HD
ATOM     47  C   UNL A   1      43.772  31.425  31.188  1.00  0.00     0.031 A 
ATOM     48  C   UNL A   1      42.767  25.062  28.465  1.00  0.00     0.031 A 
ATOM     49  C   UNL A   1      44.897  30.534  31.293  1.00  0.00     0.049 A 
ATOM     50  C   UNL A   1      44.078  25.457  29.084  1.00  0.00     0.074 A 
ATOM     51  C   UNL A   1      46.135  30.773  31.866  1.00  0.00     0.029 A 
ATOM     52  N   UNL A   1      44.923  29.233  30.815  1.00  0.00    -0.354 N 
ATOM     53  N   UNL A   1      44.416  26.596  29.639  1.00  0.00    -0.248 NA
ATOM     54  C   UNL A   1      45.139  24.441  29.093  1.00  0.00     0.031 C 
ATOM     55  C   UNL A   1      46.923  29.629  31.698  1.00  0.00     0.029 A 
ATOM     56  C   UNL A   1      46.160  28.661  31.065  1.00  0.00     0.049 A 
ATOM     57  H   UNL A   1      44.174  28.781  30.364  1.00  0.00     0.167 HD
ATOM     58  C   UNL A   1      45.722  26.426  30.086  1.00  0.00     0.074 A 
ATOM     59  C   UNL A   1      46.105  25.070  29.750  1.00  0.00     0.031 C 
ATOM     60  C   UNL A   1      46.530  27.313  30.717  1.00  0.00     0.031 A 
BRANCH  47  61
ATOM     61  C   UNL A   1      43.923  32.834  31.699  1.00  0.00    -0.014 A 
ATOM     62  C   UNL A   1      43.679  33.146  33.049  1.00  0.00     0.010 A 
ATOM     63  C   UNL A   1      44.346  33.853  30.827  1.00  0.00     0.010 A 
ATOM     64  C   UNL A   1      43.812  34.459  33.508  1.00  0.00     0.020 A 
ATOM     65  C   UNL A   1      44.506  35.164  31.289  1.00  0.00     0.020 A 
ATOM     66  C   UNL A   1      44.219  35.462  32.623  1.00  0.00     0.054 A 
BRANCH  66  67
ATOM     67  S   UNL A   1      44.398  37.155  33.248  1.00  0.00     0.124 S 
ATOM     68  O   UNL A   1      45.208  36.948  34.446  1.00  0.00    -0.237 OA
ATOM     69  O   UNL A   1      45.072  37.837  32.145  1.00  0.00    -0.237 OA
ATOM     70  O   UNL A   1      43.022  37.581  33.491  1.00  0.00    -0.744 OA
ENDBRANCH  66  67
ENDBRANCH  47  61
BRANCH  48  71
ATOM     71  C   UNL A   1      42.577  23.706  27.882  1.00  0.00    -0.014 A 
ATOM     72  C   UNL A   1      42.078  22.655  28.671  1.00  0.00     0.010 A 
ATOM     73  C   UNL A   1      42.874  23.466  26.529  1.00  0.00     0.010 A 
ATOM     74  C   UNL A   1      41.895  21.383  28.120  1.00  0.00     0.020 A 
ATOM     75  C   UNL A   1      42.669  22.202  25.968  1.00  0.00     0.020 A 
ATOM     76  C   UNL A   1      42.190  21.165  26.772  1.00  0.00     0.054 A 
BRANCH  76  77
ATOM     77  S   UNL A   1      41.888  19.523  26.061  1.00  0.00     0.124 S 
ATOM     78  O   UNL A   1      42.336  18.641  27.134  1.00  0.00    -0.237 OA
ATOM     79  O   UNL A   1      40.448  19.543  25.816  1.00  0.00    -0.237 OA
ATOM     80  O   UNL A   1      42.716  19.518  24.857  1.00  0.00    -0.744 OA
ENDBRANCH  76  77
ENDBRANCH  48  71
BRANCH  60  81
ATOM     81  C   UNL A   1      47.901  26.832  31.108  1.00  0.00    -0.014 A 
ATOM     82  C   UNL A   1      48.116  26.156  32.323  1.00  0.00     0.010 A 
ATOM     83  C   UNL A   1      48.986  27.039  30.237  1.00  0.00     0.010 A 
ATOM     84  C   UNL A   1      49.400  25.735  32.679  1.00  0.00     0.020 A 
ATOM     85  C   UNL A   1      50.267  26.597  30.579  1.00  0.00     0.020 A 
ATOM     86  C   UNL A   1      50.469  25.965  31.807  1.00  0.00     0.054 A 
BRANCH  86  87
ATOM     87  S   UNL A   1      52.125  25.398  32.282  1.00  0.00     0.124 S 
ATOM     88  O   UNL A   1      51.899  23.976  32.527  1.00  0.00    -0.237 OA
ATOM     89  O   UNL A   1      52.925  25.714  31.101  1.00  0.00    -0.237 OA
ATOM     90  O   UNL A   1      52.435  26.194  33.467  1.00  0.00    -0.744 OA
ENDBRANCH  86  87
ENDBRANCH  60  81
ENDBRANCH  34  35
ENDBRANCH  26  29
ENDBRANCH  24  25
ENDBRANCH  23  24
ENDBRANCH   1  23
TORSDOF 18
ENDMDL
MODEL 2
REMARK VINA RESULT:     -10.3      2.823      3.338
REMARK SMILES CC(C)=CC(=O)Nc1ccc(C(=O)NCCCCCCNC(=O)c2ccc(-c3c4nc(c(-c5ccc(S(=O)(=O)[O-])cc5)c5ccc([nH]5)c(-c5ccc(S(=O)(=O)[O-])cc5)c5nc(c(-c6ccc(S(=O)(=O)[O-])cc6)c6ccc3[nH]6)C=C5)C=C4)cc2)cc1
REMARK SMILES IDX 18 1 17 2 16 3 15 4 14 5 12 6 13 7 11 9 8 10 9 11 85 12
REMARK SMILES IDX 10 13 84 14 7 15 5 16 6 17 4 19 1 20 2 21 3 22 19 23 20 24
REMARK SMILES IDX 21 25 22 26 23 28 24 29 25 30 83 31 26 32 82 33 27 34 28 35
REMARK SMILES IDX 29 36 76 37 30 38 81 39 75 40 77 41 31 42 80 43 74 44 73 45
REMARK SMILES IDX 32 47 62 48 43 49 61 50 44 51 47 52 60 53 78 54 45 55 46 56
REMARK SMILES IDX 59 58 79 59 48 60 33 61 34 62 42 63 35 64 41 65 36 66 37 67
REMARK SMILES IDX 38 68 39 69 40 70 63 71 64 72 72 73 65 74 71 75 66 76 67 77
REMARK SMILES IDX 68 78 69 79 70 80 49 81 50 82 58 83 51 84 57 85 52 86 53 87
REMARK SMILES IDX 54 88 55 89 56 90
REMARK H PARENT 14 8 7 18 21 27 77 46 47 57
REMARK Flexibility Score: inf
ROOT
ATOM      1  C   UNL A   1      31.738  28.169  25.220  1.00  0.00     0.002 C 
ENDROOT
BRANCH   1   2
ATOM      2  C   UNL A   1      32.208  28.853  23.929  1.00  0.00     0.002 C 
BRANCH   2   3
ATOM      3  C   UNL A   1      31.285  28.644  22.721  1.00  0.00     0.021 C 
BRANCH   3   4
ATOM      4  C   UNL A   1      30.908  27.177  22.501  1.00  0.00     0.116 C 
BRANCH   4   5
ATOM      5  N   UNL A   1      31.635  26.646  21.359  1.00  0.00    -0.352 N 
ATOM      6  C   UNL A   1      32.680  25.762  21.265  1.00  0.00     0.251 C 
ATOM      7  O   UNL A   1      33.126  25.498  20.150  1.00  0.00    -0.269 OA
ATOM      8  H   UNL A   1      31.318  26.985  20.491  1.00  0.00     0.163 HD
BRANCH   6   9
ATOM      9  C   UNL A   1      33.205  25.034  22.448  1.00  0.00     0.039 A 
ATOM     10  C   UNL A   1      33.674  23.694  24.848  1.00  0.00     0.041 A 
ATOM     11  C   UNL A   1      33.058  23.021  23.793  1.00  0.00     0.027 A 
ATOM     12  C   UNL A   1      34.225  24.957  24.638  1.00  0.00     0.027 A 
ATOM     13  C   UNL A   1      32.790  23.705  22.608  1.00  0.00     0.016 A 
ATOM     14  C   UNL A   1      34.026  25.610  23.420  1.00  0.00     0.016 A 
BRANCH  10  15
ATOM     15  N   UNL A   1      33.646  23.082  26.104  1.00  0.00    -0.323 N 
ATOM     16  C   UNL A   1      34.222  21.916  26.519  1.00  0.00     0.248 C 
ATOM     17  O   UNL A   1      33.936  21.456  27.625  1.00  0.00    -0.270 OA
ATOM     18  H   UNL A   1      33.134  23.564  26.794  1.00  0.00     0.170 HD
BRANCH  16  19
ATOM     19  C   UNL A   1      35.239  21.201  25.695  1.00  0.00     0.070 C 
ATOM     20  C   UNL A   1      37.158  22.880  25.764  1.00  0.00     0.039 C 
ATOM     21  C   UNL A   1      36.497  21.582  25.385  1.00  0.00    -0.071 C 
ATOM     22  C   UNL A   1      37.406  20.648  24.626  1.00  0.00     0.039 C 
ENDBRANCH  16  19
ENDBRANCH  10  15
ENDBRANCH   6   9
ENDBRANCH   4   5
ENDBRANCH   3   4
ENDBRANCH   2   3
ENDBRANCH   1   2
BRANCH   1  23
ATOM     23  C   UNL A   1      32.820  27.981  26.288  1.00  0.00     0.021 C 
BRANCH  23  24
ATOM     24  C   UNL A   1      34.043  28.883  26.132  1.00  0.00     0.116 C 
BRANCH  24  25
ATOM     25  N   UNL A   1      33.753  30.261  26.489  1.00  0.00    -0.352 N 
ATOM     26  C   UNL A   1      34.323  31.056  27.450  1.00  0.00     0.251 C 
ATOM     27  H   UNL A   1      33.040  30.688  25.962  1.00  0.00     0.163 HD
ATOM     28  O   UNL A   1      33.801  32.133  27.728  1.00  0.00    -0.269 OA
BRANCH  26  29
ATOM     29  C   UNL A   1      35.547  30.623  28.162  1.00  0.00     0.039 A 
ATOM     30  C   UNL A   1      36.779  31.132  27.741  1.00  0.00     0.014 A 
ATOM     31  C   UNL A   1      35.497  29.686  29.200  1.00  0.00     0.014 A 
ATOM     32  C   UNL A   1      37.953  30.733  28.384  1.00  0.00     0.010 A 
ATOM     33  C   UNL A   1      36.665  29.336  29.881  1.00  0.00     0.010 A 
ATOM     34  C   UNL A   1      37.905  29.846  29.471  1.00  0.00    -0.014 A 
BRANCH  34  35
ATOM     35  C   UNL A   1      39.151  29.448  30.178  1.00  0.00     0.031 A 
ATOM     36  C   UNL A   1      39.570  30.149  31.443  1.00  0.00     0.074 A 
ATOM     37  C   UNL A   1      39.921  28.470  29.665  1.00  0.00     0.049 A 
ATOM     38  N   UNL A   1      40.611  29.922  32.204  1.00  0.00    -0.248 NA
ATOM     39  C   UNL A   1      38.724  31.262  31.902  1.00  0.00     0.031 C 
ATOM     40  C   UNL A   1      39.653  27.747  28.419  1.00  0.00     0.029 A 
ATOM     41  N   UNL A   1      41.086  27.911  30.127  1.00  0.00    -0.354 N 
ATOM     42  C   UNL A   1      40.551  30.866  33.222  1.00  0.00     0.074 A 
ATOM     43  C   UNL A   1      39.399  31.701  32.955  1.00  0.00     0.031 C 
ATOM     44  C   UNL A   1      40.606  26.819  28.235  1.00  0.00     0.029 A 
ATOM     45  C   UNL A   1      41.566  26.898  29.332  1.00  0.00     0.049 A 
ATOM     46  H   UNL A   1      41.535  28.208  30.952  1.00  0.00     0.167 HD
ATOM     47  C   UNL A   1      41.369  31.016  34.293  1.00  0.00     0.031 A 
ATOM     48  C   UNL A   1      42.650  26.112  29.473  1.00  0.00     0.031 A 
ATOM     49  C   UNL A   1      42.507  30.179  34.565  1.00  0.00     0.049 A 
ATOM     50  C   UNL A   1      43.527  26.279  30.682  1.00  0.00     0.074 A 
ATOM     51  C   UNL A   1      43.364  30.216  35.652  1.00  0.00     0.029 A 
ATOM     52  N   UNL A   1      42.948  29.152  33.744  1.00  0.00    -0.354 N 
ATOM     53  N   UNL A   1      43.415  27.135  31.669  1.00  0.00    -0.248 NA
ATOM     54  C   UNL A   1      44.667  25.360  30.805  1.00  0.00     0.031 C 
ATOM     55  C   UNL A   1      44.348  29.237  35.468  1.00  0.00     0.029 A 
ATOM     56  C   UNL A   1      44.074  28.559  34.292  1.00  0.00     0.049 A 
ATOM     57  H   UNL A   1      42.525  28.884  32.897  1.00  0.00     0.167 HD
ATOM     58  C   UNL A   1      44.455  26.843  32.544  1.00  0.00     0.074 A 
ATOM     59  C   UNL A   1      45.175  25.721  31.976  1.00  0.00     0.031 C 
ATOM     60  C   UNL A   1      44.786  27.449  33.711  1.00  0.00     0.031 A 
BRANCH  47  61
ATOM     61  C   UNL A   1      41.056  32.135  35.252  1.00  0.00    -0.014 A 
ATOM     62  C   UNL A   1      41.641  33.405  35.101  1.00  0.00     0.010 A 
ATOM     63  C   UNL A   1      40.140  31.923  36.299  1.00  0.00     0.010 A 
ATOM     64  C   UNL A   1      41.351  34.431  36.005  1.00  0.00     0.020 A 
ATOM     65  C   UNL A   1      39.827  32.956  37.190  1.00  0.00     0.020 A 
ATOM     66  C   UNL A   1      40.450  34.197  37.048  1.00  0.00     0.054 A 
BRANCH  66  67
ATOM     67  S   UNL A   1      40.080  35.549  38.198  1.00  0.00     0.124 S 
ATOM     68  O   UNL A   1      38.957  35.001  38.956  1.00  0.00    -0.237 OA
ATOM     69  O   UNL A   1      41.329  35.691  38.943  1.00  0.00    -0.237 OA
ATOM     70  O   UNL A   1      39.751  36.670  37.321  1.00  0.00    -0.744 OA
ENDBRANCH  66  67
ENDBRANCH  47  61
BRANCH  48  71
ATOM     71  C   UNL A   1      42.945  25.069  28.455  1.00  0.00    -0.014 A 
ATOM     72  C   UNL A   1      42.343  23.801  28.537  1.00  0.00     0.010 A 
ATOM     73  C   UNL A   1      43.814  25.346  27.384  1.00  0.00     0.010 A 
ATOM     74  C   UNL A   1      42.618  22.824  27.576  1.00  0.00     0.020 A 
ATOM     75  C   UNL A   1      44.072  24.380  26.408  1.00  0.00     0.020 A 
ATOM     76  C   UNL A   1      43.479  23.120  26.517  1.00  0.00     0.054 A 
BRANCH  76  77
ATOM     77  S   UNL A   1      43.776  21.858  25.247  1.00  0.00     0.124 S 
ATOM     78  O   UNL A   1      42.799  20.834  25.603  1.00  0.00    -0.237 OA
ATOM     79  O   UNL A   1      43.508  22.586  24.008  1.00  0.00    -0.237 OA
ATOM     80  O   UNL A   1      45.175  21.492  25.453  1.00  0.00    -0.744 OA
ENDBRANCH  76  77
ENDBRANCH  48  71
BRANCH  60  81
ATOM     81  C   UNL A   1      45.962  26.890  34.464  1.00  0.00    -0.014 A 
ATOM     82  C   UNL A   1      45.800  25.856  35.404  1.00  0.00     0.010 A 
ATOM     83  C   UNL A   1      47.252  27.391  34.210  1.00  0.00     0.010 A 
ATOM     84  C   UNL A   1      46.902  25.364  36.109  1.00  0.00     0.020 A 
ATOM     85  C   UNL A   1      48.359  26.884  34.896  1.00  0.00     0.020 A 
ATOM     86  C   UNL A   1      48.174  25.887  35.855  1.00  0.00     0.054 A 
BRANCH  86  87
ATOM     87  S   UNL A   1      49.592  25.225  36.770  1.00  0.00     0.124 S 
ATOM     88  O   UNL A   1      50.042  24.146  35.894  1.00  0.00    -0.237 OA
ATOM     89  O   UNL A   1      50.487  26.377  36.859  1.00  0.00    -0.237 OA
ATOM     90  O   UNL A   1      49.013  24.796  38.041  1.00  0.00    -0.744 OA
ENDBRANCH  86  87
ENDBRANCH  60  81
ENDBRANCH  34  35
ENDBRANCH  26  29
ENDBRANCH  24  25
ENDBRANCH  23  24
ENDBRANCH   1  23
TORSDOF 18
ENDMDL
MODEL 3
REMARK VINA RESULT:     -10.2      2.587      8.865
REMARK SMILES CC(C)=CC(=O)Nc1ccc(C(=O)NCCCCCCNC(=O)c2ccc(-c3c4nc(c(-c5ccc(S(=O)(=O)[O-])cc5)c5ccc([nH]5)c(-c5ccc(S(=O)(=O)[O-])cc5)c5nc(c(-c6ccc(S(=O)(=O)[O-])cc6)c6ccc3[nH]6)C=C5)C=C4)cc2)cc1
REMARK SMILES IDX 18 1 17 2 16 3 15 4 14 5 12 6 13 7 11 9 8 10 9 11 85 12
REMARK SMILES IDX 10 13 84 14 7 15 5 16 6 17 4 19 1 20 2 21 3 22 19 23 20 24
REMARK SMILES IDX 21 25 22 26 23 28 24 29 25 30 83 31 26 32 82 33 27 34 28 35
REMARK SMILES IDX 29 36 76 37 30 38 81 39 75 40 77 41 31 42 80 43 74 44 73 45
REMARK SMILES IDX 32 47 62 48 43 49 61 50 44 51 47 52 60 53 78 54 45 55 46 56
REMARK SMILES IDX 59 58 79 59 48 60 33 61 34 62 42 63 35 64 41 65 36 66 37 67
REMARK SMILES IDX 38 68 39 69 40 70 63 71 64 72 72 73 65 74 71 75 66 76 67 77
REMARK SMILES IDX 68 78 69 79 70 80 49 81 50 82 58 83 51 84 57 85 52 86 53 87
REMARK SMILES IDX 54 88 55 89 56 90
REMARK H PARENT 14 8 7 18 21 27 77 46 47 57
REMARK Flexibility Score: inf
ROOT
ATOM      1  C   UNL A   1      34.485  24.470  23.937  1.00  0.00     0.002 C 
ENDROOT
BRANCH   1   2
ATOM      2  C   UNL A   1      33.991  24.688  22.501  1.00  0.00     0.002 C 
BRANCH   2   3
ATOM      3  C   UNL A   1      32.465  24.745  22.351  1.00  0.00     0.021 C 
BRANCH   3   4
ATOM      4  C   UNL A   1      32.004  25.742  21.286  1.00  0.00     0.116 C 
BRANCH   4   5
ATOM      5  N   UNL A   1      32.311  27.098  21.713  1.00  0.00    -0.352 N 
ATOM      6  C   UNL A   1      31.943  27.819  22.821  1.00  0.00     0.251 C 
ATOM      7  O   UNL A   1      32.336  28.979  22.924  1.00  0.00    -0.269 OA
ATOM      8  H   UNL A   1      32.891  27.592  21.090  1.00  0.00     0.163 HD
BRANCH   6   9
ATOM      9  C   UNL A   1      31.189  27.206  23.945  1.00  0.00     0.039 A 
ATOM     10  C   UNL A   1      30.094  25.621  25.961  1.00  0.00     0.041 A 
ATOM     11  C   UNL A   1      31.331  26.233  26.162  1.00  0.00     0.027 A 
ATOM     12  C   UNL A   1      29.327  25.956  24.847  1.00  0.00     0.027 A 
ATOM     13  C   UNL A   1      31.894  26.993  25.137  1.00  0.00     0.016 A 
ATOM     14  C   UNL A   1      29.860  26.786  23.858  1.00  0.00     0.016 A 
BRANCH  10  15
ATOM     15  N   UNL A   1      29.711  24.632  26.871  1.00  0.00    -0.323 N 
ATOM     16  C   UNL A   1      29.846  23.275  26.793  1.00  0.00     0.248 C 
ATOM     17  O   UNL A   1      29.286  22.560  27.624  1.00  0.00    -0.270 OA
ATOM     18  H   UNL A   1      29.279  24.963  27.692  1.00  0.00     0.170 HD
BRANCH  16  19
ATOM     19  C   UNL A   1      30.702  22.625  25.760  1.00  0.00     0.070 C 
ATOM     20  C   UNL A   1      32.972  22.703  26.919  1.00  0.00     0.039 C 
ATOM     21  C   UNL A   1      32.024  22.351  25.805  1.00  0.00    -0.071 C 
ATOM     22  C   UNL A   1      32.676  21.578  24.686  1.00  0.00     0.039 C 
ENDBRANCH  16  19
ENDBRANCH  10  15
ENDBRANCH   6   9
ENDBRANCH   4   5
ENDBRANCH   3   4
ENDBRANCH   2   3
ENDBRANCH   1   2
BRANCH   1  23
ATOM     23  C   UNL A   1      35.738  23.598  24.070  1.00  0.00     0.021 C 
BRANCH  23  24
ATOM     24  C   UNL A   1      36.601  23.893  25.295  1.00  0.00     0.116 C 
BRANCH  24  25
ATOM     25  N   UNL A   1      37.558  22.832  25.555  1.00  0.00    -0.352 N 
ATOM     26  C   UNL A   1      38.796  22.891  26.142  1.00  0.00     0.251 C 
ATOM     27  H   UNL A   1      37.274  21.934  25.267  1.00  0.00     0.163 HD
ATOM     28  O   UNL A   1      39.534  21.910  26.092  1.00  0.00    -0.269 OA
BRANCH  26  29
ATOM     29  C   UNL A   1      39.253  24.126  26.818  1.00  0.00     0.039 A 
ATOM     30  C   UNL A   1      38.851  24.352  28.138  1.00  0.00     0.014 A 
ATOM     31  C   UNL A   1      40.027  25.083  26.152  1.00  0.00     0.014 A 
ATOM     32  C   UNL A   1      39.255  25.514  28.800  1.00  0.00     0.010 A 
ATOM     33  C   UNL A   1      40.481  26.212  26.835  1.00  0.00     0.010 A 
ATOM     34  C   UNL A   1      40.089  26.446  28.161  1.00  0.00    -0.014 A 
BRANCH  34  35
ATOM     35  C   UNL A   1      40.548  27.665  28.876  1.00  0.00     0.031 A 
ATOM     36  C   UNL A   1      41.927  27.726  29.478  1.00  0.00     0.074 A 
ATOM     37  C   UNL A   1      39.711  28.712  29.008  1.00  0.00     0.049 A 
ATOM     38  N   UNL A   1      42.504  28.712  30.117  1.00  0.00    -0.248 NA
ATOM     39  C   UNL A   1      42.758  26.516  29.368  1.00  0.00     0.031 C 
ATOM     40  C   UNL A   1      38.332  28.760  28.515  1.00  0.00     0.029 A 
ATOM     41  N   UNL A   1      39.896  29.939  29.592  1.00  0.00    -0.354 N 
ATOM     42  C   UNL A   1      43.757  28.241  30.493  1.00  0.00     0.074 A 
ATOM     43  C   UNL A   1      43.838  26.864  30.053  1.00  0.00     0.031 C 
ATOM     44  C   UNL A   1      37.810  29.967  28.787  1.00  0.00     0.029 A 
ATOM     45  C   UNL A   1      38.803  30.767  29.496  1.00  0.00     0.049 A 
ATOM     46  H   UNL A   1      40.734  30.202  30.037  1.00  0.00     0.167 HD
ATOM     47  C   UNL A   1      44.757  28.898  31.129  1.00  0.00     0.031 A 
ATOM     48  C   UNL A   1      38.622  32.032  29.922  1.00  0.00     0.031 A 
ATOM     49  C   UNL A   1      44.681  30.270  31.555  1.00  0.00     0.049 A 
ATOM     50  C   UNL A   1      39.754  32.749  30.602  1.00  0.00     0.074 A 
ATOM     51  C   UNL A   1      45.661  31.041  32.158  1.00  0.00     0.029 A 
ATOM     52  N   UNL A   1      43.562  31.079  31.423  1.00  0.00    -0.354 N 
ATOM     53  N   UNL A   1      40.955  32.307  30.888  1.00  0.00    -0.248 NA
ATOM     54  C   UNL A   1      39.512  34.142  30.999  1.00  0.00     0.031 C 
ATOM     55  C   UNL A   1      45.120  32.304  32.427  1.00  0.00     0.029 A 
ATOM     56  C   UNL A   1      43.821  32.335  31.948  1.00  0.00     0.049 A 
ATOM     57  H   UNL A   1      42.709  30.802  31.018  1.00  0.00     0.167 HD
ATOM     58  C   UNL A   1      41.621  33.376  31.477  1.00  0.00     0.074 A 
ATOM     59  C   UNL A   1      40.694  34.489  31.490  1.00  0.00     0.031 C 
ATOM     60  C   UNL A   1      42.885  33.430  31.963  1.00  0.00     0.031 A 
BRANCH  47  61
ATOM     61  C   UNL A   1      46.025  28.132  31.403  1.00  0.00    -0.014 A 
ATOM     62  C   UNL A   1      46.134  27.286  32.522  1.00  0.00     0.010 A 
ATOM     63  C   UNL A   1      47.109  28.232  30.512  1.00  0.00     0.010 A 
ATOM     64  C   UNL A   1      47.320  26.590  32.770  1.00  0.00     0.020 A 
ATOM     65  C   UNL A   1      48.289  27.516  30.744  1.00  0.00     0.020 A 
ATOM     66  C   UNL A   1      48.393  26.714  31.882  1.00  0.00     0.054 A 
BRANCH  66  67
ATOM     67  S   UNL A   1      49.915  25.788  32.220  1.00  0.00     0.124 S 
ATOM     68  O   UNL A   1      50.215  25.216  30.910  1.00  0.00    -0.237 OA
ATOM     69  O   UNL A   1      50.833  26.830  32.674  1.00  0.00    -0.237 OA
ATOM     70  O   UNL A   1      49.515  24.826  33.244  1.00  0.00    -0.744 OA
ENDBRANCH  66  67
ENDBRANCH  47  61
BRANCH  48  71
ATOM     71  C   UNL A   1      37.321  32.713  29.683  1.00  0.00    -0.014 A 
ATOM     72  C   UNL A   1      37.079  33.382  28.470  1.00  0.00     0.010 A 
ATOM     73  C   UNL A   1      36.310  32.678  30.660  1.00  0.00     0.010 A 
ATOM     74  C   UNL A   1      35.854  34.017  28.245  1.00  0.00     0.020 A 
ATOM     75  C   UNL A   1      35.075  33.290  30.428  1.00  0.00     0.020 A 
ATOM     76  C   UNL A   1      34.859  33.966  29.225  1.00  0.00     0.054 A 
BRANCH  76  77
ATOM     77  S   UNL A   1      33.255  34.745  28.890  1.00  0.00     0.124 S 
ATOM     78  O   UNL A   1      33.654  36.058  28.394  1.00  0.00    -0.237 OA
ATOM     79  O   UNL A   1      32.666  33.845  27.901  1.00  0.00    -0.237 OA
ATOM     80  O   UNL A   1      32.597  34.739  30.195  1.00  0.00    -0.744 OA
ENDBRANCH  76  77
ENDBRANCH  48  71
BRANCH  60  81
ATOM     81  C   UNL A   1      43.347  34.748  32.525  1.00  0.00    -0.014 A 
ATOM     82  C   UNL A   1      43.247  35.027  33.900  1.00  0.00     0.010 A 
ATOM     83  C   UNL A   1      43.909  35.711  31.668  1.00  0.00     0.010 A 
ATOM     84  C   UNL A   1      43.661  36.264  34.402  1.00  0.00     0.020 A 
ATOM     85  C   UNL A   1      44.347  36.939  32.170  1.00  0.00     0.020 A 
ATOM     86  C   UNL A   1      44.202  37.215  33.531  1.00  0.00     0.054 A 
BRANCH  86  87
ATOM     87  S   UNL A   1      44.747  38.809  34.204  1.00  0.00     0.124 S 
ATOM     88  O   UNL A   1      45.264  38.424  35.514  1.00  0.00    -0.237 OA
ATOM     89  O   UNL A   1      45.751  39.242  33.235  1.00  0.00    -0.237 OA
ATOM     90  O   UNL A   1      43.526  39.610  34.225  1.00  0.00    -0.744 OA
ENDBRANCH  86  87
ENDBRANCH  60  81
ENDBRANCH  34  35
ENDBRANCH  26  29
ENDBRANCH  24  25
ENDBRANCH  23  24
ENDBRANCH   1  23
TORSDOF 18
ENDMDL
