MODEL 1
REMARK VINA RESULT:     -11.0      0.000      0.000
REMARK SMILES C/C(=C/c1cccc(OCC(=O)NCCCCCCNC(=O)c2ccc(-c3c4nc(c(-c5ccc(S(=O)(=O)[O-])cc5)c5ccc([nH]5)c(-c5ccc(S(=O)(=O)[O-])cc5)c5nc(c(-c6ccc(S(=O)(=O)[O-])cc6)c6ccc3[nH]6)C=C5)C=C4)cc2)c1)c1nc2sccc2c(=O)[nH]1
REMARK SMILES IDX 16 1 15 2 14 3 13 4 11 5 12 6 10 8 9 9 8 10 4 11 5 12 83 13
REMARK SMILES IDX 6 14 7 15 3 16 1 17 2 18 84 19 85 20 93 21 86 22 91 23 87 25
REMARK SMILES IDX 90 26 92 27 88 28 89 29 17 30 18 31 19 32 20 33 21 34 22 36
REMARK SMILES IDX 23 37 24 38 82 39 25 40 81 41 26 42 27 43 28 44 75 45 29 46
REMARK SMILES IDX 80 47 74 48 76 49 30 50 79 51 73 52 72 53 31 55 61 56 42 57
REMARK SMILES IDX 60 58 43 59 46 60 59 61 77 62 44 63 45 64 58 66 78 67 47 68
REMARK SMILES IDX 32 69 33 70 41 71 34 72 40 73 35 74 36 75 37 76 38 77 39 78
REMARK SMILES IDX 62 79 63 80 71 81 64 82 70 83 65 84 66 85 67 86 68 87 69 88
REMARK SMILES IDX 48 89 49 90 57 91 50 92 56 93 51 94 52 95 53 96 54 97 55 98
REMARK H PARENT 13 7 93 24 20 35 76 54 46 65
REMARK Flexibility Score: inf
ROOT
ATOM      1  C   UNL A   1      36.615  22.533  23.720  1.00  0.00     0.002 C 
ENDROOT
BRANCH   1   2
ATOM      2  C   UNL A   1      35.332  23.367  23.779  1.00  0.00     0.021 C 
BRANCH   2   3
ATOM      3  C   UNL A   1      34.023  22.610  23.549  1.00  0.00     0.116 C 
BRANCH   3   4
ATOM      4  N   UNL A   1      33.983  21.300  24.171  1.00  0.00    -0.353 N 
ATOM      5  C   UNL A   1      33.477  20.966  25.395  1.00  0.00     0.257 C 
ATOM      6  O   UNL A   1      33.291  19.779  25.667  1.00  0.00    -0.271 OA
ATOM      7  H   UNL A   1      34.368  20.560  23.646  1.00  0.00     0.163 HD
BRANCH   5   8
ATOM      8  C   UNL A   1      33.097  22.062  26.393  1.00  0.00     0.329 C 
BRANCH   8   9
ATOM      9  O   UNL A   1      31.752  22.506  26.374  1.00  0.00    -0.484 OA
BRANCH   9  10
ATOM     10  C   UNL A   1      31.504  23.849  26.323  1.00  0.00     0.120 A 
ATOM     11  C   UNL A   1      32.034  26.220  26.306  1.00  0.00    -0.022 A 
ATOM     12  C   UNL A   1      30.674  26.521  26.177  1.00  0.00     0.008 A 
ATOM     13  C   UNL A   1      32.445  24.878  26.389  1.00  0.00     0.054 A 
ATOM     14  C   UNL A   1      29.734  25.495  26.111  1.00  0.00     0.004 A 
ATOM     15  C   UNL A   1      30.151  24.168  26.183  1.00  0.00     0.046 A 
BRANCH  11  16
ATOM     16  C   UNL A   1      32.999  27.324  26.402  1.00  0.00     0.015 C 
ATOM     17  C   UNL A   1      34.066  29.502  25.786  1.00  0.00     0.048 C 
ATOM     18  C   UNL A   1      32.998  28.458  25.678  1.00  0.00    -0.008 C 
BRANCH  18  19
ATOM     19  C   UNL A   1      31.938  28.757  24.678  1.00  0.00     0.137 A 
ATOM     20  N   UNL A   1      31.085  29.719  24.849  1.00  0.00    -0.219 NA
ATOM     21  N   UNL A   1      31.929  27.891  23.605  1.00  0.00    -0.306 N 
ATOM     22  C   UNL A   1      30.194  29.867  23.833  1.00  0.00     0.131 A 
ATOM     23  C   UNL A   1      31.004  27.959  22.588  1.00  0.00     0.259 A 
ATOM     24  H   UNL A   1      32.618  27.189  23.564  1.00  0.00     0.171 HD
ATOM     25  S   UNL A   1      29.057  31.143  23.800  1.00  0.00    -0.124 S 
ATOM     26  C   UNL A   1      30.081  29.064  22.720  1.00  0.00     0.077 A 
ATOM     27  O   UNL A   1      30.979  27.151  21.669  1.00  0.00    -0.269 OA
ATOM     28  C   UNL A   1      28.438  30.640  22.284  1.00  0.00     0.068 A 
ATOM     29  C   UNL A   1      29.045  29.487  21.836  1.00  0.00     0.028 A 
ENDBRANCH  18  19
ENDBRANCH  11  16
ENDBRANCH   9  10
ENDBRANCH   8   9
ENDBRANCH   5   8
ENDBRANCH   3   4
ENDBRANCH   2   3
ENDBRANCH   1   2
BRANCH   1  30
ATOM     30  C   UNL A   1      37.384  22.357  25.032  1.00  0.00     0.002 C 
BRANCH  30  31
ATOM     31  C   UNL A   1      38.157  21.048  25.169  1.00  0.00     0.021 C 
BRANCH  31  32
ATOM     32  C   UNL A   1      39.310  21.086  26.165  1.00  0.00     0.116 C 
BRANCH  32  33
ATOM     33  N   UNL A   1      40.177  19.918  26.085  1.00  0.00    -0.352 N 
ATOM     34  C   UNL A   1      41.553  19.878  26.089  1.00  0.00     0.251 C 
ATOM     35  H   UNL A   1      39.721  19.048  26.018  1.00  0.00     0.163 HD
ATOM     36  O   UNL A   1      42.153  18.826  25.896  1.00  0.00    -0.269 OA
BRANCH  34  37
ATOM     37  C   UNL A   1      42.299  21.138  26.292  1.00  0.00     0.039 A 
ATOM     38  C   UNL A   1      42.656  21.910  25.184  1.00  0.00     0.014 A 
ATOM     39  C   UNL A   1      42.571  21.588  27.587  1.00  0.00     0.014 A 
ATOM     40  C   UNL A   1      43.207  23.180  25.378  1.00  0.00     0.010 A 
ATOM     41  C   UNL A   1      43.054  22.878  27.776  1.00  0.00     0.010 A 
ATOM     42  C   UNL A   1      43.365  23.691  26.675  1.00  0.00    -0.014 A 
BRANCH  42  43
ATOM     43  C   UNL A   1      43.843  25.076  26.925  1.00  0.00     0.031 A 
ATOM     44  C   UNL A   1      45.306  25.394  26.779  1.00  0.00     0.074 A 
ATOM     45  C   UNL A   1      42.989  26.012  27.387  1.00  0.00     0.049 A 
ATOM     46  N   UNL A   1      45.950  26.483  27.108  1.00  0.00    -0.248 NA
ATOM     47  C   UNL A   1      46.160  24.333  26.220  1.00  0.00     0.031 C 
ATOM     48  C   UNL A   1      41.551  25.821  27.598  1.00  0.00     0.029 A 
ATOM     49  N   UNL A   1      43.213  27.307  27.785  1.00  0.00    -0.354 N 
ATOM     50  C   UNL A   1      47.287  26.228  26.824  1.00  0.00     0.074 A 
ATOM     51  C   UNL A   1      47.366  24.869  26.336  1.00  0.00     0.031 C 
ATOM     52  C   UNL A   1      41.022  26.960  28.074  1.00  0.00     0.029 A 
ATOM     53  C   UNL A   1      42.086  27.945  28.250  1.00  0.00     0.049 A 
ATOM     54  H   UNL A   1      44.096  27.739  27.742  1.00  0.00     0.167 HD
ATOM     55  C   UNL A   1      48.351  27.056  26.948  1.00  0.00     0.031 A 
ATOM     56  C   UNL A   1      41.927  29.175  28.776  1.00  0.00     0.031 A 
ATOM     57  C   UNL A   1      48.264  28.413  27.415  1.00  0.00     0.049 A 
ATOM     58  C   UNL A   1      43.126  30.076  28.913  1.00  0.00     0.074 A 
ATOM     59  C   UNL A   1      49.277  29.350  27.525  1.00  0.00     0.029 A 
ATOM     60  N   UNL A   1      47.098  29.029  27.845  1.00  0.00    -0.354 N 
ATOM     61  N   UNL A   1      44.375  29.834  28.595  1.00  0.00    -0.248 NA
ATOM     62  C   UNL A   1      42.895  31.415  29.473  1.00  0.00     0.031 C 
ATOM     63  C   UNL A   1      48.730  30.519  28.064  1.00  0.00     0.029 A 
ATOM     64  C   UNL A   1      47.368  30.327  28.237  1.00  0.00     0.049 A 
ATOM     65  H   UNL A   1      46.210  28.604  27.867  1.00  0.00     0.167 HD
ATOM     66  C   UNL A   1      45.071  31.002  28.884  1.00  0.00     0.074 A 
ATOM     67  C   UNL A   1      44.107  31.951  29.401  1.00  0.00     0.031 C 
ATOM     68  C   UNL A   1      46.392  31.266  28.729  1.00  0.00     0.031 A 
BRANCH  55  69
ATOM     69  C   UNL A   1      49.704  26.510  26.577  1.00  0.00    -0.014 A 
ATOM     70  C   UNL A   1      50.153  26.522  25.244  1.00  0.00     0.010 A 
ATOM     71  C   UNL A   1      50.553  26.008  27.580  1.00  0.00     0.010 A 
ATOM     72  C   UNL A   1      51.404  25.999  24.914  1.00  0.00     0.020 A 
ATOM     73  C   UNL A   1      51.819  25.510  27.259  1.00  0.00     0.020 A 
ATOM     74  C   UNL A   1      52.228  25.492  25.924  1.00  0.00     0.054 A 
BRANCH  74  75
ATOM     75  S   UNL A   1      53.855  24.831  25.469  1.00  0.00     0.124 S 
ATOM     76  O   UNL A   1      54.582  24.929  26.732  1.00  0.00    -0.237 OA
ATOM     77  O   UNL A   1      53.539  23.474  25.030  1.00  0.00    -0.237 OA
ATOM     78  O   UNL A   1      54.313  25.733  24.415  1.00  0.00    -0.744 OA
ENDBRANCH  74  75
ENDBRANCH  55  69
BRANCH  56  79
ATOM     79  C   UNL A   1      40.577  29.633  29.206  1.00  0.00    -0.014 A 
ATOM     80  C   UNL A   1      40.355  30.048  30.531  1.00  0.00     0.010 A 
ATOM     81  C   UNL A   1      39.509  29.672  28.291  1.00  0.00     0.010 A 
ATOM     82  C   UNL A   1      39.088  30.477  30.938  1.00  0.00     0.020 A 
ATOM     83  C   UNL A   1      38.247  30.125  28.687  1.00  0.00     0.020 A 
ATOM     84  C   UNL A   1      38.042  30.515  30.012  1.00  0.00     0.054 A 
BRANCH  84  85
ATOM     85  S   UNL A   1      36.420  31.126  30.549  1.00  0.00     0.124 S 
ATOM     86  O   UNL A   1      36.021  30.113  31.521  1.00  0.00    -0.237 OA
ATOM     87  O   UNL A   1      36.743  32.440  31.098  1.00  0.00    -0.237 OA
ATOM     88  O   UNL A   1      35.639  31.151  29.313  1.00  0.00    -0.744 OA
ENDBRANCH  84  85
ENDBRANCH  56  79
BRANCH  68  89
ATOM     89  C   UNL A   1      46.880  32.648  29.066  1.00  0.00    -0.014 A 
ATOM     90  C   UNL A   1      47.482  32.927  30.305  1.00  0.00     0.010 A 
ATOM     91  C   UNL A   1      46.835  33.651  28.080  1.00  0.00     0.010 A 
ATOM     92  C   UNL A   1      48.031  34.187  30.551  1.00  0.00     0.020 A 
ATOM     93  C   UNL A   1      47.404  34.905  28.315  1.00  0.00     0.020 A 
ATOM     94  C   UNL A   1      47.997  35.166  29.552  1.00  0.00     0.054 A 
BRANCH  94  95
ATOM     95  S   UNL A   1      48.803  36.761  29.862  1.00  0.00     0.124 S 
ATOM     96  O   UNL A   1      47.678  37.600  30.262  1.00  0.00    -0.237 OA
ATOM     97  O   UNL A   1      49.755  36.438  30.923  1.00  0.00    -0.237 OA
ATOM     98  O   UNL A   1      49.408  37.100  28.575  1.00  0.00    -0.744 OA
ENDBRANCH  94  95
ENDBRANCH  68  89
ENDBRANCH  42  43
ENDBRANCH  34  37
ENDBRANCH  32  33
ENDBRANCH  31  32
ENDBRANCH  30  31
ENDBRANCH   1  30
TORSDOF 20
ENDMDL
MODEL 2
REMARK VINA RESULT:     -10.9      1.923      2.962
REMARK SMILES C/C(=C/c1cccc(OCC(=O)NCCCCCCNC(=O)c2ccc(-c3c4nc(c(-c5ccc(S(=O)(=O)[O-])cc5)c5ccc([nH]5)c(-c5ccc(S(=O)(=O)[O-])cc5)c5nc(c(-c6ccc(S(=O)(=O)[O-])cc6)c6ccc3[nH]6)C=C5)C=C4)cc2)c1)c1nc2sccc2c(=O)[nH]1
REMARK SMILES IDX 16 1 15 2 14 3 13 4 11 5 12 6 10 8 9 9 8 10 4 11 5 12 83 13
REMARK SMILES IDX 6 14 7 15 3 16 1 17 2 18 84 19 85 20 93 21 86 22 91 23 87 25
REMARK SMILES IDX 90 26 92 27 88 28 89 29 17 30 18 31 19 32 20 33 21 34 22 36
REMARK SMILES IDX 23 37 24 38 82 39 25 40 81 41 26 42 27 43 28 44 75 45 29 46
REMARK SMILES IDX 80 47 74 48 76 49 30 50 79 51 73 52 72 53 31 55 61 56 42 57
REMARK SMILES IDX 60 58 43 59 46 60 59 61 77 62 44 63 45 64 58 66 78 67 47 68
REMARK SMILES IDX 32 69 33 70 41 71 34 72 40 73 35 74 36 75 37 76 38 77 39 78
REMARK SMILES IDX 62 79 63 80 71 81 64 82 70 83 65 84 66 85 67 86 68 87 69 88
REMARK SMILES IDX 48 89 49 90 57 91 50 92 56 93 51 94 52 95 53 96 54 97 55 98
REMARK H PARENT 13 7 93 24 20 35 76 54 46 65
REMARK Flexibility Score: inf
ROOT
ATOM      1  C   UNL A   1      39.992  22.142  27.055  1.00  0.00     0.002 C 
ENDROOT
BRANCH   1   2
ATOM      2  C   UNL A   1      39.001  21.848  25.925  1.00  0.00     0.021 C 
BRANCH   2   3
ATOM      3  C   UNL A   1      38.107  23.010  25.492  1.00  0.00     0.116 C 
BRANCH   3   4
ATOM      4  N   UNL A   1      37.284  22.721  24.333  1.00  0.00    -0.353 N 
ATOM      5  C   UNL A   1      36.117  23.326  23.959  1.00  0.00     0.257 C 
ATOM      6  O   UNL A   1      35.679  23.139  22.824  1.00  0.00    -0.271 OA
ATOM      7  H   UNL A   1      37.606  22.002  23.743  1.00  0.00     0.163 HD
BRANCH   5   8
ATOM      8  C   UNL A   1      35.395  24.264  24.928  1.00  0.00     0.329 C 
BRANCH   8   9
ATOM      9  O   UNL A   1      34.224  23.765  25.550  1.00  0.00    -0.484 OA
BRANCH   9  10
ATOM     10  C   UNL A   1      33.062  24.473  25.429  1.00  0.00     0.120 A 
ATOM     11  C   UNL A   1      31.464  25.985  24.400  1.00  0.00    -0.022 A 
ATOM     12  C   UNL A   1      30.582  25.776  25.465  1.00  0.00     0.008 A 
ATOM     13  C   UNL A   1      32.712  25.338  24.391  1.00  0.00     0.054 A 
ATOM     14  C   UNL A   1      30.931  24.913  26.502  1.00  0.00     0.004 A 
ATOM     15  C   UNL A   1      32.164  24.266  26.480  1.00  0.00     0.046 A 
BRANCH  11  16
ATOM     16  C   UNL A   1      31.081  26.923  23.336  1.00  0.00     0.015 C 
ATOM     17  C   UNL A   1      30.748  29.154  22.250  1.00  0.00     0.048 C 
ATOM     18  C   UNL A   1      31.237  28.260  23.347  1.00  0.00    -0.008 C 
BRANCH  18  19
ATOM     19  C   UNL A   1      31.891  28.970  24.479  1.00  0.00     0.137 A 
ATOM     20  N   UNL A   1      32.969  28.517  25.042  1.00  0.00    -0.219 NA
ATOM     21  N   UNL A   1      31.217  30.101  24.887  1.00  0.00    -0.306 N 
ATOM     22  C   UNL A   1      33.446  29.294  26.050  1.00  0.00     0.131 A 
ATOM     23  C   UNL A   1      31.623  30.881  25.946  1.00  0.00     0.259 A 
ATOM     24  H   UNL A   1      30.405  30.364  24.398  1.00  0.00     0.171 HD
ATOM     25  S   UNL A   1      34.914  28.946  26.850  1.00  0.00    -0.124 S 
ATOM     26  C   UNL A   1      32.859  30.436  26.551  1.00  0.00     0.077 A 
ATOM     27  O   UNL A   1      30.985  31.853  26.327  1.00  0.00    -0.269 OA
ATOM     28  C   UNL A   1      34.782  30.337  27.841  1.00  0.00     0.068 A 
ATOM     29  C   UNL A   1      33.611  31.025  27.609  1.00  0.00     0.028 A 
ENDBRANCH  18  19
ENDBRANCH  11  16
ENDBRANCH   9  10
ENDBRANCH   8   9
ENDBRANCH   5   8
ENDBRANCH   3   4
ENDBRANCH   2   3
ENDBRANCH   1   2
BRANCH   1  30
ATOM     30  C   UNL A   1      41.262  21.288  27.098  1.00  0.00     0.002 C 
BRANCH  30  31
ATOM     31  C   UNL A   1      41.297  20.115  26.121  1.00  0.00     0.021 C 
BRANCH  31  32
ATOM     32  C   UNL A   1      42.465  19.155  26.314  1.00  0.00     0.116 C 
BRANCH  32  33
ATOM     33  N   UNL A   1      43.296  19.016  25.125  1.00  0.00    -0.352 N 
ATOM     34  C   UNL A   1      44.059  19.978  24.503  1.00  0.00     0.251 C 
ATOM     35  H   UNL A   1      43.314  18.122  24.715  1.00  0.00     0.163 HD
ATOM     36  O   UNL A   1      44.618  19.747  23.437  1.00  0.00    -0.269 OA
BRANCH  34  37
ATOM     37  C   UNL A   1      44.162  21.316  25.127  1.00  0.00     0.039 A 
ATOM     38  C   UNL A   1      44.957  21.483  26.262  1.00  0.00     0.014 A 
ATOM     39  C   UNL A   1      43.531  22.413  24.534  1.00  0.00     0.014 A 
ATOM     40  C   UNL A   1      45.195  22.770  26.752  1.00  0.00     0.010 A 
ATOM     41  C   UNL A   1      43.826  23.695  24.982  1.00  0.00     0.010 A 
ATOM     42  C   UNL A   1      44.670  23.888  26.087  1.00  0.00    -0.014 A 
BRANCH  42  43
ATOM     43  C   UNL A   1      44.986  25.278  26.508  1.00  0.00     0.031 A 
ATOM     44  C   UNL A   1      46.338  25.859  26.195  1.00  0.00     0.074 A 
ATOM     45  C   UNL A   1      44.108  25.972  27.260  1.00  0.00     0.049 A 
ATOM     46  N   UNL A   1      46.872  26.977  26.612  1.00  0.00    -0.248 NA
ATOM     47  C   UNL A   1      47.217  25.059  25.326  1.00  0.00     0.031 C 
ATOM     48  C   UNL A   1      42.775  25.509  27.655  1.00  0.00     0.029 A 
ATOM     49  N   UNL A   1      44.216  27.209  27.848  1.00  0.00    -0.354 N 
ATOM     50  C   UNL A   1      48.157  27.001  26.082  1.00  0.00     0.074 A 
ATOM     51  C   UNL A   1      48.335  25.767  25.348  1.00  0.00     0.031 C 
ATOM     52  C   UNL A   1      42.186  26.454  28.407  1.00  0.00     0.029 A 
ATOM     53  C   UNL A   1      43.115  27.566  28.591  1.00  0.00     0.049 A 
ATOM     54  H   UNL A   1      45.007  27.786  27.747  1.00  0.00     0.167 HD
ATOM     55  C   UNL A   1      49.098  27.968  26.186  1.00  0.00     0.031 A 
ATOM     56  C   UNL A   1      42.884  28.655  29.350  1.00  0.00     0.031 A 
ATOM     57  C   UNL A   1      48.908  29.201  26.900  1.00  0.00     0.049 A 
ATOM     58  C   UNL A   1      43.948  29.714  29.461  1.00  0.00     0.074 A 
ATOM     59  C   UNL A   1      49.781  30.268  27.019  1.00  0.00     0.029 A 
ATOM     60  N   UNL A   1      47.765  29.535  27.612  1.00  0.00    -0.354 N 
ATOM     61  N   UNL A   1      45.140  29.740  28.913  1.00  0.00    -0.248 NA
ATOM     62  C   UNL A   1      43.638  30.891  30.284  1.00  0.00     0.031 C 
ATOM     63  C   UNL A   1      49.184  31.228  27.842  1.00  0.00     0.029 A 
ATOM     64  C   UNL A   1      47.917  30.784  28.187  1.00  0.00     0.049 A 
ATOM     65  H   UNL A   1      46.966  28.968  27.695  1.00  0.00     0.167 HD
ATOM     66  C   UNL A   1      45.706  30.950  29.297  1.00  0.00     0.074 A 
ATOM     67  C   UNL A   1      44.728  31.629  30.123  1.00  0.00     0.031 C 
ATOM     68  C   UNL A   1      46.925  31.455  28.988  1.00  0.00     0.031 A 
BRANCH  55  69
ATOM     69  C   UNL A   1      50.424  27.724  25.516  1.00  0.00    -0.014 A 
ATOM     70  C   UNL A   1      50.604  27.985  24.145  1.00  0.00     0.010 A 
ATOM     71  C   UNL A   1      51.514  27.259  26.273  1.00  0.00     0.010 A 
ATOM     72  C   UNL A   1      51.836  27.740  23.535  1.00  0.00     0.020 A 
ATOM     73  C   UNL A   1      52.757  27.040  25.672  1.00  0.00     0.020 A 
ATOM     74  C   UNL A   1      52.904  27.265  24.302  1.00  0.00     0.054 A 
BRANCH  74  75
ATOM     75  S   UNL A   1      54.496  26.968  23.486  1.00  0.00     0.124 S 
ATOM     76  O   UNL A   1      55.094  25.956  24.353  1.00  0.00    -0.237 OA
ATOM     77  O   UNL A   1      54.096  26.501  22.161  1.00  0.00    -0.237 OA
ATOM     78  O   UNL A   1      55.148  28.275  23.513  1.00  0.00    -0.744 OA
ENDBRANCH  74  75
ENDBRANCH  55  69
BRANCH  56  79
ATOM     79  C   UNL A   1      41.585  28.804  30.062  1.00  0.00    -0.014 A 
ATOM     80  C   UNL A   1      41.456  28.394  31.401  1.00  0.00     0.010 A 
ATOM     81  C   UNL A   1      40.473  29.370  29.412  1.00  0.00     0.010 A 
ATOM     82  C   UNL A   1      40.236  28.532  32.071  1.00  0.00     0.020 A 
ATOM     83  C   UNL A   1      39.259  29.534  30.087  1.00  0.00     0.020 A 
ATOM     84  C   UNL A   1      39.146  29.104  31.411  1.00  0.00     0.054 A 
BRANCH  84  85
ATOM     85  S   UNL A   1      37.589  29.321  32.316  1.00  0.00     0.124 S 
ATOM     86  O   UNL A   1      37.580  28.153  33.190  1.00  0.00    -0.237 OA
ATOM     87  O   UNL A   1      37.787  30.608  32.980  1.00  0.00    -0.237 OA
ATOM     88  O   UNL A   1      36.577  29.324  31.260  1.00  0.00    -0.744 OA
ENDBRANCH  84  85
ENDBRANCH  56  79
BRANCH  68  89
ATOM     89  C   UNL A   1      47.267  32.831  29.491  1.00  0.00    -0.014 A 
ATOM     90  C   UNL A   1      46.781  33.984  28.851  1.00  0.00     0.010 A 
ATOM     91  C   UNL A   1      47.992  32.963  30.691  1.00  0.00     0.010 A 
ATOM     92  C   UNL A   1      47.015  35.245  29.402  1.00  0.00     0.020 A 
ATOM     93  C   UNL A   1      48.207  34.221  31.257  1.00  0.00     0.020 A 
ATOM     94  C   UNL A   1      47.719  35.356  30.606  1.00  0.00     0.054 A 
BRANCH  94  95
ATOM     95  S   UNL A   1      47.925  36.998  31.350  1.00  0.00     0.124 S 
ATOM     96  O   UNL A   1      46.877  37.767  30.687  1.00  0.00    -0.237 OA
ATOM     97  O   UNL A   1      47.707  36.734  32.771  1.00  0.00    -0.237 OA
ATOM     98  O   UNL A   1      49.293  37.370  30.995  1.00  0.00    -0.744 OA
ENDBRANCH  94  95
ENDBRANCH  68  89
ENDBRANCH  42  43
ENDBRANCH  34  37
ENDBRANCH  32  33
ENDBRANCH  31  32
ENDBRANCH  30  31
ENDBRANCH   1  30
TORSDOF 20
ENDMDL
MODEL 3
REMARK VINA RESULT:     -10.7      1.598      2.313
REMARK SMILES C/C(=C/c1cccc(OCC(=O)NCCCCCCNC(=O)c2ccc(-c3c4nc(c(-c5ccc(S(=O)(=O)[O-])cc5)c5ccc([nH]5)c(-c5ccc(S(=O)(=O)[O-])cc5)c5nc(c(-c6ccc(S(=O)(=O)[O-])cc6)c6ccc3[nH]6)C=C5)C=C4)cc2)c1)c1nc2sccc2c(=O)[nH]1
REMARK SMILES IDX 16 1 15 2 14 3 13 4 11 5 12 6 10 8 9 9 8 10 4 11 5 12 83 13
REMARK SMILES IDX 6 14 7 15 3 16 1 17 2 18 84 19 85 20 93 21 86 22 91 23 87 25
REMARK SMILES IDX 90 26 92 27 88 28 89 29 17 30 18 31 19 32 20 33 21 34 22 36
REMARK SMILES IDX 23 37 24 38 82 39 25 40 81 41 26 42 27 43 28 44 75 45 29 46
REMARK SMILES IDX 80 47 74 48 76 49 30 50 79 51 73 52 72 53 31 55 61 56 42 57
REMARK SMILES IDX 60 58 43 59 46 60 59 61 77 62 44 63 45 64 58 66 78 67 47 68
REMARK SMILES IDX 32 69 33 70 41 71 34 72 40 73 35 74 36 75 37 76 38 77 39 78
REMARK SMILES IDX 62 79 63 80 71 81 64 82 70 83 65 84 66 85 67 86 68 87 69 88
REMARK SMILES IDX 48 89 49 90 57 91 50 92 56 93 51 94 52 95 53 96 54 97 55 98
REMARK H PARENT 13 7 93 24 20 35 76 54 46 65
REMARK Flexibility Score: inf
ROOT
ATOM      1  C   UNL A   1      36.739  22.401  23.828  1.00  0.00     0.002 C 
ENDROOT
BRANCH   1   2
ATOM      2  C   UNL A   1      35.424  23.184  23.777  1.00  0.00     0.021 C 
BRANCH   2   3
ATOM      3  C   UNL A   1      34.144  22.362  23.941  1.00  0.00     0.116 C 
BRANCH   3   4
ATOM      4  N   UNL A   1      34.180  21.431  25.052  1.00  0.00    -0.353 N 
ATOM      5  C   UNL A   1      33.854  21.668  26.358  1.00  0.00     0.257 C 
ATOM      6  O   UNL A   1      33.696  20.715  27.122  1.00  0.00    -0.271 OA
ATOM      7  H   UNL A   1      34.475  20.516  24.840  1.00  0.00     0.163 HD
BRANCH   5   8
ATOM      8  C   UNL A   1      33.637  23.101  26.846  1.00  0.00     0.329 C 
BRANCH   8   9
ATOM      9  O   UNL A   1      32.295  23.532  26.991  1.00  0.00    -0.484 OA
BRANCH   9  10
ATOM     10  C   UNL A   1      31.807  24.468  26.123  1.00  0.00     0.120 A 
ATOM     11  C   UNL A   1      31.831  25.977  24.220  1.00  0.00    -0.022 A 
ATOM     12  C   UNL A   1      30.520  26.365  24.514  1.00  0.00     0.008 A 
ATOM     13  C   UNL A   1      32.477  25.033  25.036  1.00  0.00     0.054 A 
ATOM     14  C   UNL A   1      29.850  25.802  25.598  1.00  0.00     0.004 A 
ATOM     15  C   UNL A   1      30.493  24.858  26.395  1.00  0.00     0.046 A 
BRANCH  11  16
ATOM     16  C   UNL A   1      32.522  26.610  23.088  1.00  0.00     0.015 C 
ATOM     17  C   UNL A   1      33.764  28.410  21.871  1.00  0.00     0.048 C 
ATOM     18  C   UNL A   1      33.149  27.801  23.093  1.00  0.00    -0.008 C 
BRANCH  18  19
ATOM     19  C   UNL A   1      33.259  28.632  24.322  1.00  0.00     0.137 A 
ATOM     20  N   UNL A   1      34.239  28.493  25.159  1.00  0.00    -0.219 NA
ATOM     21  N   UNL A   1      32.206  29.505  24.495  1.00  0.00    -0.306 N 
ATOM     22  C   UNL A   1      34.198  29.341  26.220  1.00  0.00     0.131 A 
ATOM     23  C   UNL A   1      32.085  30.334  25.588  1.00  0.00     0.259 A 
ATOM     24  H   UNL A   1      31.506  29.538  23.804  1.00  0.00     0.171 HD
ATOM     25  S   UNL A   1      35.449  29.407  27.382  1.00  0.00    -0.124 S 
ATOM     26  C   UNL A   1      33.200  30.247  26.505  1.00  0.00     0.077 A 
ATOM     27  O   UNL A   1      31.119  31.066  25.751  1.00  0.00    -0.269 OA
ATOM     28  C   UNL A   1      34.672  30.666  28.245  1.00  0.00     0.068 A 
ATOM     29  C   UNL A   1      33.453  30.993  27.693  1.00  0.00     0.028 A 
ENDBRANCH  18  19
ENDBRANCH  11  16
ENDBRANCH   9  10
ENDBRANCH   8   9
ENDBRANCH   5   8
ENDBRANCH   3   4
ENDBRANCH   2   3
ENDBRANCH   1   2
BRANCH   1  30
ATOM     30  C   UNL A   1      37.558  22.513  25.117  1.00  0.00     0.002 C 
BRANCH  30  31
ATOM     31  C   UNL A   1      38.253  21.230  25.566  1.00  0.00     0.021 C 
BRANCH  31  32
ATOM     32  C   UNL A   1      39.559  21.441  26.323  1.00  0.00     0.116 C 
BRANCH  32  33
ATOM     33  N   UNL A   1      40.457  20.296  26.248  1.00  0.00    -0.352 N 
ATOM     34  C   UNL A   1      41.834  20.294  26.228  1.00  0.00     0.251 C 
ATOM     35  H   UNL A   1      40.025  19.413  26.206  1.00  0.00     0.163 HD
ATOM     36  O   UNL A   1      42.459  19.257  26.044  1.00  0.00    -0.269 OA
BRANCH  34  37
ATOM     37  C   UNL A   1      42.548  21.579  26.395  1.00  0.00     0.039 A 
ATOM     38  C   UNL A   1      42.709  22.420  25.292  1.00  0.00     0.014 A 
ATOM     39  C   UNL A   1      42.983  21.977  27.661  1.00  0.00     0.014 A 
ATOM     40  C   UNL A   1      43.228  23.705  25.477  1.00  0.00     0.010 A 
ATOM     41  C   UNL A   1      43.432  23.278  27.853  1.00  0.00     0.010 A 
ATOM     42  C   UNL A   1      43.548  24.159  26.766  1.00  0.00    -0.014 A 
BRANCH  42  43
ATOM     43  C   UNL A   1      43.999  25.552  27.023  1.00  0.00     0.031 A 
ATOM     44  C   UNL A   1      45.412  25.948  26.694  1.00  0.00     0.074 A 
ATOM     45  C   UNL A   1      43.180  26.421  27.649  1.00  0.00     0.049 A 
ATOM     46  N   UNL A   1      46.050  27.050  26.990  1.00  0.00    -0.248 NA
ATOM     47  C   UNL A   1      46.223  24.959  25.965  1.00  0.00     0.031 C 
ATOM     48  C   UNL A   1      41.795  26.150  28.046  1.00  0.00     0.029 A 
ATOM     49  N   UNL A   1      43.403  27.705  28.084  1.00  0.00    -0.354 N 
ATOM     50  C   UNL A   1      47.344  26.875  26.511  1.00  0.00     0.074 A 
ATOM     51  C   UNL A   1      47.410  25.547  25.943  1.00  0.00     0.031 C 
ATOM     52  C   UNL A   1      41.291  27.237  28.652  1.00  0.00     0.029 A 
ATOM     53  C   UNL A   1      42.326  28.264  28.733  1.00  0.00     0.049 A 
ATOM     54  H   UNL A   1      44.253  28.181  27.943  1.00  0.00     0.167 HD
ATOM     55  C   UNL A   1      48.379  27.747  26.532  1.00  0.00     0.031 A 
ATOM     56  C   UNL A   1      42.192  29.458  29.343  1.00  0.00     0.031 A 
ATOM     57  C   UNL A   1      48.301  29.074  27.080  1.00  0.00     0.049 A 
ATOM     58  C   UNL A   1      43.359  30.409  29.363  1.00  0.00     0.074 A 
ATOM     59  C   UNL A   1      49.280  30.053  27.101  1.00  0.00     0.029 A 
ATOM     60  N   UNL A   1      47.183  29.610  27.701  1.00  0.00    -0.354 N 
ATOM     61  N   UNL A   1      44.561  30.244  28.863  1.00  0.00    -0.248 NA
ATOM     62  C   UNL A   1      43.154  31.706  30.022  1.00  0.00     0.031 C 
ATOM     63  C   UNL A   1      48.766  31.166  27.775  1.00  0.00     0.029 A 
ATOM     64  C   UNL A   1      47.451  30.900  28.122  1.00  0.00     0.049 A 
ATOM     65  H   UNL A   1      46.326  29.142  27.822  1.00  0.00     0.167 HD
ATOM     66  C   UNL A   1      45.242  31.429  29.117  1.00  0.00     0.074 A 
ATOM     67  C   UNL A   1      44.320  32.303  29.813  1.00  0.00     0.031 C 
ATOM     68  C   UNL A   1      46.515  31.764  28.796  1.00  0.00     0.031 A 
BRANCH  55  69
ATOM     69  C   UNL A   1      49.688  27.287  25.949  1.00  0.00    -0.014 A 
ATOM     70  C   UNL A   1      50.701  26.755  26.768  1.00  0.00     0.010 A 
ATOM     71  C   UNL A   1      49.896  27.354  24.560  1.00  0.00     0.010 A 
ATOM     72  C   UNL A   1      51.915  26.345  26.214  1.00  0.00     0.020 A 
ATOM     73  C   UNL A   1      51.099  26.918  23.998  1.00  0.00     0.020 A 
ATOM     74  C   UNL A   1      52.109  26.433  24.832  1.00  0.00     0.054 A 
BRANCH  74  75
ATOM     75  S   UNL A   1      53.691  25.881  24.138  1.00  0.00     0.124 S 
ATOM     76  O   UNL A   1      53.473  26.071  22.706  1.00  0.00    -0.237 OA
ATOM     77  O   UNL A   1      54.649  26.796  24.754  1.00  0.00    -0.237 OA
ATOM     78  O   UNL A   1      53.793  24.490  24.573  1.00  0.00    -0.744 OA
ENDBRANCH  74  75
ENDBRANCH  55  69
BRANCH  56  79
ATOM     79  C   UNL A   1      40.898  29.827  29.980  1.00  0.00    -0.014 A 
ATOM     80  C   UNL A   1      40.812  29.991  31.374  1.00  0.00     0.010 A 
ATOM     81  C   UNL A   1      39.747  30.033  29.197  1.00  0.00     0.010 A 
ATOM     82  C   UNL A   1      39.597  30.337  31.975  1.00  0.00     0.020 A 
ATOM     83  C   UNL A   1      38.538  30.404  29.791  1.00  0.00     0.020 A 
ATOM     84  C   UNL A   1      38.468  30.544  31.179  1.00  0.00     0.054 A 
BRANCH  84  85
ATOM     85  S   UNL A   1      36.916  31.044  31.974  1.00  0.00     0.124 S 
ATOM     86  O   UNL A   1      35.973  30.066  31.441  1.00  0.00    -0.237 OA
ATOM     87  O   UNL A   1      37.233  30.911  33.394  1.00  0.00    -0.237 OA
ATOM     88  O   UNL A   1      36.723  32.418  31.513  1.00  0.00    -0.744 OA
ENDBRANCH  84  85
ENDBRANCH  56  79
BRANCH  68  89
ATOM     89  C   UNL A   1      46.987  33.151  29.138  1.00  0.00    -0.014 A 
ATOM     90  C   UNL A   1      46.802  34.225  28.250  1.00  0.00     0.010 A 
ATOM     91  C   UNL A   1      47.521  33.398  30.416  1.00  0.00     0.010 A 
ATOM     92  C   UNL A   1      47.143  35.523  28.637  1.00  0.00     0.020 A 
ATOM     93  C   UNL A   1      47.841  34.698  30.814  1.00  0.00     0.020 A 
ATOM     94  C   UNL A   1      47.652  35.753  29.919  1.00  0.00     0.054 A 
BRANCH  94  95
ATOM     95  S   UNL A   1      47.996  37.460  30.430  1.00  0.00     0.124 S 
ATOM     96  O   UNL A   1      47.351  37.523  31.738  1.00  0.00    -0.237 OA
ATOM     97  O   UNL A   1      49.456  37.501  30.445  1.00  0.00    -0.237 OA
ATOM     98  O   UNL A   1      47.367  38.267  29.385  1.00  0.00    -0.744 OA
ENDBRANCH  94  95
ENDBRANCH  68  89
ENDBRANCH  42  43
ENDBRANCH  34  37
ENDBRANCH  32  33
ENDBRANCH  31  32
ENDBRANCH  30  31
ENDBRANCH   1  30
TORSDOF 20
ENDMDL
