MODEL 1
REMARK VINA RESULT:     -11.7      0.000      0.000
REMARK SMILES CCN(Cc1cn(CC)nc1C)C(=O)c1ccn([C@@H](C)C(=O)NCCCCCCNC(=O)c2ccc(-c3c4nc(c(-c5ccc(S(=O)(=O)[O-])cc5)c5ccc([nH]5)c(-c5ccc(S(=O)(=O)[O-])cc5)c5nc(c(-c6ccc(S(=O)(=O)[O-])cc6)c6ccc3[nH]6)C=C5)C=C4)cc2)n1
REMARK SMILES IDX 25 1 24 2 23 3 21 4 22 5 19 7 20 8 18 9 15 10 16 11 93 12
REMARK SMILES IDX 17 13 13 14 14 15 3 16 2 17 1 18 4 19 5 20 6 21 11 22 7 23
REMARK SMILES IDX 10 24 12 25 8 26 9 27 26 28 27 29 28 30 29 31 30 32 31 33
REMARK SMILES IDX 32 35 33 36 34 37 92 38 35 39 91 40 36 41 37 42 38 43 85 44
REMARK SMILES IDX 39 45 90 46 84 47 86 48 40 49 89 50 83 51 82 52 41 54 71 55
REMARK SMILES IDX 52 56 70 57 53 58 56 59 69 60 87 61 54 62 55 63 68 65 88 66
REMARK SMILES IDX 57 67 42 68 43 69 51 70 44 71 50 72 45 73 46 74 47 75 48 76
REMARK SMILES IDX 49 77 72 78 73 79 81 80 74 81 80 82 75 83 76 84 77 85 78 86
REMARK SMILES IDX 79 87 58 88 59 89 67 90 60 91 66 92 61 93 62 94 63 95 64 96
REMARK SMILES IDX 65 97
REMARK H PARENT 23 6 30 34 86 53 56 64
REMARK Flexibility Score: inf
ROOT
ATOM      1  C   UNL A   1      34.669  24.341  25.693  1.00  0.00     0.021 C 
ENDROOT
BRANCH   1   2
ATOM      2  C   UNL A   1      34.350  23.185  26.652  1.00  0.00     0.116 C 
BRANCH   2   3
ATOM      3  N   UNL A   1      32.957  23.178  27.058  1.00  0.00    -0.354 N 
ATOM      4  C   UNL A   1      31.833  22.595  26.549  1.00  0.00     0.244 C 
ATOM      5  O   UNL A   1      30.800  22.803  27.201  1.00  0.00    -0.273 OA
ATOM      6  H   UNL A   1      32.788  23.705  27.872  1.00  0.00     0.163 HD
BRANCH   4   7
ATOM      7  C   UNL A   1      31.786  21.674  25.320  1.00  0.00     0.193 C 
ATOM      8  C   UNL A   1      32.704  20.463  25.422  1.00  0.00     0.044 C 
BRANCH   7   9
ATOM      9  N   UNL A   1      31.902  22.404  24.065  1.00  0.00    -0.260 N 
ATOM     10  C   UNL A   1      32.278  24.092  22.825  1.00  0.00     0.150 A 
ATOM     11  C   UNL A   1      32.823  22.944  22.218  1.00  0.00     0.056 A 
ATOM     12  N   UNL A   1      31.728  23.746  24.013  1.00  0.00    -0.167 NA
ATOM     13  C   UNL A   1      32.212  21.898  22.846  1.00  0.00     0.110 A 
BRANCH  10  14
ATOM     14  C   UNL A   1      32.309  25.470  22.298  1.00  0.00     0.274 C 
ATOM     15  O   UNL A   1      32.307  25.666  21.082  1.00  0.00    -0.267 OA
BRANCH  14  16
ATOM     16  N   UNL A   1      32.351  26.535  23.227  1.00  0.00    -0.333 N 
BRANCH  16  17
ATOM     17  C   UNL A   1      33.636  27.215  23.415  1.00  0.00     0.117 C 
ATOM     18  C   UNL A   1      33.864  28.276  22.346  1.00  0.00     0.027 C 
ENDBRANCH  16  17
BRANCH  16  19
ATOM     19  C   UNL A   1      31.269  26.909  24.155  1.00  0.00     0.159 C 
BRANCH  19  20
ATOM     20  C   UNL A   1      30.631  28.210  23.776  1.00  0.00     0.012 A 
ATOM     21  C   UNL A   1      29.607  28.427  22.874  1.00  0.00     0.114 A 
ATOM     22  C   UNL A   1      30.842  29.496  24.370  1.00  0.00     0.064 A 
ATOM     23  N   UNL A   1      29.156  29.689  23.111  1.00  0.00    -0.272 N 
ATOM     24  N   UNL A   1      29.927  30.387  23.964  1.00  0.00    -0.178 NA
ATOM     25  C   UNL A   1      31.805  29.898  25.424  1.00  0.00     0.069 C 
BRANCH  23  26
ATOM     26  C   UNL A   1      27.883  30.233  22.694  1.00  0.00     0.141 C 
ATOM     27  C   UNL A   1      27.579  31.590  23.319  1.00  0.00     0.029 C 
ENDBRANCH  23  26
ENDBRANCH  19  20
ENDBRANCH  16  19
ENDBRANCH  14  16
ENDBRANCH  10  14
ENDBRANCH   7   9
ENDBRANCH   4   7
ENDBRANCH   2   3
ENDBRANCH   1   2
BRANCH   1  28
ATOM     28  C   UNL A   1      35.575  23.964  24.518  1.00  0.00     0.002 C 
BRANCH  28  29
ATOM     29  C   UNL A   1      35.752  22.459  24.270  1.00  0.00     0.002 C 
BRANCH  29  30
ATOM     30  C   UNL A   1      37.122  21.863  24.636  1.00  0.00     0.021 C 
BRANCH  30  31
ATOM     31  C   UNL A   1      37.923  22.710  25.618  1.00  0.00     0.116 C 
BRANCH  31  32
ATOM     32  N   UNL A   1      38.863  21.905  26.399  1.00  0.00    -0.352 N 
ATOM     33  C   UNL A   1      39.999  22.301  27.083  1.00  0.00     0.251 C 
ATOM     34  H   UNL A   1      38.656  20.944  26.447  1.00  0.00     0.163 HD
ATOM     35  O   UNL A   1      40.856  21.486  27.380  1.00  0.00    -0.269 OA
BRANCH  33  36
ATOM     36  C   UNL A   1      40.151  23.720  27.461  1.00  0.00     0.039 A 
ATOM     37  C   UNL A   1      39.112  24.648  27.319  1.00  0.00     0.014 A 
ATOM     38  C   UNL A   1      41.375  24.121  27.968  1.00  0.00     0.014 A 
ATOM     39  C   UNL A   1      39.290  25.960  27.779  1.00  0.00     0.010 A 
ATOM     40  C   UNL A   1      41.488  25.359  28.540  1.00  0.00     0.010 A 
ATOM     41  C   UNL A   1      40.488  26.307  28.410  1.00  0.00    -0.014 A 
BRANCH  41  42
ATOM     42  C   UNL A   1      40.708  27.587  29.087  1.00  0.00     0.031 A 
ATOM     43  C   UNL A   1      41.784  28.417  28.487  1.00  0.00     0.074 A 
ATOM     44  C   UNL A   1      39.847  28.119  29.987  1.00  0.00     0.049 A 
ATOM     45  N   UNL A   1      42.955  28.641  28.982  1.00  0.00    -0.248 NA
ATOM     46  C   UNL A   1      41.606  28.937  27.121  1.00  0.00     0.031 C 
ATOM     47  C   UNL A   1      38.559  27.574  30.449  1.00  0.00     0.029 A 
ATOM     48  N   UNL A   1      39.875  29.342  30.592  1.00  0.00    -0.354 N 
ATOM     49  C   UNL A   1      43.579  29.524  28.107  1.00  0.00     0.074 A 
ATOM     50  C   UNL A   1      42.797  29.499  26.896  1.00  0.00     0.031 C 
ATOM     51  C   UNL A   1      37.845  28.541  31.070  1.00  0.00     0.029 A 
ATOM     52  C   UNL A   1      38.686  29.714  31.219  1.00  0.00     0.049 A 
ATOM     53  H   UNL A   1      40.674  29.917  30.586  1.00  0.00     0.167 HD
ATOM     54  C   UNL A   1      44.526  30.400  28.547  1.00  0.00     0.031 A 
ATOM     55  C   UNL A   1      38.416  30.896  31.829  1.00  0.00     0.031 A 
ATOM     56  C   UNL A   1      44.902  30.117  29.911  1.00  0.00     0.049 A 
ATOM     57  C   UNL A   1      39.722  31.487  32.196  1.00  0.00     0.074 A 
ATOM     58  C   UNL A   1      45.509  29.072  30.573  1.00  0.00     0.029 A 
ATOM     59  N   UNL A   1      44.257  30.869  30.865  1.00  0.00    -0.354 N 
ATOM     60  N   UNL A   1      40.524  30.945  33.068  1.00  0.00    -0.248 NA
ATOM     61  C   UNL A   1      40.335  32.461  31.308  1.00  0.00     0.031 C 
ATOM     62  C   UNL A   1      44.874  29.018  31.850  1.00  0.00     0.029 A 
ATOM     63  C   UNL A   1      43.952  30.065  31.932  1.00  0.00     0.049 A 
ATOM     64  H   UNL A   1      44.047  31.828  30.793  1.00  0.00     0.167 HD
ATOM     65  C   UNL A   1      41.793  31.160  32.557  1.00  0.00     0.074 A 
ATOM     66  C   UNL A   1      41.624  32.220  31.567  1.00  0.00     0.031 C 
ATOM     67  C   UNL A   1      42.796  30.261  32.784  1.00  0.00     0.031 A 
BRANCH  54  68
ATOM     68  C   UNL A   1      44.784  31.766  27.948  1.00  0.00    -0.014 A 
ATOM     69  C   UNL A   1      46.063  32.027  27.409  1.00  0.00     0.010 A 
ATOM     70  C   UNL A   1      43.942  32.875  28.151  1.00  0.00     0.010 A 
ATOM     71  C   UNL A   1      46.508  33.336  27.182  1.00  0.00     0.020 A 
ATOM     72  C   UNL A   1      44.359  34.183  27.887  1.00  0.00     0.020 A 
ATOM     73  C   UNL A   1      45.655  34.408  27.443  1.00  0.00     0.054 A 
BRANCH  73  74
ATOM     74  S   UNL A   1      46.278  36.098  27.272  1.00  0.00     0.124 S 
ATOM     75  O   UNL A   1      47.498  36.049  28.072  1.00  0.00    -0.237 OA
ATOM     76  O   UNL A   1      46.468  36.214  25.829  1.00  0.00    -0.237 OA
ATOM     77  O   UNL A   1      45.199  36.916  27.823  1.00  0.00    -0.744 OA
ENDBRANCH  73  74
ENDBRANCH  54  68
BRANCH  55  78
ATOM     78  C   UNL A   1      37.142  31.644  31.972  1.00  0.00    -0.014 A 
ATOM     79  C   UNL A   1      36.799  32.311  33.162  1.00  0.00     0.010 A 
ATOM     80  C   UNL A   1      36.397  31.956  30.818  1.00  0.00     0.010 A 
ATOM     81  C   UNL A   1      35.796  33.300  33.177  1.00  0.00     0.020 A 
ATOM     82  C   UNL A   1      35.398  32.937  30.822  1.00  0.00     0.020 A 
ATOM     83  C   UNL A   1      35.118  33.624  31.999  1.00  0.00     0.054 A 
BRANCH  83  84
ATOM     84  S   UNL A   1      33.977  35.041  31.969  1.00  0.00     0.124 S 
ATOM     85  O   UNL A   1      33.829  35.288  30.538  1.00  0.00    -0.237 OA
ATOM     86  O   UNL A   1      32.795  34.514  32.646  1.00  0.00    -0.237 OA
ATOM     87  O   UNL A   1      34.698  36.073  32.712  1.00  0.00    -0.744 OA
ENDBRANCH  83  84
ENDBRANCH  55  78
BRANCH  67  88
ATOM     88  C   UNL A   1      42.593  29.241  33.882  1.00  0.00    -0.014 A 
ATOM     89  C   UNL A   1      42.032  27.964  33.676  1.00  0.00     0.010 A 
ATOM     90  C   UNL A   1      43.123  29.545  35.147  1.00  0.00     0.010 A 
ATOM     91  C   UNL A   1      41.993  27.024  34.717  1.00  0.00     0.020 A 
ATOM     92  C   UNL A   1      43.104  28.607  36.180  1.00  0.00     0.020 A 
ATOM     93  C   UNL A   1      42.534  27.352  35.964  1.00  0.00     0.054 A 
BRANCH  93  94
ATOM     94  S   UNL A   1      42.541  26.114  37.291  1.00  0.00     0.124 S 
ATOM     95  O   UNL A   1      43.551  26.635  38.207  1.00  0.00    -0.237 OA
ATOM     96  O   UNL A   1      41.165  26.155  37.780  1.00  0.00    -0.237 OA
ATOM     97  O   UNL A   1      42.908  24.874  36.606  1.00  0.00    -0.744 OA
ENDBRANCH  93  94
ENDBRANCH  67  88
ENDBRANCH  41  42
ENDBRANCH  33  36
ENDBRANCH  31  32
ENDBRANCH  30  31
ENDBRANCH  29  30
ENDBRANCH  28  29
ENDBRANCH   1  28
TORSDOF 23
ENDMDL
MODEL 2
REMARK VINA RESULT:     -11.4      2.717      9.605
REMARK SMILES CCN(Cc1cn(CC)nc1C)C(=O)c1ccn([C@@H](C)C(=O)NCCCCCCNC(=O)c2ccc(-c3c4nc(c(-c5ccc(S(=O)(=O)[O-])cc5)c5ccc([nH]5)c(-c5ccc(S(=O)(=O)[O-])cc5)c5nc(c(-c6ccc(S(=O)(=O)[O-])cc6)c6ccc3[nH]6)C=C5)C=C4)cc2)n1
REMARK SMILES IDX 25 1 24 2 23 3 21 4 22 5 19 7 20 8 18 9 15 10 16 11 93 12
REMARK SMILES IDX 17 13 13 14 14 15 3 16 2 17 1 18 4 19 5 20 6 21 11 22 7 23
REMARK SMILES IDX 10 24 12 25 8 26 9 27 26 28 27 29 28 30 29 31 30 32 31 33
REMARK SMILES IDX 32 35 33 36 34 37 92 38 35 39 91 40 36 41 37 42 38 43 85 44
REMARK SMILES IDX 39 45 90 46 84 47 86 48 40 49 89 50 83 51 82 52 41 54 71 55
REMARK SMILES IDX 52 56 70 57 53 58 56 59 69 60 87 61 54 62 55 63 68 65 88 66
REMARK SMILES IDX 57 67 42 68 43 69 51 70 44 71 50 72 45 73 46 74 47 75 48 76
REMARK SMILES IDX 49 77 72 78 73 79 81 80 74 81 80 82 75 83 76 84 77 85 78 86
REMARK SMILES IDX 79 87 58 88 59 89 67 90 60 91 66 92 61 93 62 94 63 95 64 96
REMARK SMILES IDX 65 97
REMARK H PARENT 23 6 30 34 86 53 56 64
REMARK Flexibility Score: inf
ROOT
ATOM      1  C   UNL A   1      33.442  27.616  25.033  1.00  0.00     0.021 C 
ENDROOT
BRANCH   1   2
ATOM      2  C   UNL A   1      33.812  26.260  24.416  1.00  0.00     0.116 C 
BRANCH   2   3
ATOM      3  N   UNL A   1      33.134  26.029  23.154  1.00  0.00    -0.354 N 
ATOM      4  C   UNL A   1      31.879  25.606  22.826  1.00  0.00     0.244 C 
ATOM      5  O   UNL A   1      31.650  25.552  21.609  1.00  0.00    -0.273 OA
ATOM      6  H   UNL A   1      33.698  26.219  22.369  1.00  0.00     0.163 HD
BRANCH   4   7
ATOM      7  C   UNL A   1      30.758  25.282  23.826  1.00  0.00     0.193 C 
ATOM      8  C   UNL A   1      29.976  26.503  24.291  1.00  0.00     0.044 C 
BRANCH   7   9
ATOM      9  N   UNL A   1      31.204  24.414  24.908  1.00  0.00    -0.260 N 
ATOM     10  C   UNL A   1      32.530  23.095  25.922  1.00  0.00     0.150 A 
ATOM     11  C   UNL A   1      31.958  23.981  26.856  1.00  0.00     0.056 A 
ATOM     12  N   UNL A   1      32.073  23.401  24.685  1.00  0.00    -0.167 NA
ATOM     13  C   UNL A   1      30.868  24.498  26.219  1.00  0.00     0.110 A 
BRANCH  10  14
ATOM     14  C   UNL A   1      33.496  22.016  26.204  1.00  0.00     0.274 C 
ATOM     15  O   UNL A   1      33.876  21.813  27.359  1.00  0.00    -0.267 OA
BRANCH  14  16
ATOM     16  N   UNL A   1      33.969  21.247  25.116  1.00  0.00    -0.333 N 
BRANCH  16  17
ATOM     17  C   UNL A   1      33.659  19.814  25.119  1.00  0.00     0.117 C 
ATOM     18  C   UNL A   1      32.804  19.429  23.919  1.00  0.00     0.027 C 
ENDBRANCH  16  17
BRANCH  16  19
ATOM     19  C   UNL A   1      34.897  21.715  24.071  1.00  0.00     0.159 C 
BRANCH  19  20
ATOM     20  C   UNL A   1      36.213  22.142  24.642  1.00  0.00     0.012 A 
ATOM     21  C   UNL A   1      36.595  23.406  25.053  1.00  0.00     0.114 A 
ATOM     22  C   UNL A   1      37.316  21.311  25.023  1.00  0.00     0.064 A 
ATOM     23  N   UNL A   1      37.728  23.237  25.787  1.00  0.00    -0.272 N 
ATOM     24  N   UNL A   1      38.228  21.990  25.731  1.00  0.00    -0.178 NA
ATOM     25  C   UNL A   1      37.490  19.848  24.858  1.00  0.00     0.069 C 
BRANCH  23  26
ATOM     26  C   UNL A   1      38.288  24.188  26.723  1.00  0.00     0.141 C 
ATOM     27  C   UNL A   1      39.637  23.750  27.285  1.00  0.00     0.029 C 
ENDBRANCH  23  26
ENDBRANCH  19  20
ENDBRANCH  16  19
ENDBRANCH  14  16
ENDBRANCH  10  14
ENDBRANCH   7   9
ENDBRANCH   4   7
ENDBRANCH   2   3
ENDBRANCH   1   2
BRANCH   1  28
ATOM     28  C   UNL A   1      33.019  27.554  26.502  1.00  0.00     0.002 C 
BRANCH  28  29
ATOM     29  C   UNL A   1      31.802  28.411  26.882  1.00  0.00     0.002 C 
BRANCH  29  30
ATOM     30  C   UNL A   1      32.072  29.900  27.149  1.00  0.00     0.021 C 
BRANCH  30  31
ATOM     31  C   UNL A   1      33.460  30.187  27.710  1.00  0.00     0.116 C 
BRANCH  31  32
ATOM     32  N   UNL A   1      33.917  31.539  27.383  1.00  0.00    -0.352 N 
ATOM     33  C   UNL A   1      35.095  32.174  27.733  1.00  0.00     0.251 C 
ATOM     34  H   UNL A   1      33.296  32.072  26.836  1.00  0.00     0.163 HD
ATOM     35  O   UNL A   1      35.176  33.391  27.693  1.00  0.00    -0.269 OA
BRANCH  33  36
ATOM     36  C   UNL A   1      36.257  31.359  28.138  1.00  0.00     0.039 A 
ATOM     37  C   UNL A   1      36.443  30.046  27.688  1.00  0.00     0.014 A 
ATOM     38  C   UNL A   1      37.178  31.937  28.995  1.00  0.00     0.014 A 
ATOM     39  C   UNL A   1      37.612  29.356  28.037  1.00  0.00     0.010 A 
ATOM     40  C   UNL A   1      38.375  31.308  29.212  1.00  0.00     0.010 A 
ATOM     41  C   UNL A   1      38.592  30.007  28.794  1.00  0.00    -0.014 A 
BRANCH  41  42
ATOM     42  C   UNL A   1      39.919  29.448  29.056  1.00  0.00     0.031 A 
ATOM     43  C   UNL A   1      40.188  29.163  30.490  1.00  0.00     0.074 A 
ATOM     44  C   UNL A   1      40.733  28.958  28.091  1.00  0.00     0.049 A 
ATOM     45  N   UNL A   1      40.971  29.822  31.276  1.00  0.00    -0.248 NA
ATOM     46  C   UNL A   1      39.392  28.128  31.172  1.00  0.00     0.031 C 
ATOM     47  C   UNL A   1      40.476  28.862  26.644  1.00  0.00     0.029 A 
ATOM     48  N   UNL A   1      41.928  28.310  28.215  1.00  0.00    -0.354 N 
ATOM     49  C   UNL A   1      40.954  29.145  32.490  1.00  0.00     0.074 A 
ATOM     50  C   UNL A   1      39.821  28.255  32.431  1.00  0.00     0.031 C 
ATOM     51  C   UNL A   1      41.363  28.014  26.074  1.00  0.00     0.029 A 
ATOM     52  C   UNL A   1      42.360  27.652  27.064  1.00  0.00     0.049 A 
ATOM     53  H   UNL A   1      42.444  28.306  29.053  1.00  0.00     0.167 HD
ATOM     54  C   UNL A   1      42.027  29.177  33.331  1.00  0.00     0.031 A 
ATOM     55  C   UNL A   1      43.467  26.878  26.928  1.00  0.00     0.031 A 
ATOM     56  C   UNL A   1      43.005  30.140  32.886  1.00  0.00     0.049 A 
ATOM     57  C   UNL A   1      44.398  27.284  28.004  1.00  0.00     0.074 A 
ATOM     58  C   UNL A   1      43.044  31.509  32.724  1.00  0.00     0.029 A 
ATOM     59  N   UNL A   1      44.040  29.624  32.141  1.00  0.00    -0.354 N 
ATOM     60  N   UNL A   1      44.940  28.468  28.061  1.00  0.00    -0.248 NA
ATOM     61  C   UNL A   1      44.422  26.528  29.246  1.00  0.00     0.031 C 
ATOM     62  C   UNL A   1      43.858  31.726  31.573  1.00  0.00     0.029 A 
ATOM     63  C   UNL A   1      44.326  30.490  31.119  1.00  0.00     0.049 A 
ATOM     64  H   UNL A   1      44.500  28.771  32.314  1.00  0.00     0.167 HD
ATOM     65  C   UNL A   1      44.960  28.779  29.410  1.00  0.00     0.074 A 
ATOM     66  C   UNL A   1      44.776  27.500  30.092  1.00  0.00     0.031 C 
ATOM     67  C   UNL A   1      44.838  30.073  29.828  1.00  0.00     0.031 A 
BRANCH  54  68
ATOM     68  C   UNL A   1      42.424  28.059  34.269  1.00  0.00    -0.014 A 
ATOM     69  C   UNL A   1      42.574  28.360  35.641  1.00  0.00     0.010 A 
ATOM     70  C   UNL A   1      42.932  26.820  33.832  1.00  0.00     0.010 A 
ATOM     71  C   UNL A   1      43.282  27.512  36.504  1.00  0.00     0.020 A 
ATOM     72  C   UNL A   1      43.602  25.947  34.693  1.00  0.00     0.020 A 
ATOM     73  C   UNL A   1      43.808  26.318  36.015  1.00  0.00     0.054 A 
BRANCH  73  74
ATOM     74  S   UNL A   1      44.831  25.292  37.099  1.00  0.00     0.124 S 
ATOM     75  O   UNL A   1      46.162  25.843  36.864  1.00  0.00    -0.237 OA
ATOM     76  O   UNL A   1      44.254  25.558  38.413  1.00  0.00    -0.237 OA
ATOM     77  O   UNL A   1      44.615  23.939  36.590  1.00  0.00    -0.744 OA
ENDBRANCH  73  74
ENDBRANCH  54  68
BRANCH  55  78
ATOM     78  C   UNL A   1      43.725  25.700  26.062  1.00  0.00    -0.014 A 
ATOM     79  C   UNL A   1      45.018  25.376  25.611  1.00  0.00     0.010 A 
ATOM     80  C   UNL A   1      42.730  24.714  25.931  1.00  0.00     0.010 A 
ATOM     81  C   UNL A   1      45.313  24.092  25.114  1.00  0.00     0.020 A 
ATOM     82  C   UNL A   1      43.011  23.434  25.437  1.00  0.00     0.020 A 
ATOM     83  C   UNL A   1      44.311  23.120  25.053  1.00  0.00     0.054 A 
BRANCH  83  84
ATOM     84  S   UNL A   1      44.734  21.407  24.611  1.00  0.00     0.124 S 
ATOM     85  O   UNL A   1      43.686  20.646  25.284  1.00  0.00    -0.237 OA
ATOM     86  O   UNL A   1      44.666  21.425  23.153  1.00  0.00    -0.237 OA
ATOM     87  O   UNL A   1      46.081  21.238  25.158  1.00  0.00    -0.744 OA
ENDBRANCH  83  84
ENDBRANCH  55  78
BRANCH  67  88
ATOM     88  C   UNL A   1      45.044  31.167  28.804  1.00  0.00    -0.014 A 
ATOM     89  C   UNL A   1      44.018  31.683  27.987  1.00  0.00     0.010 A 
ATOM     90  C   UNL A   1      46.303  31.788  28.774  1.00  0.00     0.010 A 
ATOM     91  C   UNL A   1      44.256  32.785  27.151  1.00  0.00     0.020 A 
ATOM     92  C   UNL A   1      46.540  32.895  27.959  1.00  0.00     0.020 A 
ATOM     93  C   UNL A   1      45.518  33.386  27.146  1.00  0.00     0.054 A 
BRANCH  93  94
ATOM     94  S   UNL A   1      45.807  34.850  26.112  1.00  0.00     0.124 S 
ATOM     95  O   UNL A   1      45.554  34.344  24.766  1.00  0.00    -0.237 OA
ATOM     96  O   UNL A   1      44.825  35.806  26.621  1.00  0.00    -0.237 OA
ATOM     97  O   UNL A   1      47.200  35.201  26.389  1.00  0.00    -0.744 OA
ENDBRANCH  93  94
ENDBRANCH  67  88
ENDBRANCH  41  42
ENDBRANCH  33  36
ENDBRANCH  31  32
ENDBRANCH  30  31
ENDBRANCH  29  30
ENDBRANCH  28  29
ENDBRANCH   1  28
TORSDOF 23
ENDMDL
MODEL 3
REMARK VINA RESULT:     -11.4      1.256      2.261
REMARK SMILES CCN(Cc1cn(CC)nc1C)C(=O)c1ccn([C@@H](C)C(=O)NCCCCCCNC(=O)c2ccc(-c3c4nc(c(-c5ccc(S(=O)(=O)[O-])cc5)c5ccc([nH]5)c(-c5ccc(S(=O)(=O)[O-])cc5)c5nc(c(-c6ccc(S(=O)(=O)[O-])cc6)c6ccc3[nH]6)C=C5)C=C4)cc2)n1
REMARK SMILES IDX 25 1 24 2 23 3 21 4 22 5 19 7 20 8 18 9 15 10 16 11 93 12
REMARK SMILES IDX 17 13 13 14 14 15 3 16 2 17 1 18 4 19 5 20 6 21 11 22 7 23
REMARK SMILES IDX 10 24 12 25 8 26 9 27 26 28 27 29 28 30 29 31 30 32 31 33
REMARK SMILES IDX 32 35 33 36 34 37 92 38 35 39 91 40 36 41 37 42 38 43 85 44
REMARK SMILES IDX 39 45 90 46 84 47 86 48 40 49 89 50 83 51 82 52 41 54 71 55
REMARK SMILES IDX 52 56 70 57 53 58 56 59 69 60 87 61 54 62 55 63 68 65 88 66
REMARK SMILES IDX 57 67 42 68 43 69 51 70 44 71 50 72 45 73 46 74 47 75 48 76
REMARK SMILES IDX 49 77 72 78 73 79 81 80 74 81 80 82 75 83 76 84 77 85 78 86
REMARK SMILES IDX 79 87 58 88 59 89 67 90 60 91 66 92 61 93 62 94 63 95 64 96
REMARK SMILES IDX 65 97
REMARK H PARENT 23 6 30 34 86 53 56 64
REMARK Flexibility Score: inf
ROOT
ATOM      1  C   UNL A   1      34.566  24.207  25.750  1.00  0.00     0.021 C 
ENDROOT
BRANCH   1   2
ATOM      2  C   UNL A   1      34.257  23.017  26.671  1.00  0.00     0.116 C 
BRANCH   2   3
ATOM      3  N   UNL A   1      32.931  23.105  27.252  1.00  0.00    -0.354 N 
ATOM      4  C   UNL A   1      31.672  22.948  26.748  1.00  0.00     0.244 C 
ATOM      5  O   UNL A   1      30.760  23.081  27.577  1.00  0.00    -0.273 OA
ATOM      6  H   UNL A   1      32.941  23.322  28.212  1.00  0.00     0.163 HD
BRANCH   4   7
ATOM      7  C   UNL A   1      31.335  22.558  25.300  1.00  0.00     0.193 C 
ATOM      8  C   UNL A   1      32.042  21.297  24.821  1.00  0.00     0.044 C 
BRANCH   7   9
ATOM      9  N   UNL A   1      31.432  23.681  24.378  1.00  0.00    -0.260 N 
ATOM     10  C   UNL A   1      31.793  25.697  23.799  1.00  0.00     0.150 A 
ATOM     11  C   UNL A   1      32.324  24.834  22.819  1.00  0.00     0.056 A 
ATOM     12  N   UNL A   1      31.262  24.956  24.800  1.00  0.00    -0.167 NA
ATOM     13  C   UNL A   1      31.719  23.633  23.053  1.00  0.00     0.110 A 
BRANCH  10  14
ATOM     14  C   UNL A   1      31.821  27.172  23.786  1.00  0.00     0.274 C 
ATOM     15  O   UNL A   1      31.128  27.795  22.980  1.00  0.00    -0.267 OA
BRANCH  14  16
ATOM     16  N   UNL A   1      32.665  27.829  24.711  1.00  0.00    -0.333 N 
BRANCH  16  17
ATOM     17  C   UNL A   1      33.929  28.371  24.202  1.00  0.00     0.117 C 
ATOM     18  C   UNL A   1      33.879  28.571  22.693  1.00  0.00     0.027 C 
ENDBRANCH  16  17
BRANCH  16  19
ATOM     19  C   UNL A   1      32.478  27.861  26.172  1.00  0.00     0.159 C 
BRANCH  19  20
ATOM     20  C   UNL A   1      33.175  29.029  26.799  1.00  0.00     0.012 A 
ATOM     21  C   UNL A   1      34.420  29.058  27.399  1.00  0.00     0.114 A 
ATOM     22  C   UNL A   1      32.769  30.403  26.788  1.00  0.00     0.064 A 
ATOM     23  N   UNL A   1      34.752  30.373  27.515  1.00  0.00    -0.272 N 
ATOM     24  N   UNL A   1      33.745  31.213  27.217  1.00  0.00    -0.178 NA
ATOM     25  C   UNL A   1      31.523  31.009  26.258  1.00  0.00     0.069 C 
BRANCH  23  26
ATOM     26  C   UNL A   1      36.081  30.902  27.730  1.00  0.00     0.141 C 
ATOM     27  C   UNL A   1      37.144  29.815  27.851  1.00  0.00     0.029 C 
ENDBRANCH  23  26
ENDBRANCH  19  20
ENDBRANCH  16  19
ENDBRANCH  14  16
ENDBRANCH  10  14
ENDBRANCH   7   9
ENDBRANCH   4   7
ENDBRANCH   2   3
ENDBRANCH   1   2
BRANCH   1  28
ATOM     28  C   UNL A   1      35.641  23.935  24.695  1.00  0.00     0.002 C 
BRANCH  28  29
ATOM     29  C   UNL A   1      35.869  22.457  24.342  1.00  0.00     0.002 C 
BRANCH  29  30
ATOM     30  C   UNL A   1      37.226  21.860  24.747  1.00  0.00     0.021 C 
BRANCH  30  31
ATOM     31  C   UNL A   1      37.886  22.565  25.926  1.00  0.00     0.116 C 
BRANCH  31  32
ATOM     32  N   UNL A   1      38.963  21.766  26.512  1.00  0.00    -0.352 N 
ATOM     33  C   UNL A   1      40.198  22.172  26.987  1.00  0.00     0.251 C 
ATOM     34  H   UNL A   1      38.782  20.800  26.580  1.00  0.00     0.163 HD
ATOM     35  O   UNL A   1      41.106  21.367  27.111  1.00  0.00    -0.269 OA
BRANCH  33  36
ATOM     36  C   UNL A   1      40.395  23.588  27.355  1.00  0.00     0.039 A 
ATOM     37  C   UNL A   1      39.457  24.580  27.043  1.00  0.00     0.014 A 
ATOM     38  C   UNL A   1      41.558  23.919  28.028  1.00  0.00     0.014 A 
ATOM     39  C   UNL A   1      39.661  25.889  27.498  1.00  0.00     0.010 A 
ATOM     40  C   UNL A   1      41.676  25.164  28.586  1.00  0.00     0.010 A 
ATOM     41  C   UNL A   1      40.776  26.173  28.292  1.00  0.00    -0.014 A 
BRANCH  41  42
ATOM     42  C   UNL A   1      40.986  27.455  28.968  1.00  0.00     0.031 A 
ATOM     43  C   UNL A   1      42.046  28.299  28.358  1.00  0.00     0.074 A 
ATOM     44  C   UNL A   1      40.127  27.975  29.877  1.00  0.00     0.049 A 
ATOM     45  N   UNL A   1      43.219  28.536  28.842  1.00  0.00    -0.248 NA
ATOM     46  C   UNL A   1      41.849  28.818  26.995  1.00  0.00     0.031 C 
ATOM     47  C   UNL A   1      38.851  27.414  30.350  1.00  0.00     0.029 A 
ATOM     48  N   UNL A   1      40.147  29.198  30.482  1.00  0.00    -0.354 N 
ATOM     49  C   UNL A   1      43.823  29.428  27.963  1.00  0.00     0.074 A 
ATOM     50  C   UNL A   1      43.030  29.395  26.759  1.00  0.00     0.031 C 
ATOM     51  C   UNL A   1      38.130  28.372  30.979  1.00  0.00     0.029 A 
ATOM     52  C   UNL A   1      38.959  29.555  31.121  1.00  0.00     0.049 A 
ATOM     53  H   UNL A   1      40.938  29.783  30.469  1.00  0.00     0.167 HD
ATOM     54  C   UNL A   1      44.764  30.316  28.394  1.00  0.00     0.031 A 
ATOM     55  C   UNL A   1      38.680  30.733  31.735  1.00  0.00     0.031 A 
ATOM     56  C   UNL A   1      45.156  30.036  29.755  1.00  0.00     0.049 A 
ATOM     57  C   UNL A   1      39.982  31.339  32.090  1.00  0.00     0.074 A 
ATOM     58  C   UNL A   1      45.783  28.997  30.410  1.00  0.00     0.029 A 
ATOM     59  N   UNL A   1      44.511  30.778  30.716  1.00  0.00    -0.354 N 
ATOM     60  N   UNL A   1      40.799  30.806  32.954  1.00  0.00    -0.248 NA
ATOM     61  C   UNL A   1      40.574  32.322  31.198  1.00  0.00     0.031 C 
ATOM     62  C   UNL A   1      45.161  28.935  31.693  1.00  0.00     0.029 A 
ATOM     63  C   UNL A   1      44.227  29.970  31.785  1.00  0.00     0.049 A 
ATOM     64  H   UNL A   1      44.289  31.735  30.647  1.00  0.00     0.167 HD
ATOM     65  C   UNL A   1      42.060  31.037  32.432  1.00  0.00     0.074 A 
ATOM     66  C   UNL A   1      41.868  32.096  31.444  1.00  0.00     0.031 C 
ATOM     67  C   UNL A   1      43.076  30.151  32.648  1.00  0.00     0.031 A 
BRANCH  54  68
ATOM     68  C   UNL A   1      45.000  31.685  27.795  1.00  0.00    -0.014 A 
ATOM     69  C   UNL A   1      46.327  32.060  27.488  1.00  0.00     0.010 A 
ATOM     70  C   UNL A   1      44.034  32.709  27.792  1.00  0.00     0.010 A 
ATOM     71  C   UNL A   1      46.681  33.401  27.290  1.00  0.00     0.020 A 
ATOM     72  C   UNL A   1      44.368  34.045  27.553  1.00  0.00     0.020 A 
ATOM     73  C   UNL A   1      45.697  34.387  27.344  1.00  0.00     0.054 A 
BRANCH  73  74
ATOM     74  S   UNL A   1      46.180  36.127  27.217  1.00  0.00     0.124 S 
ATOM     75  O   UNL A   1      44.988  36.805  27.717  1.00  0.00    -0.237 OA
ATOM     76  O   UNL A   1      47.356  36.186  28.081  1.00  0.00    -0.237 OA
ATOM     77  O   UNL A   1      46.448  36.302  25.791  1.00  0.00    -0.744 OA
ENDBRANCH  73  74
ENDBRANCH  54  68
BRANCH  55  78
ATOM     78  C   UNL A   1      37.398  31.465  31.891  1.00  0.00    -0.014 A 
ATOM     79  C   UNL A   1      36.820  31.696  33.152  1.00  0.00     0.010 A 
ATOM     80  C   UNL A   1      36.896  32.207  30.805  1.00  0.00     0.010 A 
ATOM     81  C   UNL A   1      35.828  32.680  33.328  1.00  0.00     0.020 A 
ATOM     82  C   UNL A   1      35.910  33.188  30.967  1.00  0.00     0.020 A 
ATOM     83  C   UNL A   1      35.397  33.438  32.236  1.00  0.00     0.054 A 
BRANCH  83  84
ATOM     84  S   UNL A   1      34.275  34.847  32.496  1.00  0.00     0.124 S 
ATOM     85  O   UNL A   1      33.143  34.220  33.170  1.00  0.00    -0.237 OA
ATOM     86  O   UNL A   1      35.079  35.750  33.314  1.00  0.00    -0.237 OA
ATOM     87  O   UNL A   1      34.010  35.324  31.138  1.00  0.00    -0.744 OA
ENDBRANCH  83  84
ENDBRANCH  55  78
BRANCH  67  88
ATOM     88  C   UNL A   1      42.896  29.127  33.747  1.00  0.00    -0.014 A 
ATOM     89  C   UNL A   1      43.454  29.250  35.035  1.00  0.00     0.010 A 
ATOM     90  C   UNL A   1      42.007  28.068  33.498  1.00  0.00     0.010 A 
ATOM     91  C   UNL A   1      43.139  28.325  36.042  1.00  0.00     0.020 A 
ATOM     92  C   UNL A   1      41.675  27.156  34.501  1.00  0.00     0.020 A 
ATOM     93  C   UNL A   1      42.247  27.284  35.768  1.00  0.00     0.054 A 
BRANCH  93  94
ATOM     94  S   UNL A   1      41.790  26.125  37.088  1.00  0.00     0.124 S 
ATOM     95  O   UNL A   1      42.814  26.374  38.098  1.00  0.00    -0.237 OA
ATOM     96  O   UNL A   1      40.438  26.553  37.443  1.00  0.00    -0.237 OA
ATOM     97  O   UNL A   1      41.865  24.815  36.441  1.00  0.00    -0.744 OA
ENDBRANCH  93  94
ENDBRANCH  67  88
ENDBRANCH  41  42
ENDBRANCH  33  36
ENDBRANCH  31  32
ENDBRANCH  30  31
ENDBRANCH  29  30
ENDBRANCH  28  29
ENDBRANCH   1  28
TORSDOF 23
ENDMDL
