MODEL 1
REMARK VINA RESULT:     -11.1      0.000      0.000
REMARK SMILES CC1=C[C@@H]([C@@H]2N=N[C@H](S)N2/N=C/c2ccc(C(=O)NCCCCCCNC(=O)c3ccc(-c4c5nc(c(-c6ccc(S(=O)(=O)[O-])cc6)c6ccc([nH]6)c(-c6ccc(S(=O)(=O)[O-])cc6)c6nc(c(-c7ccc(S(=O)(=O)[O-])cc7)c7ccc4[nH]7)C=C6)C=C5)cc3)cc2)N=N1
REMARK SMILES IDX 22 1 21 2 20 3 19 4 17 5 18 6 16 8 13 9 14 10 90 11 15 12
REMARK SMILES IDX 89 13 12 14 11 15 10 16 5 17 6 18 7 19 8 20 4 21 1 22 2 23
REMARK SMILES IDX 3 24 92 25 91 26 9 27 23 29 24 30 25 31 26 32 27 33 28 35
REMARK SMILES IDX 29 36 30 37 88 38 31 39 87 40 32 41 33 42 34 43 81 44 35 45
REMARK SMILES IDX 86 46 80 47 82 48 36 49 85 50 79 51 78 52 37 54 67 55 48 56
REMARK SMILES IDX 66 57 49 58 52 59 65 60 83 61 50 62 51 63 64 65 84 66 53 67
REMARK SMILES IDX 38 68 39 69 47 70 40 71 46 72 41 73 42 74 43 75 44 76 45 77
REMARK SMILES IDX 68 78 69 79 77 80 70 81 76 82 71 83 72 84 73 85 74 86 75 87
REMARK SMILES IDX 54 88 55 89 63 90 56 91 62 92 57 93 58 94 59 95 60 96 61 97
REMARK H PARENT 19 7 9 28 26 34 82 53 52 64
REMARK Flexibility Score: inf
ROOT
ATOM      1  C   UNL A   1      37.261  22.673  24.961  1.00  0.00     0.002 C 
ENDROOT
BRANCH   1   2
ATOM      2  C   UNL A   1      37.218  21.311  24.255  1.00  0.00     0.021 C 
BRANCH   2   3
ATOM      3  C   UNL A   1      36.970  20.148  25.219  1.00  0.00     0.116 C 
BRANCH   3   4
ATOM      4  N   UNL A   1      35.755  19.448  24.853  1.00  0.00    -0.352 N 
ATOM      5  C   UNL A   1      34.440  19.826  24.804  1.00  0.00     0.251 C 
ATOM      6  O   UNL A   1      33.624  18.984  24.424  1.00  0.00    -0.269 OA
ATOM      7  H   UNL A   1      35.906  18.513  24.585  1.00  0.00     0.163 HD
BRANCH   5   8
ATOM      8  C   UNL A   1      33.967  21.207  25.110  1.00  0.00     0.039 A 
ATOM      9  C   UNL A   1      33.183  23.870  25.480  1.00  0.00    -0.005 A 
ATOM     10  C   UNL A   1      33.215  23.336  24.192  1.00  0.00     0.010 A 
ATOM     11  C   UNL A   1      33.487  23.078  26.584  1.00  0.00     0.010 A 
ATOM     12  C   UNL A   1      33.625  22.014  24.010  1.00  0.00     0.014 A 
ATOM     13  C   UNL A   1      33.823  21.736  26.397  1.00  0.00     0.014 A 
BRANCH   9  14
ATOM     14  C   UNL A   1      32.739  25.256  25.673  1.00  0.00     0.141 C 
ATOM     15  N   UNL A   1      33.554  26.256  25.561  1.00  0.00    -0.180 NA
BRANCH  15  16
ATOM     16  N   UNL A   1      33.075  27.497  25.837  1.00  0.00    -0.233 NA
ATOM     17  C   UNL A   1      31.760  27.918  25.342  1.00  0.00     0.274 C 
ATOM     18  N   UNL A   1      31.212  28.902  26.319  1.00  0.00    -0.161 NA
ATOM     19  N   UNL A   1      32.055  29.161  27.207  1.00  0.00    -0.153 NA
ATOM     20  C   UNL A   1      33.239  28.292  27.054  1.00  0.00     0.298 C 
BRANCH  17  21
ATOM     21  C   UNL A   1      31.801  28.558  23.919  1.00  0.00     0.201 C 
ATOM     22  C   UNL A   1      28.473  29.144  22.432  1.00  0.00     0.068 C 
ATOM     23  C   UNL A   1      29.863  28.786  22.810  1.00  0.00     0.058 C 
ATOM     24  C   UNL A   1      30.653  29.465  23.639  1.00  0.00     0.031 C 
ATOM     25  N   UNL A   1      30.448  27.626  22.362  1.00  0.00    -0.160 NA
ATOM     26  N   UNL A   1      31.589  27.485  22.894  1.00  0.00    -0.177 NA
ENDBRANCH  17  21
BRANCH  20  27
ATOM     27  S   UNL A   1      34.844  29.159  27.053  1.00  0.00    -0.128 SA
ATOM     28  H   UNL A   1      35.773  28.391  26.422  1.00  0.00     0.106 HD
ENDBRANCH  20  27
ENDBRANCH  15  16
ENDBRANCH   9  14
ENDBRANCH   5   8
ENDBRANCH   3   4
ENDBRANCH   2   3
ENDBRANCH   1   2
BRANCH   1  29
ATOM     29  C   UNL A   1      38.272  22.782  26.115  1.00  0.00     0.002 C 
BRANCH  29  30
ATOM     30  C   UNL A   1      39.394  21.732  26.123  1.00  0.00     0.021 C 
BRANCH  30  31
ATOM     31  C   UNL A   1      40.638  22.194  26.865  1.00  0.00     0.116 C 
BRANCH  31  32
ATOM     32  N   UNL A   1      41.826  22.138  26.012  1.00  0.00    -0.352 N 
ATOM     33  C   UNL A   1      42.550  23.182  25.484  1.00  0.00     0.251 C 
ATOM     34  H   UNL A   1      42.149  21.236  25.786  1.00  0.00     0.163 HD
ATOM     35  O   UNL A   1      43.264  23.007  24.492  1.00  0.00    -0.269 OA
BRANCH  33  36
ATOM     36  C   UNL A   1      42.472  24.503  26.124  1.00  0.00     0.039 A 
ATOM     37  C   UNL A   1      41.593  25.491  25.671  1.00  0.00     0.014 A 
ATOM     38  C   UNL A   1      43.306  24.740  27.215  1.00  0.00     0.014 A 
ATOM     39  C   UNL A   1      41.516  26.692  26.373  1.00  0.00     0.010 A 
ATOM     40  C   UNL A   1      43.110  25.845  27.998  1.00  0.00     0.010 A 
ATOM     41  C   UNL A   1      42.271  26.853  27.546  1.00  0.00    -0.014 A 
BRANCH  41  42
ATOM     42  C   UNL A   1      42.109  28.020  28.402  1.00  0.00     0.031 A 
ATOM     43  C   UNL A   1      43.178  29.035  28.234  1.00  0.00     0.074 A 
ATOM     44  C   UNL A   1      40.977  28.267  29.098  1.00  0.00     0.049 A 
ATOM     45  N   UNL A   1      44.135  29.298  29.058  1.00  0.00    -0.248 NA
ATOM     46  C   UNL A   1      43.315  29.710  26.931  1.00  0.00     0.031 C 
ATOM     47  C   UNL A   1      39.723  27.502  29.100  1.00  0.00     0.029 A 
ATOM     48  N   UNL A   1      40.662  29.342  29.869  1.00  0.00    -0.354 N 
ATOM     49  C   UNL A   1      44.841  30.354  28.496  1.00  0.00     0.074 A 
ATOM     50  C   UNL A   1      44.439  30.408  27.112  1.00  0.00     0.031 C 
ATOM     51  C   UNL A   1      38.730  28.256  29.622  1.00  0.00     0.029 A 
ATOM     52  C   UNL A   1      39.304  29.483  30.146  1.00  0.00     0.049 A 
ATOM     53  H   UNL A   1      41.340  29.971  30.205  1.00  0.00     0.167 HD
ATOM     54  C   UNL A   1      45.476  31.271  29.277  1.00  0.00     0.031 A 
ATOM     55  C   UNL A   1      38.698  30.547  30.738  1.00  0.00     0.031 A 
ATOM     56  C   UNL A   1      45.534  30.837  30.651  1.00  0.00     0.049 A 
ATOM     57  C   UNL A   1      39.754  31.281  31.475  1.00  0.00     0.074 A 
ATOM     58  C   UNL A   1      46.062  29.740  31.305  1.00  0.00     0.029 A 
ATOM     59  N   UNL A   1      44.602  31.381  31.507  1.00  0.00    -0.354 N 
ATOM     60  N   UNL A   1      40.382  30.780  32.503  1.00  0.00    -0.248 NA
ATOM     61  C   UNL A   1      40.447  32.359  30.788  1.00  0.00     0.031 C 
ATOM     62  C   UNL A   1      45.093  29.406  32.297  1.00  0.00     0.029 A 
ATOM     63  C   UNL A   1      44.078  30.364  32.261  1.00  0.00     0.049 A 
ATOM     64  H   UNL A   1      44.357  32.332  31.566  1.00  0.00     0.167 HD
ATOM     65  C   UNL A   1      41.709  31.139  32.312  1.00  0.00     0.074 A 
ATOM     66  C   UNL A   1      41.671  32.194  31.298  1.00  0.00     0.031 C 
ATOM     67  C   UNL A   1      42.724  30.352  32.777  1.00  0.00     0.031 A 
BRANCH  54  68
ATOM     68  C   UNL A   1      45.648  32.724  28.908  1.00  0.00    -0.014 A 
ATOM     69  C   UNL A   1      46.908  33.153  28.443  1.00  0.00     0.010 A 
ATOM     70  C   UNL A   1      44.720  33.727  29.258  1.00  0.00     0.010 A 
ATOM     71  C   UNL A   1      47.246  34.511  28.404  1.00  0.00     0.020 A 
ATOM     72  C   UNL A   1      45.031  35.085  29.180  1.00  0.00     0.020 A 
ATOM     73  C   UNL A   1      46.306  35.468  28.784  1.00  0.00     0.054 A 
BRANCH  73  74
ATOM     74  S   UNL A   1      46.781  37.213  28.811  1.00  0.00     0.124 S 
ATOM     75  O   UNL A   1      47.657  37.303  27.648  1.00  0.00    -0.237 OA
ATOM     76  O   UNL A   1      45.489  37.883  28.689  1.00  0.00    -0.237 OA
ATOM     77  O   UNL A   1      47.438  37.367  30.107  1.00  0.00    -0.744 OA
ENDBRANCH  73  74
ENDBRANCH  54  68
BRANCH  55  78
ATOM     78  C   UNL A   1      37.364  31.144  30.454  1.00  0.00    -0.014 A 
ATOM     79  C   UNL A   1      36.690  31.907  31.429  1.00  0.00     0.010 A 
ATOM     80  C   UNL A   1      36.897  31.228  29.127  1.00  0.00     0.010 A 
ATOM     81  C   UNL A   1      35.651  32.787  31.075  1.00  0.00     0.020 A 
ATOM     82  C   UNL A   1      35.857  32.097  28.768  1.00  0.00     0.020 A 
ATOM     83  C   UNL A   1      35.260  32.898  29.739  1.00  0.00     0.054 A 
BRANCH  83  84
ATOM     84  S   UNL A   1      34.080  34.194  29.250  1.00  0.00     0.124 S 
ATOM     85  O   UNL A   1      33.403  34.492  30.509  1.00  0.00    -0.237 OA
ATOM     86  O   UNL A   1      34.954  35.244  28.737  1.00  0.00    -0.237 OA
ATOM     87  O   UNL A   1      33.250  33.538  28.240  1.00  0.00    -0.744 OA
ENDBRANCH  83  84
ENDBRANCH  55  78
BRANCH  67  88
ATOM     88  C   UNL A   1      42.391  29.246  33.753  1.00  0.00    -0.014 A 
ATOM     89  C   UNL A   1      41.865  27.990  33.387  1.00  0.00     0.010 A 
ATOM     90  C   UNL A   1      42.762  29.448  35.093  1.00  0.00     0.010 A 
ATOM     91  C   UNL A   1      41.689  26.979  34.348  1.00  0.00     0.020 A 
ATOM     92  C   UNL A   1      42.609  28.443  36.048  1.00  0.00     0.020 A 
ATOM     93  C   UNL A   1      42.060  27.217  35.675  1.00  0.00     0.054 A 
BRANCH  93  94
ATOM     94  S   UNL A   1      41.851  25.908  36.915  1.00  0.00     0.124 S 
ATOM     95  O   UNL A   1      42.376  26.530  38.126  1.00  0.00    -0.237 OA
ATOM     96  O   UNL A   1      40.408  25.674  36.902  1.00  0.00    -0.237 OA
ATOM     97  O   UNL A   1      42.652  24.802  36.391  1.00  0.00    -0.744 OA
ENDBRANCH  93  94
ENDBRANCH  67  88
ENDBRANCH  41  42
ENDBRANCH  33  36
ENDBRANCH  31  32
ENDBRANCH  30  31
ENDBRANCH  29  30
ENDBRANCH   1  29
TORSDOF 20
ENDMDL
MODEL 2
REMARK VINA RESULT:     -10.9      2.993      7.680
REMARK SMILES CC1=C[C@@H]([C@@H]2N=N[C@H](S)N2/N=C/c2ccc(C(=O)NCCCCCCNC(=O)c3ccc(-c4c5nc(c(-c6ccc(S(=O)(=O)[O-])cc6)c6ccc([nH]6)c(-c6ccc(S(=O)(=O)[O-])cc6)c6nc(c(-c7ccc(S(=O)(=O)[O-])cc7)c7ccc4[nH]7)C=C6)C=C5)cc3)cc2)N=N1
REMARK SMILES IDX 22 1 21 2 20 3 19 4 17 5 18 6 16 8 13 9 14 10 90 11 15 12
REMARK SMILES IDX 89 13 12 14 11 15 10 16 5 17 6 18 7 19 8 20 4 21 1 22 2 23
REMARK SMILES IDX 3 24 92 25 91 26 9 27 23 29 24 30 25 31 26 32 27 33 28 35
REMARK SMILES IDX 29 36 30 37 88 38 31 39 87 40 32 41 33 42 34 43 81 44 35 45
REMARK SMILES IDX 86 46 80 47 82 48 36 49 85 50 79 51 78 52 37 54 67 55 48 56
REMARK SMILES IDX 66 57 49 58 52 59 65 60 83 61 50 62 51 63 64 65 84 66 53 67
REMARK SMILES IDX 38 68 39 69 47 70 40 71 46 72 41 73 42 74 43 75 44 76 45 77
REMARK SMILES IDX 68 78 69 79 77 80 70 81 76 82 71 83 72 84 73 85 74 86 75 87
REMARK SMILES IDX 54 88 55 89 63 90 56 91 62 92 57 93 58 94 59 95 60 96 61 97
REMARK H PARENT 19 7 9 28 26 34 82 53 52 64
REMARK Flexibility Score: inf
ROOT
ATOM      1  C   UNL A   1      37.085  22.315  24.404  1.00  0.00     0.002 C 
ENDROOT
BRANCH   1   2
ATOM      2  C   UNL A   1      35.660  21.745  24.418  1.00  0.00     0.021 C 
BRANCH   2   3
ATOM      3  C   UNL A   1      35.307  21.060  25.740  1.00  0.00     0.116 C 
BRANCH   3   4
ATOM      4  N   UNL A   1      34.051  20.349  25.612  1.00  0.00    -0.352 N 
ATOM      5  C   UNL A   1      32.779  20.751  25.305  1.00  0.00     0.251 C 
ATOM      6  O   UNL A   1      31.908  19.880  25.256  1.00  0.00    -0.269 OA
ATOM      7  H   UNL A   1      34.128  19.381  25.780  1.00  0.00     0.163 HD
BRANCH   5   8
ATOM      8  C   UNL A   1      32.419  22.155  24.958  1.00  0.00     0.039 A 
ATOM      9  C   UNL A   1      31.829  24.750  24.086  1.00  0.00    -0.005 A 
ATOM     10  C   UNL A   1      31.688  23.680  23.202  1.00  0.00     0.010 A 
ATOM     11  C   UNL A   1      32.209  24.534  25.407  1.00  0.00     0.010 A 
ATOM     12  C   UNL A   1      32.003  22.391  23.635  1.00  0.00     0.014 A 
ATOM     13  C   UNL A   1      32.447  23.232  25.851  1.00  0.00     0.014 A 
BRANCH   9  14
ATOM     14  C   UNL A   1      31.485  26.104  23.634  1.00  0.00     0.141 C 
ATOM     15  N   UNL A   1      30.322  26.627  23.865  1.00  0.00    -0.180 NA
BRANCH  15  16
ATOM     16  N   UNL A   1      30.064  27.852  23.339  1.00  0.00    -0.233 NA
ATOM     17  C   UNL A   1      31.155  28.705  22.857  1.00  0.00     0.274 C 
ATOM     18  N   UNL A   1      30.607  29.548  21.756  1.00  0.00    -0.161 NA
ATOM     19  N   UNL A   1      29.375  29.366  21.630  1.00  0.00    -0.153 NA
ATOM     20  C   UNL A   1      28.928  28.276  22.520  1.00  0.00     0.298 C 
BRANCH  17  21
ATOM     21  C   UNL A   1      31.771  29.620  23.961  1.00  0.00     0.201 C 
ATOM     22  C   UNL A   1      34.007  27.856  26.309  1.00  0.00     0.068 C 
ATOM     23  C   UNL A   1      32.988  28.649  25.577  1.00  0.00     0.058 C 
ATOM     24  C   UNL A   1      33.141  29.212  24.380  1.00  0.00     0.031 C 
ATOM     25  N   UNL A   1      31.719  28.814  26.075  1.00  0.00    -0.160 NA
ATOM     26  N   UNL A   1      31.002  29.435  25.234  1.00  0.00    -0.177 NA
ENDBRANCH  17  21
BRANCH  20  27
ATOM     27  S   UNL A   1      27.484  28.668  23.564  1.00  0.00    -0.128 SA
ATOM     28  H   UNL A   1      27.768  29.747  24.342  1.00  0.00     0.106 HD
ENDBRANCH  20  27
ENDBRANCH  15  16
ENDBRANCH   9  14
ENDBRANCH   5   8
ENDBRANCH   3   4
ENDBRANCH   2   3
ENDBRANCH   1   2
BRANCH   1  29
ATOM     29  C   UNL A   1      37.987  21.853  25.561  1.00  0.00     0.002 C 
BRANCH  29  30
ATOM     30  C   UNL A   1      39.163  20.944  25.171  1.00  0.00     0.021 C 
BRANCH  30  31
ATOM     31  C   UNL A   1      39.369  19.788  26.138  1.00  0.00     0.116 C 
BRANCH  31  32
ATOM     32  N   UNL A   1      40.627  19.086  25.877  1.00  0.00    -0.352 N 
ATOM     33  C   UNL A   1      41.898  19.607  25.806  1.00  0.00     0.251 C 
ATOM     34  H   UNL A   1      40.554  18.115  25.735  1.00  0.00     0.163 HD
ATOM     35  O   UNL A   1      42.789  18.997  25.206  1.00  0.00    -0.269 OA
BRANCH  33  36
ATOM     36  C   UNL A   1      42.184  20.891  26.462  1.00  0.00     0.039 A 
ATOM     37  C   UNL A   1      42.687  21.985  25.753  1.00  0.00     0.014 A 
ATOM     38  C   UNL A   1      41.928  20.986  27.828  1.00  0.00     0.014 A 
ATOM     39  C   UNL A   1      42.862  23.194  26.423  1.00  0.00     0.010 A 
ATOM     40  C   UNL A   1      41.939  22.209  28.443  1.00  0.00     0.010 A 
ATOM     41  C   UNL A   1      42.470  23.299  27.768  1.00  0.00    -0.014 A 
BRANCH  41  42
ATOM     42  C   UNL A   1      42.481  24.575  28.468  1.00  0.00     0.031 A 
ATOM     43  C   UNL A   1      41.296  25.422  28.183  1.00  0.00     0.074 A 
ATOM     44  C   UNL A   1      43.353  24.860  29.460  1.00  0.00     0.049 A 
ATOM     45  N   UNL A   1      41.261  26.491  27.460  1.00  0.00    -0.248 NA
ATOM     46  C   UNL A   1      39.966  24.937  28.590  1.00  0.00     0.031 C 
ATOM     47  C   UNL A   1      44.373  23.985  30.054  1.00  0.00     0.029 A 
ATOM     48  N   UNL A   1      43.430  25.969  30.243  1.00  0.00    -0.354 N 
ATOM     49  C   UNL A   1      39.955  26.958  27.537  1.00  0.00     0.074 A 
ATOM     50  C   UNL A   1      39.170  25.860  28.044  1.00  0.00     0.031 C 
ATOM     51  C   UNL A   1      44.779  24.498  31.239  1.00  0.00     0.029 A 
ATOM     52  C   UNL A   1      44.183  25.812  31.405  1.00  0.00     0.049 A 
ATOM     53  H   UNL A   1      42.990  26.816  30.007  1.00  0.00     0.167 HD
ATOM     54  C   UNL A   1      39.679  28.289  27.452  1.00  0.00     0.031 A 
ATOM     55  C   UNL A   1      44.281  26.689  32.439  1.00  0.00     0.031 A 
ATOM     56  C   UNL A   1      40.832  29.036  27.014  1.00  0.00     0.049 A 
ATOM     57  C   UNL A   1      43.877  28.015  31.910  1.00  0.00     0.074 A 
ATOM     58  C   UNL A   1      41.640  29.012  25.894  1.00  0.00     0.029 A 
ATOM     59  N   UNL A   1      41.554  29.681  27.993  1.00  0.00    -0.354 N 
ATOM     60  N   UNL A   1      44.562  28.657  31.004  1.00  0.00    -0.248 NA
ATOM     61  C   UNL A   1      42.480  28.401  32.023  1.00  0.00     0.031 C 
ATOM     62  C   UNL A   1      42.961  29.208  26.393  1.00  0.00     0.029 A 
ATOM     63  C   UNL A   1      42.883  29.435  27.769  1.00  0.00     0.049 A 
ATOM     64  H   UNL A   1      41.180  30.224  28.724  1.00  0.00     0.167 HD
ATOM     65  C   UNL A   1      43.605  29.171  30.141  1.00  0.00     0.074 A 
ATOM     66  C   UNL A   1      42.342  29.069  30.874  1.00  0.00     0.031 C 
ATOM     67  C   UNL A   1      43.881  29.358  28.815  1.00  0.00     0.031 A 
BRANCH  54  68
ATOM     68  C   UNL A   1      38.536  28.964  28.170  1.00  0.00    -0.014 A 
ATOM     69  C   UNL A   1      37.752  29.895  27.457  1.00  0.00     0.010 A 
ATOM     70  C   UNL A   1      38.375  28.932  29.571  1.00  0.00     0.010 A 
ATOM     71  C   UNL A   1      36.911  30.797  28.119  1.00  0.00     0.020 A 
ATOM     72  C   UNL A   1      37.506  29.798  30.237  1.00  0.00     0.020 A 
ATOM     73  C   UNL A   1      36.802  30.747  29.508  1.00  0.00     0.054 A 
BRANCH  73  74
ATOM     74  S   UNL A   1      35.779  31.972  30.359  1.00  0.00     0.124 S 
ATOM     75  O   UNL A   1      35.638  31.377  31.683  1.00  0.00    -0.237 OA
ATOM     76  O   UNL A   1      36.611  33.170  30.285  1.00  0.00    -0.237 OA
ATOM     77  O   UNL A   1      34.560  32.015  29.555  1.00  0.00    -0.744 OA
ENDBRANCH  73  74
ENDBRANCH  54  68
BRANCH  55  78
ATOM     78  C   UNL A   1      44.384  26.413  33.897  1.00  0.00    -0.014 A 
ATOM     79  C   UNL A   1      45.579  25.918  34.458  1.00  0.00     0.010 A 
ATOM     80  C   UNL A   1      43.416  26.929  34.783  1.00  0.00     0.010 A 
ATOM     81  C   UNL A   1      45.833  26.019  35.838  1.00  0.00     0.020 A 
ATOM     82  C   UNL A   1      43.659  27.026  36.161  1.00  0.00     0.020 A 
ATOM     83  C   UNL A   1      44.881  26.600  36.678  1.00  0.00     0.054 A 
BRANCH  83  84
ATOM     84  S   UNL A   1      45.299  26.937  38.417  1.00  0.00     0.124 S 
ATOM     85  O   UNL A   1      46.746  26.748  38.433  1.00  0.00    -0.237 OA
ATOM     86  O   UNL A   1      44.837  28.310  38.596  1.00  0.00    -0.237 OA
ATOM     87  O   UNL A   1      44.534  25.932  39.154  1.00  0.00    -0.744 OA
ENDBRANCH  83  84
ENDBRANCH  55  78
BRANCH  67  88
ATOM     88  C   UNL A   1      45.322  29.280  28.361  1.00  0.00    -0.014 A 
ATOM     89  C   UNL A   1      46.218  30.369  28.359  1.00  0.00     0.010 A 
ATOM     90  C   UNL A   1      45.822  28.004  28.054  1.00  0.00     0.010 A 
ATOM     91  C   UNL A   1      47.571  30.182  28.027  1.00  0.00     0.020 A 
ATOM     92  C   UNL A   1      47.168  27.808  27.742  1.00  0.00     0.020 A 
ATOM     93  C   UNL A   1      48.034  28.900  27.716  1.00  0.00     0.054 A 
BRANCH  93  94
ATOM     94  S   UNL A   1      49.785  28.653  27.304  1.00  0.00     0.124 S 
ATOM     95  O   UNL A   1      50.011  27.265  27.695  1.00  0.00    -0.237 OA
ATOM     96  O   UNL A   1      49.822  28.917  25.866  1.00  0.00    -0.237 OA
ATOM     97  O   UNL A   1      50.479  29.646  28.123  1.00  0.00    -0.744 OA
ENDBRANCH  93  94
ENDBRANCH  67  88
ENDBRANCH  41  42
ENDBRANCH  33  36
ENDBRANCH  31  32
ENDBRANCH  30  31
ENDBRANCH  29  30
ENDBRANCH   1  29
TORSDOF 20
ENDMDL
MODEL 3
REMARK VINA RESULT:     -10.6      4.466      9.023
REMARK SMILES CC1=C[C@@H]([C@@H]2N=N[C@H](S)N2/N=C/c2ccc(C(=O)NCCCCCCNC(=O)c3ccc(-c4c5nc(c(-c6ccc(S(=O)(=O)[O-])cc6)c6ccc([nH]6)c(-c6ccc(S(=O)(=O)[O-])cc6)c6nc(c(-c7ccc(S(=O)(=O)[O-])cc7)c7ccc4[nH]7)C=C6)C=C5)cc3)cc2)N=N1
REMARK SMILES IDX 22 1 21 2 20 3 19 4 17 5 18 6 16 8 13 9 14 10 90 11 15 12
REMARK SMILES IDX 89 13 12 14 11 15 10 16 5 17 6 18 7 19 8 20 4 21 1 22 2 23
REMARK SMILES IDX 3 24 92 25 91 26 9 27 23 29 24 30 25 31 26 32 27 33 28 35
REMARK SMILES IDX 29 36 30 37 88 38 31 39 87 40 32 41 33 42 34 43 81 44 35 45
REMARK SMILES IDX 86 46 80 47 82 48 36 49 85 50 79 51 78 52 37 54 67 55 48 56
REMARK SMILES IDX 66 57 49 58 52 59 65 60 83 61 50 62 51 63 64 65 84 66 53 67
REMARK SMILES IDX 38 68 39 69 47 70 40 71 46 72 41 73 42 74 43 75 44 76 45 77
REMARK SMILES IDX 68 78 69 79 77 80 70 81 76 82 71 83 72 84 73 85 74 86 75 87
REMARK SMILES IDX 54 88 55 89 63 90 56 91 62 92 57 93 58 94 59 95 60 96 61 97
REMARK H PARENT 19 7 9 28 26 34 82 53 52 64
REMARK Flexibility Score: inf
ROOT
ATOM      1  C   UNL A   1      46.165  22.984  26.022  1.00  0.00     0.002 C 
ENDROOT
BRANCH   1   2
ATOM      2  C   UNL A   1      46.157  23.880  24.776  1.00  0.00     0.021 C 
BRANCH   2   3
ATOM      3  C   UNL A   1      47.293  24.906  24.774  1.00  0.00     0.116 C 
BRANCH   3   4
ATOM      4  N   UNL A   1      46.751  26.248  24.846  1.00  0.00    -0.352 N 
ATOM      5  C   UNL A   1      46.370  27.045  25.892  1.00  0.00     0.251 C 
ATOM      6  O   UNL A   1      45.955  28.174  25.621  1.00  0.00    -0.269 OA
ATOM      7  H   UNL A   1      46.634  26.673  23.966  1.00  0.00     0.163 HD
BRANCH   5   8
ATOM      8  C   UNL A   1      46.503  26.647  27.323  1.00  0.00     0.039 A 
ATOM      9  C   UNL A   1      46.525  25.969  30.040  1.00  0.00    -0.005 A 
ATOM     10  C   UNL A   1      45.363  25.773  29.293  1.00  0.00     0.010 A 
ATOM     11  C   UNL A   1      47.684  26.449  29.438  1.00  0.00     0.010 A 
ATOM     12  C   UNL A   1      45.351  26.131  27.944  1.00  0.00     0.014 A 
ATOM     13  C   UNL A   1      47.682  26.732  28.071  1.00  0.00     0.014 A 
BRANCH   9  14
ATOM     14  C   UNL A   1      46.542  25.581  31.456  1.00  0.00     0.141 C 
ATOM     15  N   UNL A   1      47.074  26.335  32.365  1.00  0.00    -0.180 NA
BRANCH  15  16
ATOM     16  N   UNL A   1      47.118  25.858  33.637  1.00  0.00    -0.233 NA
ATOM     17  C   UNL A   1      48.131  26.338  34.582  1.00  0.00     0.274 C 
ATOM     18  N   UNL A   1      47.542  26.251  35.948  1.00  0.00    -0.161 NA
ATOM     19  N   UNL A   1      46.414  25.708  35.910  1.00  0.00    -0.153 NA
ATOM     20  C   UNL A   1      46.007  25.478  34.510  1.00  0.00     0.298 C 
BRANCH  17  21
ATOM     21  C   UNL A   1      49.466  25.529  34.534  1.00  0.00     0.201 C 
ATOM     22  C   UNL A   1      50.778  24.985  31.127  1.00  0.00     0.068 C 
ATOM     23  C   UNL A   1      50.274  24.949  32.523  1.00  0.00     0.058 C 
ATOM     24  C   UNL A   1      50.367  25.930  33.418  1.00  0.00     0.031 C 
ATOM     25  N   UNL A   1      49.576  23.868  33.002  1.00  0.00    -0.160 NA
ATOM     26  N   UNL A   1      49.162  24.106  34.176  1.00  0.00    -0.177 NA
ENDBRANCH  17  21
BRANCH  20  27
ATOM     27  S   UNL A   1      45.435  23.787  34.135  1.00  0.00    -0.128 SA
ATOM     28  H   UNL A   1      46.372  22.890  34.547  1.00  0.00     0.106 HD
ENDBRANCH  20  27
ENDBRANCH  15  16
ENDBRANCH   9  14
ENDBRANCH   5   8
ENDBRANCH   3   4
ENDBRANCH   2   3
ENDBRANCH   1   2
BRANCH   1  29
ATOM     29  C   UNL A   1      44.783  22.705  26.638  1.00  0.00     0.002 C 
BRANCH  29  30
ATOM     30  C   UNL A   1      43.843  21.823  25.801  1.00  0.00     0.021 C 
BRANCH  30  31
ATOM     31  C   UNL A   1      42.731  22.609  25.124  1.00  0.00     0.116 C 
BRANCH  31  32
ATOM     32  N   UNL A   1      41.409  22.110  25.505  1.00  0.00    -0.352 N 
ATOM     33  C   UNL A   1      40.579  22.563  26.505  1.00  0.00     0.251 C 
ATOM     34  H   UNL A   1      41.070  21.351  24.978  1.00  0.00     0.163 HD
ATOM     35  O   UNL A   1      39.700  21.828  26.966  1.00  0.00    -0.269 OA
BRANCH  33  36
ATOM     36  C   UNL A   1      40.744  23.935  27.006  1.00  0.00     0.039 A 
ATOM     37  C   UNL A   1      39.908  24.976  26.595  1.00  0.00     0.014 A 
ATOM     38  C   UNL A   1      41.769  24.166  27.921  1.00  0.00     0.014 A 
ATOM     39  C   UNL A   1      40.073  26.234  27.168  1.00  0.00     0.010 A 
ATOM     40  C   UNL A   1      41.822  25.351  28.604  1.00  0.00     0.010 A 
ATOM     41  C   UNL A   1      41.026  26.407  28.185  1.00  0.00    -0.014 A 
BRANCH  41  42
ATOM     42  C   UNL A   1      41.130  27.655  28.928  1.00  0.00     0.031 A 
ATOM     43  C   UNL A   1      42.178  28.571  28.412  1.00  0.00     0.074 A 
ATOM     44  C   UNL A   1      40.210  28.047  29.837  1.00  0.00     0.049 A 
ATOM     45  N   UNL A   1      43.315  28.837  28.960  1.00  0.00    -0.248 NA
ATOM     46  C   UNL A   1      42.035  29.114  27.049  1.00  0.00     0.031 C 
ATOM     47  C   UNL A   1      38.956  27.378  30.210  1.00  0.00     0.029 A 
ATOM     48  N   UNL A   1      40.140  29.207  30.543  1.00  0.00    -0.354 N 
ATOM     49  C   UNL A   1      43.919  29.783  28.141  1.00  0.00     0.074 A 
ATOM     50  C   UNL A   1      43.202  29.741  26.891  1.00  0.00     0.031 C 
ATOM     51  C   UNL A   1      38.154  28.247  30.866  1.00  0.00     0.029 A 
ATOM     52  C   UNL A   1      38.896  29.471  31.111  1.00  0.00     0.049 A 
ATOM     53  H   UNL A   1      40.909  29.812  30.645  1.00  0.00     0.167 HD
ATOM     54  C   UNL A   1      44.766  30.718  28.654  1.00  0.00     0.031 A 
ATOM     55  C   UNL A   1      38.501  30.625  31.711  1.00  0.00     0.031 A 
ATOM     56  C   UNL A   1      45.127  30.407  30.015  1.00  0.00     0.049 A 
ATOM     57  C   UNL A   1      39.738  31.344  32.103  1.00  0.00     0.074 A 
ATOM     58  C   UNL A   1      45.740  29.338  30.641  1.00  0.00     0.029 A 
ATOM     59  N   UNL A   1      44.453  31.092  31.001  1.00  0.00    -0.354 N 
ATOM     60  N   UNL A   1      40.566  30.893  33.004  1.00  0.00    -0.248 NA
ATOM     61  C   UNL A   1      40.300  32.302  31.164  1.00  0.00     0.031 C 
ATOM     62  C   UNL A   1      45.019  29.166  31.859  1.00  0.00     0.029 A 
ATOM     63  C   UNL A   1      44.073  30.189  31.959  1.00  0.00     0.049 A 
ATOM     64  H   UNL A   1      44.277  32.061  31.015  1.00  0.00     0.167 HD
ATOM     65  C   UNL A   1      41.825  31.136  32.475  1.00  0.00     0.074 A 
ATOM     66  C   UNL A   1      41.600  32.095  31.392  1.00  0.00     0.031 C 
ATOM     67  C   UNL A   1      42.882  30.322  32.772  1.00  0.00     0.031 A 
BRANCH  54  68
ATOM     68  C   UNL A   1      44.917  32.115  28.105  1.00  0.00    -0.014 A 
ATOM     69  C   UNL A   1      46.197  32.536  27.686  1.00  0.00     0.010 A 
ATOM     70  C   UNL A   1      43.928  33.112  28.240  1.00  0.00     0.010 A 
ATOM     71  C   UNL A   1      46.489  33.891  27.488  1.00  0.00     0.020 A 
ATOM     72  C   UNL A   1      44.198  34.461  28.002  1.00  0.00     0.020 A 
ATOM     73  C   UNL A   1      45.487  34.845  27.659  1.00  0.00     0.054 A 
BRANCH  73  74
ATOM     74  S   UNL A   1      45.896  36.598  27.484  1.00  0.00     0.124 S 
ATOM     75  O   UNL A   1      44.607  37.234  27.733  1.00  0.00    -0.237 OA
ATOM     76  O   UNL A   1      46.907  36.780  28.523  1.00  0.00    -0.237 OA
ATOM     77  O   UNL A   1      46.393  36.698  26.114  1.00  0.00    -0.744 OA
ENDBRANCH  73  74
ENDBRANCH  54  68
BRANCH  55  78
ATOM     78  C   UNL A   1      37.170  31.290  31.682  1.00  0.00    -0.014 A 
ATOM     79  C   UNL A   1      36.480  31.581  32.877  1.00  0.00     0.010 A 
ATOM     80  C   UNL A   1      36.720  31.918  30.504  1.00  0.00     0.010 A 
ATOM     81  C   UNL A   1      35.443  32.531  32.906  1.00  0.00     0.020 A 
ATOM     82  C   UNL A   1      35.682  32.861  30.524  1.00  0.00     0.020 A 
ATOM     83  C   UNL A   1      35.070  33.188  31.732  1.00  0.00     0.054 A 
BRANCH  83  84
ATOM     84  S   UNL A   1      33.892  34.573  31.809  1.00  0.00     0.124 S 
ATOM     85  O   UNL A   1      33.327  34.579  30.463  1.00  0.00    -0.237 OA
ATOM     86  O   UNL A   1      32.984  34.161  32.875  1.00  0.00    -0.237 OA
ATOM     87  O   UNL A   1      34.736  35.723  32.132  1.00  0.00    -0.744 OA
ENDBRANCH  83  84
ENDBRANCH  55  78
BRANCH  67  88
ATOM     88  C   UNL A   1      42.735  29.336  33.910  1.00  0.00    -0.014 A 
ATOM     89  C   UNL A   1      41.900  28.201  33.879  1.00  0.00     0.010 A 
ATOM     90  C   UNL A   1      43.597  29.501  35.008  1.00  0.00     0.010 A 
ATOM     91  C   UNL A   1      41.909  27.276  34.937  1.00  0.00     0.020 A 
ATOM     92  C   UNL A   1      43.625  28.577  36.052  1.00  0.00     0.020 A 
ATOM     93  C   UNL A   1      42.771  27.475  36.020  1.00  0.00     0.054 A 
BRANCH  93  94
ATOM     94  S   UNL A   1      42.798  26.273  37.380  1.00  0.00     0.124 S 
ATOM     95  O   UNL A   1      41.406  26.257  37.818  1.00  0.00    -0.237 OA
ATOM     96  O   UNL A   1      43.267  25.052  36.727  1.00  0.00    -0.237 OA
ATOM     97  O   UNL A   1      43.740  26.853  38.338  1.00  0.00    -0.744 OA
ENDBRANCH  93  94
ENDBRANCH  67  88
ENDBRANCH  41  42
ENDBRANCH  33  36
ENDBRANCH  31  32
ENDBRANCH  30  31
ENDBRANCH  29  30
ENDBRANCH   1  29
TORSDOF 20
ENDMDL
