MODEL 1
REMARK VINA RESULT:     -10.5      0.000      0.000
REMARK SMILES Cc1cc(NCc2ccc(C(=O)NCCCCCCNC(=O)c3ccc(-c4c5nc(c(-c6ccc(S(=O)(=O)[O-])cc6)c6ccc([nH]6)c(-c6ccc(S(=O)(=O)[O-])cc6)c6nc(c(-c7ccc(S(=O)(=O)[O-])cc7)c7ccc4[nH]7)C=C6)C=C5)cc3)o2)ccc1Br
REMARK SMILES IDX 16 1 15 2 14 3 13 4 11 5 12 6 10 8 7 9 8 10 83 11 9 12 6 13
REMARK SMILES IDX 5 14 4 16 1 17 2 18 3 19 86 20 85 21 87 22 84 23 17 24 18 25
REMARK SMILES IDX 19 26 20 27 21 28 22 30 23 31 24 32 82 33 25 34 81 35 26 36
REMARK SMILES IDX 27 37 28 38 75 39 29 40 80 41 74 42 76 43 30 44 79 45 73 46
REMARK SMILES IDX 72 47 31 49 61 50 42 51 60 52 43 53 46 54 59 55 77 56 44 57
REMARK SMILES IDX 45 58 58 60 78 61 47 62 32 63 33 64 41 65 34 66 40 67 35 68
REMARK SMILES IDX 36 69 37 70 38 71 39 72 62 73 63 74 71 75 64 76 70 77 65 78
REMARK SMILES IDX 66 79 67 80 68 81 69 82 48 83 49 84 57 85 50 86 56 87 51 88
REMARK SMILES IDX 52 89 53 90 54 91 55 92
REMARK H PARENT 13 7 5 15 20 29 76 48 46 59
REMARK Flexibility Score: inf
ROOT
ATOM      1  C   UNL A   1      45.425  22.302  25.217  1.00  0.00     0.002 C 
ENDROOT
BRANCH   1   2
ATOM      2  C   UNL A   1      45.584  20.784  25.380  1.00  0.00     0.021 C 
BRANCH   2   3
ATOM      3  C   UNL A   1      44.586  19.975  24.552  1.00  0.00     0.116 C 
BRANCH   3   4
ATOM      4  N   UNL A   1      44.167  18.788  25.264  1.00  0.00    -0.349 N 
ATOM      5  C   UNL A   1      43.102  18.542  26.097  1.00  0.00     0.286 C 
ATOM      6  O   UNL A   1      43.001  17.376  26.487  1.00  0.00    -0.266 OA
ATOM      7  H   UNL A   1      44.756  18.010  25.128  1.00  0.00     0.163 HD
BRANCH   5   8
ATOM      8  C   UNL A   1      42.152  19.577  26.469  1.00  0.00     0.191 A 
ATOM      9  C   UNL A   1      41.602  21.392  27.626  1.00  0.00     0.124 A 
ATOM     10  C   UNL A   1      40.496  21.064  26.880  1.00  0.00     0.048 A 
ATOM     11  O   UNL A   1      42.599  20.495  27.391  1.00  0.00    -0.454 OA
ATOM     12  C   UNL A   1      40.859  19.925  26.114  1.00  0.00     0.056 A 
BRANCH   9  13
ATOM     13  C   UNL A   1      41.906  22.475  28.600  1.00  0.00     0.188 C 
BRANCH  13  14
ATOM     14  N   UNL A   1      43.227  22.388  29.200  1.00  0.00    -0.378 N 
ATOM     15  H   UNL A   1      43.679  21.513  29.152  1.00  0.00     0.161 HD
BRANCH  14  16
ATOM     16  C   UNL A   1      43.913  23.405  29.829  1.00  0.00     0.035 A 
ATOM     17  C   UNL A   1      46.456  26.032  28.711  1.00  0.00     0.045 C 
ATOM     18  C   UNL A   1      45.571  25.221  29.613  1.00  0.00    -0.035 A 
ATOM     19  C   UNL A   1      44.756  24.218  29.054  1.00  0.00     0.030 A 
ATOM     20  C   UNL A   1      45.535  25.404  30.999  1.00  0.00     0.021 A 
ATOM     21  C   UNL A   1      44.706  24.609  31.791  1.00  0.00     0.018 A 
ATOM     22  Br  UNL A   1      46.603  26.710  31.871  1.00  0.00    -0.051 Br
ATOM     23  C   UNL A   1      43.911  23.614  31.209  1.00  0.00     0.027 A 
ENDBRANCH  14  16
ENDBRANCH  13  14
ENDBRANCH   9  13
ENDBRANCH   5   8
ENDBRANCH   3   4
ENDBRANCH   2   3
ENDBRANCH   1   2
BRANCH   1  24
ATOM     24  C   UNL A   1      43.977  22.811  25.235  1.00  0.00     0.002 C 
BRANCH  24  25
ATOM     25  C   UNL A   1      43.814  24.316  24.996  1.00  0.00     0.021 C 
BRANCH  25  26
ATOM     26  C   UNL A   1      42.854  25.007  25.959  1.00  0.00     0.116 C 
BRANCH  26  27
ATOM     27  N   UNL A   1      41.466  24.709  25.641  1.00  0.00    -0.352 N 
ATOM     28  C   UNL A   1      40.328  25.003  26.350  1.00  0.00     0.251 C 
ATOM     29  H   UNL A   1      41.321  24.226  24.795  1.00  0.00     0.163 HD
ATOM     30  O   UNL A   1      39.262  24.476  26.045  1.00  0.00    -0.269 OA
BRANCH  28  31
ATOM     31  C   UNL A   1      40.393  25.944  27.489  1.00  0.00     0.039 A 
ATOM     32  C   UNL A   1      41.195  27.083  27.381  1.00  0.00     0.014 A 
ATOM     33  C   UNL A   1      39.674  25.698  28.662  1.00  0.00     0.014 A 
ATOM     34  C   UNL A   1      41.227  28.006  28.429  1.00  0.00     0.010 A 
ATOM     35  C   UNL A   1      39.652  26.653  29.674  1.00  0.00     0.010 A 
ATOM     36  C   UNL A   1      40.429  27.815  29.570  1.00  0.00    -0.014 A 
BRANCH  36  37
ATOM     37  C   UNL A   1      40.381  28.829  30.655  1.00  0.00     0.031 A 
ATOM     38  C   UNL A   1      41.303  28.718  31.839  1.00  0.00     0.074 A 
ATOM     39  C   UNL A   1      39.461  29.813  30.603  1.00  0.00     0.049 A 
ATOM     40  N   UNL A   1      41.365  29.472  32.908  1.00  0.00    -0.248 NA
ATOM     41  C   UNL A   1      42.262  27.602  31.836  1.00  0.00     0.031 C 
ATOM     42  C   UNL A   1      38.486  30.005  29.527  1.00  0.00     0.029 A 
ATOM     43  N   UNL A   1      39.191  30.834  31.480  1.00  0.00    -0.354 N 
ATOM     44  C   UNL A   1      42.357  28.915  33.707  1.00  0.00     0.074 A 
ATOM     45  C   UNL A   1      42.834  27.732  33.024  1.00  0.00     0.031 C 
ATOM     46  C   UNL A   1      37.744  31.092  29.794  1.00  0.00     0.029 A 
ATOM     47  C   UNL A   1      38.157  31.647  31.079  1.00  0.00     0.049 A 
ATOM     48  H   UNL A   1      39.690  30.971  32.317  1.00  0.00     0.167 HD
ATOM     49  C   UNL A   1      42.839  29.358  34.893  1.00  0.00     0.031 A 
ATOM     50  C   UNL A   1      37.596  32.714  31.680  1.00  0.00     0.031 A 
ATOM     51  C   UNL A   1      42.365  30.539  35.566  1.00  0.00     0.049 A 
ATOM     52  C   UNL A   1      38.136  33.176  33.005  1.00  0.00     0.074 A 
ATOM     53  C   UNL A   1      42.825  31.101  36.743  1.00  0.00     0.029 A 
ATOM     54  N   UNL A   1      41.319  31.337  35.124  1.00  0.00    -0.354 N 
ATOM     55  N   UNL A   1      39.119  32.673  33.714  1.00  0.00    -0.248 NA
ATOM     56  C   UNL A   1      37.499  34.355  33.607  1.00  0.00     0.031 C 
ATOM     57  C   UNL A   1      42.020  32.204  37.045  1.00  0.00     0.029 A 
ATOM     58  C   UNL A   1      41.100  32.369  36.020  1.00  0.00     0.049 A 
ATOM     59  H   UNL A   1      40.808  31.190  34.296  1.00  0.00     0.167 HD
ATOM     60  C   UNL A   1      39.236  33.493  34.832  1.00  0.00     0.074 A 
ATOM     61  C   UNL A   1      38.235  34.530  34.696  1.00  0.00     0.031 C 
ATOM     62  C   UNL A   1      40.097  33.394  35.875  1.00  0.00     0.031 A 
BRANCH  49  63
ATOM     63  C   UNL A   1      43.935  28.554  35.546  1.00  0.00    -0.014 A 
ATOM     64  C   UNL A   1      43.641  27.564  36.501  1.00  0.00     0.010 A 
ATOM     65  C   UNL A   1      45.274  28.761  35.167  1.00  0.00     0.010 A 
ATOM     66  C   UNL A   1      44.669  26.827  37.097  1.00  0.00     0.020 A 
ATOM     67  C   UNL A   1      46.303  28.005  35.737  1.00  0.00     0.020 A 
ATOM     68  C   UNL A   1      45.994  27.054  36.712  1.00  0.00     0.054 A 
BRANCH  68  69
ATOM     69  S   UNL A   1      47.304  26.066  37.485  1.00  0.00     0.124 S 
ATOM     70  O   UNL A   1      46.744  25.810  38.811  1.00  0.00    -0.237 OA
ATOM     71  O   UNL A   1      47.388  24.903  36.606  1.00  0.00    -0.237 OA
ATOM     72  O   UNL A   1      48.466  26.950  37.460  1.00  0.00    -0.744 OA
ENDBRANCH  68  69
ENDBRANCH  49  63
BRANCH  50  73
ATOM     73  C   UNL A   1      36.462  33.424  31.026  1.00  0.00    -0.014 A 
ATOM     74  C   UNL A   1      35.342  33.825  31.774  1.00  0.00     0.010 A 
ATOM     75  C   UNL A   1      36.507  33.718  29.649  1.00  0.00     0.010 A 
ATOM     76  C   UNL A   1      34.278  34.489  31.155  1.00  0.00     0.020 A 
ATOM     77  C   UNL A   1      35.459  34.409  29.035  1.00  0.00     0.020 A 
ATOM     78  C   UNL A   1      34.345  34.781  29.790  1.00  0.00     0.054 A 
BRANCH  78  79
ATOM     79  S   UNL A   1      32.977  35.690  29.020  1.00  0.00     0.124 S 
ATOM     80  O   UNL A   1      32.461  34.714  28.067  1.00  0.00    -0.237 OA
ATOM     81  O   UNL A   1      32.112  35.980  30.161  1.00  0.00    -0.237 OA
ATOM     82  O   UNL A   1      33.631  36.857  28.431  1.00  0.00    -0.744 OA
ENDBRANCH  78  79
ENDBRANCH  50  73
BRANCH  62  83
ATOM     83  C   UNL A   1      40.018  34.455  36.941  1.00  0.00    -0.014 A 
ATOM     84  C   UNL A   1      40.702  35.676  36.810  1.00  0.00     0.010 A 
ATOM     85  C   UNL A   1      39.201  34.245  38.068  1.00  0.00     0.010 A 
ATOM     86  C   UNL A   1      40.598  36.655  37.801  1.00  0.00     0.020 A 
ATOM     87  C   UNL A   1      39.069  35.233  39.047  1.00  0.00     0.020 A 
ATOM     88  C   UNL A   1      39.781  36.427  38.914  1.00  0.00     0.054 A 
BRANCH  88  89
ATOM     89  S   UNL A   1      39.627  37.730  40.165  1.00  0.00     0.124 S 
ATOM     90  O   UNL A   1      40.958  38.333  40.140  1.00  0.00    -0.237 OA
ATOM     91  O   UNL A   1      38.551  38.561  39.631  1.00  0.00    -0.237 OA
ATOM     92  O   UNL A   1      39.296  37.002  41.388  1.00  0.00    -0.744 OA
ENDBRANCH  88  89
ENDBRANCH  62  83
ENDBRANCH  36  37
ENDBRANCH  28  31
ENDBRANCH  26  27
ENDBRANCH  25  26
ENDBRANCH  24  25
ENDBRANCH   1  24
TORSDOF 19
ENDMDL
MODEL 2
REMARK VINA RESULT:     -10.5      5.812     14.035
REMARK SMILES Cc1cc(NCc2ccc(C(=O)NCCCCCCNC(=O)c3ccc(-c4c5nc(c(-c6ccc(S(=O)(=O)[O-])cc6)c6ccc([nH]6)c(-c6ccc(S(=O)(=O)[O-])cc6)c6nc(c(-c7ccc(S(=O)(=O)[O-])cc7)c7ccc4[nH]7)C=C6)C=C5)cc3)o2)ccc1Br
REMARK SMILES IDX 16 1 15 2 14 3 13 4 11 5 12 6 10 8 7 9 8 10 83 11 9 12 6 13
REMARK SMILES IDX 5 14 4 16 1 17 2 18 3 19 86 20 85 21 87 22 84 23 17 24 18 25
REMARK SMILES IDX 19 26 20 27 21 28 22 30 23 31 24 32 82 33 25 34 81 35 26 36
REMARK SMILES IDX 27 37 28 38 75 39 29 40 80 41 74 42 76 43 30 44 79 45 73 46
REMARK SMILES IDX 72 47 31 49 61 50 42 51 60 52 43 53 46 54 59 55 77 56 44 57
REMARK SMILES IDX 45 58 58 60 78 61 47 62 32 63 33 64 41 65 34 66 40 67 35 68
REMARK SMILES IDX 36 69 37 70 38 71 39 72 62 73 63 74 71 75 64 76 70 77 65 78
REMARK SMILES IDX 66 79 67 80 68 81 69 82 48 83 49 84 57 85 50 86 56 87 51 88
REMARK SMILES IDX 52 89 53 90 54 91 55 92
REMARK H PARENT 13 7 5 15 20 29 76 48 46 59
REMARK Flexibility Score: inf
ROOT
ATOM      1  C   UNL A   1      34.319  34.282  29.346  1.00  0.00     0.002 C 
ENDROOT
BRANCH   1   2
ATOM      2  C   UNL A   1      33.634  35.657  29.307  1.00  0.00     0.021 C 
BRANCH   2   3
ATOM      3  C   UNL A   1      32.633  35.869  30.441  1.00  0.00     0.116 C 
BRANCH   3   4
ATOM      4  N   UNL A   1      33.222  36.645  31.511  1.00  0.00    -0.349 N 
ATOM      5  C   UNL A   1      34.105  36.314  32.510  1.00  0.00     0.286 C 
ATOM      6  O   UNL A   1      34.462  37.253  33.226  1.00  0.00    -0.266 OA
ATOM      7  H   UNL A   1      32.936  37.587  31.526  1.00  0.00     0.163 HD
BRANCH   5   8
ATOM      8  C   UNL A   1      34.599  34.959  32.691  1.00  0.00     0.191 A 
ATOM      9  C   UNL A   1      36.176  33.412  32.451  1.00  0.00     0.124 A 
ATOM     10  C   UNL A   1      35.128  32.795  33.091  1.00  0.00     0.048 A 
ATOM     11  O   UNL A   1      35.860  34.712  32.197  1.00  0.00    -0.454 OA
ATOM     12  C   UNL A   1      34.135  33.792  33.276  1.00  0.00     0.056 A 
BRANCH   9  13
ATOM     13  C   UNL A   1      37.517  32.959  31.991  1.00  0.00     0.188 C 
BRANCH  13  14
ATOM     14  N   UNL A   1      38.562  33.962  32.111  1.00  0.00    -0.378 N 
ATOM     15  H   UNL A   1      38.570  34.497  32.938  1.00  0.00     0.161 HD
BRANCH  14  16
ATOM     16  C   UNL A   1      39.544  34.239  31.184  1.00  0.00     0.035 A 
ATOM     17  C   UNL A   1      43.352  34.560  31.311  1.00  0.00     0.045 C 
ATOM     18  C   UNL A   1      41.952  34.587  30.768  1.00  0.00    -0.035 A 
ATOM     19  C   UNL A   1      40.883  34.225  31.610  1.00  0.00     0.030 A 
ATOM     20  C   UNL A   1      41.658  34.979  29.459  1.00  0.00     0.021 A 
ATOM     21  C   UNL A   1      40.336  35.002  29.012  1.00  0.00     0.018 A 
ATOM     22  Br  UNL A   1      43.013  35.508  28.237  1.00  0.00    -0.051 Br
ATOM     23  C   UNL A   1      39.292  34.644  29.873  1.00  0.00     0.027 A 
ENDBRANCH  14  16
ENDBRANCH  13  14
ENDBRANCH   9  13
ENDBRANCH   5   8
ENDBRANCH   3   4
ENDBRANCH   2   3
ENDBRANCH   1   2
BRANCH   1  24
ATOM     24  C   UNL A   1      34.909  33.810  28.010  1.00  0.00     0.002 C 
BRANCH  24  25
ATOM     25  C   UNL A   1      36.162  32.938  28.125  1.00  0.00     0.021 C 
BRANCH  25  26
ATOM     26  C   UNL A   1      35.895  31.437  28.059  1.00  0.00     0.116 C 
BRANCH  26  27
ATOM     27  N   UNL A   1      35.642  30.877  29.378  1.00  0.00    -0.352 N 
ATOM     28  C   UNL A   1      36.425  30.038  30.131  1.00  0.00     0.251 C 
ATOM     29  H   UNL A   1      34.788  31.138  29.790  1.00  0.00     0.163 HD
ATOM     30  O   UNL A   1      35.955  29.485  31.120  1.00  0.00    -0.269 OA
BRANCH  28  31
ATOM     31  C   UNL A   1      37.829  29.793  29.739  1.00  0.00     0.039 A 
ATOM     32  C   UNL A   1      38.802  29.681  30.736  1.00  0.00     0.014 A 
ATOM     33  C   UNL A   1      38.187  29.684  28.392  1.00  0.00     0.014 A 
ATOM     34  C   UNL A   1      40.123  29.399  30.383  1.00  0.00     0.010 A 
ATOM     35  C   UNL A   1      39.490  29.333  28.047  1.00  0.00     0.010 A 
ATOM     36  C   UNL A   1      40.471  29.189  29.038  1.00  0.00    -0.014 A 
BRANCH  36  37
ATOM     37  C   UNL A   1      41.852  28.801  28.651  1.00  0.00     0.031 A 
ATOM     38  C   UNL A   1      42.944  29.834  28.597  1.00  0.00     0.074 A 
ATOM     39  C   UNL A   1      42.106  27.529  28.285  1.00  0.00     0.049 A 
ATOM     40  N   UNL A   1      44.192  29.696  28.225  1.00  0.00    -0.248 NA
ATOM     41  C   UNL A   1      42.583  31.207  28.985  1.00  0.00     0.031 C 
ATOM     42  C   UNL A   1      41.122  26.443  28.259  1.00  0.00     0.029 A 
ATOM     43  N   UNL A   1      43.267  26.933  27.860  1.00  0.00    -0.354 N 
ATOM     44  C   UNL A   1      44.760  30.961  28.322  1.00  0.00     0.074 A 
ATOM     45  C   UNL A   1      43.708  31.864  28.738  1.00  0.00     0.031 C 
ATOM     46  C   UNL A   1      41.727  25.311  27.866  1.00  0.00     0.029 A 
ATOM     47  C   UNL A   1      43.127  25.596  27.567  1.00  0.00     0.049 A 
ATOM     48  H   UNL A   1      44.119  27.417  27.770  1.00  0.00     0.167 HD
ATOM     49  C   UNL A   1      46.043  31.334  28.102  1.00  0.00     0.031 A 
ATOM     50  C   UNL A   1      44.020  24.702  27.103  1.00  0.00     0.031 A 
ATOM     51  C   UNL A   1      47.086  30.431  27.693  1.00  0.00     0.049 A 
ATOM     52  C   UNL A   1      45.435  25.144  26.849  1.00  0.00     0.074 A 
ATOM     53  C   UNL A   1      48.429  30.701  27.496  1.00  0.00     0.029 A 
ATOM     54  N   UNL A   1      46.904  29.084  27.412  1.00  0.00    -0.354 N 
ATOM     55  N   UNL A   1      45.968  26.332  27.009  1.00  0.00    -0.248 NA
ATOM     56  C   UNL A   1      46.371  24.123  26.360  1.00  0.00     0.031 C 
ATOM     57  C   UNL A   1      49.047  29.532  27.040  1.00  0.00     0.029 A 
ATOM     58  C   UNL A   1      48.104  28.517  27.016  1.00  0.00     0.049 A 
ATOM     59  H   UNL A   1      46.049  28.603  27.483  1.00  0.00     0.167 HD
ATOM     60  C   UNL A   1      47.309  26.194  26.668  1.00  0.00     0.074 A 
ATOM     61  C   UNL A   1      47.507  24.805  26.308  1.00  0.00     0.031 C 
ATOM     62  C   UNL A   1      48.287  27.134  26.656  1.00  0.00     0.031 A 
BRANCH  49  63
ATOM     63  C   UNL A   1      46.390  32.789  28.292  1.00  0.00    -0.014 A 
ATOM     64  C   UNL A   1      46.749  33.293  29.555  1.00  0.00     0.010 A 
ATOM     65  C   UNL A   1      46.399  33.656  27.183  1.00  0.00     0.010 A 
ATOM     66  C   UNL A   1      47.069  34.645  29.714  1.00  0.00     0.020 A 
ATOM     67  C   UNL A   1      46.749  35.001  27.332  1.00  0.00     0.020 A 
ATOM     68  C   UNL A   1      47.065  35.490  28.601  1.00  0.00     0.054 A 
BRANCH  68  69
ATOM     69  S   UNL A   1      47.506  37.234  28.834  1.00  0.00     0.124 S 
ATOM     70  O   UNL A   1      47.464  37.363  30.288  1.00  0.00    -0.237 OA
ATOM     71  O   UNL A   1      48.837  37.309  28.237  1.00  0.00    -0.237 OA
ATOM     72  O   UNL A   1      46.461  37.957  28.114  1.00  0.00    -0.744 OA
ENDBRANCH  68  69
ENDBRANCH  49  63
BRANCH  50  73
ATOM     73  C   UNL A   1      43.603  23.293  26.859  1.00  0.00    -0.014 A 
ATOM     74  C   UNL A   1      43.857  22.676  25.622  1.00  0.00     0.010 A 
ATOM     75  C   UNL A   1      42.961  22.556  27.872  1.00  0.00     0.010 A 
ATOM     76  C   UNL A   1      43.461  21.354  25.395  1.00  0.00     0.020 A 
ATOM     77  C   UNL A   1      42.591  21.225  27.659  1.00  0.00     0.020 A 
ATOM     78  C   UNL A   1      42.834  20.636  26.417  1.00  0.00     0.054 A 
BRANCH  78  79
ATOM     79  S   UNL A   1      42.376  18.906  26.118  1.00  0.00     0.124 S 
ATOM     80  O   UNL A   1      40.968  19.022  25.758  1.00  0.00    -0.237 OA
ATOM     81  O   UNL A   1      43.278  18.526  25.033  1.00  0.00    -0.237 OA
ATOM     82  O   UNL A   1      42.645  18.255  27.399  1.00  0.00    -0.744 OA
ENDBRANCH  78  79
ENDBRANCH  50  73
BRANCH  62  83
ATOM     83  C   UNL A   1      49.673  26.685  26.271  1.00  0.00    -0.014 A 
ATOM     84  C   UNL A   1      50.540  26.102  27.210  1.00  0.00     0.010 A 
ATOM     85  C   UNL A   1      50.091  26.804  24.932  1.00  0.00     0.010 A 
ATOM     86  C   UNL A   1      51.813  25.674  26.826  1.00  0.00     0.020 A 
ATOM     87  C   UNL A   1      51.352  26.350  24.537  1.00  0.00     0.020 A 
ATOM     88  C   UNL A   1      52.212  25.801  25.491  1.00  0.00     0.054 A 
BRANCH  88  89
ATOM     89  S   UNL A   1      53.852  25.199  25.009  1.00  0.00     0.124 S 
ATOM     90  O   UNL A   1      54.089  25.927  23.765  1.00  0.00    -0.237 OA
ATOM     91  O   UNL A   1      54.686  25.600  26.140  1.00  0.00    -0.237 OA
ATOM     92  O   UNL A   1      53.666  23.758  24.861  1.00  0.00    -0.744 OA
ENDBRANCH  88  89
ENDBRANCH  62  83
ENDBRANCH  36  37
ENDBRANCH  28  31
ENDBRANCH  26  27
ENDBRANCH  25  26
ENDBRANCH  24  25
ENDBRANCH   1  24
TORSDOF 19
ENDMDL
MODEL 3
REMARK VINA RESULT:     -10.5      2.700      9.081
REMARK SMILES Cc1cc(NCc2ccc(C(=O)NCCCCCCNC(=O)c3ccc(-c4c5nc(c(-c6ccc(S(=O)(=O)[O-])cc6)c6ccc([nH]6)c(-c6ccc(S(=O)(=O)[O-])cc6)c6nc(c(-c7ccc(S(=O)(=O)[O-])cc7)c7ccc4[nH]7)C=C6)C=C5)cc3)o2)ccc1Br
REMARK SMILES IDX 16 1 15 2 14 3 13 4 11 5 12 6 10 8 7 9 8 10 83 11 9 12 6 13
REMARK SMILES IDX 5 14 4 16 1 17 2 18 3 19 86 20 85 21 87 22 84 23 17 24 18 25
REMARK SMILES IDX 19 26 20 27 21 28 22 30 23 31 24 32 82 33 25 34 81 35 26 36
REMARK SMILES IDX 27 37 28 38 75 39 29 40 80 41 74 42 76 43 30 44 79 45 73 46
REMARK SMILES IDX 72 47 31 49 61 50 42 51 60 52 43 53 46 54 59 55 77 56 44 57
REMARK SMILES IDX 45 58 58 60 78 61 47 62 32 63 33 64 41 65 34 66 40 67 35 68
REMARK SMILES IDX 36 69 37 70 38 71 39 72 62 73 63 74 71 75 64 76 70 77 65 78
REMARK SMILES IDX 66 79 67 80 68 81 69 82 48 83 49 84 57 85 50 86 56 87 51 88
REMARK SMILES IDX 52 89 53 90 54 91 55 92
REMARK H PARENT 13 7 5 15 20 29 76 48 46 59
REMARK Flexibility Score: inf
ROOT
ATOM      1  C   UNL A   1      45.651  22.895  24.107  1.00  0.00     0.002 C 
ENDROOT
BRANCH   1   2
ATOM      2  C   UNL A   1      44.888  21.563  24.118  1.00  0.00     0.021 C 
BRANCH   2   3
ATOM      3  C   UNL A   1      44.991  20.813  25.445  1.00  0.00     0.116 C 
BRANCH   3   4
ATOM      4  N   UNL A   1      44.073  19.696  25.480  1.00  0.00    -0.349 N 
ATOM      5  C   UNL A   1      42.785  19.577  25.944  1.00  0.00     0.286 C 
ATOM      6  O   UNL A   1      42.258  18.478  25.751  1.00  0.00    -0.266 OA
ATOM      7  H   UNL A   1      44.439  18.865  25.100  1.00  0.00     0.163 HD
BRANCH   5   8
ATOM      8  C   UNL A   1      42.089  20.676  26.593  1.00  0.00     0.191 A 
ATOM      9  C   UNL A   1      40.407  22.123  26.700  1.00  0.00     0.124 A 
ATOM     10  C   UNL A   1      41.206  22.384  27.787  1.00  0.00     0.048 A 
ATOM     11  O   UNL A   1      40.937  21.103  25.971  1.00  0.00    -0.454 OA
ATOM     12  C   UNL A   1      42.262  21.437  27.738  1.00  0.00     0.056 A 
BRANCH   9  13
ATOM     13  C   UNL A   1      39.143  22.714  26.182  1.00  0.00     0.188 C 
BRANCH  13  14
ATOM     14  N   UNL A   1      38.348  21.810  25.369  1.00  0.00    -0.378 N 
ATOM     15  H   UNL A   1      38.763  20.950  25.126  1.00  0.00     0.161 HD
BRANCH  14  16
ATOM     16  C   UNL A   1      37.070  22.034  24.902  1.00  0.00     0.035 A 
ATOM     17  C   UNL A   1      33.727  20.208  25.226  1.00  0.00     0.045 C 
ATOM     18  C   UNL A   1      34.742  21.220  24.781  1.00  0.00    -0.035 A 
ATOM     19  C   UNL A   1      36.057  21.136  25.279  1.00  0.00     0.030 A 
ATOM     20  C   UNL A   1      34.444  22.240  23.872  1.00  0.00     0.021 A 
ATOM     21  C   UNL A   1      35.433  23.143  23.481  1.00  0.00     0.018 A 
ATOM     22  Br  UNL A   1      32.714  22.442  23.117  1.00  0.00    -0.051 Br
ATOM     23  C   UNL A   1      36.734  23.032  23.986  1.00  0.00     0.027 A 
ENDBRANCH  14  16
ENDBRANCH  13  14
ENDBRANCH   9  13
ENDBRANCH   5   8
ENDBRANCH   3   4
ENDBRANCH   2   3
ENDBRANCH   1   2
BRANCH   1  24
ATOM     24  C   UNL A   1      46.130  23.383  25.482  1.00  0.00     0.002 C 
BRANCH  24  25
ATOM     25  C   UNL A   1      45.477  24.677  25.976  1.00  0.00     0.021 C 
BRANCH  25  26
ATOM     26  C   UNL A   1      44.087  24.492  26.578  1.00  0.00     0.116 C 
BRANCH  26  27
ATOM     27  N   UNL A   1      43.041  24.883  25.646  1.00  0.00    -0.352 N 
ATOM     28  C   UNL A   1      41.913  25.634  25.868  1.00  0.00     0.251 C 
ATOM     29  H   UNL A   1      43.158  24.564  24.722  1.00  0.00     0.163 HD
ATOM     30  O   UNL A   1      41.026  25.674  25.021  1.00  0.00    -0.269 OA
BRANCH  28  31
ATOM     31  C   UNL A   1      41.765  26.382  27.135  1.00  0.00     0.039 A 
ATOM     32  C   UNL A   1      42.482  27.569  27.309  1.00  0.00     0.014 A 
ATOM     33  C   UNL A   1      40.930  25.908  28.151  1.00  0.00     0.014 A 
ATOM     34  C   UNL A   1      42.313  28.311  28.480  1.00  0.00     0.010 A 
ATOM     35  C   UNL A   1      40.710  26.685  29.285  1.00  0.00     0.010 A 
ATOM     36  C   UNL A   1      41.399  27.893  29.462  1.00  0.00    -0.014 A 
BRANCH  36  37
ATOM     37  C   UNL A   1      41.141  28.714  30.673  1.00  0.00     0.031 A 
ATOM     38  C   UNL A   1      40.027  29.726  30.681  1.00  0.00     0.074 A 
ATOM     39  C   UNL A   1      41.952  28.593  31.742  1.00  0.00     0.049 A 
ATOM     40  N   UNL A   1      39.690  30.573  31.620  1.00  0.00    -0.248 NA
ATOM     41  C   UNL A   1      39.201  29.818  29.466  1.00  0.00     0.031 C 
ATOM     42  C   UNL A   1      43.090  27.676  31.843  1.00  0.00     0.029 A 
ATOM     43  N   UNL A   1      41.950  29.249  32.948  1.00  0.00    -0.354 N 
ATOM     44  C   UNL A   1      38.624  31.304  31.108  1.00  0.00     0.074 A 
ATOM     45  C   UNL A   1      38.404  30.837  29.756  1.00  0.00     0.031 C 
ATOM     46  C   UNL A   1      43.657  27.808  33.052  1.00  0.00     0.029 A 
ATOM     47  C   UNL A   1      42.956  28.850  33.796  1.00  0.00     0.049 A 
ATOM     48  H   UNL A   1      41.291  29.941  33.183  1.00  0.00     0.167 HD
ATOM     49  C   UNL A   1      37.885  32.264  31.713  1.00  0.00     0.031 A 
ATOM     50  C   UNL A   1      43.285  29.278  35.030  1.00  0.00     0.031 A 
ATOM     51  C   UNL A   1      38.105  32.722  33.060  1.00  0.00     0.049 A 
ATOM     52  C   UNL A   1      42.461  30.358  35.675  1.00  0.00     0.074 A 
ATOM     53  C   UNL A   1      37.377  33.651  33.782  1.00  0.00     0.029 A 
ATOM     54  N   UNL A   1      39.132  32.288  33.887  1.00  0.00    -0.354 N 
ATOM     55  N   UNL A   1      41.416  30.992  35.197  1.00  0.00    -0.248 NA
ATOM     56  C   UNL A   1      42.854  30.775  37.027  1.00  0.00     0.031 C 
ATOM     57  C   UNL A   1      37.998  33.823  35.023  1.00  0.00     0.029 A 
ATOM     58  C   UNL A   1      39.074  32.953  35.100  1.00  0.00     0.049 A 
ATOM     59  H   UNL A   1      39.803  31.610  33.646  1.00  0.00     0.167 HD
ATOM     60  C   UNL A   1      41.009  31.862  36.203  1.00  0.00     0.074 A 
ATOM     61  C   UNL A   1      41.911  31.661  37.318  1.00  0.00     0.031 C 
ATOM     62  C   UNL A   1      39.981  32.746  36.202  1.00  0.00     0.031 A 
BRANCH  49  63
ATOM     63  C   UNL A   1      36.770  32.894  30.916  1.00  0.00    -0.014 A 
ATOM     64  C   UNL A   1      35.423  32.596  31.189  1.00  0.00     0.010 A 
ATOM     65  C   UNL A   1      37.072  33.829  29.910  1.00  0.00     0.010 A 
ATOM     66  C   UNL A   1      34.401  33.188  30.442  1.00  0.00     0.020 A 
ATOM     67  C   UNL A   1      36.052  34.448  29.181  1.00  0.00     0.020 A 
ATOM     68  C   UNL A   1      34.723  34.110  29.442  1.00  0.00     0.054 A 
BRANCH  68  69
ATOM     69  S   UNL A   1      33.374  34.880  28.504  1.00  0.00     0.124 S 
ATOM     70  O   UNL A   1      34.097  35.832  27.665  1.00  0.00    -0.237 OA
ATOM     71  O   UNL A   1      32.786  33.744  27.800  1.00  0.00    -0.237 OA
ATOM     72  O   UNL A   1      32.530  35.476  29.536  1.00  0.00    -0.744 OA
ENDBRANCH  68  69
ENDBRANCH  49  63
BRANCH  50  73
ATOM     73  C   UNL A   1      44.446  28.675  35.741  1.00  0.00    -0.014 A 
ATOM     74  C   UNL A   1      44.275  27.548  36.563  1.00  0.00     0.010 A 
ATOM     75  C   UNL A   1      45.736  29.219  35.585  1.00  0.00     0.010 A 
ATOM     76  C   UNL A   1      45.368  26.986  37.232  1.00  0.00     0.020 A 
ATOM     77  C   UNL A   1      46.835  28.641  36.227  1.00  0.00     0.020 A 
ATOM     78  C   UNL A   1      46.641  27.534  37.056  1.00  0.00     0.054 A 
BRANCH  78  79
ATOM     79  S   UNL A   1      48.052  26.757  37.891  1.00  0.00     0.124 S 
ATOM     80  O   UNL A   1      49.185  27.371  37.209  1.00  0.00    -0.237 OA
ATOM     81  O   UNL A   1      47.854  27.160  39.281  1.00  0.00    -0.237 OA
ATOM     82  O   UNL A   1      47.859  25.332  37.630  1.00  0.00    -0.744 OA
ENDBRANCH  78  79
ENDBRANCH  50  73
BRANCH  62  83
ATOM     83  C   UNL A   1      39.752  33.544  37.459  1.00  0.00    -0.014 A 
ATOM     84  C   UNL A   1      40.362  34.795  37.653  1.00  0.00     0.010 A 
ATOM     85  C   UNL A   1      38.868  33.052  38.438  1.00  0.00     0.010 A 
ATOM     86  C   UNL A   1      40.118  35.527  38.818  1.00  0.00     0.020 A 
ATOM     87  C   UNL A   1      38.598  33.795  39.591  1.00  0.00     0.020 A 
ATOM     88  C   UNL A   1      39.237  35.022  39.780  1.00  0.00     0.054 A 
BRANCH  88  89
ATOM     89  S   UNL A   1      38.904  36.011  41.263  1.00  0.00     0.124 S 
ATOM     90  O   UNL A   1      37.702  35.370  41.791  1.00  0.00    -0.237 OA
ATOM     91  O   UNL A   1      40.118  35.819  42.054  1.00  0.00    -0.237 OA
ATOM     92  O   UNL A   1      38.713  37.363  40.745  1.00  0.00    -0.744 OA
ENDBRANCH  88  89
ENDBRANCH  62  83
ENDBRANCH  36  37
ENDBRANCH  28  31
ENDBRANCH  26  27
ENDBRANCH  25  26
ENDBRANCH  24  25
ENDBRANCH   1  24
TORSDOF 19
ENDMDL
