MODEL 1
REMARK VINA RESULT:     -11.0      0.000      0.000
REMARK SMILES C[C@@H](C(=O)NCCCCCCNC(=O)c1ccc(-c2c3nc(c(-c4ccc(S(=O)(=O)[O-])cc4)c4ccc([nH]4)c(-c4ccc(S(=O)(=O)[O-])cc4)c4nc(c(-c5ccc(S(=O)(=O)[O-])cc5)c5ccc2[nH]5)C=C4)C=C3)cc1)c1ccc(Cc2ccco2)cc1F
REMARK SMILES IDX 8 1 7 2 6 3 5 4 3 5 4 6 2 8 1 9 75 10 76 11 86 12 77 13
REMARK SMILES IDX 85 14 87 15 78 16 79 17 80 18 81 19 84 20 82 21 83 22 9 23
REMARK SMILES IDX 10 24 11 25 12 26 13 27 14 29 15 30 16 31 74 32 17 33 73 34
REMARK SMILES IDX 18 35 19 36 20 37 67 38 21 39 72 40 66 41 68 42 22 43 71 44
REMARK SMILES IDX 65 45 64 46 23 48 53 49 34 50 52 51 35 52 38 53 51 54 69 55
REMARK SMILES IDX 36 56 37 57 50 59 70 60 39 61 24 62 25 63 33 64 26 65 32 66
REMARK SMILES IDX 27 67 28 68 29 69 30 70 31 71 54 72 55 73 63 74 56 75 62 76
REMARK SMILES IDX 57 77 58 78 59 79 60 80 61 81 40 82 41 83 49 84 42 85 48 86
REMARK SMILES IDX 43 87 44 88 45 89 46 90 47 91
REMARK H PARENT 5 7 12 28 68 47 38 58
REMARK Flexibility Score: inf
ROOT
ATOM      1  C   UNL A   1      37.235  23.160  25.386  1.00  0.00     0.002 C 
ENDROOT
BRANCH   1   2
ATOM      2  C   UNL A   1      35.978  24.026  25.219  1.00  0.00     0.021 C 
BRANCH   2   3
ATOM      3  C   UNL A   1      34.802  23.301  24.564  1.00  0.00     0.116 C 
BRANCH   3   4
ATOM      4  N   UNL A   1      34.438  23.929  23.312  1.00  0.00    -0.356 N 
ATOM      5  C   UNL A   1      33.239  24.405  22.870  1.00  0.00     0.227 C 
ATOM      6  O   UNL A   1      33.237  24.923  21.751  1.00  0.00    -0.274 OA
ATOM      7  H   UNL A   1      35.181  24.029  22.672  1.00  0.00     0.163 HD
BRANCH   5   8
ATOM      8  C   UNL A   1      32.008  24.369  23.791  1.00  0.00     0.108 C 
ATOM      9  C   UNL A   1      30.680  24.122  23.067  1.00  0.00     0.023 C 
BRANCH   8  10
ATOM     10  C   UNL A   1      31.870  25.632  24.631  1.00  0.00    -0.000 A 
ATOM     11  C   UNL A   1      31.801  26.888  24.014  1.00  0.00     0.008 A 
ATOM     12  C   UNL A   1      31.863  25.578  26.030  1.00  0.00     0.127 A 
ATOM     13  C   UNL A   1      31.742  28.052  24.786  1.00  0.00     0.005 A 
ATOM     14  C   UNL A   1      31.812  26.734  26.804  1.00  0.00     0.043 A 
ATOM     15  F   UNL A   1      31.940  24.397  26.660  1.00  0.00    -0.207 F 
ATOM     16  C   UNL A   1      31.764  27.989  26.189  1.00  0.00    -0.038 A 
BRANCH  16  17
ATOM     17  C   UNL A   1      31.760  29.251  27.022  1.00  0.00     0.111 C 
BRANCH  17  18
ATOM     18  C   UNL A   1      33.124  29.797  27.278  1.00  0.00     0.108 A 
ATOM     19  C   UNL A   1      34.381  29.230  27.361  1.00  0.00     0.046 A 
ATOM     20  O   UNL A   1      33.218  31.149  27.443  1.00  0.00    -0.469 OA
ATOM     21  C   UNL A   1      35.287  30.289  27.602  1.00  0.00     0.042 A 
ATOM     22  C   UNL A   1      34.530  31.436  27.644  1.00  0.00     0.195 A 
ENDBRANCH  17  18
ENDBRANCH  16  17
ENDBRANCH   8  10
ENDBRANCH   5   8
ENDBRANCH   3   4
ENDBRANCH   2   3
ENDBRANCH   1   2
BRANCH   1  23
ATOM     23  C   UNL A   1      38.307  23.742  26.311  1.00  0.00     0.002 C 
BRANCH  23  24
ATOM     24  C   UNL A   1      39.431  22.773  26.687  1.00  0.00     0.021 C 
BRANCH  24  25
ATOM     25  C   UNL A   1      40.729  23.446  27.117  1.00  0.00     0.116 C 
BRANCH  25  26
ATOM     26  N   UNL A   1      41.338  24.195  26.031  1.00  0.00    -0.352 N 
ATOM     27  C   UNL A   1      41.549  25.545  25.928  1.00  0.00     0.251 C 
ATOM     28  H   UNL A   1      41.640  23.660  25.262  1.00  0.00     0.163 HD
ATOM     29  O   UNL A   1      41.891  26.030  24.848  1.00  0.00    -0.269 OA
BRANCH  27  30
ATOM     30  C   UNL A   1      41.356  26.419  27.105  1.00  0.00     0.039 A 
ATOM     31  C   UNL A   1      40.302  26.153  27.981  1.00  0.00     0.014 A 
ATOM     32  C   UNL A   1      42.193  27.517  27.329  1.00  0.00     0.014 A 
ATOM     33  C   UNL A   1      40.102  26.972  29.095  1.00  0.00     0.010 A 
ATOM     34  C   UNL A   1      42.043  28.282  28.482  1.00  0.00     0.010 A 
ATOM     35  C   UNL A   1      40.979  28.036  29.361  1.00  0.00    -0.014 A 
BRANCH  35  36
ATOM     36  C   UNL A   1      40.762  28.937  30.523  1.00  0.00     0.031 A 
ATOM     37  C   UNL A   1      41.628  28.801  31.748  1.00  0.00     0.074 A 
ATOM     38  C   UNL A   1      39.768  29.847  30.494  1.00  0.00     0.049 A 
ATOM     39  N   UNL A   1      41.586  29.477  32.868  1.00  0.00    -0.248 NA
ATOM     40  C   UNL A   1      42.660  27.750  31.723  1.00  0.00     0.031 C 
ATOM     41  C   UNL A   1      38.837  30.050  29.381  1.00  0.00     0.029 A 
ATOM     42  N   UNL A   1      39.378  30.773  31.426  1.00  0.00    -0.354 N 
ATOM     43  C   UNL A   1      42.564  28.918  33.684  1.00  0.00     0.074 A 
ATOM     44  C   UNL A   1      43.146  27.815  32.954  1.00  0.00     0.031 C 
ATOM     45  C   UNL A   1      38.009  31.065  29.682  1.00  0.00     0.029 A 
ATOM     46  C   UNL A   1      38.325  31.559  31.019  1.00  0.00     0.049 A 
ATOM     47  H   UNL A   1      39.809  30.866  32.306  1.00  0.00     0.167 HD
ATOM     48  C   UNL A   1      42.958  29.301  34.922  1.00  0.00     0.031 A 
ATOM     49  C   UNL A   1      37.692  32.567  31.647  1.00  0.00     0.031 A 
ATOM     50  C   UNL A   1      42.394  30.415  35.636  1.00  0.00     0.049 A 
ATOM     51  C   UNL A   1      38.155  32.982  33.018  1.00  0.00     0.074 A 
ATOM     52  C   UNL A   1      42.766  30.927  36.867  1.00  0.00     0.029 A 
ATOM     53  N   UNL A   1      41.339  31.191  35.182  1.00  0.00    -0.354 N 
ATOM     54  N   UNL A   1      39.126  32.485  33.746  1.00  0.00    -0.248 NA
ATOM     55  C   UNL A   1      37.450  34.110  33.641  1.00  0.00     0.031 C 
ATOM     56  C   UNL A   1      41.901  31.980  37.180  1.00  0.00     0.029 A 
ATOM     57  C   UNL A   1      41.033  32.166  36.116  1.00  0.00     0.049 A 
ATOM     58  H   UNL A   1      40.876  31.068  34.321  1.00  0.00     0.167 HD
ATOM     59  C   UNL A   1      39.174  33.266  34.897  1.00  0.00     0.074 A 
ATOM     60  C   UNL A   1      38.140  34.272  34.762  1.00  0.00     0.031 C 
ATOM     61  C   UNL A   1      40.004  33.164  35.964  1.00  0.00     0.031 A 
BRANCH  48  62
ATOM     62  C   UNL A   1      44.048  28.498  35.586  1.00  0.00    -0.014 A 
ATOM     63  C   UNL A   1      45.406  28.813  35.401  1.00  0.00     0.010 A 
ATOM     64  C   UNL A   1      43.706  27.425  36.430  1.00  0.00     0.010 A 
ATOM     65  C   UNL A   1      46.403  28.041  36.006  1.00  0.00     0.020 A 
ATOM     66  C   UNL A   1      44.698  26.671  37.063  1.00  0.00     0.020 A 
ATOM     67  C   UNL A   1      46.042  26.972  36.830  1.00  0.00     0.054 A 
BRANCH  67  68
ATOM     68  S   UNL A   1      47.354  25.995  37.614  1.00  0.00     0.124 S 
ATOM     69  O   UNL A   1      48.522  26.850  37.419  1.00  0.00    -0.237 OA
ATOM     70  O   UNL A   1      46.885  25.876  38.992  1.00  0.00    -0.237 OA
ATOM     71  O   UNL A   1      47.360  24.749  36.851  1.00  0.00    -0.744 OA
ENDBRANCH  67  68
ENDBRANCH  48  62
BRANCH  49  72
ATOM     72  C   UNL A   1      36.575  33.283  30.970  1.00  0.00    -0.014 A 
ATOM     73  C   UNL A   1      36.799  33.966  29.760  1.00  0.00     0.010 A 
ATOM     74  C   UNL A   1      35.283  33.282  31.525  1.00  0.00     0.010 A 
ATOM     75  C   UNL A   1      35.757  34.652  29.130  1.00  0.00     0.020 A 
ATOM     76  C   UNL A   1      34.232  33.943  30.882  1.00  0.00     0.020 A 
ATOM     77  C   UNL A   1      34.478  34.634  29.695  1.00  0.00     0.054 A 
BRANCH  77  78
ATOM     78  S   UNL A   1      33.130  35.494  28.836  1.00  0.00     0.124 S 
ATOM     79  O   UNL A   1      32.505  34.409  28.088  1.00  0.00    -0.237 OA
ATOM     80  O   UNL A   1      32.345  36.034  29.945  1.00  0.00    -0.237 OA
ATOM     81  O   UNL A   1      33.824  36.495  28.029  1.00  0.00    -0.744 OA
ENDBRANCH  77  78
ENDBRANCH  49  72
BRANCH  61  82
ATOM     82  C   UNL A   1      39.870  34.201  37.048  1.00  0.00    -0.014 A 
ATOM     83  C   UNL A   1      40.444  35.479  36.921  1.00  0.00     0.010 A 
ATOM     84  C   UNL A   1      39.120  33.899  38.199  1.00  0.00     0.010 A 
ATOM     85  C   UNL A   1      40.304  36.419  37.944  1.00  0.00     0.020 A 
ATOM     86  C   UNL A   1      38.952  34.847  39.211  1.00  0.00     0.020 A 
ATOM     87  C   UNL A   1      39.562  36.096  39.084  1.00  0.00     0.054 A 
BRANCH  87  88
ATOM     88  S   UNL A   1      39.373  37.343  40.389  1.00  0.00     0.124 S 
ATOM     89  O   UNL A   1      40.762  37.650  40.718  1.00  0.00    -0.237 OA
ATOM     90  O   UNL A   1      38.636  38.407  39.711  1.00  0.00    -0.237 OA
ATOM     91  O   UNL A   1      38.625  36.643  41.431  1.00  0.00    -0.744 OA
ENDBRANCH  87  88
ENDBRANCH  61  82
ENDBRANCH  35  36
ENDBRANCH  27  30
ENDBRANCH  25  26
ENDBRANCH  24  25
ENDBRANCH  23  24
ENDBRANCH   1  23
TORSDOF 19
ENDMDL
MODEL 2
REMARK VINA RESULT:     -10.2      6.258      8.994
REMARK SMILES C[C@@H](C(=O)NCCCCCCNC(=O)c1ccc(-c2c3nc(c(-c4ccc(S(=O)(=O)[O-])cc4)c4ccc([nH]4)c(-c4ccc(S(=O)(=O)[O-])cc4)c4nc(c(-c5ccc(S(=O)(=O)[O-])cc5)c5ccc2[nH]5)C=C4)C=C3)cc1)c1ccc(Cc2ccco2)cc1F
REMARK SMILES IDX 8 1 7 2 6 3 5 4 3 5 4 6 2 8 1 9 75 10 76 11 86 12 77 13
REMARK SMILES IDX 85 14 87 15 78 16 79 17 80 18 81 19 84 20 82 21 83 22 9 23
REMARK SMILES IDX 10 24 11 25 12 26 13 27 14 29 15 30 16 31 74 32 17 33 73 34
REMARK SMILES IDX 18 35 19 36 20 37 67 38 21 39 72 40 66 41 68 42 22 43 71 44
REMARK SMILES IDX 65 45 64 46 23 48 53 49 34 50 52 51 35 52 38 53 51 54 69 55
REMARK SMILES IDX 36 56 37 57 50 59 70 60 39 61 24 62 25 63 33 64 26 65 32 66
REMARK SMILES IDX 27 67 28 68 29 69 30 70 31 71 54 72 55 73 63 74 56 75 62 76
REMARK SMILES IDX 57 77 58 78 59 79 60 80 61 81 40 82 41 83 49 84 42 85 48 86
REMARK SMILES IDX 43 87 44 88 45 89 46 90 47 91
REMARK H PARENT 5 7 12 28 68 47 38 58
REMARK Flexibility Score: inf
ROOT
ATOM      1  C   UNL A   1      37.169  22.272  24.682  1.00  0.00     0.002 C 
ENDROOT
BRANCH   1   2
ATOM      2  C   UNL A   1      36.004  23.009  24.008  1.00  0.00     0.021 C 
BRANCH   2   3
ATOM      3  C   UNL A   1      35.158  23.851  24.964  1.00  0.00     0.116 C 
BRANCH   3   4
ATOM      4  N   UNL A   1      34.093  24.528  24.255  1.00  0.00    -0.356 N 
ATOM      5  C   UNL A   1      32.741  24.360  24.310  1.00  0.00     0.227 C 
ATOM      6  O   UNL A   1      32.069  25.113  23.601  1.00  0.00    -0.274 OA
ATOM      7  H   UNL A   1      34.395  25.226  23.629  1.00  0.00     0.163 HD
BRANCH   5   8
ATOM      8  C   UNL A   1      32.128  23.346  25.292  1.00  0.00     0.108 C 
ATOM      9  C   UNL A   1      32.301  23.711  26.771  1.00  0.00     0.023 C 
BRANCH   8  10
ATOM     10  C   UNL A   1      32.659  21.935  25.080  1.00  0.00    -0.000 A 
ATOM     11  C   UNL A   1      33.405  21.300  26.081  1.00  0.00     0.008 A 
ATOM     12  C   UNL A   1      32.463  21.259  23.869  1.00  0.00     0.127 A 
ATOM     13  C   UNL A   1      33.949  20.031  25.861  1.00  0.00     0.005 A 
ATOM     14  C   UNL A   1      33.009  19.999  23.641  1.00  0.00     0.043 A 
ATOM     15  F   UNL A   1      31.766  21.835  22.880  1.00  0.00    -0.207 F 
ATOM     16  C   UNL A   1      33.772  19.374  24.633  1.00  0.00    -0.038 A 
BRANCH  16  17
ATOM     17  C   UNL A   1      34.409  18.027  24.375  1.00  0.00     0.111 C 
BRANCH  17  18
ATOM     18  C   UNL A   1      33.613  16.884  24.907  1.00  0.00     0.108 A 
ATOM     19  C   UNL A   1      32.341  16.767  25.433  1.00  0.00     0.046 A 
ATOM     20  O   UNL A   1      34.207  15.655  24.864  1.00  0.00    -0.469 OA
ATOM     21  C   UNL A   1      32.154  15.398  25.737  1.00  0.00     0.042 A 
ATOM     22  C   UNL A   1      33.318  14.764  25.372  1.00  0.00     0.195 A 
ENDBRANCH  17  18
ENDBRANCH  16  17
ENDBRANCH   8  10
ENDBRANCH   5   8
ENDBRANCH   3   4
ENDBRANCH   2   3
ENDBRANCH   1   2
BRANCH   1  23
ATOM     23  C   UNL A   1      37.278  20.782  24.345  1.00  0.00     0.002 C 
BRANCH  23  24
ATOM     24  C   UNL A   1      38.060  19.946  25.361  1.00  0.00     0.021 C 
BRANCH  24  25
ATOM     25  C   UNL A   1      39.323  20.613  25.890  1.00  0.00     0.116 C 
BRANCH  25  26
ATOM     26  N   UNL A   1      40.393  19.654  26.111  1.00  0.00    -0.352 N 
ATOM     27  C   UNL A   1      41.723  19.885  26.341  1.00  0.00     0.251 C 
ATOM     28  H   UNL A   1      40.124  18.707  26.092  1.00  0.00     0.163 HD
ATOM     29  O   UNL A   1      42.523  18.947  26.302  1.00  0.00    -0.269 OA
BRANCH  27  30
ATOM     30  C   UNL A   1      42.201  21.255  26.625  1.00  0.00     0.039 A 
ATOM     31  C   UNL A   1      42.364  22.149  25.565  1.00  0.00     0.014 A 
ATOM     32  C   UNL A   1      42.517  21.649  27.929  1.00  0.00     0.014 A 
ATOM     33  C   UNL A   1      42.820  23.446  25.815  1.00  0.00     0.010 A 
ATOM     34  C   UNL A   1      42.893  22.965  28.186  1.00  0.00     0.010 A 
ATOM     35  C   UNL A   1      43.077  23.868  27.130  1.00  0.00    -0.014 A 
BRANCH  35  36
ATOM     36  C   UNL A   1      43.593  25.232  27.410  1.00  0.00     0.031 A 
ATOM     37  C   UNL A   1      45.043  25.552  27.151  1.00  0.00     0.074 A 
ATOM     38  C   UNL A   1      42.776  26.170  27.929  1.00  0.00     0.049 A 
ATOM     39  N   UNL A   1      45.689  26.673  27.345  1.00  0.00    -0.248 NA
ATOM     40  C   UNL A   1      45.885  24.461  26.631  1.00  0.00     0.031 C 
ATOM     41  C   UNL A   1      41.362  25.973  28.259  1.00  0.00     0.029 A 
ATOM     42  N   UNL A   1      43.017  27.477  28.266  1.00  0.00    -0.354 N 
ATOM     43  C   UNL A   1      47.010  26.415  26.996  1.00  0.00     0.074 A 
ATOM     44  C   UNL A   1      47.086  25.018  26.630  1.00  0.00     0.031 C 
ATOM     45  C   UNL A   1      40.854  27.129  28.715  1.00  0.00     0.029 A 
ATOM     46  C   UNL A   1      41.910  28.137  28.744  1.00  0.00     0.049 A 
ATOM     47  H   UNL A   1      43.900  27.903  28.176  1.00  0.00     0.167 HD
ATOM     48  C   UNL A   1      48.063  27.266  26.962  1.00  0.00     0.031 A 
ATOM     49  C   UNL A   1      41.760  29.412  29.153  1.00  0.00     0.031 A 
ATOM     50  C   UNL A   1      47.978  28.661  27.303  1.00  0.00     0.049 A 
ATOM     51  C   UNL A   1      42.941  30.343  29.096  1.00  0.00     0.074 A 
ATOM     52  C   UNL A   1      48.970  29.625  27.240  1.00  0.00     0.029 A 
ATOM     53  N   UNL A   1      46.836  29.292  27.771  1.00  0.00    -0.354 N 
ATOM     54  N   UNL A   1      44.168  30.097  28.698  1.00  0.00    -0.248 NA
ATOM     55  C   UNL A   1      42.712  31.730  29.521  1.00  0.00     0.031 C 
ATOM     56  C   UNL A   1      48.440  30.827  27.719  1.00  0.00     0.029 A 
ATOM     57  C   UNL A   1      47.102  30.628  28.019  1.00  0.00     0.049 A 
ATOM     58  H   UNL A   1      45.964  28.855  27.906  1.00  0.00     0.167 HD
ATOM     59  C   UNL A   1      44.844  31.309  28.788  1.00  0.00     0.074 A 
ATOM     60  C   UNL A   1      43.889  32.286  29.269  1.00  0.00     0.031 C 
ATOM     61  C   UNL A   1      46.138  31.589  28.492  1.00  0.00     0.031 A 
BRANCH  48  62
ATOM     62  C   UNL A   1      49.400  26.705  26.549  1.00  0.00    -0.014 A 
ATOM     63  C   UNL A   1      49.768  26.610  25.195  1.00  0.00     0.010 A 
ATOM     64  C   UNL A   1      50.315  26.292  27.535  1.00  0.00     0.010 A 
ATOM     65  C   UNL A   1      51.003  26.064  24.832  1.00  0.00     0.020 A 
ATOM     66  C   UNL A   1      51.564  25.777  27.178  1.00  0.00     0.020 A 
ATOM     67  C   UNL A   1      51.892  25.647  25.827  1.00  0.00     0.054 A 
BRANCH  67  68
ATOM     68  S   UNL A   1      53.493  24.956  25.328  1.00  0.00     0.124 S 
ATOM     69  O   UNL A   1      53.154  23.556  25.086  1.00  0.00    -0.237 OA
ATOM     70  O   UNL A   1      53.824  25.738  24.140  1.00  0.00    -0.237 OA
ATOM     71  O   UNL A   1      54.350  25.197  26.486  1.00  0.00    -0.744 OA
ENDBRANCH  67  68
ENDBRANCH  48  62
BRANCH  49  72
ATOM     72  C   UNL A   1      40.429  29.895  29.615  1.00  0.00    -0.014 A 
ATOM     73  C   UNL A   1      39.445  30.266  28.681  1.00  0.00     0.010 A 
ATOM     74  C   UNL A   1      40.136  29.980  30.988  1.00  0.00     0.010 A 
ATOM     75  C   UNL A   1      38.200  30.735  29.112  1.00  0.00     0.020 A 
ATOM     76  C   UNL A   1      38.882  30.421  31.421  1.00  0.00     0.020 A 
ATOM     77  C   UNL A   1      37.926  30.808  30.481  1.00  0.00     0.054 A 
BRANCH  77  78
ATOM     78  S   UNL A   1      36.288  31.376  31.016  1.00  0.00     0.124 S 
ATOM     79  O   UNL A   1      35.533  31.348  29.768  1.00  0.00    -0.237 OA
ATOM     80  O   UNL A   1      35.914  30.368  32.007  1.00  0.00    -0.237 OA
ATOM     81  O   UNL A   1      36.551  32.706  31.561  1.00  0.00    -0.744 OA
ENDBRANCH  77  78
ENDBRANCH  49  72
BRANCH  61  82
ATOM     82  C   UNL A   1      46.585  33.021  28.623  1.00  0.00    -0.014 A 
ATOM     83  C   UNL A   1      46.460  33.932  27.559  1.00  0.00     0.010 A 
ATOM     84  C   UNL A   1      47.102  33.469  29.852  1.00  0.00     0.010 A 
ATOM     85  C   UNL A   1      46.886  35.255  27.710  1.00  0.00     0.020 A 
ATOM     86  C   UNL A   1      47.500  34.799  30.016  1.00  0.00     0.020 A 
ATOM     87  C   UNL A   1      47.406  35.678  28.937  1.00  0.00     0.054 A 
BRANCH  87  88
ATOM     88  S   UNL A   1      47.928  37.406  29.117  1.00  0.00     0.124 S 
ATOM     89  O   UNL A   1      47.587  37.682  30.510  1.00  0.00    -0.237 OA
ATOM     90  O   UNL A   1      49.357  37.343  28.819  1.00  0.00    -0.237 OA
ATOM     91  O   UNL A   1      47.122  38.117  28.126  1.00  0.00    -0.744 OA
ENDBRANCH  87  88
ENDBRANCH  61  82
ENDBRANCH  35  36
ENDBRANCH  27  30
ENDBRANCH  25  26
ENDBRANCH  24  25
ENDBRANCH  23  24
ENDBRANCH   1  23
TORSDOF 19
ENDMDL
MODEL 3
REMARK VINA RESULT:      -9.6     11.685     17.044
REMARK SMILES C[C@@H](C(=O)NCCCCCCNC(=O)c1ccc(-c2c3nc(c(-c4ccc(S(=O)(=O)[O-])cc4)c4ccc([nH]4)c(-c4ccc(S(=O)(=O)[O-])cc4)c4nc(c(-c5ccc(S(=O)(=O)[O-])cc5)c5ccc2[nH]5)C=C4)C=C3)cc1)c1ccc(Cc2ccco2)cc1F
REMARK SMILES IDX 8 1 7 2 6 3 5 4 3 5 4 6 2 8 1 9 75 10 76 11 86 12 77 13
REMARK SMILES IDX 85 14 87 15 78 16 79 17 80 18 81 19 84 20 82 21 83 22 9 23
REMARK SMILES IDX 10 24 11 25 12 26 13 27 14 29 15 30 16 31 74 32 17 33 73 34
REMARK SMILES IDX 18 35 19 36 20 37 67 38 21 39 72 40 66 41 68 42 22 43 71 44
REMARK SMILES IDX 65 45 64 46 23 48 53 49 34 50 52 51 35 52 38 53 51 54 69 55
REMARK SMILES IDX 36 56 37 57 50 59 70 60 39 61 24 62 25 63 33 64 26 65 32 66
REMARK SMILES IDX 27 67 28 68 29 69 30 70 31 71 54 72 55 73 63 74 56 75 62 76
REMARK SMILES IDX 57 77 58 78 59 79 60 80 61 81 40 82 41 83 49 84 42 85 48 86
REMARK SMILES IDX 43 87 44 88 45 89 46 90 47 91
REMARK H PARENT 5 7 12 28 68 47 38 58
REMARK Flexibility Score: inf
ROOT
ATOM      1  C   UNL A   1      41.620  40.928  25.618  1.00  0.00     0.002 C 
ENDROOT
BRANCH   1   2
ATOM      2  C   UNL A   1      42.834  41.641  25.006  1.00  0.00     0.021 C 
BRANCH   2   3
ATOM      3  C   UNL A   1      42.477  42.730  23.994  1.00  0.00     0.116 C 
BRANCH   3   4
ATOM      4  N   UNL A   1      43.491  43.762  23.963  1.00  0.00    -0.356 N 
ATOM      5  C   UNL A   1      44.594  43.902  23.173  1.00  0.00     0.227 C 
ATOM      6  O   UNL A   1      45.271  44.917  23.357  1.00  0.00    -0.274 OA
ATOM      7  H   UNL A   1      43.363  44.483  24.622  1.00  0.00     0.163 HD
BRANCH   5   8
ATOM      8  C   UNL A   1      44.881  42.880  22.060  1.00  0.00     0.108 C 
ATOM      9  C   UNL A   1      46.354  42.478  21.932  1.00  0.00     0.023 C 
BRANCH   8  10
ATOM     10  C   UNL A   1      44.390  43.350  20.697  1.00  0.00    -0.000 A 
ATOM     11  C   UNL A   1      45.113  44.308  19.976  1.00  0.00     0.008 A 
ATOM     12  C   UNL A   1      43.187  42.879  20.155  1.00  0.00     0.127 A 
ATOM     13  C   UNL A   1      44.629  44.788  18.755  1.00  0.00     0.005 A 
ATOM     14  C   UNL A   1      42.696  43.359  18.945  1.00  0.00     0.043 A 
ATOM     15  F   UNL A   1      42.459  41.970  20.819  1.00  0.00    -0.207 F 
ATOM     16  C   UNL A   1      43.407  44.332  18.235  1.00  0.00    -0.038 A 
BRANCH  16  17
ATOM     17  C   UNL A   1      42.855  44.895  16.944  1.00  0.00     0.111 C 
BRANCH  17  18
ATOM     18  C   UNL A   1      42.764  46.383  16.938  1.00  0.00     0.108 A 
ATOM     19  C   UNL A   1      43.644  47.394  16.603  1.00  0.00     0.046 A 
ATOM     20  O   UNL A   1      41.565  46.922  17.307  1.00  0.00    -0.469 OA
ATOM     21  C   UNL A   1      42.950  48.612  16.788  1.00  0.00     0.042 A 
ATOM     22  C   UNL A   1      41.690  48.271  17.217  1.00  0.00     0.195 A 
ENDBRANCH  17  18
ENDBRANCH  16  17
ENDBRANCH   8  10
ENDBRANCH   5   8
ENDBRANCH   3   4
ENDBRANCH   2   3
ENDBRANCH   1   2
BRANCH   1  23
ATOM     23  C   UNL A   1      41.930  40.030  26.818  1.00  0.00     0.002 C 
BRANCH  23  24
ATOM     24  C   UNL A   1      43.286  39.323  26.762  1.00  0.00     0.021 C 
BRANCH  24  25
ATOM     25  C   UNL A   1      43.404  38.109  27.676  1.00  0.00     0.116 C 
BRANCH  25  26
ATOM     26  N   UNL A   1      42.140  37.404  27.809  1.00  0.00    -0.352 N 
ATOM     27  C   UNL A   1      41.867  36.079  27.596  1.00  0.00     0.251 C 
ATOM     28  H   UNL A   1      41.374  37.955  28.091  1.00  0.00     0.163 HD
ATOM     29  O   UNL A   1      40.695  35.695  27.558  1.00  0.00    -0.269 OA
BRANCH  27  30
ATOM     30  C   UNL A   1      42.969  35.114  27.402  1.00  0.00     0.039 A 
ATOM     31  C   UNL A   1      43.563  34.529  28.522  1.00  0.00     0.014 A 
ATOM     32  C   UNL A   1      43.439  34.809  26.120  1.00  0.00     0.014 A 
ATOM     33  C   UNL A   1      44.610  33.619  28.356  1.00  0.00     0.010 A 
ATOM     34  C   UNL A   1      44.426  33.842  25.953  1.00  0.00     0.010 A 
ATOM     35  C   UNL A   1      45.042  33.259  27.069  1.00  0.00    -0.014 A 
BRANCH  35  36
ATOM     36  C   UNL A   1      46.176  32.319  26.877  1.00  0.00     0.031 A 
ATOM     37  C   UNL A   1      47.583  32.851  26.785  1.00  0.00     0.074 A 
ATOM     38  C   UNL A   1      45.942  30.998  26.747  1.00  0.00     0.049 A 
ATOM     39  N   UNL A   1      48.703  32.198  26.602  1.00  0.00    -0.248 NA
ATOM     40  C   UNL A   1      47.753  34.310  26.886  1.00  0.00     0.031 C 
ATOM     41  C   UNL A   1      44.622  30.364  26.780  1.00  0.00     0.029 A 
ATOM     42  N   UNL A   1      46.809  29.951  26.564  1.00  0.00    -0.354 N 
ATOM     43  C   UNL A   1      49.700  33.166  26.541  1.00  0.00     0.074 A 
ATOM     44  C   UNL A   1      49.049  34.452  26.653  1.00  0.00     0.031 C 
ATOM     45  C   UNL A   1      44.771  29.034  26.660  1.00  0.00     0.029 A 
ATOM     46  C   UNL A   1      46.190  28.724  26.507  1.00  0.00     0.049 A 
ATOM     47  H   UNL A   1      47.783  30.066  26.480  1.00  0.00     0.167 HD
ATOM     48  C   UNL A   1      51.038  33.000  26.424  1.00  0.00     0.031 A 
ATOM     49  C   UNL A   1      46.707  27.490  26.356  1.00  0.00     0.031 A 
ATOM     50  C   UNL A   1      51.684  31.718  26.338  1.00  0.00     0.049 A 
ATOM     51  C   UNL A   1      48.199  27.330  26.239  1.00  0.00     0.074 A 
ATOM     52  C   UNL A   1      53.039  31.438  26.283  1.00  0.00     0.029 A 
ATOM     53  N   UNL A   1      51.022  30.501  26.297  1.00  0.00    -0.354 N 
ATOM     54  N   UNL A   1      49.131  28.253  26.251  1.00  0.00    -0.248 NA
ATOM     55  C   UNL A   1      48.709  25.959  26.111  1.00  0.00     0.031 C 
ATOM     56  C   UNL A   1      53.193  30.054  26.156  1.00  0.00     0.029 A 
ATOM     57  C   UNL A   1      51.938  29.467  26.196  1.00  0.00     0.049 A 
ATOM     58  H   UNL A   1      50.044  30.388  26.333  1.00  0.00     0.167 HD
ATOM     59  C   UNL A   1      50.340  27.569  26.173  1.00  0.00     0.074 A 
ATOM     60  C   UNL A   1      50.020  26.158  26.122  1.00  0.00     0.031 C 
ATOM     61  C   UNL A   1      51.603  28.066  26.153  1.00  0.00     0.031 A 
BRANCH  48  62
ATOM     62  C   UNL A   1      51.893  34.242  26.373  1.00  0.00    -0.014 A 
ATOM     63  C   UNL A   1      52.441  34.802  27.541  1.00  0.00     0.010 A 
ATOM     64  C   UNL A   1      52.173  34.842  25.131  1.00  0.00     0.010 A 
ATOM     65  C   UNL A   1      53.211  35.968  27.475  1.00  0.00     0.020 A 
ATOM     66  C   UNL A   1      52.969  35.989  25.057  1.00  0.00     0.020 A 
ATOM     67  C   UNL A   1      53.466  36.556  26.233  1.00  0.00     0.054 A 
BRANCH  67  68
ATOM     68  S   UNL A   1      54.478  38.060  26.174  1.00  0.00     0.124 S 
ATOM     69  O   UNL A   1      53.469  39.093  25.957  1.00  0.00    -0.237 OA
ATOM     70  O   UNL A   1      55.115  38.068  27.488  1.00  0.00    -0.237 OA
ATOM     71  O   UNL A   1      55.381  37.826  25.050  1.00  0.00    -0.744 OA
ENDBRANCH  67  68
ENDBRANCH  48  62
BRANCH  49  72
ATOM     72  C   UNL A   1      45.808  26.302  26.347  1.00  0.00    -0.014 A 
ATOM     73  C   UNL A   1      45.259  25.835  25.139  1.00  0.00     0.010 A 
ATOM     74  C   UNL A   1      45.503  25.627  27.542  1.00  0.00     0.010 A 
ATOM     75  C   UNL A   1      44.403  24.730  25.129  1.00  0.00     0.020 A 
ATOM     76  C   UNL A   1      44.671  24.504  27.532  1.00  0.00     0.020 A 
ATOM     77  C   UNL A   1      44.116  24.069  26.328  1.00  0.00     0.054 A 
BRANCH  77  78
ATOM     78  S   UNL A   1      43.039  22.610  26.286  1.00  0.00     0.124 S 
ATOM     79  O   UNL A   1      41.717  23.211  26.149  1.00  0.00    -0.237 OA
ATOM     80  O   UNL A   1      43.533  21.889  25.113  1.00  0.00    -0.237 OA
ATOM     81  O   UNL A   1      43.302  21.955  27.565  1.00  0.00    -0.744 OA
ENDBRANCH  77  78
ENDBRANCH  49  72
BRANCH  61  82
ATOM     82  C   UNL A   1      52.737  27.076  26.131  1.00  0.00    -0.014 A 
ATOM     83  C   UNL A   1      53.366  26.701  24.931  1.00  0.00     0.010 A 
ATOM     84  C   UNL A   1      53.206  26.542  27.345  1.00  0.00     0.010 A 
ATOM     85  C   UNL A   1      54.414  25.779  24.942  1.00  0.00     0.020 A 
ATOM     86  C   UNL A   1      54.274  25.643  27.364  1.00  0.00     0.020 A 
ATOM     87  C   UNL A   1      54.860  25.252  26.159  1.00  0.00     0.054 A 
BRANCH  87  88
ATOM     88  S   UNL A   1      56.240  24.076  26.151  1.00  0.00     0.124 S 
ATOM     89  O   UNL A   1      56.727  24.189  24.778  1.00  0.00    -0.237 OA
ATOM     90  O   UNL A   1      57.127  24.615  27.179  1.00  0.00    -0.237 OA
ATOM     91  O   UNL A   1      55.611  22.800  26.486  1.00  0.00    -0.744 OA
ENDBRANCH  87  88
ENDBRANCH  61  82
ENDBRANCH  35  36
ENDBRANCH  27  30
ENDBRANCH  25  26
ENDBRANCH  24  25
ENDBRANCH  23  24
ENDBRANCH   1  23
TORSDOF 19
ENDMDL
