MODEL 1
REMARK VINA RESULT:     -11.1      0.000      0.000
REMARK SMILES COC(=O)c1ccc(-c2ccc(C(=O)NCCCCCCNC(=O)c3ccc(-c4c5nc(c(-c6ccc(S(=O)(=O)[O-])cc6)c6ccc([nH]6)c(-c6ccc(S(=O)(=O)[O-])cc6)c6nc(c(-c7ccc(S(=O)(=O)[O-])cc7)c7ccc4[nH]7)C=C6)C=C5)cc3)cc2O)cc1F
REMARK SMILES IDX 18 1 17 2 16 3 15 4 13 5 14 6 12 8 9 9 10 10 86 11 11 12
REMARK SMILES IDX 85 13 8 14 5 15 6 16 89 17 7 18 88 19 90 20 3 21 4 22 2 23
REMARK SMILES IDX 1 24 87 25 19 27 20 28 21 29 22 30 23 31 24 33 25 34 26 35
REMARK SMILES IDX 84 36 27 37 83 38 28 39 29 40 30 41 77 42 31 43 82 44 76 45
REMARK SMILES IDX 78 46 32 47 81 48 75 49 74 50 33 52 63 53 44 54 62 55 45 56
REMARK SMILES IDX 48 57 61 58 79 59 46 60 47 61 60 63 80 64 49 65 34 66 35 67
REMARK SMILES IDX 43 68 36 69 42 70 37 71 38 72 39 73 40 74 41 75 64 76 65 77
REMARK SMILES IDX 73 78 66 79 72 80 67 81 68 82 69 83 70 84 71 85 50 86 51 87
REMARK SMILES IDX 59 88 52 89 58 90 53 91 54 92 55 93 56 94 57 95
REMARK H PARENT 15 7 87 26 22 32 78 51 48 62
REMARK Flexibility Score: inf
ROOT
ATOM      1  C   UNL A   1      34.323  25.707  25.210  1.00  0.00     0.002 C 
ENDROOT
BRANCH   1   2
ATOM      2  C   UNL A   1      33.400  26.862  25.623  1.00  0.00     0.021 C 
BRANCH   2   3
ATOM      3  C   UNL A   1      32.594  27.420  24.448  1.00  0.00     0.116 C 
BRANCH   3   4
ATOM      4  N   UNL A   1      31.185  27.156  24.654  1.00  0.00    -0.352 N 
ATOM      5  C   UNL A   1      30.416  26.030  24.555  1.00  0.00     0.251 C 
ATOM      6  O   UNL A   1      29.207  26.160  24.754  1.00  0.00    -0.269 OA
ATOM      7  H   UNL A   1      30.675  27.955  24.921  1.00  0.00     0.163 HD
BRANCH   5   8
ATOM      8  C   UNL A   1      30.960  24.666  24.289  1.00  0.00     0.043 A 
ATOM      9  C   UNL A   1      32.021  22.048  24.040  1.00  0.00     0.024 A 
ATOM     10  C   UNL A   1      31.354  22.439  25.207  1.00  0.00     0.013 A 
ATOM     11  C   UNL A   1      32.121  22.981  22.997  1.00  0.00     0.124 A 
ATOM     12  C   UNL A   1      30.847  23.735  25.334  1.00  0.00     0.015 A 
ATOM     13  C   UNL A   1      31.550  24.251  23.094  1.00  0.00     0.060 A 
BRANCH   9  14
ATOM     14  C   UNL A   1      32.567  20.693  23.911  1.00  0.00    -0.012 A 
ATOM     15  C   UNL A   1      33.553  18.067  23.749  1.00  0.00     0.095 A 
ATOM     16  C   UNL A   1      34.101  18.963  24.673  1.00  0.00     0.019 A 
ATOM     17  C   UNL A   1      32.510  18.480  22.922  1.00  0.00     0.138 A 
ATOM     18  C   UNL A   1      33.615  20.271  24.745  1.00  0.00     0.010 A 
ATOM     19  C   UNL A   1      32.021  19.781  22.997  1.00  0.00     0.049 A 
ATOM     20  F   UNL A   1      31.929  17.633  22.059  1.00  0.00    -0.206 F 
BRANCH  15  21
ATOM     21  C   UNL A   1      34.091  16.697  23.703  1.00  0.00     0.340 C 
ATOM     22  O   UNL A   1      34.399  16.131  22.669  1.00  0.00    -0.246 OA
BRANCH  21  23
ATOM     23  O   UNL A   1      34.073  16.155  24.945  1.00  0.00    -0.465 OA
ATOM     24  C   UNL A   1      32.776  15.750  25.381  1.00  0.00     0.282 C 
ENDBRANCH  21  23
ENDBRANCH  15  21
ENDBRANCH   9  14
BRANCH  11  25
ATOM     25  O   UNL A   1      32.786  22.627  21.852  1.00  0.00    -0.507 OA
ATOM     26  H   UNL A   1      33.445  21.961  21.880  1.00  0.00     0.293 HD
ENDBRANCH  11  25
ENDBRANCH   5   8
ENDBRANCH   3   4
ENDBRANCH   2   3
ENDBRANCH   1   2
BRANCH   1  27
ATOM     27  C   UNL A   1      34.270  24.489  26.141  1.00  0.00     0.002 C 
BRANCH  27  28
ATOM     28  C   UNL A   1      35.259  23.376  25.784  1.00  0.00     0.021 C 
BRANCH  28  29
ATOM     29  C   UNL A   1      36.648  23.885  25.421  1.00  0.00     0.116 C 
BRANCH  29  30
ATOM     30  N   UNL A   1      37.653  22.854  25.623  1.00  0.00    -0.352 N 
ATOM     31  C   UNL A   1      38.931  22.975  26.101  1.00  0.00     0.251 C 
ATOM     32  H   UNL A   1      37.376  21.942  25.381  1.00  0.00     0.163 HD
ATOM     33  O   UNL A   1      39.733  22.061  25.938  1.00  0.00    -0.269 OA
BRANCH  31  34
ATOM     34  C   UNL A   1      39.333  24.204  26.816  1.00  0.00     0.039 A 
ATOM     35  C   UNL A   1      40.098  25.159  26.145  1.00  0.00     0.014 A 
ATOM     36  C   UNL A   1      38.995  24.392  28.161  1.00  0.00     0.014 A 
ATOM     37  C   UNL A   1      40.512  26.308  26.818  1.00  0.00     0.010 A 
ATOM     38  C   UNL A   1      39.331  25.578  28.803  1.00  0.00     0.010 A 
ATOM     39  C   UNL A   1      40.125  26.532  28.150  1.00  0.00    -0.014 A 
BRANCH  39  40
ATOM     40  C   UNL A   1      40.592  27.730  28.888  1.00  0.00     0.031 A 
ATOM     41  C   UNL A   1      41.982  27.761  29.469  1.00  0.00     0.074 A 
ATOM     42  C   UNL A   1      39.761  28.776  29.056  1.00  0.00     0.049 A 
ATOM     43  N   UNL A   1      42.575  28.718  30.135  1.00  0.00    -0.248 NA
ATOM     44  C   UNL A   1      42.803  26.550  29.305  1.00  0.00     0.031 C 
ATOM     45  C   UNL A   1      38.378  28.845  28.579  1.00  0.00     0.029 A 
ATOM     46  N   UNL A   1      39.963  29.987  29.668  1.00  0.00    -0.354 N 
ATOM     47  C   UNL A   1      43.827  28.219  30.480  1.00  0.00     0.074 A 
ATOM     48  C   UNL A   1      43.882  26.854  30.009  1.00  0.00     0.031 C 
ATOM     49  C   UNL A   1      37.869  30.050  28.882  1.00  0.00     0.029 A 
ATOM     50  C   UNL A   1      38.873  30.823  29.606  1.00  0.00     0.049 A 
ATOM     51  H   UNL A   1      40.807  30.233  30.111  1.00  0.00     0.167 HD
ATOM     52  C   UNL A   1      44.849  28.846  31.110  1.00  0.00     0.031 A 
ATOM     53  C   UNL A   1      38.705  32.075  30.073  1.00  0.00     0.031 A 
ATOM     54  C   UNL A   1      44.789  30.209  31.570  1.00  0.00     0.049 A 
ATOM     55  C   UNL A   1      39.855  32.755  30.763  1.00  0.00     0.074 A 
ATOM     56  C   UNL A   1      45.783  30.958  32.173  1.00  0.00     0.029 A 
ATOM     57  N   UNL A   1      43.672  31.025  31.480  1.00  0.00    -0.354 N 
ATOM     58  N   UNL A   1      41.054  32.291  31.023  1.00  0.00    -0.248 NA
ATOM     59  C   UNL A   1      39.635  34.140  31.200  1.00  0.00     0.031 C 
ATOM     60  C   UNL A   1      45.248  32.208  32.502  1.00  0.00     0.029 A 
ATOM     61  C   UNL A   1      43.944  32.264  32.036  1.00  0.00     0.049 A 
ATOM     62  H   UNL A   1      42.811  30.763  31.080  1.00  0.00     0.167 HD
ATOM     63  C   UNL A   1      41.745  33.339  31.622  1.00  0.00     0.074 A 
ATOM     64  C   UNL A   1      40.832  34.463  31.670  1.00  0.00     0.031 C 
ATOM     65  C   UNL A   1      43.021  33.371  32.085  1.00  0.00     0.031 A 
BRANCH  52  66
ATOM     66  C   UNL A   1      46.111  28.055  31.347  1.00  0.00    -0.014 A 
ATOM     67  C   UNL A   1      46.317  27.344  32.545  1.00  0.00     0.010 A 
ATOM     68  C   UNL A   1      47.101  28.006  30.349  1.00  0.00     0.010 A 
ATOM     69  C   UNL A   1      47.509  26.648  32.762  1.00  0.00     0.020 A 
ATOM     70  C   UNL A   1      48.281  27.281  30.548  1.00  0.00     0.020 A 
ATOM     71  C   UNL A   1      48.486  26.625  31.762  1.00  0.00     0.054 A 
BRANCH  71  72
ATOM     72  S   UNL A   1      50.019  25.705  32.067  1.00  0.00     0.124 S 
ATOM     73  O   UNL A   1      50.847  26.712  32.726  1.00  0.00    -0.237 OA
ATOM     74  O   UNL A   1      49.569  24.607  32.918  1.00  0.00    -0.237 OA
ATOM     75  O   UNL A   1      50.461  25.314  30.731  1.00  0.00    -0.744 OA
ENDBRANCH  71  72
ENDBRANCH  52  66
BRANCH  53  76
ATOM     76  C   UNL A   1      37.405  32.772  29.872  1.00  0.00    -0.014 A 
ATOM     77  C   UNL A   1      37.168  33.527  28.709  1.00  0.00     0.010 A 
ATOM     78  C   UNL A   1      36.384  32.661  30.834  1.00  0.00     0.010 A 
ATOM     79  C   UNL A   1      35.942  34.173  28.521  1.00  0.00     0.020 A 
ATOM     80  C   UNL A   1      35.147  33.280  30.635  1.00  0.00     0.020 A 
ATOM     81  C   UNL A   1      34.937  34.040  29.483  1.00  0.00     0.054 A 
BRANCH  81  82
ATOM     82  S   UNL A   1      33.334  34.837  29.190  1.00  0.00     0.124 S 
ATOM     83  O   UNL A   1      32.710  33.924  28.238  1.00  0.00    -0.237 OA
ATOM     84  O   UNL A   1      32.746  34.861  30.527  1.00  0.00    -0.237 OA
ATOM     85  O   UNL A   1      33.697  36.147  28.654  1.00  0.00    -0.744 OA
ENDBRANCH  81  82
ENDBRANCH  53  76
BRANCH  65  86
ATOM     86  C   UNL A   1      43.520  34.682  32.636  1.00  0.00    -0.014 A 
ATOM     87  C   UNL A   1      43.347  35.028  33.989  1.00  0.00     0.010 A 
ATOM     88  C   UNL A   1      44.192  35.575  31.782  1.00  0.00     0.010 A 
ATOM     89  C   UNL A   1      43.783  36.271  34.460  1.00  0.00     0.020 A 
ATOM     90  C   UNL A   1      44.661  36.801  32.257  1.00  0.00     0.020 A 
ATOM     91  C   UNL A   1      44.431  37.152  33.588  1.00  0.00     0.054 A 
BRANCH  91  92
ATOM     92  S   UNL A   1      44.984  38.758  34.221  1.00  0.00     0.124 S 
ATOM     93  O   UNL A   1      46.429  38.571  34.302  1.00  0.00    -0.237 OA
ATOM     94  O   UNL A   1      44.526  39.685  33.189  1.00  0.00    -0.237 OA
ATOM     95  O   UNL A   1      44.298  38.878  35.507  1.00  0.00    -0.744 OA
ENDBRANCH  91  92
ENDBRANCH  65  86
ENDBRANCH  39  40
ENDBRANCH  31  34
ENDBRANCH  29  30
ENDBRANCH  28  29
ENDBRANCH  27  28
ENDBRANCH   1  27
TORSDOF 20
ENDMDL
MODEL 2
REMARK VINA RESULT:     -10.9      1.953      2.534
REMARK SMILES COC(=O)c1ccc(-c2ccc(C(=O)NCCCCCCNC(=O)c3ccc(-c4c5nc(c(-c6ccc(S(=O)(=O)[O-])cc6)c6ccc([nH]6)c(-c6ccc(S(=O)(=O)[O-])cc6)c6nc(c(-c7ccc(S(=O)(=O)[O-])cc7)c7ccc4[nH]7)C=C6)C=C5)cc3)cc2O)cc1F
REMARK SMILES IDX 18 1 17 2 16 3 15 4 13 5 14 6 12 8 9 9 10 10 86 11 11 12
REMARK SMILES IDX 85 13 8 14 5 15 6 16 89 17 7 18 88 19 90 20 3 21 4 22 2 23
REMARK SMILES IDX 1 24 87 25 19 27 20 28 21 29 22 30 23 31 24 33 25 34 26 35
REMARK SMILES IDX 84 36 27 37 83 38 28 39 29 40 30 41 77 42 31 43 82 44 76 45
REMARK SMILES IDX 78 46 32 47 81 48 75 49 74 50 33 52 63 53 44 54 62 55 45 56
REMARK SMILES IDX 48 57 61 58 79 59 46 60 47 61 60 63 80 64 49 65 34 66 35 67
REMARK SMILES IDX 43 68 36 69 42 70 37 71 38 72 39 73 40 74 41 75 64 76 65 77
REMARK SMILES IDX 73 78 66 79 72 80 67 81 68 82 69 83 70 84 71 85 50 86 51 87
REMARK SMILES IDX 59 88 52 89 58 90 53 91 54 92 55 93 56 94 57 95
REMARK H PARENT 15 7 87 26 22 32 78 51 48 62
REMARK Flexibility Score: inf
ROOT
ATOM      1  C   UNL A   1      34.395  25.583  25.332  1.00  0.00     0.002 C 
ENDROOT
BRANCH   1   2
ATOM      2  C   UNL A   1      33.299  26.487  25.912  1.00  0.00     0.021 C 
BRANCH   2   3
ATOM      3  C   UNL A   1      32.616  27.343  24.843  1.00  0.00     0.116 C 
BRANCH   3   4
ATOM      4  N   UNL A   1      31.187  27.108  24.871  1.00  0.00    -0.352 N 
ATOM      5  C   UNL A   1      30.410  26.010  24.621  1.00  0.00     0.251 C 
ATOM      6  O   UNL A   1      29.189  26.163  24.687  1.00  0.00    -0.269 OA
ATOM      7  H   UNL A   1      30.666  27.904  25.122  1.00  0.00     0.163 HD
BRANCH   5   8
ATOM      8  C   UNL A   1      30.952  24.648  24.342  1.00  0.00     0.043 A 
ATOM      9  C   UNL A   1      32.009  22.030  24.070  1.00  0.00     0.024 A 
ATOM     10  C   UNL A   1      31.341  22.411  25.239  1.00  0.00     0.013 A 
ATOM     11  C   UNL A   1      32.113  22.973  23.036  1.00  0.00     0.124 A 
ATOM     12  C   UNL A   1      30.836  23.707  25.378  1.00  0.00     0.015 A 
ATOM     13  C   UNL A   1      31.545  24.243  23.145  1.00  0.00     0.060 A 
BRANCH   9  14
ATOM     14  C   UNL A   1      32.554  20.676  23.930  1.00  0.00    -0.012 A 
ATOM     15  C   UNL A   1      33.533  18.050  23.741  1.00  0.00     0.095 A 
ATOM     16  C   UNL A   1      34.064  18.927  24.694  1.00  0.00     0.019 A 
ATOM     17  C   UNL A   1      32.511  18.481  22.899  1.00  0.00     0.138 A 
ATOM     18  C   UNL A   1      33.581  20.235  24.779  1.00  0.00     0.010 A 
ATOM     19  C   UNL A   1      32.025  19.783  22.986  1.00  0.00     0.049 A 
ATOM     20  F   UNL A   1      31.946  17.652  22.009  1.00  0.00    -0.206 F 
BRANCH  15  21
ATOM     21  C   UNL A   1      34.067  16.678  23.684  1.00  0.00     0.340 C 
ATOM     22  O   UNL A   1      34.336  16.106  22.642  1.00  0.00    -0.246 OA
BRANCH  21  23
ATOM     23  O   UNL A   1      34.095  16.143  24.928  1.00  0.00    -0.465 OA
ATOM     24  C   UNL A   1      32.945  15.360  25.247  1.00  0.00     0.282 C 
ENDBRANCH  21  23
ENDBRANCH  15  21
ENDBRANCH   9  14
BRANCH  11  25
ATOM     25  O   UNL A   1      32.780  22.630  21.889  1.00  0.00    -0.507 OA
ATOM     26  H   UNL A   1      32.326  22.615  21.070  1.00  0.00     0.293 HD
ENDBRANCH  11  25
ENDBRANCH   5   8
ENDBRANCH   3   4
ENDBRANCH   2   3
ENDBRANCH   1   2
BRANCH   1  27
ATOM     27  C   UNL A   1      34.391  24.151  25.881  1.00  0.00     0.002 C 
BRANCH  27  28
ATOM     28  C   UNL A   1      35.592  23.304  25.449  1.00  0.00     0.021 C 
BRANCH  28  29
ATOM     29  C   UNL A   1      36.902  23.720  26.106  1.00  0.00     0.116 C 
BRANCH  29  30
ATOM     30  N   UNL A   1      37.830  22.605  26.175  1.00  0.00    -0.352 N 
ATOM     31  C   UNL A   1      39.192  22.622  26.327  1.00  0.00     0.251 C 
ATOM     32  H   UNL A   1      37.425  21.711  26.102  1.00  0.00     0.163 HD
ATOM     33  O   UNL A   1      39.847  21.615  26.078  1.00  0.00    -0.269 OA
BRANCH  31  34
ATOM     34  C   UNL A   1      39.862  23.853  26.795  1.00  0.00     0.039 A 
ATOM     35  C   UNL A   1      40.356  23.901  28.100  1.00  0.00     0.014 A 
ATOM     36  C   UNL A   1      39.962  24.973  25.963  1.00  0.00     0.014 A 
ATOM     37  C   UNL A   1      40.961  25.068  28.564  1.00  0.00     0.010 A 
ATOM     38  C   UNL A   1      40.646  26.102  26.397  1.00  0.00     0.010 A 
ATOM     39  C   UNL A   1      41.120  26.175  27.714  1.00  0.00    -0.014 A 
BRANCH  39  40
ATOM     40  C   UNL A   1      41.727  27.435  28.209  1.00  0.00     0.031 A 
ATOM     41  C   UNL A   1      43.222  27.617  28.167  1.00  0.00     0.074 A 
ATOM     42  C   UNL A   1      40.938  28.401  28.716  1.00  0.00     0.049 A 
ATOM     43  N   UNL A   1      43.938  28.646  28.543  1.00  0.00    -0.248 NA
ATOM     44  C   UNL A   1      44.020  26.486  27.666  1.00  0.00     0.031 C 
ATOM     45  C   UNL A   1      39.482  28.323  28.851  1.00  0.00     0.029 A 
ATOM     46  N   UNL A   1      41.251  29.644  29.206  1.00  0.00    -0.354 N 
ATOM     47  C   UNL A   1      45.264  28.279  28.336  1.00  0.00     0.074 A 
ATOM     48  C   UNL A   1      45.256  26.912  27.868  1.00  0.00     0.031 C 
ATOM     49  C   UNL A   1      39.024  29.482  29.351  1.00  0.00     0.029 A 
ATOM     50  C   UNL A   1      40.154  30.369  29.607  1.00  0.00     0.049 A 
ATOM     51  H   UNL A   1      42.173  29.983  29.266  1.00  0.00     0.167 HD
ATOM     52  C   UNL A   1      46.386  29.021  28.498  1.00  0.00     0.031 A 
ATOM     53  C   UNL A   1      40.069  31.613  30.117  1.00  0.00     0.031 A 
ATOM     54  C   UNL A   1      46.384  30.384  28.958  1.00  0.00     0.049 A 
ATOM     55  C   UNL A   1      41.326  32.421  30.282  1.00  0.00     0.074 A 
ATOM     56  C   UNL A   1      47.458  31.244  29.108  1.00  0.00     0.029 A 
ATOM     57  N   UNL A   1      45.253  31.087  29.345  1.00  0.00    -0.354 N 
ATOM     58  N   UNL A   1      42.566  32.081  30.020  1.00  0.00    -0.248 NA
ATOM     59  C   UNL A   1      41.168  33.790  30.786  1.00  0.00     0.031 C 
ATOM     60  C   UNL A   1      46.983  32.446  29.643  1.00  0.00     0.029 A 
ATOM     61  C   UNL A   1      45.604  32.363  29.754  1.00  0.00     0.049 A 
ATOM     62  H   UNL A   1      44.335  30.731  29.331  1.00  0.00     0.167 HD
ATOM     63  C   UNL A   1      43.334  33.208  30.294  1.00  0.00     0.074 A 
ATOM     64  C   UNL A   1      42.413  34.241  30.726  1.00  0.00     0.031 C 
ATOM     65  C   UNL A   1      44.677  33.377  30.192  1.00  0.00     0.031 A 
BRANCH  52  66
ATOM     66  C   UNL A   1      47.706  28.361  28.186  1.00  0.00    -0.014 A 
ATOM     67  C   UNL A   1      48.265  28.416  26.894  1.00  0.00     0.010 A 
ATOM     68  C   UNL A   1      48.409  27.690  29.203  1.00  0.00     0.010 A 
ATOM     69  C   UNL A   1      49.471  27.766  26.615  1.00  0.00     0.020 A 
ATOM     70  C   UNL A   1      49.633  27.069  28.936  1.00  0.00     0.020 A 
ATOM     71  C   UNL A   1      50.145  27.093  27.637  1.00  0.00     0.054 A 
BRANCH  71  72
ATOM     72  S   UNL A   1      51.712  26.267  27.248  1.00  0.00     0.124 S 
ATOM     73  O   UNL A   1      52.214  27.080  26.144  1.00  0.00    -0.237 OA
ATOM     74  O   UNL A   1      52.453  26.382  28.501  1.00  0.00    -0.237 OA
ATOM     75  O   UNL A   1      51.309  24.909  26.887  1.00  0.00    -0.744 OA
ENDBRANCH  71  72
ENDBRANCH  52  66
BRANCH  53  76
ATOM     76  C   UNL A   1      38.737  32.175  30.476  1.00  0.00    -0.014 A 
ATOM     77  C   UNL A   1      38.018  32.959  29.557  1.00  0.00     0.010 A 
ATOM     78  C   UNL A   1      38.170  31.905  31.735  1.00  0.00     0.010 A 
ATOM     79  C   UNL A   1      36.765  33.479  29.896  1.00  0.00     0.020 A 
ATOM     80  C   UNL A   1      36.904  32.397  32.066  1.00  0.00     0.020 A 
ATOM     81  C   UNL A   1      36.214  33.189  31.147  1.00  0.00     0.054 A 
BRANCH  81  82
ATOM     82  S   UNL A   1      34.561  33.824  31.543  1.00  0.00     0.124 S 
ATOM     83  O   UNL A   1      34.023  32.765  32.391  1.00  0.00    -0.237 OA
ATOM     84  O   UNL A   1      34.861  35.085  32.215  1.00  0.00    -0.237 OA
ATOM     85  O   UNL A   1      33.925  33.961  30.235  1.00  0.00    -0.744 OA
ENDBRANCH  81  82
ENDBRANCH  53  76
BRANCH  65  86
ATOM     86  C   UNL A   1      45.225  34.746  30.505  1.00  0.00    -0.014 A 
ATOM     87  C   UNL A   1      45.338  35.739  29.516  1.00  0.00     0.010 A 
ATOM     88  C   UNL A   1      45.618  35.044  31.823  1.00  0.00     0.010 A 
ATOM     89  C   UNL A   1      45.893  36.985  29.828  1.00  0.00     0.020 A 
ATOM     90  C   UNL A   1      46.137  36.298  32.146  1.00  0.00     0.020 A 
ATOM     91  C   UNL A   1      46.295  37.253  31.141  1.00  0.00     0.054 A 
BRANCH  91  92
ATOM     92  S   UNL A   1      47.013  38.874  31.520  1.00  0.00     0.124 S 
ATOM     93  O   UNL A   1      47.605  39.250  30.240  1.00  0.00    -0.237 OA
ATOM     94  O   UNL A   1      45.847  39.654  31.927  1.00  0.00    -0.237 OA
ATOM     95  O   UNL A   1      47.968  38.588  32.589  1.00  0.00    -0.744 OA
ENDBRANCH  91  92
ENDBRANCH  65  86
ENDBRANCH  39  40
ENDBRANCH  31  34
ENDBRANCH  29  30
ENDBRANCH  28  29
ENDBRANCH  27  28
ENDBRANCH   1  27
TORSDOF 20
ENDMDL
MODEL 3
REMARK VINA RESULT:     -10.8      3.746      8.931
REMARK SMILES COC(=O)c1ccc(-c2ccc(C(=O)NCCCCCCNC(=O)c3ccc(-c4c5nc(c(-c6ccc(S(=O)(=O)[O-])cc6)c6ccc([nH]6)c(-c6ccc(S(=O)(=O)[O-])cc6)c6nc(c(-c7ccc(S(=O)(=O)[O-])cc7)c7ccc4[nH]7)C=C6)C=C5)cc3)cc2O)cc1F
REMARK SMILES IDX 18 1 17 2 16 3 15 4 13 5 14 6 12 8 9 9 10 10 86 11 11 12
REMARK SMILES IDX 85 13 8 14 5 15 6 16 89 17 7 18 88 19 90 20 3 21 4 22 2 23
REMARK SMILES IDX 1 24 87 25 19 27 20 28 21 29 22 30 23 31 24 33 25 34 26 35
REMARK SMILES IDX 84 36 27 37 83 38 28 39 29 40 30 41 77 42 31 43 82 44 76 45
REMARK SMILES IDX 78 46 32 47 81 48 75 49 74 50 33 52 63 53 44 54 62 55 45 56
REMARK SMILES IDX 48 57 61 58 79 59 46 60 47 61 60 63 80 64 49 65 34 66 35 67
REMARK SMILES IDX 43 68 36 69 42 70 37 71 38 72 39 73 40 74 41 75 64 76 65 77
REMARK SMILES IDX 73 78 66 79 72 80 67 81 68 82 69 83 70 84 71 85 50 86 51 87
REMARK SMILES IDX 59 88 52 89 58 90 53 91 54 92 55 93 56 94 57 95
REMARK H PARENT 15 7 87 26 22 32 78 51 48 62
REMARK Flexibility Score: inf
ROOT
ATOM      1  C   UNL A   1      33.270  29.685  26.432  1.00  0.00     0.002 C 
ENDROOT
BRANCH   1   2
ATOM      2  C   UNL A   1      33.149  28.723  25.242  1.00  0.00     0.021 C 
BRANCH   2   3
ATOM      3  C   UNL A   1      31.789  28.023  25.188  1.00  0.00     0.116 C 
BRANCH   3   4
ATOM      4  N   UNL A   1      31.221  28.163  23.863  1.00  0.00    -0.352 N 
ATOM      5  C   UNL A   1      31.081  27.307  22.805  1.00  0.00     0.251 C 
ATOM      6  O   UNL A   1      30.586  27.767  21.776  1.00  0.00    -0.269 OA
ATOM      7  H   UNL A   1      30.862  29.062  23.686  1.00  0.00     0.163 HD
BRANCH   5   8
ATOM      8  C   UNL A   1      31.428  25.856  22.852  1.00  0.00     0.043 A 
ATOM      9  C   UNL A   1      31.925  23.079  23.143  1.00  0.00     0.024 A 
ATOM     10  C   UNL A   1      30.712  23.635  23.567  1.00  0.00     0.013 A 
ATOM     11  C   UNL A   1      32.867  23.933  22.551  1.00  0.00     0.124 A 
ATOM     12  C   UNL A   1      30.476  25.007  23.438  1.00  0.00     0.015 A 
ATOM     13  C   UNL A   1      32.602  25.290  22.354  1.00  0.00     0.060 A 
BRANCH   9  14
ATOM     14  C   UNL A   1      32.179  21.643  23.293  1.00  0.00    -0.012 A 
ATOM     15  C   UNL A   1      32.760  18.904  23.528  1.00  0.00     0.095 A 
ATOM     16  C   UNL A   1      32.214  19.403  22.341  1.00  0.00     0.019 A 
ATOM     17  C   UNL A   1      33.026  19.773  24.584  1.00  0.00     0.138 A 
ATOM     18  C   UNL A   1      31.917  20.764  22.230  1.00  0.00     0.010 A 
ATOM     19  C   UNL A   1      32.736  21.130  24.473  1.00  0.00     0.049 A 
ATOM     20  F   UNL A   1      33.595  19.337  25.718  1.00  0.00    -0.206 F 
BRANCH  15  21
ATOM     21  C   UNL A   1      33.061  17.464  23.606  1.00  0.00     0.340 C 
ATOM     22  O   UNL A   1      33.672  16.859  22.744  1.00  0.00    -0.246 OA
BRANCH  21  23
ATOM     23  O   UNL A   1      32.462  16.929  24.697  1.00  0.00    -0.465 OA
ATOM     24  C   UNL A   1      32.952  15.635  25.049  1.00  0.00     0.282 C 
ENDBRANCH  21  23
ENDBRANCH  15  21
ENDBRANCH   9  14
BRANCH  11  25
ATOM     25  O   UNL A   1      34.069  23.416  22.146  1.00  0.00    -0.507 OA
ATOM     26  H   UNL A   1      34.202  23.187  21.247  1.00  0.00     0.293 HD
ENDBRANCH  11  25
ENDBRANCH   5   8
ENDBRANCH   3   4
ENDBRANCH   2   3
ENDBRANCH   1   2
BRANCH   1  27
ATOM     27  C   UNL A   1      31.935  30.266  26.915  1.00  0.00     0.002 C 
BRANCH  27  28
ATOM     28  C   UNL A   1      31.862  31.795  26.884  1.00  0.00     0.021 C 
BRANCH  28  29
ATOM     29  C   UNL A   1      33.144  32.478  27.343  1.00  0.00     0.116 C 
BRANCH  29  30
ATOM     30  N   UNL A   1      32.883  33.838  27.785  1.00  0.00    -0.352 N 
ATOM     31  C   UNL A   1      33.363  34.496  28.886  1.00  0.00     0.251 C 
ATOM     32  H   UNL A   1      32.276  34.360  27.212  1.00  0.00     0.163 HD
ATOM     33  O   UNL A   1      32.823  35.531  29.263  1.00  0.00    -0.269 OA
BRANCH  31  34
ATOM     34  C   UNL A   1      34.532  33.957  29.611  1.00  0.00     0.039 A 
ATOM     35  C   UNL A   1      35.815  34.317  29.192  1.00  0.00     0.014 A 
ATOM     36  C   UNL A   1      34.365  33.062  30.673  1.00  0.00     0.014 A 
ATOM     37  C   UNL A   1      36.927  33.789  29.846  1.00  0.00     0.010 A 
ATOM     38  C   UNL A   1      35.471  32.608  31.381  1.00  0.00     0.010 A 
ATOM     39  C   UNL A   1      36.765  32.937  30.953  1.00  0.00    -0.014 A 
BRANCH  39  40
ATOM     40  C   UNL A   1      37.940  32.339  31.631  1.00  0.00     0.031 A 
ATOM     41  C   UNL A   1      38.376  32.859  32.977  1.00  0.00     0.074 A 
ATOM     42  C   UNL A   1      38.625  31.349  31.030  1.00  0.00     0.049 A 
ATOM     43  N   UNL A   1      39.368  32.461  33.732  1.00  0.00    -0.248 NA
ATOM     44  C   UNL A   1      37.619  33.991  33.535  1.00  0.00     0.031 C 
ATOM     45  C   UNL A   1      38.327  30.793  29.708  1.00  0.00     0.029 A 
ATOM     46  N   UNL A   1      39.713  30.629  31.456  1.00  0.00    -0.354 N 
ATOM     47  C   UNL A   1      39.360  33.301  34.840  1.00  0.00     0.074 A 
ATOM     48  C   UNL A   1      38.310  34.271  34.628  1.00  0.00     0.031 C 
ATOM     49  C   UNL A   1      39.184  29.793  29.449  1.00  0.00     0.029 A 
ATOM     50  C   UNL A   1      40.115  29.661  30.566  1.00  0.00     0.049 A 
ATOM     51  H   UNL A   1      40.162  30.790  32.316  1.00  0.00     0.167 HD
ATOM     52  C   UNL A   1      40.140  33.256  35.947  1.00  0.00     0.031 A 
ATOM     53  C   UNL A   1      41.117  28.765  30.644  1.00  0.00     0.031 A 
ATOM     54  C   UNL A   1      41.179  32.282  36.155  1.00  0.00     0.049 A 
ATOM     55  C   UNL A   1      41.965  28.727  31.885  1.00  0.00     0.074 A 
ATOM     56  C   UNL A   1      41.993  32.113  37.261  1.00  0.00     0.029 A 
ATOM     57  N   UNL A   1      41.549  31.313  35.234  1.00  0.00    -0.354 N 
ATOM     58  N   UNL A   1      41.902  29.488  32.952  1.00  0.00    -0.248 NA
ATOM     59  C   UNL A   1      43.004  27.692  31.941  1.00  0.00     0.031 C 
ATOM     60  C   UNL A   1      42.895  31.081  36.985  1.00  0.00     0.029 A 
ATOM     61  C   UNL A   1      42.594  30.556  35.738  1.00  0.00     0.049 A 
ATOM     62  H   UNL A   1      41.131  31.182  34.352  1.00  0.00     0.167 HD
ATOM     63  C   UNL A   1      42.869  28.999  33.824  1.00  0.00     0.074 A 
ATOM     64  C   UNL A   1      43.490  27.869  33.162  1.00  0.00     0.031 C 
ATOM     65  C   UNL A   1      43.209  29.440  35.061  1.00  0.00     0.031 A 
BRANCH  52  66
ATOM     66  C   UNL A   1      39.901  34.300  37.010  1.00  0.00    -0.014 A 
ATOM     67  C   UNL A   1      39.241  33.984  38.213  1.00  0.00     0.010 A 
ATOM     68  C   UNL A   1      40.358  35.615  36.810  1.00  0.00     0.010 A 
ATOM     69  C   UNL A   1      38.995  34.974  39.168  1.00  0.00     0.020 A 
ATOM     70  C   UNL A   1      40.145  36.600  37.779  1.00  0.00     0.020 A 
ATOM     71  C   UNL A   1      39.445  36.277  38.943  1.00  0.00     0.054 A 
BRANCH  71  72
ATOM     72  S   UNL A   1      39.120  37.539  40.204  1.00  0.00     0.124 S 
ATOM     73  O   UNL A   1      38.545  36.742  41.285  1.00  0.00    -0.237 OA
ATOM     74  O   UNL A   1      40.451  38.082  40.464  1.00  0.00    -0.237 OA
ATOM     75  O   UNL A   1      38.193  38.457  39.547  1.00  0.00    -0.744 OA
ENDBRANCH  71  72
ENDBRANCH  52  66
BRANCH  53  76
ATOM     76  C   UNL A   1      41.345  27.811  29.523  1.00  0.00    -0.014 A 
ATOM     77  C   UNL A   1      42.407  28.005  28.621  1.00  0.00     0.010 A 
ATOM     78  C   UNL A   1      40.514  26.687  29.369  1.00  0.00     0.010 A 
ATOM     79  C   UNL A   1      42.622  27.103  27.575  1.00  0.00     0.020 A 
ATOM     80  C   UNL A   1      40.745  25.766  28.343  1.00  0.00     0.020 A 
ATOM     81  C   UNL A   1      41.792  25.985  27.446  1.00  0.00     0.054 A 
BRANCH  81  82
ATOM     82  S   UNL A   1      42.127  24.796  26.118  1.00  0.00     0.124 S 
ATOM     83  O   UNL A   1      41.066  23.814  26.314  1.00  0.00    -0.237 OA
ATOM     84  O   UNL A   1      42.012  25.624  24.920  1.00  0.00    -0.237 OA
ATOM     85  O   UNL A   1      43.478  24.326  26.413  1.00  0.00    -0.744 OA
ENDBRANCH  81  82
ENDBRANCH  53  76
BRANCH  65  86
ATOM     86  C   UNL A   1      44.269  28.664  35.802  1.00  0.00    -0.014 A 
ATOM     87  C   UNL A   1      45.635  28.971  35.672  1.00  0.00     0.010 A 
ATOM     88  C   UNL A   1      43.881  27.618  36.659  1.00  0.00     0.010 A 
ATOM     89  C   UNL A   1      46.597  28.204  36.337  1.00  0.00     0.020 A 
ATOM     90  C   UNL A   1      44.836  26.874  37.354  1.00  0.00     0.020 A 
ATOM     91  C   UNL A   1      46.190  27.156  37.169  1.00  0.00     0.054 A 
BRANCH  91  92
ATOM     92  S   UNL A   1      47.456  26.174  38.019  1.00  0.00     0.124 S 
ATOM     93  O   UNL A   1      48.652  26.989  37.825  1.00  0.00    -0.237 OA
ATOM     94  O   UNL A   1      46.950  26.115  39.388  1.00  0.00    -0.237 OA
ATOM     95  O   UNL A   1      47.446  24.901  37.301  1.00  0.00    -0.744 OA
ENDBRANCH  91  92
ENDBRANCH  65  86
ENDBRANCH  39  40
ENDBRANCH  31  34
ENDBRANCH  29  30
ENDBRANCH  28  29
ENDBRANCH  27  28
ENDBRANCH   1  27
TORSDOF 20
ENDMDL
