MODEL 1
REMARK VINA RESULT:     -10.3      0.000      0.000
REMARK SMILES O=C(NCCCCCCNC(=O)[C@H]1[NH2+][C@@H]2CC[C@H]1CC2(F)F)c1ccc(-c2c3nc(c(-c4ccc(S(=O)(=O)[O-])cc4)c4ccc([nH]4)c(-c4ccc(S(=O)(=O)[O-])cc4)c4nc(c(-c5ccc(S(=O)(=O)[O-])cc5)c5ccc2[nH]5)C=C4)C=C3)cc1
REMARK SMILES IDX 5 1 4 2 3 3 1 4 2 5 23 7 24 8 82 9 25 10 81 11 26 12 27 13
REMARK SMILES IDX 28 14 75 15 29 16 80 17 74 18 76 19 30 20 79 21 73 22 72 23
REMARK SMILES IDX 31 25 61 26 42 27 60 28 43 29 46 30 59 31 77 32 44 33 45 34
REMARK SMILES IDX 58 36 78 37 47 38 32 39 33 40 41 41 34 42 40 43 35 44 36 45
REMARK SMILES IDX 37 46 38 47 39 48 62 49 63 50 71 51 64 52 70 53 65 54 66 55
REMARK SMILES IDX 67 56 68 57 69 58 48 59 49 60 57 61 50 62 56 63 51 64 52 65
REMARK SMILES IDX 53 66 54 67 55 68 6 69 7 70 8 71 9 72 10 73 11 74 12 76
REMARK SMILES IDX 13 77 14 78 18 79 15 80 17 83 19 84 16 85 20 86 21 87 22 88
REMARK H PARENT 3 6 76 24 46 35 10 75 14 81 14 82
REMARK Flexibility Score: inf
ROOT
ATOM      1  C   UNL A   1      32.960  27.272  26.304  1.00  0.00     0.021 C 
ENDROOT
BRANCH   1   2
ATOM      2  C   UNL A   1      34.186  28.127  26.601  1.00  0.00     0.116 C 
BRANCH   2   3
ATOM      3  N   UNL A   1      33.835  29.460  27.057  1.00  0.00    -0.352 N 
ATOM      4  O   UNL A   1      34.043  31.337  28.289  1.00  0.00    -0.269 OA
ATOM      5  C   UNL A   1      34.558  30.317  27.854  1.00  0.00     0.251 C 
ATOM      6  H   UNL A   1      32.961  29.796  26.755  1.00  0.00     0.163 HD
BRANCH   5   7
ATOM      7  C   UNL A   1      35.959  29.980  28.194  1.00  0.00     0.039 A 
ATOM      8  C   UNL A   1      36.975  30.157  27.253  1.00  0.00     0.014 A 
ATOM      9  C   UNL A   1      36.257  29.481  29.466  1.00  0.00     0.014 A 
ATOM     10  C   UNL A   1      38.259  29.709  27.533  1.00  0.00     0.010 A 
ATOM     11  C   UNL A   1      37.572  29.115  29.779  1.00  0.00     0.010 A 
ATOM     12  C   UNL A   1      38.579  29.207  28.807  1.00  0.00    -0.014 A 
BRANCH  12  13
ATOM     13  C   UNL A   1      39.997  28.881  29.104  1.00  0.00     0.031 A 
ATOM     14  C   UNL A   1      40.602  27.556  28.729  1.00  0.00     0.074 A 
ATOM     15  C   UNL A   1      40.758  29.838  29.672  1.00  0.00     0.049 A 
ATOM     16  N   UNL A   1      41.844  27.161  28.848  1.00  0.00    -0.248 NA
ATOM     17  C   UNL A   1      39.705  26.543  28.152  1.00  0.00     0.031 C 
ATOM     18  C   UNL A   1      40.272  31.154  30.102  1.00  0.00     0.029 A 
ATOM     19  N   UNL A   1      42.099  29.876  29.950  1.00  0.00    -0.354 N 
ATOM     20  C   UNL A   1      41.880  25.856  28.373  1.00  0.00     0.074 A 
ATOM     21  C   UNL A   1      40.527  25.514  27.986  1.00  0.00     0.031 C 
ATOM     22  C   UNL A   1      41.307  31.891  30.525  1.00  0.00     0.029 A 
ATOM     23  C   UNL A   1      42.519  31.083  30.458  1.00  0.00     0.049 A 
ATOM     24  H   UNL A   1      42.703  29.113  29.802  1.00  0.00     0.167 HD
ATOM     25  C   UNL A   1      42.944  25.024  28.266  1.00  0.00     0.031 A 
ATOM     26  C   UNL A   1      43.741  31.498  30.838  1.00  0.00     0.031 A 
ATOM     27  C   UNL A   1      44.286  25.368  28.661  1.00  0.00     0.049 A 
ATOM     28  C   UNL A   1      44.899  30.555  30.704  1.00  0.00     0.074 A 
ATOM     29  C   UNL A   1      45.433  24.594  28.590  1.00  0.00     0.029 A 
ATOM     30  N   UNL A   1      44.666  26.590  29.199  1.00  0.00    -0.354 N 
ATOM     31  N   UNL A   1      44.910  29.330  30.237  1.00  0.00    -0.248 NA
ATOM     32  C   UNL A   1      46.208  31.050  31.148  1.00  0.00     0.031 C 
ATOM     33  C   UNL A   1      46.497  25.333  29.120  1.00  0.00     0.029 A 
ATOM     34  C   UNL A   1      46.025  26.585  29.475  1.00  0.00     0.049 A 
ATOM     35  H   UNL A   1      44.060  27.348  29.361  1.00  0.00     0.167 HD
ATOM     36  C   UNL A   1      46.228  28.904  30.333  1.00  0.00     0.074 A 
ATOM     37  C   UNL A   1      46.989  30.018  30.864  1.00  0.00     0.031 C 
ATOM     38  C   UNL A   1      46.760  27.696  30.022  1.00  0.00     0.031 A 
BRANCH  25  39
ATOM     39  C   UNL A   1      42.704  23.646  27.705  1.00  0.00    -0.014 A 
ATOM     40  C   UNL A   1      42.937  23.367  26.346  1.00  0.00     0.010 A 
ATOM     41  C   UNL A   1      42.308  22.599  28.558  1.00  0.00     0.010 A 
ATOM     42  C   UNL A   1      42.756  22.075  25.846  1.00  0.00     0.020 A 
ATOM     43  C   UNL A   1      42.147  21.299  28.066  1.00  0.00     0.020 A 
ATOM     44  C   UNL A   1      42.361  21.049  26.710  1.00  0.00     0.054 A 
BRANCH  44  45
ATOM     45  S   UNL A   1      42.171  19.373  26.039  1.00  0.00     0.124 S 
ATOM     46  O   UNL A   1      43.041  19.417  24.867  1.00  0.00    -0.237 OA
ATOM     47  O   UNL A   1      42.643  18.533  27.138  1.00  0.00    -0.237 OA
ATOM     48  O   UNL A   1      40.742  19.274  25.752  1.00  0.00    -0.744 OA
ENDBRANCH  44  45
ENDBRANCH  25  39
BRANCH  26  49
ATOM     49  C   UNL A   1      43.914  32.862  31.404  1.00  0.00    -0.014 A 
ATOM     50  C   UNL A   1      44.327  33.935  30.594  1.00  0.00     0.010 A 
ATOM     51  C   UNL A   1      43.643  33.095  32.765  1.00  0.00     0.010 A 
ATOM     52  C   UNL A   1      44.483  35.211  31.141  1.00  0.00     0.020 A 
ATOM     53  C   UNL A   1      43.769  34.376  33.307  1.00  0.00     0.020 A 
ATOM     54  C   UNL A   1      44.204  35.423  32.494  1.00  0.00     0.054 A 
BRANCH  54  55
ATOM     55  S   UNL A   1      44.365  37.095  33.178  1.00  0.00     0.124 S 
ATOM     56  O   UNL A   1      43.031  37.329  33.721  1.00  0.00    -0.237 OA
ATOM     57  O   UNL A   1      45.431  36.936  34.164  1.00  0.00    -0.237 OA
ATOM     58  O   UNL A   1      44.721  37.905  32.015  1.00  0.00    -0.744 OA
ENDBRANCH  54  55
ENDBRANCH  26  49
BRANCH  38  59
ATOM     59  C   UNL A   1      48.236  27.532  30.250  1.00  0.00    -0.014 A 
ATOM     60  C   UNL A   1      49.156  27.746  29.207  1.00  0.00     0.010 A 
ATOM     61  C   UNL A   1      48.711  27.160  31.520  1.00  0.00     0.010 A 
ATOM     62  C   UNL A   1      50.521  27.541  29.418  1.00  0.00     0.020 A 
ATOM     63  C   UNL A   1      50.078  26.979  31.741  1.00  0.00     0.020 A 
ATOM     64  C   UNL A   1      50.972  27.150  30.682  1.00  0.00     0.054 A 
BRANCH  64  65
ATOM     65  S   UNL A   1      52.749  26.892  30.935  1.00  0.00     0.124 S 
ATOM     66  O   UNL A   1      52.793  25.500  31.376  1.00  0.00    -0.237 OA
ATOM     67  O   UNL A   1      53.306  27.149  29.609  1.00  0.00    -0.237 OA
ATOM     68  O   UNL A   1      53.100  27.880  31.953  1.00  0.00    -0.744 OA
ENDBRANCH  64  65
ENDBRANCH  38  59
ENDBRANCH  12  13
ENDBRANCH   5   7
ENDBRANCH   2   3
ENDBRANCH   1   2
BRANCH   1  69
ATOM     69  C   UNL A   1      32.645  27.101  24.818  1.00  0.00     0.002 C 
BRANCH  69  70
ATOM     70  C   UNL A   1      31.340  26.360  24.507  1.00  0.00     0.002 C 
BRANCH  70  71
ATOM     71  C   UNL A   1      30.502  25.959  25.727  1.00  0.00     0.021 C 
BRANCH  71  72
ATOM     72  C   UNL A   1      30.247  24.454  25.846  1.00  0.00     0.116 C 
BRANCH  72  73
ATOM     73  N   UNL A   1      31.050  23.895  26.909  1.00  0.00    -0.351 N 
ATOM     74  C   UNL A   1      32.273  23.319  26.946  1.00  0.00     0.278 C 
ATOM     75  H   UNL A   1      30.616  23.944  27.791  1.00  0.00     0.163 HD
ATOM     76  O   UNL A   1      32.547  22.740  28.009  1.00  0.00    -0.268 OA
BRANCH  74  77
ATOM     77  C   UNL A   1      33.365  23.415  25.826  1.00  0.00     0.276 C 
ATOM     78  N   UNL A   1      34.624  22.812  26.396  1.00  0.00    -0.328 N 
ATOM     79  C   UNL A   1      33.129  22.823  24.416  1.00  0.00     0.064 C 
ATOM     80  C   UNL A   1      35.063  21.637  25.601  1.00  0.00     0.253 C 
ATOM     81  H   UNL A   1      34.447  22.518  27.356  1.00  0.00     0.347 HD
ATOM     82  H   UNL A   1      35.361  23.516  26.367  1.00  0.00     0.347 HD
ATOM     83  C   UNL A   1      34.433  22.986  23.594  1.00  0.00     0.017 C 
ATOM     84  C   UNL A   1      32.818  21.319  24.505  1.00  0.00     0.094 C 
ATOM     85  C   UNL A   1      35.570  22.207  24.268  1.00  0.00     0.072 C 
ATOM     86  C   UNL A   1      33.921  20.636  25.306  1.00  0.00     0.298 C 
ATOM     87  F   UNL A   1      34.387  19.562  24.624  1.00  0.00    -0.200 F 
ATOM     88  F   UNL A   1      33.409  20.160  26.471  1.00  0.00    -0.200 F 
ENDBRANCH  74  77
ENDBRANCH  72  73
ENDBRANCH  71  72
ENDBRANCH  70  71
ENDBRANCH  69  70
ENDBRANCH   1  69
TORSDOF 16
ENDMDL
MODEL 2
REMARK VINA RESULT:     -10.3      0.967      1.550
REMARK SMILES O=C(NCCCCCCNC(=O)[C@H]1[NH2+][C@@H]2CC[C@H]1CC2(F)F)c1ccc(-c2c3nc(c(-c4ccc(S(=O)(=O)[O-])cc4)c4ccc([nH]4)c(-c4ccc(S(=O)(=O)[O-])cc4)c4nc(c(-c5ccc(S(=O)(=O)[O-])cc5)c5ccc2[nH]5)C=C4)C=C3)cc1
REMARK SMILES IDX 5 1 4 2 3 3 1 4 2 5 23 7 24 8 82 9 25 10 81 11 26 12 27 13
REMARK SMILES IDX 28 14 75 15 29 16 80 17 74 18 76 19 30 20 79 21 73 22 72 23
REMARK SMILES IDX 31 25 61 26 42 27 60 28 43 29 46 30 59 31 77 32 44 33 45 34
REMARK SMILES IDX 58 36 78 37 47 38 32 39 33 40 41 41 34 42 40 43 35 44 36 45
REMARK SMILES IDX 37 46 38 47 39 48 62 49 63 50 71 51 64 52 70 53 65 54 66 55
REMARK SMILES IDX 67 56 68 57 69 58 48 59 49 60 57 61 50 62 56 63 51 64 52 65
REMARK SMILES IDX 53 66 54 67 55 68 6 69 7 70 8 71 9 72 10 73 11 74 12 76
REMARK SMILES IDX 13 77 14 78 18 79 15 80 17 83 19 84 16 85 20 86 21 87 22 88
REMARK H PARENT 3 6 76 24 46 35 10 75 14 81 14 82
REMARK Flexibility Score: inf
ROOT
ATOM      1  C   UNL A   1      33.979  28.048  25.374  1.00  0.00     0.021 C 
ENDROOT
BRANCH   1   2
ATOM      2  C   UNL A   1      33.907  28.211  26.887  1.00  0.00     0.116 C 
BRANCH   2   3
ATOM      3  N   UNL A   1      33.589  29.572  27.283  1.00  0.00    -0.352 N 
ATOM      4  O   UNL A   1      33.868  31.511  28.400  1.00  0.00    -0.269 OA
ATOM      5  C   UNL A   1      34.354  30.463  28.000  1.00  0.00     0.251 C 
ATOM      6  H   UNL A   1      32.705  29.901  27.001  1.00  0.00     0.163 HD
BRANCH   5   7
ATOM      7  C   UNL A   1      35.765  30.129  28.296  1.00  0.00     0.039 A 
ATOM      8  C   UNL A   1      36.747  30.281  27.316  1.00  0.00     0.014 A 
ATOM      9  C   UNL A   1      36.107  29.657  29.567  1.00  0.00     0.014 A 
ATOM     10  C   UNL A   1      38.039  29.836  27.560  1.00  0.00     0.010 A 
ATOM     11  C   UNL A   1      37.432  29.294  29.841  1.00  0.00     0.010 A 
ATOM     12  C   UNL A   1      38.403  29.361  28.833  1.00  0.00    -0.014 A 
BRANCH  12  13
ATOM     13  C   UNL A   1      39.831  29.037  29.086  1.00  0.00     0.031 A 
ATOM     14  C   UNL A   1      40.420  27.705  28.713  1.00  0.00     0.074 A 
ATOM     15  C   UNL A   1      40.613  30.002  29.610  1.00  0.00     0.049 A 
ATOM     16  N   UNL A   1      41.665  27.309  28.796  1.00  0.00    -0.248 NA
ATOM     17  C   UNL A   1      39.501  26.683  28.185  1.00  0.00     0.031 C 
ATOM     18  C   UNL A   1      40.144  31.326  30.033  1.00  0.00     0.029 A 
ATOM     19  N   UNL A   1      41.963  30.042  29.841  1.00  0.00    -0.354 N 
ATOM     20  C   UNL A   1      41.682  25.996  28.343  1.00  0.00     0.074 A 
ATOM     21  C   UNL A   1      40.316  25.650  28.009  1.00  0.00     0.031 C 
ATOM     22  C   UNL A   1      41.195  32.068  30.407  1.00  0.00     0.029 A 
ATOM     23  C   UNL A   1      42.402  31.257  30.312  1.00  0.00     0.049 A 
ATOM     24  H   UNL A   1      42.560  29.276  29.684  1.00  0.00     0.167 HD
ATOM     25  C   UNL A   1      42.740  25.159  28.213  1.00  0.00     0.031 A 
ATOM     26  C   UNL A   1      43.637  31.676  30.642  1.00  0.00     0.031 A 
ATOM     27  C   UNL A   1      44.096  25.508  28.555  1.00  0.00     0.049 A 
ATOM     28  C   UNL A   1      44.788  30.728  30.485  1.00  0.00     0.074 A 
ATOM     29  C   UNL A   1      45.238  24.730  28.457  1.00  0.00     0.029 A 
ATOM     30  N   UNL A   1      44.496  26.738  29.057  1.00  0.00    -0.354 N 
ATOM     31  N   UNL A   1      44.781  29.495  30.038  1.00  0.00    -0.248 NA
ATOM     32  C   UNL A   1      46.112  31.227  30.874  1.00  0.00     0.031 C 
ATOM     33  C   UNL A   1      46.322  25.475  28.937  1.00  0.00     0.029 A 
ATOM     34  C   UNL A   1      45.864  26.735  29.287  1.00  0.00     0.049 A 
ATOM     35  H   UNL A   1      43.898  27.500  29.228  1.00  0.00     0.167 HD
ATOM     36  C   UNL A   1      46.101  29.068  30.096  1.00  0.00     0.074 A 
ATOM     37  C   UNL A   1      46.882  30.189  30.581  1.00  0.00     0.031 C 
ATOM     38  C   UNL A   1      46.619  27.853  29.788  1.00  0.00     0.031 A 
BRANCH  25  39
ATOM     39  C   UNL A   1      42.478  23.773  27.685  1.00  0.00    -0.014 A 
ATOM     40  C   UNL A   1      42.583  23.490  26.311  1.00  0.00     0.010 A 
ATOM     41  C   UNL A   1      42.195  22.723  28.578  1.00  0.00     0.010 A 
ATOM     42  C   UNL A   1      42.384  22.191  25.837  1.00  0.00     0.020 A 
ATOM     43  C   UNL A   1      42.016  21.416  28.110  1.00  0.00     0.020 A 
ATOM     44  C   UNL A   1      42.101  21.161  26.740  1.00  0.00     0.054 A 
BRANCH  44  45
ATOM     45  S   UNL A   1      41.886  19.477  26.100  1.00  0.00     0.124 S 
ATOM     46  O   UNL A   1      42.353  18.666  27.221  1.00  0.00    -0.237 OA
ATOM     47  O   UNL A   1      40.450  19.414  25.837  1.00  0.00    -0.237 OA
ATOM     48  O   UNL A   1      42.736  19.447  24.912  1.00  0.00    -0.744 OA
ENDBRANCH  44  45
ENDBRANCH  25  39
BRANCH  26  49
ATOM     49  C   UNL A   1      43.832  33.049  31.177  1.00  0.00    -0.014 A 
ATOM     50  C   UNL A   1      44.043  34.139  30.315  1.00  0.00     0.010 A 
ATOM     51  C   UNL A   1      43.785  33.272  32.566  1.00  0.00     0.010 A 
ATOM     52  C   UNL A   1      44.222  35.424  30.834  1.00  0.00     0.020 A 
ATOM     53  C   UNL A   1      43.934  34.560  33.086  1.00  0.00     0.020 A 
ATOM     54  C   UNL A   1      44.168  35.626  32.217  1.00  0.00     0.054 A 
BRANCH  54  55
ATOM     55  S   UNL A   1      44.355  37.306  32.872  1.00  0.00     0.124 S 
ATOM     56  O   UNL A   1      44.367  38.106  31.652  1.00  0.00    -0.237 OA
ATOM     57  O   UNL A   1      43.172  37.454  33.716  1.00  0.00    -0.237 OA
ATOM     58  O   UNL A   1      45.623  37.248  33.598  1.00  0.00    -0.744 OA
ENDBRANCH  54  55
ENDBRANCH  26  49
BRANCH  38  59
ATOM     59  C   UNL A   1      48.103  27.690  29.968  1.00  0.00    -0.014 A 
ATOM     60  C   UNL A   1      48.635  27.199  31.174  1.00  0.00     0.010 A 
ATOM     61  C   UNL A   1      48.975  28.030  28.920  1.00  0.00     0.010 A 
ATOM     62  C   UNL A   1      50.017  27.101  31.347  1.00  0.00     0.020 A 
ATOM     63  C   UNL A   1      50.357  27.908  29.079  1.00  0.00     0.020 A 
ATOM     64  C   UNL A   1      50.870  27.464  30.301  1.00  0.00     0.054 A 
BRANCH  64  65
ATOM     65  S   UNL A   1      52.661  27.326  30.544  1.00  0.00     0.124 S 
ATOM     66  O   UNL A   1      53.155  27.335  29.170  1.00  0.00    -0.237 OA
ATOM     67  O   UNL A   1      52.974  28.515  31.333  1.00  0.00    -0.237 OA
ATOM     68  O   UNL A   1      52.816  26.057  31.254  1.00  0.00    -0.744 OA
ENDBRANCH  64  65
ENDBRANCH  38  59
ENDBRANCH  12  13
ENDBRANCH   5   7
ENDBRANCH   2   3
ENDBRANCH   1   2
BRANCH   1  69
ATOM     69  C   UNL A   1      33.232  26.832  24.826  1.00  0.00     0.002 C 
BRANCH  69  70
ATOM     70  C   UNL A   1      31.974  27.150  24.011  1.00  0.00     0.002 C 
BRANCH  70  71
ATOM     71  C   UNL A   1      30.667  27.210  24.811  1.00  0.00     0.021 C 
BRANCH  71  72
ATOM     72  C   UNL A   1      30.380  25.955  25.639  1.00  0.00     0.116 C 
BRANCH  72  73
ATOM     73  N   UNL A   1      30.339  24.791  24.784  1.00  0.00    -0.351 N 
ATOM     74  C   UNL A   1      30.990  23.607  24.792  1.00  0.00     0.278 C 
ATOM     75  H   UNL A   1      29.702  24.880  24.038  1.00  0.00     0.163 HD
ATOM     76  O   UNL A   1      30.869  22.935  23.755  1.00  0.00    -0.268 OA
BRANCH  74  77
ATOM     77  C   UNL A   1      31.771  23.000  26.007  1.00  0.00     0.276 C 
ATOM     78  N   UNL A   1      31.846  21.512  25.774  1.00  0.00    -0.328 N 
ATOM     79  C   UNL A   1      33.179  23.509  26.398  1.00  0.00     0.064 C 
ATOM     80  C   UNL A   1      33.256  21.056  25.675  1.00  0.00     0.253 C 
ATOM     81  H   UNL A   1      31.361  21.286  24.907  1.00  0.00     0.347 HD
ATOM     82  H   UNL A   1      31.408  21.038  26.564  1.00  0.00     0.347 HD
ATOM     83  C   UNL A   1      33.711  22.631  27.560  1.00  0.00     0.017 C 
ATOM     84  C   UNL A   1      34.154  23.363  25.218  1.00  0.00     0.094 C 
ATOM     85  C   UNL A   1      33.830  21.175  27.094  1.00  0.00     0.072 C 
ATOM     86  C   UNL A   1      34.115  21.922  24.722  1.00  0.00     0.298 C 
ATOM     87  F   UNL A   1      35.374  21.432  24.631  1.00  0.00    -0.200 F 
ATOM     88  F   UNL A   1      33.595  21.887  23.468  1.00  0.00    -0.200 F 
ENDBRANCH  74  77
ENDBRANCH  72  73
ENDBRANCH  71  72
ENDBRANCH  70  71
ENDBRANCH  69  70
ENDBRANCH   1  69
TORSDOF 16
ENDMDL
MODEL 3
REMARK VINA RESULT:     -10.2      3.896     10.545
REMARK SMILES O=C(NCCCCCCNC(=O)[C@H]1[NH2+][C@@H]2CC[C@H]1CC2(F)F)c1ccc(-c2c3nc(c(-c4ccc(S(=O)(=O)[O-])cc4)c4ccc([nH]4)c(-c4ccc(S(=O)(=O)[O-])cc4)c4nc(c(-c5ccc(S(=O)(=O)[O-])cc5)c5ccc2[nH]5)C=C4)C=C3)cc1
REMARK SMILES IDX 5 1 4 2 3 3 1 4 2 5 23 7 24 8 82 9 25 10 81 11 26 12 27 13
REMARK SMILES IDX 28 14 75 15 29 16 80 17 74 18 76 19 30 20 79 21 73 22 72 23
REMARK SMILES IDX 31 25 61 26 42 27 60 28 43 29 46 30 59 31 77 32 44 33 45 34
REMARK SMILES IDX 58 36 78 37 47 38 32 39 33 40 41 41 34 42 40 43 35 44 36 45
REMARK SMILES IDX 37 46 38 47 39 48 62 49 63 50 71 51 64 52 70 53 65 54 66 55
REMARK SMILES IDX 67 56 68 57 69 58 48 59 49 60 57 61 50 62 56 63 51 64 52 65
REMARK SMILES IDX 53 66 54 67 55 68 6 69 7 70 8 71 9 72 10 73 11 74 12 76
REMARK SMILES IDX 13 77 14 78 18 79 15 80 17 83 19 84 16 85 20 86 21 87 22 88
REMARK H PARENT 3 6 76 24 46 35 10 75 14 81 14 82
REMARK Flexibility Score: inf
ROOT
ATOM      1  C   UNL A   1      34.558  33.061  29.777  1.00  0.00     0.021 C 
ENDROOT
BRANCH   1   2
ATOM      2  C   UNL A   1      34.780  32.544  28.362  1.00  0.00     0.116 C 
BRANCH   2   3
ATOM      3  N   UNL A   1      34.054  31.314  28.100  1.00  0.00    -0.352 N 
ATOM      4  O   UNL A   1      33.814  29.141  27.547  1.00  0.00    -0.269 OA
ATOM      5  C   UNL A   1      34.547  30.040  27.936  1.00  0.00     0.251 C 
ATOM      6  H   UNL A   1      33.076  31.404  28.030  1.00  0.00     0.163 HD
BRANCH   5   7
ATOM      7  C   UNL A   1      35.976  29.775  28.215  1.00  0.00     0.039 A 
ATOM      8  C   UNL A   1      36.938  29.977  27.224  1.00  0.00     0.014 A 
ATOM      9  C   UNL A   1      36.356  29.320  29.482  1.00  0.00     0.014 A 
ATOM     10  C   UNL A   1      38.252  29.595  27.452  1.00  0.00     0.010 A 
ATOM     11  C   UNL A   1      37.699  29.023  29.739  1.00  0.00     0.010 A 
ATOM     12  C   UNL A   1      38.655  29.137  28.719  1.00  0.00    -0.014 A 
BRANCH  12  13
ATOM     13  C   UNL A   1      40.099  28.884  28.955  1.00  0.00     0.031 A 
ATOM     14  C   UNL A   1      40.984  29.900  29.623  1.00  0.00     0.074 A 
ATOM     15  C   UNL A   1      40.593  27.679  28.607  1.00  0.00     0.049 A 
ATOM     16  N   UNL A   1      42.241  29.787  29.970  1.00  0.00    -0.248 NA
ATOM     17  C   UNL A   1      40.391  31.209  29.939  1.00  0.00     0.031 C 
ATOM     18  C   UNL A   1      39.832  26.623  27.929  1.00  0.00     0.029 A 
ATOM     19  N   UNL A   1      41.828  27.119  28.804  1.00  0.00    -0.354 N 
ATOM     20  C   UNL A   1      42.595  31.007  30.535  1.00  0.00     0.074 A 
ATOM     21  C   UNL A   1      41.426  31.857  30.461  1.00  0.00     0.031 C 
ATOM     22  C   UNL A   1      40.593  25.525  27.828  1.00  0.00     0.029 A 
ATOM     23  C   UNL A   1      41.913  25.816  28.374  1.00  0.00     0.049 A 
ATOM     24  H   UNL A   1      42.580  27.603  29.213  1.00  0.00     0.167 HD
ATOM     25  C   UNL A   1      43.783  31.378  31.069  1.00  0.00     0.031 A 
ATOM     26  C   UNL A   1      42.941  24.947  28.404  1.00  0.00     0.031 A 
ATOM     27  C   UNL A   1      44.946  30.528  31.132  1.00  0.00     0.049 A 
ATOM     28  C   UNL A   1      44.242  25.387  29.004  1.00  0.00     0.074 A 
ATOM     29  C   UNL A   1      46.196  30.813  31.656  1.00  0.00     0.029 A 
ATOM     30  N   UNL A   1      45.002  29.225  30.659  1.00  0.00    -0.354 N 
ATOM     31  N   UNL A   1      44.547  26.542  29.546  1.00  0.00    -0.248 NA
ATOM     32  C   UNL A   1      45.336  24.409  28.997  1.00  0.00     0.031 C 
ATOM     33  C   UNL A   1      47.019  29.697  31.465  1.00  0.00     0.029 A 
ATOM     34  C   UNL A   1      46.268  28.699  30.867  1.00  0.00     0.049 A 
ATOM     35  H   UNL A   1      44.254  28.745  30.236  1.00  0.00     0.167 HD
ATOM     36  C   UNL A   1      45.873  26.430  29.943  1.00  0.00     0.074 A 
ATOM     37  C   UNL A   1      46.295  25.083  29.616  1.00  0.00     0.031 C 
ATOM     38  C   UNL A   1      46.674  27.363  30.516  1.00  0.00     0.031 A 
BRANCH  25  39
ATOM     39  C   UNL A   1      43.897  32.774  31.625  1.00  0.00    -0.014 A 
ATOM     40  C   UNL A   1      44.050  33.882  30.772  1.00  0.00     0.010 A 
ATOM     41  C   UNL A   1      43.779  32.990  33.010  1.00  0.00     0.010 A 
ATOM     42  C   UNL A   1      44.107  35.177  31.294  1.00  0.00     0.020 A 
ATOM     43  C   UNL A   1      43.814  34.287  33.536  1.00  0.00     0.020 A 
ATOM     44  C   UNL A   1      43.990  35.371  32.674  1.00  0.00     0.054 A 
BRANCH  44  45
ATOM     45  S   UNL A   1      44.029  37.067  33.320  1.00  0.00     0.124 S 
ATOM     46  O   UNL A   1      45.092  36.984  34.319  1.00  0.00    -0.237 OA
ATOM     47  O   UNL A   1      44.345  37.855  32.132  1.00  0.00    -0.237 OA
ATOM     48  O   UNL A   1      42.684  37.264  33.857  1.00  0.00    -0.744 OA
ENDBRANCH  44  45
ENDBRANCH  25  39
BRANCH  26  49
ATOM     49  C   UNL A   1      42.776  23.589  27.821  1.00  0.00    -0.014 A 
ATOM     50  C   UNL A   1      42.191  22.549  28.564  1.00  0.00     0.010 A 
ATOM     51  C   UNL A   1      43.190  23.339  26.499  1.00  0.00     0.010 A 
ATOM     52  C   UNL A   1      42.042  21.278  28.002  1.00  0.00     0.020 A 
ATOM     53  C   UNL A   1      43.014  22.079  25.925  1.00  0.00     0.020 A 
ATOM     54  C   UNL A   1      42.455  21.052  26.686  1.00  0.00     0.054 A 
BRANCH  54  55
ATOM     55  S   UNL A   1      42.211  19.411  25.954  1.00  0.00     0.124 S 
ATOM     56  O   UNL A   1      42.698  18.533  27.013  1.00  0.00    -0.237 OA
ATOM     57  O   UNL A   1      40.770  19.377  25.716  1.00  0.00    -0.237 OA
ATOM     58  O   UNL A   1      43.032  19.452  24.745  1.00  0.00    -0.744 OA
ENDBRANCH  54  55
ENDBRANCH  26  49
BRANCH  38  59
ATOM     59  C   UNL A   1      48.084  26.941  30.823  1.00  0.00    -0.014 A 
ATOM     60  C   UNL A   1      48.415  26.382  32.071  1.00  0.00     0.010 A 
ATOM     61  C   UNL A   1      49.090  27.106  29.856  1.00  0.00     0.010 A 
ATOM     62  C   UNL A   1      49.737  26.042  32.363  1.00  0.00     0.020 A 
ATOM     63  C   UNL A   1      50.409  26.743  30.135  1.00  0.00     0.020 A 
ATOM     64  C   UNL A   1      50.727  26.233  31.395  1.00  0.00     0.054 A 
BRANCH  64  65
ATOM     65  S   UNL A   1      52.438  25.782  31.793  1.00  0.00     0.124 S 
ATOM     66  O   UNL A   1      53.115  26.009  30.520  1.00  0.00    -0.237 OA
ATOM     67  O   UNL A   1      52.779  26.718  32.863  1.00  0.00    -0.237 OA
ATOM     68  O   UNL A   1      52.339  24.384  32.207  1.00  0.00    -0.744 OA
ENDBRANCH  64  65
ENDBRANCH  38  59
ENDBRANCH  12  13
ENDBRANCH   5   7
ENDBRANCH   2   3
ENDBRANCH   1   2
BRANCH   1  69
ATOM     69  C   UNL A   1      35.753  32.892  30.715  1.00  0.00     0.002 C 
BRANCH  69  70
ATOM     70  C   UNL A   1      37.116  32.773  30.024  1.00  0.00     0.002 C 
BRANCH  70  71
ATOM     71  C   UNL A   1      37.839  34.098  29.759  1.00  0.00     0.021 C 
BRANCH  71  72
ATOM     72  C   UNL A   1      38.684  34.598  30.934  1.00  0.00     0.116 C 
BRANCH  72  73
ATOM     73  N   UNL A   1      37.829  34.998  32.029  1.00  0.00    -0.351 N 
ATOM     74  C   UNL A   1      37.728  34.609  33.319  1.00  0.00     0.278 C 
ATOM     75  H   UNL A   1      37.185  35.701  31.783  1.00  0.00     0.163 HD
ATOM     76  O   UNL A   1      36.712  35.010  33.909  1.00  0.00    -0.268 OA
BRANCH  74  77
ATOM     77  C   UNL A   1      38.808  33.806  34.121  1.00  0.00     0.276 C 
ATOM     78  N   UNL A   1      38.115  33.240  35.335  1.00  0.00    -0.328 N 
ATOM     79  C   UNL A   1      39.637  32.681  33.456  1.00  0.00     0.064 C 
ATOM     80  C   UNL A   1      38.173  31.755  35.340  1.00  0.00     0.253 C 
ATOM     81  H   UNL A   1      37.140  33.536  35.329  1.00  0.00     0.347 HD
ATOM     82  H   UNL A   1      38.590  33.584  36.169  1.00  0.00     0.347 HD
ATOM     83  C   UNL A   1      40.525  32.022  34.542  1.00  0.00     0.017 C 
ATOM     84  C   UNL A   1      38.712  31.593  32.886  1.00  0.00     0.094 C 
ATOM     85  C   UNL A   1      39.638  31.400  35.628  1.00  0.00     0.072 C 
ATOM     86  C   UNL A   1      37.769  31.122  33.987  1.00  0.00     0.298 C 
ATOM     87  F   UNL A   1      37.790  29.770  34.064  1.00  0.00    -0.200 F 
ATOM     88  F   UNL A   1      36.494  31.470  33.673  1.00  0.00    -0.200 F 
ENDBRANCH  74  77
ENDBRANCH  72  73
ENDBRANCH  71  72
ENDBRANCH  70  71
ENDBRANCH  69  70
ENDBRANCH   1  69
TORSDOF 16
ENDMDL
