MODEL 1
REMARK VINA RESULT:      -9.2      0.000      0.000
REMARK SMILES CCCc1cc(-n2ccc(C(=O)NCCCCCCNC(=O)c3ccc(-c4c5nc(c(-c6ccc(S(=O)(=O)[O-])cc6)c6ccc([nH]6)c(-c6ccc(S(=O)(=O)[O-])cc6)c6nc(c(-c7ccc(S(=O)(=O)[O-])cc7)c7ccc4[nH]7)C=C6)C=C5)cc3)n2)nc(-c2ccc(C(F)(F)F)cc2)n1
REMARK SMILES IDX 16 1 15 2 14 3 13 4 11 5 12 6 10 8 7 9 8 10 83 11 9 12 6 13
REMARK SMILES IDX 4 14 5 15 96 16 85 17 84 18 3 19 2 20 1 21 86 22 87 23 95 24
REMARK SMILES IDX 88 25 94 26 89 27 90 28 91 29 92 30 93 31 17 32 18 33 19 34
REMARK SMILES IDX 20 35 21 36 22 38 23 39 24 40 82 41 25 42 81 43 26 44 27 45
REMARK SMILES IDX 28 46 75 47 29 48 80 49 74 50 76 51 30 52 79 53 73 54 72 55
REMARK SMILES IDX 31 57 61 58 42 59 60 60 43 61 46 62 59 63 77 64 44 65 45 66
REMARK SMILES IDX 58 68 78 69 47 70 32 71 33 72 41 73 34 74 40 75 35 76 36 77
REMARK SMILES IDX 37 78 38 79 39 80 62 81 63 82 71 83 64 84 70 85 65 86 66 87
REMARK SMILES IDX 67 88 68 89 69 90 48 91 49 92 57 93 50 94 56 95 51 96 52 97
REMARK SMILES IDX 53 98 54 99 55 100
REMARK H PARENT 13 7 20 37 76 56 46 67
REMARK Flexibility Score: inf
ROOT
ATOM      1  C   UNL A   1      37.045  31.688  33.308  1.00  0.00     0.002 C 
ENDROOT
BRANCH   1   2
ATOM      2  C   UNL A   1      37.249  33.176  33.607  1.00  0.00     0.021 C 
BRANCH   2   3
ATOM      3  C   UNL A   1      36.910  33.620  35.032  1.00  0.00     0.116 C 
BRANCH   3   4
ATOM      4  N   UNL A   1      37.518  32.766  36.039  1.00  0.00    -0.351 N 
ATOM      5  C   UNL A   1      38.778  32.806  36.595  1.00  0.00     0.271 C 
ATOM      6  O   UNL A   1      39.094  31.900  37.369  1.00  0.00    -0.267 OA
ATOM      7  H   UNL A   1      36.938  32.046  36.378  1.00  0.00     0.163 HD
BRANCH   5   8
ATOM      8  C   UNL A   1      39.733  33.863  36.226  1.00  0.00     0.150 A 
ATOM      9  N   UNL A   1      41.375  34.855  35.266  1.00  0.00    -0.222 N 
ATOM     10  C   UNL A   1      41.040  35.658  36.334  1.00  0.00     0.118 A 
ATOM     11  N   UNL A   1      40.476  33.852  35.105  1.00  0.00    -0.161 NA
ATOM     12  C   UNL A   1      39.967  35.061  36.951  1.00  0.00     0.056 A 
BRANCH   9  13
ATOM     13  C   UNL A   1      42.508  34.965  34.405  1.00  0.00     0.157 A 
ATOM     14  C   UNL A   1      44.819  34.783  34.008  1.00  0.00     0.047 A 
ATOM     15  C   UNL A   1      43.776  34.742  34.915  1.00  0.00     0.073 A 
ATOM     16  N   UNL A   1      44.615  35.105  32.721  1.00  0.00    -0.233 NA
ATOM     17  C   UNL A   1      43.357  35.339  32.319  1.00  0.00     0.161 A 
ATOM     18  N   UNL A   1      42.278  35.261  33.104  1.00  0.00    -0.209 NA
BRANCH  14  19
ATOM     19  C   UNL A   1      46.244  34.558  34.458  1.00  0.00     0.056 C 
BRANCH  19  20
ATOM     20  C   UNL A   1      46.669  33.092  34.639  1.00  0.00     0.003 C 
ATOM     21  C   UNL A   1      46.952  32.345  33.340  1.00  0.00     0.004 C 
ENDBRANCH  19  20
ENDBRANCH  14  19
BRANCH  17  22
ATOM     22  C   UNL A   1      43.195  35.871  30.966  1.00  0.00     0.019 A 
ATOM     23  C   UNL A   1      42.599  35.110  29.949  1.00  0.00     0.012 A 
ATOM     24  C   UNL A   1      43.705  37.138  30.633  1.00  0.00     0.012 A 
ATOM     25  C   UNL A   1      42.516  35.596  28.640  1.00  0.00     0.014 A 
ATOM     26  C   UNL A   1      43.641  37.620  29.323  1.00  0.00     0.014 A 
ATOM     27  C   UNL A   1      43.045  36.853  28.313  1.00  0.00     0.056 A 
BRANCH  27  28
ATOM     28  C   UNL A   1      42.977  37.357  26.894  1.00  0.00     0.416 C 
ATOM     29  F   UNL A   1      42.000  38.289  26.712  1.00  0.00    -0.166 F 
ATOM     30  F   UNL A   1      44.137  37.946  26.490  1.00  0.00    -0.166 F 
ATOM     31  F   UNL A   1      42.723  36.376  25.979  1.00  0.00    -0.166 F 
ENDBRANCH  27  28
ENDBRANCH  17  22
ENDBRANCH   9  13
ENDBRANCH   5   8
ENDBRANCH   3   4
ENDBRANCH   2   3
ENDBRANCH   1   2
BRANCH   1  32
ATOM     32  C   UNL A   1      36.088  31.349  32.156  1.00  0.00     0.002 C 
BRANCH  32  33
ATOM     33  C   UNL A   1      34.891  32.287  31.947  1.00  0.00     0.021 C 
BRANCH  33  34
ATOM     34  C   UNL A   1      34.832  32.931  30.571  1.00  0.00     0.116 C 
BRANCH  34  35
ATOM     35  N   UNL A   1      34.097  32.126  29.593  1.00  0.00    -0.352 N 
ATOM     36  C   UNL A   1      34.603  31.410  28.519  1.00  0.00     0.251 C 
ATOM     37  H   UNL A   1      33.119  32.089  29.713  1.00  0.00     0.163 HD
ATOM     38  O   UNL A   1      33.892  31.105  27.578  1.00  0.00    -0.269 OA
BRANCH  36  39
ATOM     39  C   UNL A   1      36.024  31.014  28.553  1.00  0.00     0.039 A 
ATOM     40  C   UNL A   1      37.056  31.947  28.694  1.00  0.00     0.014 A 
ATOM     41  C   UNL A   1      36.307  29.656  28.457  1.00  0.00     0.014 A 
ATOM     42  C   UNL A   1      38.367  31.484  28.812  1.00  0.00     0.010 A 
ATOM     43  C   UNL A   1      37.557  29.197  28.767  1.00  0.00     0.010 A 
ATOM     44  C   UNL A   1      38.604  30.102  28.861  1.00  0.00    -0.014 A 
BRANCH  44  45
ATOM     45  C   UNL A   1      39.931  29.555  29.110  1.00  0.00     0.031 A 
ATOM     46  C   UNL A   1      40.247  29.350  30.547  1.00  0.00     0.074 A 
ATOM     47  C   UNL A   1      40.696  29.034  28.124  1.00  0.00     0.049 A 
ATOM     48  N   UNL A   1      41.095  30.003  31.266  1.00  0.00    -0.248 NA
ATOM     49  C   UNL A   1      39.408  28.415  31.319  1.00  0.00     0.031 C 
ATOM     50  C   UNL A   1      40.359  28.860  26.703  1.00  0.00     0.029 A 
ATOM     51  N   UNL A   1      41.904  28.420  28.210  1.00  0.00    -0.354 N 
ATOM     52  C   UNL A   1      41.073  29.402  32.520  1.00  0.00     0.074 A 
ATOM     53  C   UNL A   1      39.883  28.591  32.554  1.00  0.00     0.031 C 
ATOM     54  C   UNL A   1      41.210  27.975  26.138  1.00  0.00     0.029 A 
ATOM     55  C   UNL A   1      42.254  27.663  27.095  1.00  0.00     0.049 A 
ATOM     56  H   UNL A   1      42.486  28.504  28.999  1.00  0.00     0.167 HD
ATOM     57  C   UNL A   1      42.171  29.406  33.328  1.00  0.00     0.031 A 
ATOM     58  C   UNL A   1      43.311  26.816  26.984  1.00  0.00     0.031 A 
ATOM     59  C   UNL A   1      43.170  30.332  32.857  1.00  0.00     0.049 A 
ATOM     60  C   UNL A   1      44.276  27.200  28.044  1.00  0.00     0.074 A 
ATOM     61  C   UNL A   1      43.197  31.691  32.617  1.00  0.00     0.029 A 
ATOM     62  N   UNL A   1      44.223  29.800  32.145  1.00  0.00    -0.354 N 
ATOM     63  N   UNL A   1      44.892  28.349  28.065  1.00  0.00    -0.248 NA
ATOM     64  C   UNL A   1      44.185  26.518  29.325  1.00  0.00     0.031 C 
ATOM     65  C   UNL A   1      43.938  31.833  31.407  1.00  0.00     0.029 A 
ATOM     66  C   UNL A   1      44.397  30.570  31.024  1.00  0.00     0.049 A 
ATOM     67  H   UNL A   1      44.754  29.009  32.395  1.00  0.00     0.167 HD
ATOM     68  C   UNL A   1      44.868  28.740  29.398  1.00  0.00     0.074 A 
ATOM     69  C   UNL A   1      44.502  27.532  30.137  1.00  0.00     0.031 C 
ATOM     70  C   UNL A   1      44.864  30.060  29.750  1.00  0.00     0.031 A 
BRANCH  57  71
ATOM     71  C   UNL A   1      42.513  28.290  34.286  1.00  0.00    -0.014 A 
ATOM     72  C   UNL A   1      42.861  28.616  35.613  1.00  0.00     0.010 A 
ATOM     73  C   UNL A   1      42.769  26.967  33.867  1.00  0.00     0.010 A 
ATOM     74  C   UNL A   1      43.492  27.687  36.451  1.00  0.00     0.020 A 
ATOM     75  C   UNL A   1      43.356  26.021  34.708  1.00  0.00     0.020 A 
ATOM     76  C   UNL A   1      43.745  26.397  35.985  1.00  0.00     0.054 A 
BRANCH  76  77
ATOM     77  S   UNL A   1      44.642  25.233  37.039  1.00  0.00     0.124 S 
ATOM     78  O   UNL A   1      46.020  25.682  36.878  1.00  0.00    -0.237 OA
ATOM     79  O   UNL A   1      44.042  25.478  38.348  1.00  0.00    -0.237 OA
ATOM     80  O   UNL A   1      44.333  23.931  36.451  1.00  0.00    -0.744 OA
ENDBRANCH  76  77
ENDBRANCH  57  71
BRANCH  58  81
ATOM     81  C   UNL A   1      43.380  25.516  26.264  1.00  0.00    -0.014 A 
ATOM     82  C   UNL A   1      44.284  25.316  25.202  1.00  0.00     0.010 A 
ATOM     83  C   UNL A   1      42.764  24.374  26.815  1.00  0.00     0.010 A 
ATOM     84  C   UNL A   1      44.609  24.021  24.756  1.00  0.00     0.020 A 
ATOM     85  C   UNL A   1      43.079  23.081  26.374  1.00  0.00     0.020 A 
ATOM     86  C   UNL A   1      44.021  22.909  25.363  1.00  0.00     0.054 A 
BRANCH  86  87
ATOM     87  S   UNL A   1      44.586  21.234  24.922  1.00  0.00     0.124 S 
ATOM     88  O   UNL A   1      43.526  20.394  25.470  1.00  0.00    -0.237 OA
ATOM     89  O   UNL A   1      44.656  21.295  23.465  1.00  0.00    -0.237 OA
ATOM     90  O   UNL A   1      45.878  21.119  25.595  1.00  0.00    -0.744 OA
ENDBRANCH  86  87
ENDBRANCH  58  81
BRANCH  70  91
ATOM     91  C   UNL A   1      45.165  31.096  28.687  1.00  0.00    -0.014 A 
ATOM     92  C   UNL A   1      44.186  31.868  28.028  1.00  0.00     0.010 A 
ATOM     93  C   UNL A   1      46.517  31.407  28.462  1.00  0.00     0.010 A 
ATOM     94  C   UNL A   1      44.556  32.902  27.151  1.00  0.00     0.020 A 
ATOM     95  C   UNL A   1      46.892  32.444  27.607  1.00  0.00     0.020 A 
ATOM     96  C   UNL A   1      45.910  33.181  26.946  1.00  0.00     0.054 A 
BRANCH  96  97
ATOM     97  S   UNL A   1      46.393  34.537  25.838  1.00  0.00     0.124 S 
ATOM     98  O   UNL A   1      45.522  34.331  24.685  1.00  0.00    -0.237 OA
ATOM     99  O   UNL A   1      46.107  35.727  26.637  1.00  0.00    -0.237 OA
ATOM    100  O   UNL A   1      47.813  34.296  25.589  1.00  0.00    -0.744 OA
ENDBRANCH  96  97
ENDBRANCH  70  91
ENDBRANCH  44  45
ENDBRANCH  36  39
ENDBRANCH  34  35
ENDBRANCH  33  34
ENDBRANCH  32  33
ENDBRANCH   1  32
TORSDOF 21
ENDMDL
MODEL 2
REMARK VINA RESULT:      -9.0      4.140      9.102
REMARK SMILES CCCc1cc(-n2ccc(C(=O)NCCCCCCNC(=O)c3ccc(-c4c5nc(c(-c6ccc(S(=O)(=O)[O-])cc6)c6ccc([nH]6)c(-c6ccc(S(=O)(=O)[O-])cc6)c6nc(c(-c7ccc(S(=O)(=O)[O-])cc7)c7ccc4[nH]7)C=C6)C=C5)cc3)n2)nc(-c2ccc(C(F)(F)F)cc2)n1
REMARK SMILES IDX 16 1 15 2 14 3 13 4 11 5 12 6 10 8 7 9 8 10 83 11 9 12 6 13
REMARK SMILES IDX 4 14 5 15 96 16 85 17 84 18 3 19 2 20 1 21 86 22 87 23 95 24
REMARK SMILES IDX 88 25 94 26 89 27 90 28 91 29 92 30 93 31 17 32 18 33 19 34
REMARK SMILES IDX 20 35 21 36 22 38 23 39 24 40 82 41 25 42 81 43 26 44 27 45
REMARK SMILES IDX 28 46 75 47 29 48 80 49 74 50 76 51 30 52 79 53 73 54 72 55
REMARK SMILES IDX 31 57 61 58 42 59 60 60 43 61 46 62 59 63 77 64 44 65 45 66
REMARK SMILES IDX 58 68 78 69 47 70 32 71 33 72 41 73 34 74 40 75 35 76 36 77
REMARK SMILES IDX 37 78 38 79 39 80 62 81 63 82 71 83 64 84 70 85 65 86 66 87
REMARK SMILES IDX 67 88 68 89 69 90 48 91 49 92 57 93 50 94 56 95 51 96 52 97
REMARK SMILES IDX 53 98 54 99 55 100
REMARK H PARENT 13 7 20 37 76 56 46 67
REMARK Flexibility Score: inf
ROOT
ATOM      1  C   UNL A   1      36.514  33.544  32.056  1.00  0.00     0.002 C 
ENDROOT
BRANCH   1   2
ATOM      2  C   UNL A   1      35.817  34.626  32.885  1.00  0.00     0.021 C 
BRANCH   2   3
ATOM      3  C   UNL A   1      34.326  34.403  33.150  1.00  0.00     0.116 C 
BRANCH   3   4
ATOM      4  N   UNL A   1      33.542  35.613  32.960  1.00  0.00    -0.351 N 
ATOM      5  C   UNL A   1      33.106  36.217  31.800  1.00  0.00     0.271 C 
ATOM      6  O   UNL A   1      32.533  37.304  31.899  1.00  0.00    -0.267 OA
ATOM      7  H   UNL A   1      33.281  36.073  33.790  1.00  0.00     0.163 HD
BRANCH   5   8
ATOM      8  C   UNL A   1      33.373  35.610  30.486  1.00  0.00     0.150 A 
ATOM      9  N   UNL A   1      33.848  34.136  29.002  1.00  0.00    -0.222 N 
ATOM     10  C   UNL A   1      34.005  35.351  28.371  1.00  0.00     0.118 A 
ATOM     11  N   UNL A   1      33.306  34.290  30.236  1.00  0.00    -0.161 NA
ATOM     12  C   UNL A   1      33.676  36.315  29.292  1.00  0.00     0.056 A 
BRANCH   9  13
ATOM     13  C   UNL A   1      34.204  32.841  28.519  1.00  0.00     0.157 A 
ATOM     14  C   UNL A   1      33.676  30.852  27.379  1.00  0.00     0.047 A 
ATOM     15  C   UNL A   1      33.244  32.059  27.897  1.00  0.00     0.073 A 
ATOM     16  N   UNL A   1      34.940  30.431  27.548  1.00  0.00    -0.233 NA
ATOM     17  C   UNL A   1      35.795  31.238  28.193  1.00  0.00     0.161 A 
ATOM     18  N   UNL A   1      35.489  32.447  28.672  1.00  0.00    -0.209 NA
BRANCH  14  19
ATOM     19  C   UNL A   1      32.713  29.919  26.684  1.00  0.00     0.056 C 
BRANCH  19  20
ATOM     20  C   UNL A   1      32.831  28.432  27.054  1.00  0.00     0.003 C 
ATOM     21  C   UNL A   1      33.417  27.547  25.959  1.00  0.00     0.004 C 
ENDBRANCH  19  20
ENDBRANCH  14  19
BRANCH  17  22
ATOM     22  C   UNL A   1      37.101  30.668  28.526  1.00  0.00     0.019 A 
ATOM     23  C   UNL A   1      37.838  31.128  29.629  1.00  0.00     0.012 A 
ATOM     24  C   UNL A   1      37.685  29.694  27.699  1.00  0.00     0.012 A 
ATOM     25  C   UNL A   1      39.118  30.632  29.897  1.00  0.00     0.014 A 
ATOM     26  C   UNL A   1      38.972  29.210  27.952  1.00  0.00     0.014 A 
ATOM     27  C   UNL A   1      39.701  29.675  29.054  1.00  0.00     0.056 A 
BRANCH  27  28
ATOM     28  C   UNL A   1      41.092  29.168  29.335  1.00  0.00     0.416 C 
ATOM     29  F   UNL A   1      41.935  30.150  29.760  1.00  0.00    -0.166 F 
ATOM     30  F   UNL A   1      41.116  28.209  30.302  1.00  0.00    -0.166 F 
ATOM     31  F   UNL A   1      41.699  28.609  28.248  1.00  0.00    -0.166 F 
ENDBRANCH  27  28
ENDBRANCH  17  22
ENDBRANCH   9  13
ENDBRANCH   5   8
ENDBRANCH   3   4
ENDBRANCH   2   3
ENDBRANCH   1   2
BRANCH   1  32
ATOM     32  C   UNL A   1      38.045  33.628  31.973  1.00  0.00     0.002 C 
BRANCH  32  33
ATOM     33  C   UNL A   1      38.743  34.579  32.955  1.00  0.00     0.021 C 
BRANCH  33  34
ATOM     34  C   UNL A   1      39.523  33.880  34.057  1.00  0.00     0.116 C 
BRANCH  34  35
ATOM     35  N   UNL A   1      38.663  33.334  35.110  1.00  0.00    -0.352 N 
ATOM     36  C   UNL A   1      38.397  32.004  35.394  1.00  0.00     0.251 C 
ATOM     37  H   UNL A   1      38.219  33.996  35.689  1.00  0.00     0.163 HD
ATOM     38  O   UNL A   1      37.401  31.683  36.019  1.00  0.00    -0.269 OA
BRANCH  36  39
ATOM     39  C   UNL A   1      39.359  30.985  34.931  1.00  0.00     0.039 A 
ATOM     40  C   UNL A   1      39.364  30.507  33.616  1.00  0.00     0.014 A 
ATOM     41  C   UNL A   1      40.289  30.523  35.856  1.00  0.00     0.014 A 
ATOM     42  C   UNL A   1      40.366  29.615  33.232  1.00  0.00     0.010 A 
ATOM     43  C   UNL A   1      41.376  29.810  35.431  1.00  0.00     0.010 A 
ATOM     44  C   UNL A   1      41.377  29.284  34.148  1.00  0.00    -0.014 A 
BRANCH  44  45
ATOM     45  C   UNL A   1      42.518  28.460  33.772  1.00  0.00     0.031 A 
ATOM     46  C   UNL A   1      43.711  29.232  33.339  1.00  0.00     0.074 A 
ATOM     47  C   UNL A   1      42.578  27.137  34.045  1.00  0.00     0.049 A 
ATOM     48  N   UNL A   1      44.208  29.312  32.151  1.00  0.00    -0.248 NA
ATOM     49  C   UNL A   1      44.335  30.152  34.307  1.00  0.00     0.031 C 
ATOM     50  C   UNL A   1      41.607  26.312  34.781  1.00  0.00     0.029 A 
ATOM     51  N   UNL A   1      43.596  26.263  33.835  1.00  0.00    -0.354 N 
ATOM     52  C   UNL A   1      45.349  30.098  32.268  1.00  0.00     0.074 A 
ATOM     53  C   UNL A   1      45.255  30.752  33.549  1.00  0.00     0.031 C 
ATOM     54  C   UNL A   1      42.193  25.157  35.169  1.00  0.00     0.029 A 
ATOM     55  C   UNL A   1      43.506  25.078  34.559  1.00  0.00     0.049 A 
ATOM     56  H   UNL A   1      44.340  26.454  33.218  1.00  0.00     0.167 HD
ATOM     57  C   UNL A   1      46.409  29.940  31.425  1.00  0.00     0.031 A 
ATOM     58  C   UNL A   1      44.460  24.117  34.672  1.00  0.00     0.031 A 
ATOM     59  C   UNL A   1      46.061  29.125  30.288  1.00  0.00     0.049 A 
ATOM     60  C   UNL A   1      45.391  24.306  33.531  1.00  0.00     0.074 A 
ATOM     61  C   UNL A   1      45.122  29.215  29.279  1.00  0.00     0.029 A 
ATOM     62  N   UNL A   1      46.445  27.803  30.331  1.00  0.00    -0.354 N 
ATOM     63  N   UNL A   1      45.035  24.145  32.286  1.00  0.00    -0.248 NA
ATOM     64  C   UNL A   1      46.562  25.141  33.741  1.00  0.00     0.031 C 
ATOM     65  C   UNL A   1      44.637  27.885  29.114  1.00  0.00     0.029 A 
ATOM     66  C   UNL A   1      45.366  27.045  29.960  1.00  0.00     0.049 A 
ATOM     67  H   UNL A   1      47.335  27.464  30.584  1.00  0.00     0.167 HD
ATOM     68  C   UNL A   1      45.642  25.192  31.606  1.00  0.00     0.074 A 
ATOM     69  C   UNL A   1      46.641  25.716  32.537  1.00  0.00     0.031 C 
ATOM     70  C   UNL A   1      45.087  25.718  30.472  1.00  0.00     0.031 A 
BRANCH  57  71
ATOM     71  C   UNL A   1      47.846  30.166  31.830  1.00  0.00    -0.014 A 
ATOM     72  C   UNL A   1      48.463  29.236  32.691  1.00  0.00     0.010 A 
ATOM     73  C   UNL A   1      48.523  31.385  31.618  1.00  0.00     0.010 A 
ATOM     74  C   UNL A   1      49.658  29.539  33.357  1.00  0.00     0.020 A 
ATOM     75  C   UNL A   1      49.736  31.680  32.242  1.00  0.00     0.020 A 
ATOM     76  C   UNL A   1      50.280  30.768  33.134  1.00  0.00     0.054 A 
BRANCH  76  77
ATOM     77  S   UNL A   1      51.771  31.189  34.066  1.00  0.00     0.124 S 
ATOM     78  O   UNL A   1      51.662  32.641  34.167  1.00  0.00    -0.237 OA
ATOM     79  O   UNL A   1      51.578  30.448  35.309  1.00  0.00    -0.237 OA
ATOM     80  O   UNL A   1      52.855  30.700  33.215  1.00  0.00    -0.744 OA
ENDBRANCH  76  77
ENDBRANCH  57  71
BRANCH  58  81
ATOM     81  C   UNL A   1      44.802  23.289  35.860  1.00  0.00    -0.014 A 
ATOM     82  C   UNL A   1      45.267  21.967  35.720  1.00  0.00     0.010 A 
ATOM     83  C   UNL A   1      44.951  23.899  37.122  1.00  0.00     0.010 A 
ATOM     84  C   UNL A   1      45.918  21.307  36.780  1.00  0.00     0.020 A 
ATOM     85  C   UNL A   1      45.593  23.248  38.184  1.00  0.00     0.020 A 
ATOM     86  C   UNL A   1      46.098  21.963  38.000  1.00  0.00     0.054 A 
BRANCH  86  87
ATOM     87  S   UNL A   1      47.108  21.188  39.303  1.00  0.00     0.124 S 
ATOM     88  O   UNL A   1      47.764  20.101  38.583  1.00  0.00    -0.237 OA
ATOM     89  O   UNL A   1      47.977  22.283  39.726  1.00  0.00    -0.237 OA
ATOM     90  O   UNL A   1      46.123  20.768  40.297  1.00  0.00    -0.744 OA
ENDBRANCH  86  87
ENDBRANCH  58  81
BRANCH  70  91
ATOM     91  C   UNL A   1      43.950  24.970  29.807  1.00  0.00    -0.014 A 
ATOM     92  C   UNL A   1      42.764  25.575  29.343  1.00  0.00     0.010 A 
ATOM     93  C   UNL A   1      44.170  23.616  29.500  1.00  0.00     0.010 A 
ATOM     94  C   UNL A   1      41.816  24.834  28.617  1.00  0.00     0.020 A 
ATOM     95  C   UNL A   1      43.242  22.879  28.762  1.00  0.00     0.020 A 
ATOM     96  C   UNL A   1      42.063  23.488  28.333  1.00  0.00     0.054 A 
BRANCH  96  97
ATOM     97  S   UNL A   1      40.856  22.534  27.366  1.00  0.00     0.124 S 
ATOM     98  O   UNL A   1      39.650  23.350  27.470  1.00  0.00    -0.237 OA
ATOM     99  O   UNL A   1      41.469  22.482  26.041  1.00  0.00    -0.237 OA
ATOM    100  O   UNL A   1      40.793  21.248  28.059  1.00  0.00    -0.744 OA
ENDBRANCH  96  97
ENDBRANCH  70  91
ENDBRANCH  44  45
ENDBRANCH  36  39
ENDBRANCH  34  35
ENDBRANCH  33  34
ENDBRANCH  32  33
ENDBRANCH   1  32
TORSDOF 21
ENDMDL
MODEL 3
REMARK VINA RESULT:      -8.8      5.418     12.932
REMARK SMILES CCCc1cc(-n2ccc(C(=O)NCCCCCCNC(=O)c3ccc(-c4c5nc(c(-c6ccc(S(=O)(=O)[O-])cc6)c6ccc([nH]6)c(-c6ccc(S(=O)(=O)[O-])cc6)c6nc(c(-c7ccc(S(=O)(=O)[O-])cc7)c7ccc4[nH]7)C=C6)C=C5)cc3)n2)nc(-c2ccc(C(F)(F)F)cc2)n1
REMARK SMILES IDX 16 1 15 2 14 3 13 4 11 5 12 6 10 8 7 9 8 10 83 11 9 12 6 13
REMARK SMILES IDX 4 14 5 15 96 16 85 17 84 18 3 19 2 20 1 21 86 22 87 23 95 24
REMARK SMILES IDX 88 25 94 26 89 27 90 28 91 29 92 30 93 31 17 32 18 33 19 34
REMARK SMILES IDX 20 35 21 36 22 38 23 39 24 40 82 41 25 42 81 43 26 44 27 45
REMARK SMILES IDX 28 46 75 47 29 48 80 49 74 50 76 51 30 52 79 53 73 54 72 55
REMARK SMILES IDX 31 57 61 58 42 59 60 60 43 61 46 62 59 63 77 64 44 65 45 66
REMARK SMILES IDX 58 68 78 69 47 70 32 71 33 72 41 73 34 74 40 75 35 76 36 77
REMARK SMILES IDX 37 78 38 79 39 80 62 81 63 82 71 83 64 84 70 85 65 86 66 87
REMARK SMILES IDX 67 88 68 89 69 90 48 91 49 92 57 93 50 94 56 95 51 96 52 97
REMARK SMILES IDX 53 98 54 99 55 100
REMARK H PARENT 13 7 20 37 76 56 46 67
REMARK Flexibility Score: inf
ROOT
ATOM      1  C   UNL A   1      43.484  24.309  29.686  1.00  0.00     0.002 C 
ENDROOT
BRANCH   1   2
ATOM      2  C   UNL A   1      43.046  22.866  29.422  1.00  0.00     0.021 C 
BRANCH   2   3
ATOM      3  C   UNL A   1      41.894  22.693  28.430  1.00  0.00     0.116 C 
BRANCH   3   4
ATOM      4  N   UNL A   1      41.332  23.964  28.004  1.00  0.00    -0.351 N 
ATOM      5  C   UNL A   1      40.313  24.233  27.116  1.00  0.00     0.271 C 
ATOM      6  O   UNL A   1      40.084  25.414  26.844  1.00  0.00    -0.267 OA
ATOM      7  H   UNL A   1      41.744  24.758  28.415  1.00  0.00     0.163 HD
BRANCH   5   8
ATOM      8  C   UNL A   1      39.567  23.142  26.469  1.00  0.00     0.150 A 
ATOM      9  N   UNL A   1      37.923  21.996  25.706  1.00  0.00    -0.222 N 
ATOM     10  C   UNL A   1      38.987  21.121  25.748  1.00  0.00     0.118 A 
ATOM     11  N   UNL A   1      38.318  23.262  25.988  1.00  0.00    -0.161 NA
ATOM     12  C   UNL A   1      40.065  21.839  26.205  1.00  0.00     0.056 A 
BRANCH   9  13
ATOM     13  C   UNL A   1      36.552  21.701  25.440  1.00  0.00     0.157 A 
ATOM     14  C   UNL A   1      34.834  20.175  24.936  1.00  0.00     0.047 A 
ATOM     15  C   UNL A   1      36.187  20.409  25.098  1.00  0.00     0.073 A 
ATOM     16  N   UNL A   1      33.937  21.171  25.024  1.00  0.00    -0.233 NA
ATOM     17  C   UNL A   1      34.382  22.399  25.326  1.00  0.00     0.161 A 
ATOM     18  N   UNL A   1      35.660  22.711  25.563  1.00  0.00    -0.209 NA
BRANCH  14  19
ATOM     19  C   UNL A   1      34.325  18.803  24.559  1.00  0.00     0.056 C 
BRANCH  19  20
ATOM     20  C   UNL A   1      32.865  18.502  24.931  1.00  0.00     0.003 C 
ATOM     21  C   UNL A   1      32.604  17.067  25.377  1.00  0.00     0.004 C 
ENDBRANCH  19  20
ENDBRANCH  14  19
BRANCH  17  22
ATOM     22  C   UNL A   1      33.409  23.487  25.224  1.00  0.00     0.019 A 
ATOM     23  C   UNL A   1      33.526  24.646  26.006  1.00  0.00     0.012 A 
ATOM     24  C   UNL A   1      32.285  23.362  24.389  1.00  0.00     0.012 A 
ATOM     25  C   UNL A   1      32.551  25.648  25.959  1.00  0.00     0.014 A 
ATOM     26  C   UNL A   1      31.299  24.351  24.353  1.00  0.00     0.014 A 
ATOM     27  C   UNL A   1      31.423  25.505  25.138  1.00  0.00     0.056 A 
BRANCH  27  28
ATOM     28  C   UNL A   1      30.364  26.578  25.115  1.00  0.00     0.416 C 
ATOM     29  F   UNL A   1      29.110  26.084  25.311  1.00  0.00    -0.166 F 
ATOM     30  F   UNL A   1      30.551  27.520  26.081  1.00  0.00    -0.166 F 
ATOM     31  F   UNL A   1      30.308  27.264  23.937  1.00  0.00    -0.166 F 
ENDBRANCH  27  28
ENDBRANCH  17  22
ENDBRANCH   9  13
ENDBRANCH   5   8
ENDBRANCH   3   4
ENDBRANCH   2   3
ENDBRANCH   1   2
BRANCH   1  32
ATOM     32  C   UNL A   1      44.998  24.565  29.729  1.00  0.00     0.002 C 
BRANCH  32  33
ATOM     33  C   UNL A   1      45.765  24.421  28.407  1.00  0.00     0.021 C 
BRANCH  33  34
ATOM     34  C   UNL A   1      44.949  24.751  27.168  1.00  0.00     0.116 C 
BRANCH  34  35
ATOM     35  N   UNL A   1      45.759  25.294  26.076  1.00  0.00    -0.352 N 
ATOM     36  C   UNL A   1      45.654  26.534  25.466  1.00  0.00     0.251 C 
ATOM     37  H   UNL A   1      46.468  24.703  25.731  1.00  0.00     0.163 HD
ATOM     38  O   UNL A   1      46.107  26.726  24.351  1.00  0.00    -0.269 OA
BRANCH  36  39
ATOM     39  C   UNL A   1      44.990  27.623  26.209  1.00  0.00     0.039 A 
ATOM     40  C   UNL A   1      43.684  28.035  25.921  1.00  0.00     0.014 A 
ATOM     41  C   UNL A   1      45.711  28.224  27.235  1.00  0.00     0.014 A 
ATOM     42  C   UNL A   1      43.094  29.006  26.730  1.00  0.00     0.010 A 
ATOM     43  C   UNL A   1      45.070  29.024  28.140  1.00  0.00     0.010 A 
ATOM     44  C   UNL A   1      43.795  29.484  27.849  1.00  0.00    -0.014 A 
BRANCH  44  45
ATOM     45  C   UNL A   1      43.189  30.402  28.804  1.00  0.00     0.031 A 
ATOM     46  C   UNL A   1      43.988  31.626  29.065  1.00  0.00     0.074 A 
ATOM     47  C   UNL A   1      41.904  30.282  29.208  1.00  0.00     0.049 A 
ATOM     48  N   UNL A   1      44.611  31.941  30.150  1.00  0.00    -0.248 NA
ATOM     49  C   UNL A   1      44.261  32.535  27.937  1.00  0.00     0.031 C 
ATOM     50  C   UNL A   1      40.893  29.312  28.760  1.00  0.00     0.029 A 
ATOM     51  N   UNL A   1      41.180  31.097  30.019  1.00  0.00    -0.354 N 
ATOM     52  C   UNL A   1      45.155  33.202  29.923  1.00  0.00     0.074 A 
ATOM     53  C   UNL A   1      45.093  33.414  28.499  1.00  0.00     0.031 C 
ATOM     54  C   UNL A   1      39.660  29.750  29.100  1.00  0.00     0.029 A 
ATOM     55  C   UNL A   1      39.801  30.923  29.940  1.00  0.00     0.049 A 
ATOM     56  H   UNL A   1      41.600  31.758  30.616  1.00  0.00     0.167 HD
ATOM     57  C   UNL A   1      45.362  34.079  30.946  1.00  0.00     0.031 A 
ATOM     58  C   UNL A   1      38.847  31.710  30.503  1.00  0.00     0.031 A 
ATOM     59  C   UNL A   1      45.245  33.431  32.228  1.00  0.00     0.049 A 
ATOM     60  C   UNL A   1      39.512  32.474  31.589  1.00  0.00     0.074 A 
ATOM     61  C   UNL A   1      45.888  32.378  32.847  1.00  0.00     0.029 A 
ATOM     62  N   UNL A   1      44.052  33.593  32.898  1.00  0.00    -0.354 N 
ATOM     63  N   UNL A   1      40.014  31.910  32.652  1.00  0.00    -0.248 NA
ATOM     64  C   UNL A   1      40.049  33.785  31.266  1.00  0.00     0.031 C 
ATOM     65  C   UNL A   1      44.852  31.659  33.513  1.00  0.00     0.029 A 
ATOM     66  C   UNL A   1      43.655  32.358  33.342  1.00  0.00     0.049 A 
ATOM     67  H   UNL A   1      43.571  34.442  33.033  1.00  0.00     0.167 HD
ATOM     68  C   UNL A   1      41.216  32.571  32.870  1.00  0.00     0.074 A 
ATOM     69  C   UNL A   1      41.138  33.774  32.041  1.00  0.00     0.031 C 
ATOM     70  C   UNL A   1      42.272  31.945  33.471  1.00  0.00     0.031 A 
BRANCH  57  71
ATOM     71  C   UNL A   1      45.256  35.578  30.802  1.00  0.00    -0.014 A 
ATOM     72  C   UNL A   1      43.976  36.167  30.745  1.00  0.00     0.010 A 
ATOM     73  C   UNL A   1      46.350  36.397  30.451  1.00  0.00     0.010 A 
ATOM     74  C   UNL A   1      43.798  37.482  30.295  1.00  0.00     0.020 A 
ATOM     75  C   UNL A   1      46.188  37.722  30.044  1.00  0.00     0.020 A 
ATOM     76  C   UNL A   1      44.908  38.246  29.936  1.00  0.00     0.054 A 
BRANCH  76  77
ATOM     77  S   UNL A   1      44.662  39.909  29.270  1.00  0.00     0.124 S 
ATOM     78  O   UNL A   1      45.685  40.671  29.979  1.00  0.00    -0.237 OA
ATOM     79  O   UNL A   1      44.895  39.707  27.843  1.00  0.00    -0.237 OA
ATOM     80  O   UNL A   1      43.282  40.222  29.633  1.00  0.00    -0.744 OA
ENDBRANCH  76  77
ENDBRANCH  57  71
BRANCH  58  81
ATOM     81  C   UNL A   1      37.518  32.087  29.951  1.00  0.00    -0.014 A 
ATOM     82  C   UNL A   1      36.345  31.966  30.723  1.00  0.00     0.010 A 
ATOM     83  C   UNL A   1      37.438  32.845  28.765  1.00  0.00     0.010 A 
ATOM     84  C   UNL A   1      35.161  32.634  30.358  1.00  0.00     0.020 A 
ATOM     85  C   UNL A   1      36.262  33.509  28.392  1.00  0.00     0.020 A 
ATOM     86  C   UNL A   1      35.134  33.422  29.205  1.00  0.00     0.054 A 
BRANCH  86  87
ATOM     87  S   UNL A   1      33.669  34.439  28.839  1.00  0.00     0.124 S 
ATOM     88  O   UNL A   1      33.042  34.566  30.151  1.00  0.00    -0.237 OA
ATOM     89  O   UNL A   1      34.256  35.661  28.297  1.00  0.00    -0.237 OA
ATOM     90  O   UNL A   1      32.925  33.634  27.872  1.00  0.00    -0.744 OA
ENDBRANCH  86  87
ENDBRANCH  58  81
BRANCH  70  91
ATOM     91  C   UNL A   1      42.034  30.612  34.149  1.00  0.00    -0.014 A 
ATOM     92  C   UNL A   1      41.869  29.389  33.466  1.00  0.00     0.010 A 
ATOM     93  C   UNL A   1      42.139  30.580  35.550  1.00  0.00     0.010 A 
ATOM     94  C   UNL A   1      41.787  28.177  34.172  1.00  0.00     0.020 A 
ATOM     95  C   UNL A   1      42.078  29.378  36.257  1.00  0.00     0.020 A 
ATOM     96  C   UNL A   1      41.890  28.181  35.565  1.00  0.00     0.054 A 
BRANCH  96  97
ATOM     97  S   UNL A   1      41.817  26.613  36.480  1.00  0.00     0.124 S 
ATOM     98  O   UNL A   1      40.705  26.834  37.400  1.00  0.00    -0.237 OA
ATOM     99  O   UNL A   1      41.575  25.632  35.424  1.00  0.00    -0.237 OA
ATOM    100  O   UNL A   1      43.132  26.517  37.112  1.00  0.00    -0.744 OA
ENDBRANCH  96  97
ENDBRANCH  70  91
ENDBRANCH  44  45
ENDBRANCH  36  39
ENDBRANCH  34  35
ENDBRANCH  33  34
ENDBRANCH  32  33
ENDBRANCH   1  32
TORSDOF 21
ENDMDL
