MODEL 1
REMARK VINA RESULT:     -10.3      0.000      0.000
REMARK SMILES CCc1cc([C@H]([NH3+])C(=O)NCCCCCCNC(=O)c2ccc(-c3c4nc(c(-c5ccc(S(=O)(=O)[O-])cc5)c5ccc([nH]5)c(-c5ccc(S(=O)(=O)[O-])cc5)c5nc(c(-c6ccc(S(=O)(=O)[O-])cc6)c6ccc3[nH]6)C=C5)C=C4)cc2)cc(CC)c1N
REMARK SMILES IDX 14 1 13 2 12 3 11 4 10 5 8 6 9 7 6 9 5 10 3 11 4 12 84 13
REMARK SMILES IDX 81 14 80 15 2 16 1 17 85 18 82 21 83 22 7 23 15 27 16 28
REMARK SMILES IDX 17 29 18 30 19 32 20 33 21 34 79 35 22 36 78 37 23 38 24 39
REMARK SMILES IDX 25 40 72 41 26 42 77 43 71 44 73 45 27 46 76 47 70 48 69 49
REMARK SMILES IDX 28 51 58 52 39 53 57 54 40 55 43 56 56 57 74 58 41 59 42 60
REMARK SMILES IDX 55 62 75 63 44 64 29 65 30 66 38 67 31 68 37 69 32 70 33 71
REMARK SMILES IDX 34 72 35 73 36 74 59 75 60 76 68 77 61 78 67 79 62 80 63 81
REMARK SMILES IDX 64 82 65 83 66 84 45 85 46 86 54 87 47 88 53 89 48 90 49 91
REMARK SMILES IDX 50 92 51 93 52 94
REMARK H PARENT 10 8 85 19 85 20 7 24 7 25 7 26 17 31 73 50 43 61
REMARK Flexibility Score: inf
ROOT
ATOM      1  C   UNL A   1      35.407  22.902  23.623  1.00  0.00     0.002 C 
ENDROOT
BRANCH   1   2
ATOM      2  C   UNL A   1      34.065  22.563  24.280  1.00  0.00     0.002 C 
BRANCH   2   3
ATOM      3  C   UNL A   1      32.867  22.520  23.324  1.00  0.00     0.021 C 
BRANCH   3   4
ATOM      4  C   UNL A   1      31.530  22.805  23.998  1.00  0.00     0.116 C 
BRANCH   4   5
ATOM      5  N   UNL A   1      31.673  22.849  25.444  1.00  0.00    -0.351 N 
ATOM      6  C   UNL A   1      31.000  23.584  26.376  1.00  0.00     0.283 C 
ATOM      7  O   UNL A   1      31.291  23.390  27.562  1.00  0.00    -0.268 OA
ATOM      8  H   UNL A   1      32.367  22.254  25.808  1.00  0.00     0.163 HD
BRANCH   6   9
ATOM      9  C   UNL A   1      29.964  24.662  25.974  1.00  0.00     0.302 C 
BRANCH   9  10
ATOM     10  C   UNL A   1      30.523  26.038  25.645  1.00  0.00     0.020 A 
ATOM     11  C   UNL A   1      31.951  27.997  26.170  1.00  0.00    -0.024 A 
ATOM     12  C   UNL A   1      31.451  26.700  26.454  1.00  0.00     0.016 A 
ATOM     13  C   UNL A   1      31.577  28.618  24.959  1.00  0.00     0.038 A 
ATOM     14  C   UNL A   1      30.736  27.901  24.065  1.00  0.00    -0.024 A 
ATOM     15  C   UNL A   1      30.188  26.656  24.443  1.00  0.00     0.016 A 
BRANCH  11  16
ATOM     16  C   UNL A   1      32.865  28.523  27.270  1.00  0.00     0.034 C 
ATOM     17  C   UNL A   1      34.315  28.904  27.029  1.00  0.00     0.009 C 
ENDBRANCH  11  16
BRANCH  13  18
ATOM     18  N   UNL A   1      32.134  29.826  24.554  1.00  0.00    -0.398 N 
ATOM     19  H   UNL A   1      33.061  29.854  24.223  1.00  0.00     0.156 HD
ATOM     20  H   UNL A   1      31.601  30.653  24.598  1.00  0.00     0.156 HD
ENDBRANCH  13  18
BRANCH  14  21
ATOM     21  C   UNL A   1      30.386  28.376  22.665  1.00  0.00     0.034 C 
ATOM     22  C   UNL A   1      29.052  29.117  22.643  1.00  0.00     0.009 C 
ENDBRANCH  14  21
ENDBRANCH   9  10
BRANCH   9  23
ATOM     23  N   UNL A   1      28.876  24.699  26.982  1.00  0.00    -0.343 N 
ATOM     24  H   UNL A   1      28.092  24.134  26.657  1.00  0.00     0.345 HD
ATOM     25  H   UNL A   1      28.570  25.662  27.116  1.00  0.00     0.345 HD
ATOM     26  H   UNL A   1      29.221  24.325  27.867  1.00  0.00     0.345 HD
ENDBRANCH   9  23
ENDBRANCH   6   9
ENDBRANCH   4   5
ENDBRANCH   3   4
ENDBRANCH   2   3
ENDBRANCH   1   2
BRANCH   1  27
ATOM     27  C   UNL A   1      36.273  23.895  24.400  1.00  0.00     0.021 C 
BRANCH  27  28
ATOM     28  C   UNL A   1      36.576  23.482  25.836  1.00  0.00     0.116 C 
BRANCH  28  29
ATOM     29  N   UNL A   1      37.706  22.572  25.918  1.00  0.00    -0.352 N 
ATOM     30  C   UNL A   1      38.997  22.829  26.304  1.00  0.00     0.251 C 
ATOM     31  H   UNL A   1      37.519  21.640  25.662  1.00  0.00     0.163 HD
ATOM     32  O   UNL A   1      39.872  21.984  26.129  1.00  0.00    -0.269 OA
BRANCH  30  33
ATOM     33  C   UNL A   1      39.331  24.136  26.907  1.00  0.00     0.039 A 
ATOM     34  C   UNL A   1      38.955  24.387  28.228  1.00  0.00     0.014 A 
ATOM     35  C   UNL A   1      40.019  25.107  26.172  1.00  0.00     0.014 A 
ATOM     36  C   UNL A   1      39.321  25.592  28.831  1.00  0.00     0.010 A 
ATOM     37  C   UNL A   1      40.450  26.272  26.800  1.00  0.00     0.010 A 
ATOM     38  C   UNL A   1      40.101  26.529  28.134  1.00  0.00    -0.014 A 
BRANCH  38  39
ATOM     39  C   UNL A   1      40.562  27.781  28.785  1.00  0.00     0.031 A 
ATOM     40  C   UNL A   1      41.945  27.866  29.373  1.00  0.00     0.074 A 
ATOM     41  C   UNL A   1      39.714  28.824  28.898  1.00  0.00     0.049 A 
ATOM     42  N   UNL A   1      42.506  28.856  30.019  1.00  0.00    -0.248 NA
ATOM     43  C   UNL A   1      42.801  26.676  29.239  1.00  0.00     0.031 C 
ATOM     44  C   UNL A   1      38.335  28.853  28.404  1.00  0.00     0.029 A 
ATOM     45  N   UNL A   1      39.886  30.061  29.468  1.00  0.00    -0.354 N 
ATOM     46  C   UNL A   1      43.772  28.405  30.377  1.00  0.00     0.074 A 
ATOM     47  C   UNL A   1      43.875  27.034  29.927  1.00  0.00     0.031 C 
ATOM     48  C   UNL A   1      37.799  30.055  28.664  1.00  0.00     0.029 A 
ATOM     49  C   UNL A   1      38.775  30.868  29.383  1.00  0.00     0.049 A 
ATOM     50  H   UNL A   1      40.725  30.345  29.896  1.00  0.00     0.167 HD
ATOM     51  C   UNL A   1      44.766  29.076  31.007  1.00  0.00     0.031 A 
ATOM     52  C   UNL A   1      38.560  32.116  29.840  1.00  0.00     0.031 A 
ATOM     53  C   UNL A   1      44.658  30.442  31.450  1.00  0.00     0.049 A 
ATOM     54  C   UNL A   1      39.671  32.833  30.558  1.00  0.00     0.074 A 
ATOM     55  C   UNL A   1      45.626  31.227  32.052  1.00  0.00     0.029 A 
ATOM     56  N   UNL A   1      43.517  31.222  31.348  1.00  0.00    -0.354 N 
ATOM     57  N   UNL A   1      40.884  32.413  30.827  1.00  0.00    -0.248 NA
ATOM     58  C   UNL A   1      39.388  34.197  31.024  1.00  0.00     0.031 C 
ATOM     59  C   UNL A   1      45.050  32.462  32.369  1.00  0.00     0.029 A 
ATOM     60  C   UNL A   1      43.746  32.471  31.901  1.00  0.00     0.049 A 
ATOM     61  H   UNL A   1      42.669  30.932  30.941  1.00  0.00     0.167 HD
ATOM     62  C   UNL A   1      41.518  33.472  31.468  1.00  0.00     0.074 A 
ATOM     63  C   UNL A   1      40.560  34.557  31.531  1.00  0.00     0.031 C 
ATOM     64  C   UNL A   1      42.781  33.541  31.959  1.00  0.00     0.031 A 
BRANCH  51  65
ATOM     65  C   UNL A   1      46.055  28.339  31.262  1.00  0.00    -0.014 A 
ATOM     66  C   UNL A   1      47.119  28.389  30.342  1.00  0.00     0.010 A 
ATOM     67  C   UNL A   1      46.222  27.617  32.459  1.00  0.00     0.010 A 
ATOM     68  C   UNL A   1      48.307  27.699  30.594  1.00  0.00     0.020 A 
ATOM     69  C   UNL A   1      47.422  26.953  32.730  1.00  0.00     0.020 A 
ATOM     70  C   UNL A   1      48.451  26.984  31.787  1.00  0.00     0.054 A 
BRANCH  70  71
ATOM     71  S   UNL A   1      50.014  26.118  32.095  1.00  0.00     0.124 S 
ATOM     72  O   UNL A   1      50.995  27.173  31.861  1.00  0.00    -0.237 OA
ATOM     73  O   UNL A   1      49.873  25.689  33.485  1.00  0.00    -0.237 OA
ATOM     74  O   UNL A   1      50.013  25.039  31.111  1.00  0.00    -0.744 OA
ENDBRANCH  70  71
ENDBRANCH  51  65
BRANCH  52  75
ATOM     75  C   UNL A   1      37.240  32.772  29.624  1.00  0.00    -0.014 A 
ATOM     76  C   UNL A   1      36.315  32.885  30.676  1.00  0.00     0.010 A 
ATOM     77  C   UNL A   1      36.906  33.298  28.362  1.00  0.00     0.010 A 
ATOM     78  C   UNL A   1      35.073  33.493  30.466  1.00  0.00     0.020 A 
ATOM     79  C   UNL A   1      35.680  33.934  28.156  1.00  0.00     0.020 A 
ATOM     80  C   UNL A   1      34.765  34.017  29.207  1.00  0.00     0.054 A 
BRANCH  80  81
ATOM     81  S   UNL A   1      33.168  34.844  28.971  1.00  0.00     0.124 S 
ATOM     82  O   UNL A   1      32.575  34.747  30.301  1.00  0.00    -0.237 OA
ATOM     83  O   UNL A   1      33.568  36.185  28.552  1.00  0.00    -0.237 OA
ATOM     84  O   UNL A   1      32.518  34.045  27.935  1.00  0.00    -0.744 OA
ENDBRANCH  80  81
ENDBRANCH  52  75
BRANCH  64  85
ATOM     85  C   UNL A   1      43.216  34.844  32.577  1.00  0.00    -0.014 A 
ATOM     86  C   UNL A   1      43.745  35.885  31.794  1.00  0.00     0.010 A 
ATOM     87  C   UNL A   1      43.039  35.047  33.958  1.00  0.00     0.010 A 
ATOM     88  C   UNL A   1      44.121  37.094  32.388  1.00  0.00     0.020 A 
ATOM     89  C   UNL A   1      43.383  36.265  34.551  1.00  0.00     0.020 A 
ATOM     90  C   UNL A   1      43.935  37.276  33.763  1.00  0.00     0.054 A 
BRANCH  90  91
ATOM     91  S   UNL A   1      44.390  38.870  34.500  1.00  0.00     0.124 S 
ATOM     92  O   UNL A   1      43.454  39.783  33.850  1.00  0.00    -0.237 OA
ATOM     93  O   UNL A   1      44.158  38.641  35.924  1.00  0.00    -0.237 OA
ATOM     94  O   UNL A   1      45.791  39.041  34.121  1.00  0.00    -0.744 OA
ENDBRANCH  90  91
ENDBRANCH  64  85
ENDBRANCH  38  39
ENDBRANCH  30  33
ENDBRANCH  28  29
ENDBRANCH  27  28
ENDBRANCH   1  27
TORSDOF 21
ENDMDL
MODEL 2
REMARK VINA RESULT:     -10.1      5.645     11.642
REMARK SMILES CCc1cc([C@H]([NH3+])C(=O)NCCCCCCNC(=O)c2ccc(-c3c4nc(c(-c5ccc(S(=O)(=O)[O-])cc5)c5ccc([nH]5)c(-c5ccc(S(=O)(=O)[O-])cc5)c5nc(c(-c6ccc(S(=O)(=O)[O-])cc6)c6ccc3[nH]6)C=C5)C=C4)cc2)cc(CC)c1N
REMARK SMILES IDX 14 1 13 2 12 3 11 4 10 5 8 6 9 7 6 9 5 10 3 11 4 12 84 13
REMARK SMILES IDX 81 14 80 15 2 16 1 17 85 18 82 21 83 22 7 23 15 27 16 28
REMARK SMILES IDX 17 29 18 30 19 32 20 33 21 34 79 35 22 36 78 37 23 38 24 39
REMARK SMILES IDX 25 40 72 41 26 42 77 43 71 44 73 45 27 46 76 47 70 48 69 49
REMARK SMILES IDX 28 51 58 52 39 53 57 54 40 55 43 56 56 57 74 58 41 59 42 60
REMARK SMILES IDX 55 62 75 63 44 64 29 65 30 66 38 67 31 68 37 69 32 70 33 71
REMARK SMILES IDX 34 72 35 73 36 74 59 75 60 76 68 77 61 78 67 79 62 80 63 81
REMARK SMILES IDX 64 82 65 83 66 84 45 85 46 86 54 87 47 88 53 89 48 90 49 91
REMARK SMILES IDX 50 92 51 93 52 94
REMARK H PARENT 10 8 85 19 85 20 7 24 7 25 7 26 17 31 73 50 43 61
REMARK Flexibility Score: inf
ROOT
ATOM      1  C   UNL A   1      34.814  34.388  27.986  1.00  0.00     0.002 C 
ENDROOT
BRANCH   1   2
ATOM      2  C   UNL A   1      33.390  34.784  28.391  1.00  0.00     0.002 C 
BRANCH   2   3
ATOM      3  C   UNL A   1      33.274  36.122  29.130  1.00  0.00     0.021 C 
BRANCH   3   4
ATOM      4  C   UNL A   1      33.043  35.981  30.630  1.00  0.00     0.116 C 
BRANCH   4   5
ATOM      5  N   UNL A   1      33.312  34.622  31.074  1.00  0.00    -0.351 N 
ATOM      6  C   UNL A   1      34.184  34.156  32.014  1.00  0.00     0.283 C 
ATOM      7  O   UNL A   1      34.176  32.940  32.234  1.00  0.00    -0.268 OA
ATOM      8  H   UNL A   1      32.779  33.928  30.624  1.00  0.00     0.163 HD
BRANCH   6   9
ATOM      9  C   UNL A   1      35.189  35.091  32.731  1.00  0.00     0.302 C 
BRANCH   9  10
ATOM     10  C   UNL A   1      36.607  34.562  32.881  1.00  0.00     0.020 A 
ATOM     11  C   UNL A   1      38.787  33.860  31.929  1.00  0.00    -0.024 A 
ATOM     12  C   UNL A   1      37.474  34.383  31.800  1.00  0.00     0.016 A 
ATOM     13  C   UNL A   1      39.289  33.599  33.222  1.00  0.00     0.038 A 
ATOM     14  C   UNL A   1      38.463  33.900  34.340  1.00  0.00    -0.024 A 
ATOM     15  C   UNL A   1      37.131  34.324  34.149  1.00  0.00     0.016 A 
BRANCH  11  16
ATOM     16  C   UNL A   1      39.474  33.671  30.583  1.00  0.00     0.034 C 
ATOM     17  C   UNL A   1      39.343  34.661  29.440  1.00  0.00     0.009 C 
ENDBRANCH  11  16
BRANCH  13  18
ATOM     18  N   UNL A   1      40.609  33.215  33.431  1.00  0.00    -0.398 N 
ATOM     19  H   UNL A   1      41.339  33.694  32.975  1.00  0.00     0.156 HD
ATOM     20  H   UNL A   1      40.814  32.464  34.034  1.00  0.00     0.156 HD
ENDBRANCH  13  18
BRANCH  14  21
ATOM     21  C   UNL A   1      38.929  33.822  35.783  1.00  0.00     0.034 C 
ATOM     22  C   UNL A   1      39.413  35.178  36.289  1.00  0.00     0.009 C 
ENDBRANCH  14  21
ENDBRANCH   9  10
BRANCH   9  23
ATOM     23  N   UNL A   1      34.600  35.555  34.011  1.00  0.00    -0.343 N 
ATOM     24  H   UNL A   1      33.810  36.171  33.819  1.00  0.00     0.345 HD
ATOM     25  H   UNL A   1      35.305  36.062  34.546  1.00  0.00     0.345 HD
ATOM     26  H   UNL A   1      34.279  34.749  34.549  1.00  0.00     0.345 HD
ENDBRANCH   9  23
ENDBRANCH   6   9
ENDBRANCH   4   5
ENDBRANCH   3   4
ENDBRANCH   2   3
ENDBRANCH   1   2
BRANCH   1  27
ATOM     27  C   UNL A   1      35.126  32.895  28.102  1.00  0.00     0.021 C 
BRANCH  27  28
ATOM     28  C   UNL A   1      36.268  32.560  29.054  1.00  0.00     0.116 C 
BRANCH  28  29
ATOM     29  N   UNL A   1      35.868  31.606  30.076  1.00  0.00    -0.352 N 
ATOM     30  C   UNL A   1      36.514  30.473  30.501  1.00  0.00     0.251 C 
ATOM     31  H   UNL A   1      35.014  31.801  30.525  1.00  0.00     0.163 HD
ATOM     32  O   UNL A   1      35.938  29.677  31.240  1.00  0.00    -0.269 OA
BRANCH  30  33
ATOM     33  C   UNL A   1      37.894  30.206  30.047  1.00  0.00     0.039 A 
ATOM     34  C   UNL A   1      38.914  30.120  30.997  1.00  0.00     0.014 A 
ATOM     35  C   UNL A   1      38.178  30.034  28.689  1.00  0.00     0.014 A 
ATOM     36  C   UNL A   1      40.211  29.805  30.588  1.00  0.00     0.010 A 
ATOM     37  C   UNL A   1      39.454  29.642  28.293  1.00  0.00     0.010 A 
ATOM     38  C   UNL A   1      40.484  29.529  29.237  1.00  0.00    -0.014 A 
BRANCH  38  39
ATOM     39  C   UNL A   1      41.842  29.118  28.797  1.00  0.00     0.031 A 
ATOM     40  C   UNL A   1      42.954  30.131  28.727  1.00  0.00     0.074 A 
ATOM     41  C   UNL A   1      42.059  27.847  28.405  1.00  0.00     0.049 A 
ATOM     42  N   UNL A   1      44.189  29.970  28.325  1.00  0.00    -0.248 NA
ATOM     43  C   UNL A   1      42.632  31.506  29.140  1.00  0.00     0.031 C 
ATOM     44  C   UNL A   1      41.053  26.781  28.390  1.00  0.00     0.029 A 
ATOM     45  N   UNL A   1      43.196  27.233  27.941  1.00  0.00    -0.354 N 
ATOM     46  C   UNL A   1      44.785  31.223  28.425  1.00  0.00     0.074 A 
ATOM     47  C   UNL A   1      43.762  32.143  28.872  1.00  0.00     0.031 C 
ATOM     48  C   UNL A   1      41.625  25.642  27.970  1.00  0.00     0.029 A 
ATOM     49  C   UNL A   1      43.024  25.902  27.642  1.00  0.00     0.049 A 
ATOM     50  H   UNL A   1      44.055  27.702  27.834  1.00  0.00     0.167 HD
ATOM     51  C   UNL A   1      46.072  31.572  28.185  1.00  0.00     0.031 A 
ATOM     52  C   UNL A   1      43.887  24.995  27.149  1.00  0.00     0.031 A 
ATOM     53  C   UNL A   1      47.086  30.651  27.743  1.00  0.00     0.049 A 
ATOM     54  C   UNL A   1      45.305  25.412  26.867  1.00  0.00     0.074 A 
ATOM     55  C   UNL A   1      48.430  30.896  27.522  1.00  0.00     0.029 A 
ATOM     56  N   UNL A   1      46.870  29.313  27.449  1.00  0.00    -0.354 N 
ATOM     57  N   UNL A   1      45.867  26.586  27.033  1.00  0.00    -0.248 NA
ATOM     58  C   UNL A   1      46.210  24.380  26.344  1.00  0.00     0.031 C 
ATOM     59  C   UNL A   1      49.013  29.722  27.035  1.00  0.00     0.029 A 
ATOM     60  C   UNL A   1      48.049  28.726  27.021  1.00  0.00     0.049 A 
ATOM     61  H   UNL A   1      46.006  28.849  27.534  1.00  0.00     0.167 HD
ATOM     62  C   UNL A   1      47.197  26.425  26.661  1.00  0.00     0.074 A 
ATOM     63  C   UNL A   1      47.360  25.037  26.279  1.00  0.00     0.031 C 
ATOM     64  C   UNL A   1      48.195  27.344  26.640  1.00  0.00     0.031 A 
BRANCH  51  65
ATOM     65  C   UNL A   1      46.453  33.016  28.388  1.00  0.00    -0.014 A 
ATOM     66  C   UNL A   1      46.348  33.952  27.342  1.00  0.00     0.010 A 
ATOM     67  C   UNL A   1      46.883  33.455  29.654  1.00  0.00     0.010 A 
ATOM     68  C   UNL A   1      46.705  35.287  27.546  1.00  0.00     0.020 A 
ATOM     69  C   UNL A   1      47.210  34.796  29.872  1.00  0.00     0.020 A 
ATOM     70  C   UNL A   1      47.135  35.701  28.810  1.00  0.00     0.054 A 
BRANCH  70  71
ATOM     71  S   UNL A   1      47.571  37.445  29.050  1.00  0.00     0.124 S 
ATOM     72  O   UNL A   1      47.878  37.869  27.687  1.00  0.00    -0.237 OA
ATOM     73  O   UNL A   1      46.348  38.004  29.621  1.00  0.00    -0.237 OA
ATOM     74  O   UNL A   1      48.713  37.396  29.959  1.00  0.00    -0.744 OA
ENDBRANCH  70  71
ENDBRANCH  51  65
BRANCH  52  75
ATOM     75  C   UNL A   1      43.437  23.597  26.899  1.00  0.00    -0.014 A 
ATOM     76  C   UNL A   1      43.464  23.056  25.601  1.00  0.00     0.010 A 
ATOM     77  C   UNL A   1      42.988  22.793  27.963  1.00  0.00     0.010 A 
ATOM     78  C   UNL A   1      43.032  21.746  25.369  1.00  0.00     0.020 A 
ATOM     79  C   UNL A   1      42.585  21.474  27.741  1.00  0.00     0.020 A 
ATOM     80  C   UNL A   1      42.598  20.963  26.442  1.00  0.00     0.054 A 
BRANCH  80  81
ATOM     81  S   UNL A   1      42.088  19.251  26.125  1.00  0.00     0.124 S 
ATOM     82  O   UNL A   1      42.432  18.592  27.380  1.00  0.00    -0.237 OA
ATOM     83  O   UNL A   1      40.660  19.394  25.854  1.00  0.00    -0.237 OA
ATOM     84  O   UNL A   1      42.896  18.862  24.971  1.00  0.00    -0.744 OA
ENDBRANCH  80  81
ENDBRANCH  52  75
BRANCH  64  85
ATOM     85  C   UNL A   1      49.564  26.873  26.223  1.00  0.00    -0.014 A 
ATOM     86  C   UNL A   1      50.374  26.116  27.088  1.00  0.00     0.010 A 
ATOM     87  C   UNL A   1      50.022  27.147  24.921  1.00  0.00     0.010 A 
ATOM     88  C   UNL A   1      51.632  25.672  26.669  1.00  0.00     0.020 A 
ATOM     89  C   UNL A   1      51.264  26.677  24.487  1.00  0.00     0.020 A 
ATOM     90  C   UNL A   1      52.067  25.954  25.370  1.00  0.00     0.054 A 
BRANCH  90  91
ATOM     91  S   UNL A   1      53.684  25.326  24.838  1.00  0.00     0.124 S 
ATOM     92  O   UNL A   1      53.472  23.882  24.859  1.00  0.00    -0.237 OA
ATOM     93  O   UNL A   1      53.836  25.920  23.512  1.00  0.00    -0.237 OA
ATOM     94  O   UNL A   1      54.605  25.836  25.852  1.00  0.00    -0.744 OA
ENDBRANCH  90  91
ENDBRANCH  64  85
ENDBRANCH  38  39
ENDBRANCH  30  33
ENDBRANCH  28  29
ENDBRANCH  27  28
ENDBRANCH   1  27
TORSDOF 21
ENDMDL
MODEL 3
REMARK VINA RESULT:     -10.0      2.634      9.414
REMARK SMILES CCc1cc([C@H]([NH3+])C(=O)NCCCCCCNC(=O)c2ccc(-c3c4nc(c(-c5ccc(S(=O)(=O)[O-])cc5)c5ccc([nH]5)c(-c5ccc(S(=O)(=O)[O-])cc5)c5nc(c(-c6ccc(S(=O)(=O)[O-])cc6)c6ccc3[nH]6)C=C5)C=C4)cc2)cc(CC)c1N
REMARK SMILES IDX 14 1 13 2 12 3 11 4 10 5 8 6 9 7 6 9 5 10 3 11 4 12 84 13
REMARK SMILES IDX 81 14 80 15 2 16 1 17 85 18 82 21 83 22 7 23 15 27 16 28
REMARK SMILES IDX 17 29 18 30 19 32 20 33 21 34 79 35 22 36 78 37 23 38 24 39
REMARK SMILES IDX 25 40 72 41 26 42 77 43 71 44 73 45 27 46 76 47 70 48 69 49
REMARK SMILES IDX 28 51 58 52 39 53 57 54 40 55 43 56 56 57 74 58 41 59 42 60
REMARK SMILES IDX 55 62 75 63 44 64 29 65 30 66 38 67 31 68 37 69 32 70 33 71
REMARK SMILES IDX 34 72 35 73 36 74 59 75 60 76 68 77 61 78 67 79 62 80 63 81
REMARK SMILES IDX 64 82 65 83 66 84 45 85 46 86 54 87 47 88 53 89 48 90 49 91
REMARK SMILES IDX 50 92 51 93 52 94
REMARK H PARENT 10 8 85 19 85 20 7 24 7 25 7 26 17 31 73 50 43 61
REMARK Flexibility Score: inf
ROOT
ATOM      1  C   UNL A   1      32.650  29.272  24.976  1.00  0.00     0.002 C 
ENDROOT
BRANCH   1   2
ATOM      2  C   UNL A   1      31.645  28.510  24.106  1.00  0.00     0.002 C 
BRANCH   2   3
ATOM      3  C   UNL A   1      31.103  27.216  24.722  1.00  0.00     0.021 C 
BRANCH   3   4
ATOM      4  C   UNL A   1      31.923  25.977  24.377  1.00  0.00     0.116 C 
BRANCH   4   5
ATOM      5  N   UNL A   1      32.760  26.215  23.212  1.00  0.00    -0.351 N 
ATOM      6  C   UNL A   1      33.166  25.362  22.226  1.00  0.00     0.283 C 
ATOM      7  O   UNL A   1      33.844  25.842  21.311  1.00  0.00    -0.268 OA
ATOM      8  H   UNL A   1      33.088  27.138  23.120  1.00  0.00     0.163 HD
BRANCH   6   9
ATOM      9  C   UNL A   1      32.849  23.847  22.276  1.00  0.00     0.302 C 
BRANCH   9  10
ATOM     10  C   UNL A   1      33.713  23.013  23.210  1.00  0.00     0.020 A 
ATOM     11  C   UNL A   1      34.165  20.943  24.499  1.00  0.00    -0.024 A 
ATOM     12  C   UNL A   1      33.380  21.714  23.603  1.00  0.00     0.016 A 
ATOM     13  C   UNL A   1      35.399  21.466  24.941  1.00  0.00     0.038 A 
ATOM     14  C   UNL A   1      35.813  22.732  24.445  1.00  0.00    -0.024 A 
ATOM     15  C   UNL A   1      34.947  23.499  23.636  1.00  0.00     0.016 A 
BRANCH  11  16
ATOM     16  C   UNL A   1      33.518  19.607  24.840  1.00  0.00     0.034 C 
ATOM     17  C   UNL A   1      32.486  18.936  23.951  1.00  0.00     0.009 C 
ENDBRANCH  11  16
BRANCH  13  18
ATOM     18  N   UNL A   1      36.281  20.711  25.709  1.00  0.00    -0.398 N 
ATOM     19  H   UNL A   1      35.940  20.168  26.457  1.00  0.00     0.156 HD
ATOM     20  H   UNL A   1      37.244  20.722  25.506  1.00  0.00     0.156 HD
ENDBRANCH  13  18
BRANCH  14  21
ATOM     21  C   UNL A   1      37.179  23.341  24.707  1.00  0.00     0.034 C 
ATOM     22  C   UNL A   1      37.266  23.938  26.109  1.00  0.00     0.009 C 
ENDBRANCH  14  21
ENDBRANCH   9  10
BRANCH   9  23
ATOM     23  N   UNL A   1      32.796  23.310  20.894  1.00  0.00    -0.343 N 
ATOM     24  H   UNL A   1      33.661  23.541  20.407  1.00  0.00     0.345 HD
ATOM     25  H   UNL A   1      32.005  23.724  20.400  1.00  0.00     0.345 HD
ATOM     26  H   UNL A   1      32.684  22.297  20.928  1.00  0.00     0.345 HD
ENDBRANCH   9  23
ENDBRANCH   6   9
ENDBRANCH   4   5
ENDBRANCH   3   4
ENDBRANCH   2   3
ENDBRANCH   1   2
BRANCH   1  27
ATOM     27  C   UNL A   1      33.649  28.390  25.728  1.00  0.00     0.021 C 
BRANCH  27  28
ATOM     28  C   UNL A   1      33.631  28.564  27.243  1.00  0.00     0.116 C 
BRANCH  28  29
ATOM     29  N   UNL A   1      33.523  29.960  27.633  1.00  0.00    -0.352 N 
ATOM     30  C   UNL A   1      34.437  30.749  28.286  1.00  0.00     0.251 C 
ATOM     31  H   UNL A   1      32.676  30.402  27.396  1.00  0.00     0.163 HD
ATOM     32  O   UNL A   1      34.105  31.854  28.708  1.00  0.00    -0.269 OA
BRANCH  30  33
ATOM     33  C   UNL A   1      35.812  30.251  28.495  1.00  0.00     0.039 A 
ATOM     34  C   UNL A   1      36.730  30.338  27.447  1.00  0.00     0.014 A 
ATOM     35  C   UNL A   1      36.195  29.708  29.725  1.00  0.00     0.014 A 
ATOM     36  C   UNL A   1      38.050  29.931  27.651  1.00  0.00     0.010 A 
ATOM     37  C   UNL A   1      37.528  29.377  29.950  1.00  0.00     0.010 A 
ATOM     38  C   UNL A   1      38.468  29.480  28.914  1.00  0.00    -0.014 A 
BRANCH  38  39
ATOM     39  C   UNL A   1      39.884  29.115  29.169  1.00  0.00     0.031 A 
ATOM     40  C   UNL A   1      40.837  30.129  29.744  1.00  0.00     0.074 A 
ATOM     41  C   UNL A   1      40.327  27.888  28.829  1.00  0.00     0.049 A 
ATOM     42  N   UNL A   1      42.117  30.008  29.992  1.00  0.00    -0.248 NA
ATOM     43  C   UNL A   1      40.288  31.458  30.060  1.00  0.00     0.031 C 
ATOM     44  C   UNL A   1      39.512  26.829  28.229  1.00  0.00     0.029 A 
ATOM     45  N   UNL A   1      41.573  27.322  28.937  1.00  0.00    -0.354 N 
ATOM     46  C   UNL A   1      42.525  31.245  30.480  1.00  0.00     0.074 A 
ATOM     47  C   UNL A   1      41.372  32.117  30.439  1.00  0.00     0.031 C 
ATOM     48  C   UNL A   1      40.270  25.736  28.050  1.00  0.00     0.029 A 
ATOM     49  C   UNL A   1      41.635  26.027  28.479  1.00  0.00     0.049 A 
ATOM     50  H   UNL A   1      42.351  27.800  29.308  1.00  0.00     0.167 HD
ATOM     51  C   UNL A   1      43.745  31.616  30.938  1.00  0.00     0.031 A 
ATOM     52  C   UNL A   1      42.672  25.172  28.402  1.00  0.00     0.031 A 
ATOM     53  C   UNL A   1      44.888  30.743  30.978  1.00  0.00     0.049 A 
ATOM     54  C   UNL A   1      44.023  25.615  28.894  1.00  0.00     0.074 A 
ATOM     55  C   UNL A   1      46.154  31.008  31.471  1.00  0.00     0.029 A 
ATOM     56  N   UNL A   1      44.910  29.440  30.503  1.00  0.00    -0.354 N 
ATOM     57  N   UNL A   1      44.373  26.766  29.415  1.00  0.00    -0.248 NA
ATOM     58  C   UNL A   1      45.117  24.638  28.800  1.00  0.00     0.031 C 
ATOM     59  C   UNL A   1      46.956  29.886  31.238  1.00  0.00     0.029 A 
ATOM     60  C   UNL A   1      46.174  28.898  30.664  1.00  0.00     0.049 A 
ATOM     61  H   UNL A   1      44.139  28.970  30.110  1.00  0.00     0.167 HD
ATOM     62  C   UNL A   1      45.721  26.643  29.737  1.00  0.00     0.074 A 
ATOM     63  C   UNL A   1      46.117  25.299  29.368  1.00  0.00     0.031 C 
ATOM     64  C   UNL A   1      46.555  27.559  30.290  1.00  0.00     0.031 A 
BRANCH  51  65
ATOM     65  C   UNL A   1      43.907  33.033  31.424  1.00  0.00    -0.014 A 
ATOM     66  C   UNL A   1      44.322  34.059  30.556  1.00  0.00     0.010 A 
ATOM     67  C   UNL A   1      43.600  33.354  32.759  1.00  0.00     0.010 A 
ATOM     68  C   UNL A   1      44.468  35.368  31.022  1.00  0.00     0.020 A 
ATOM     69  C   UNL A   1      43.712  34.668  33.223  1.00  0.00     0.020 A 
ATOM     70  C   UNL A   1      44.163  35.664  32.354  1.00  0.00     0.054 A 
BRANCH  70  71
ATOM     71  S   UNL A   1      44.340  37.376  32.925  1.00  0.00     0.124 S 
ATOM     72  O   UNL A   1      43.282  37.471  33.927  1.00  0.00    -0.237 OA
ATOM     73  O   UNL A   1      45.704  37.400  33.447  1.00  0.00    -0.237 OA
ATOM     74  O   UNL A   1      44.125  38.169  31.717  1.00  0.00    -0.744 OA
ENDBRANCH  70  71
ENDBRANCH  51  65
BRANCH  52  75
ATOM     75  C   UNL A   1      42.471  23.805  27.844  1.00  0.00    -0.014 A 
ATOM     76  C   UNL A   1      42.594  23.569  26.464  1.00  0.00     0.010 A 
ATOM     77  C   UNL A   1      42.165  22.727  28.696  1.00  0.00     0.010 A 
ATOM     78  C   UNL A   1      42.395  22.286  25.943  1.00  0.00     0.020 A 
ATOM     79  C   UNL A   1      41.997  21.439  28.184  1.00  0.00     0.020 A 
ATOM     80  C   UNL A   1      42.101  21.228  26.808  1.00  0.00     0.054 A 
BRANCH  80  81
ATOM     81  S   UNL A   1      41.895  19.564  26.116  1.00  0.00     0.124 S 
ATOM     82  O   UNL A   1      42.314  18.717  27.228  1.00  0.00    -0.237 OA
ATOM     83  O   UNL A   1      40.470  19.531  25.795  1.00  0.00    -0.237 OA
ATOM     84  O   UNL A   1      42.786  19.564  24.957  1.00  0.00    -0.744 OA
ENDBRANCH  80  81
ENDBRANCH  52  75
BRANCH  64  85
ATOM     85  C   UNL A   1      47.972  27.131  30.565  1.00  0.00    -0.014 A 
ATOM     86  C   UNL A   1      48.988  27.302  29.608  1.00  0.00     0.010 A 
ATOM     87  C   UNL A   1      48.301  26.599  31.826  1.00  0.00     0.010 A 
ATOM     88  C   UNL A   1      50.301  26.918  29.896  1.00  0.00     0.020 A 
ATOM     89  C   UNL A   1      49.619  26.244  32.129  1.00  0.00     0.020 A 
ATOM     90  C   UNL A   1      50.608  26.393  31.156  1.00  0.00     0.054 A 
BRANCH  90  91
ATOM     91  S   UNL A   1      52.328  25.944  31.518  1.00  0.00     0.124 S 
ATOM     92  O   UNL A   1      52.685  26.916  32.547  1.00  0.00    -0.237 OA
ATOM     93  O   UNL A   1      52.208  24.562  31.973  1.00  0.00    -0.237 OA
ATOM     94  O   UNL A   1      53.008  26.116  30.236  1.00  0.00    -0.744 OA
ENDBRANCH  90  91
ENDBRANCH  64  85
ENDBRANCH  38  39
ENDBRANCH  30  33
ENDBRANCH  28  29
ENDBRANCH  27  28
ENDBRANCH   1  27
TORSDOF 21
ENDMDL
