MODEL 1
REMARK VINA RESULT:     -11.5      0.000      0.000
REMARK SMILES O=C(/C=C/c1ccc(Br)cc1-n1ccnc1)NCCCCCCNC(=O)c1ccc(-c2c3nc(c(-c4ccc(S(=O)(=O)[O-])cc4)c4ccc([nH]4)c(-c4ccc(S(=O)(=O)[O-])cc4)c4nc(c(-c5ccc(S(=O)(=O)[O-])cc5)c5ccc2[nH]5)C=C4)C=C3)cc1
REMARK SMILES IDX 21 1 20 2 19 3 18 4 17 5 1 6 2 7 3 9 4 10 5 11 6 12 11 13
REMARK SMILES IDX 7 14 10 15 8 16 9 17 12 18 13 19 16 20 14 21 15 22 22 23
REMARK SMILES IDX 23 24 24 25 25 26 26 28 27 29 28 30 86 31 29 32 85 33 30 34
REMARK SMILES IDX 31 35 32 36 79 37 33 38 84 39 78 40 80 41 34 42 83 43 77 44
REMARK SMILES IDX 76 45 35 47 65 48 46 49 64 50 47 51 50 52 63 53 81 54 48 55
REMARK SMILES IDX 49 56 62 58 82 59 51 60 36 61 37 62 45 63 38 64 44 65 39 66
REMARK SMILES IDX 40 67 41 68 42 69 43 70 66 71 67 72 75 73 68 74 74 75 69 76
REMARK SMILES IDX 70 77 71 78 72 79 73 80 52 81 53 82 61 83 54 84 60 85 55 86
REMARK SMILES IDX 56 87 57 88 58 89 59 90
REMARK H PARENT 17 8 24 27 80 46 50 57
REMARK Flexibility Score: inf
ROOT
ATOM      1  C   UNL A   1      38.238  23.603  26.301  1.00  0.00     0.002 C 
ENDROOT
BRANCH   1   2
ATOM      2  C   UNL A   1      37.088  23.773  25.295  1.00  0.00     0.002 C 
BRANCH   2   3
ATOM      3  C   UNL A   1      35.670  23.512  25.822  1.00  0.00     0.021 C 
BRANCH   3   4
ATOM      4  C   UNL A   1      34.620  23.227  24.747  1.00  0.00     0.116 C 
BRANCH   4   5
ATOM      5  N   UNL A   1      33.774  24.381  24.516  1.00  0.00    -0.353 N 
ATOM      6  O   UNL A   1      33.764  24.251  22.226  1.00  0.00    -0.270 OA
ATOM      7  C   UNL A   1      33.471  24.833  23.263  1.00  0.00     0.244 C 
ATOM      8  H   UNL A   1      33.403  24.858  25.294  1.00  0.00     0.163 HD
BRANCH   7   9
ATOM      9  C   UNL A   1      32.730  26.121  23.180  1.00  0.00     0.072 C 
ATOM     10  C   UNL A   1      31.546  26.415  23.740  1.00  0.00     0.016 C 
BRANCH  10  11
ATOM     11  C   UNL A   1      30.920  27.745  23.624  1.00  0.00    -0.001 A 
ATOM     12  C   UNL A   1      29.883  27.908  22.684  1.00  0.00     0.011 A 
ATOM     13  C   UNL A   1      31.197  28.814  24.503  1.00  0.00     0.055 A 
ATOM     14  C   UNL A   1      29.173  29.107  22.587  1.00  0.00     0.016 A 
ATOM     15  C   UNL A   1      30.462  30.013  24.418  1.00  0.00     0.043 A 
ATOM     16  C   UNL A   1      29.471  30.155  23.449  1.00  0.00     0.020 A 
ATOM     17  Br  UNL A   1      28.535  31.790  23.294  1.00  0.00    -0.051 Br
BRANCH  13  18
ATOM     18  N   UNL A   1      32.224  28.749  25.480  1.00  0.00    -0.306 N 
ATOM     19  C   UNL A   1      33.564  29.013  25.319  1.00  0.00     0.113 A 
ATOM     20  C   UNL A   1      32.059  28.439  26.812  1.00  0.00     0.204 A 
ATOM     21  C   UNL A   1      34.131  28.851  26.562  1.00  0.00     0.131 A 
ATOM     22  N   UNL A   1      33.190  28.474  27.479  1.00  0.00    -0.245 NA
ENDBRANCH  13  18
ENDBRANCH  10  11
ENDBRANCH   7   9
ENDBRANCH   4   5
ENDBRANCH   3   4
ENDBRANCH   2   3
ENDBRANCH   1   2
BRANCH   1  23
ATOM     23  C   UNL A   1      39.014  22.279  26.255  1.00  0.00     0.021 C 
BRANCH  23  24
ATOM     24  C   UNL A   1      40.236  22.236  27.158  1.00  0.00     0.116 C 
BRANCH  24  25
ATOM     25  N   UNL A   1      41.500  22.044  26.433  1.00  0.00    -0.352 N 
ATOM     26  C   UNL A   1      42.298  23.011  25.826  1.00  0.00     0.251 C 
ATOM     27  H   UNL A   1      41.824  21.117  26.370  1.00  0.00     0.163 HD
ATOM     28  O   UNL A   1      43.087  22.720  24.944  1.00  0.00    -0.269 OA
BRANCH  26  29
ATOM     29  C   UNL A   1      42.168  24.403  26.301  1.00  0.00     0.039 A 
ATOM     30  C   UNL A   1      41.344  25.360  25.703  1.00  0.00     0.014 A 
ATOM     31  C   UNL A   1      42.885  24.708  27.447  1.00  0.00     0.014 A 
ATOM     32  C   UNL A   1      41.214  26.603  26.327  1.00  0.00     0.010 A 
ATOM     33  C   UNL A   1      42.506  25.774  28.200  1.00  0.00     0.010 A 
ATOM     34  C   UNL A   1      41.800  26.791  27.588  1.00  0.00    -0.014 A 
BRANCH  34  35
ATOM     35  C   UNL A   1      41.690  28.020  28.355  1.00  0.00     0.031 A 
ATOM     36  C   UNL A   1      42.739  29.023  28.065  1.00  0.00     0.074 A 
ATOM     37  C   UNL A   1      40.571  28.328  29.052  1.00  0.00     0.049 A 
ATOM     38  N   UNL A   1      43.718  29.370  28.829  1.00  0.00    -0.248 NA
ATOM     39  C   UNL A   1      42.805  29.597  26.711  1.00  0.00     0.031 C 
ATOM     40  C   UNL A   1      39.299  27.589  29.142  1.00  0.00     0.029 A 
ATOM     41  N   UNL A   1      40.282  29.467  29.726  1.00  0.00    -0.354 N 
ATOM     42  C   UNL A   1      44.385  30.383  28.152  1.00  0.00     0.074 A 
ATOM     43  C   UNL A   1      43.922  30.325  26.788  1.00  0.00     0.031 C 
ATOM     44  C   UNL A   1      38.324  28.413  29.586  1.00  0.00     0.029 A 
ATOM     45  C   UNL A   1      38.931  29.668  29.987  1.00  0.00     0.049 A 
ATOM     46  H   UNL A   1      40.976  30.104  30.010  1.00  0.00     0.167 HD
ATOM     47  C   UNL A   1      45.060  31.358  28.824  1.00  0.00     0.031 A 
ATOM     48  C   UNL A   1      38.359  30.806  30.459  1.00  0.00     0.031 A 
ATOM     49  C   UNL A   1      45.195  31.042  30.225  1.00  0.00     0.049 A 
ATOM     50  C   UNL A   1      39.449  31.586  31.104  1.00  0.00     0.074 A 
ATOM     51  C   UNL A   1      45.741  29.986  30.930  1.00  0.00     0.029 A 
ATOM     52  N   UNL A   1      44.324  31.663  31.094  1.00  0.00    -0.354 N 
ATOM     53  N   UNL A   1      40.093  31.168  32.159  1.00  0.00    -0.248 NA
ATOM     54  C   UNL A   1      40.162  32.558  30.286  1.00  0.00     0.031 C 
ATOM     55  C   UNL A   1      44.800  29.723  31.970  1.00  0.00     0.029 A 
ATOM     56  C   UNL A   1      43.792  30.688  31.899  1.00  0.00     0.049 A 
ATOM     57  H   UNL A   1      44.122  32.626  31.130  1.00  0.00     0.167 HD
ATOM     58  C   UNL A   1      41.426  31.468  31.907  1.00  0.00     0.074 A 
ATOM     59  C   UNL A   1      41.395  32.398  30.776  1.00  0.00     0.031 C 
ATOM     60  C   UNL A   1      42.443  30.717  32.432  1.00  0.00     0.031 A 
BRANCH  47  61
ATOM     61  C   UNL A   1      45.234  32.764  28.312  1.00  0.00    -0.014 A 
ATOM     62  C   UNL A   1      46.510  33.356  28.381  1.00  0.00     0.010 A 
ATOM     63  C   UNL A   1      44.146  33.614  28.021  1.00  0.00     0.010 A 
ATOM     64  C   UNL A   1      46.678  34.738  28.236  1.00  0.00     0.020 A 
ATOM     65  C   UNL A   1      44.308  34.987  27.830  1.00  0.00     0.020 A 
ATOM     66  C   UNL A   1      45.571  35.545  27.974  1.00  0.00     0.054 A 
BRANCH  66  67
ATOM     67  S   UNL A   1      45.782  37.340  27.895  1.00  0.00     0.124 S 
ATOM     68  O   UNL A   1      47.004  37.461  27.105  1.00  0.00    -0.237 OA
ATOM     69  O   UNL A   1      44.552  37.765  27.233  1.00  0.00    -0.237 OA
ATOM     70  O   UNL A   1      45.899  37.732  29.297  1.00  0.00    -0.744 OA
ENDBRANCH  66  67
ENDBRANCH  47  61
BRANCH  48  71
ATOM     71  C   UNL A   1      37.050  31.395  30.063  1.00  0.00    -0.014 A 
ATOM     72  C   UNL A   1      36.184  31.969  31.013  1.00  0.00     0.010 A 
ATOM     73  C   UNL A   1      36.773  31.644  28.702  1.00  0.00     0.010 A 
ATOM     74  C   UNL A   1      35.125  32.811  30.619  1.00  0.00     0.020 A 
ATOM     75  C   UNL A   1      35.719  32.476  28.301  1.00  0.00     0.020 A 
ATOM     76  C   UNL A   1      34.914  33.077  29.263  1.00  0.00     0.054 A 
BRANCH  76  77
ATOM     77  S   UNL A   1      33.668  34.308  28.767  1.00  0.00     0.124 S 
ATOM     78  O   UNL A   1      34.491  35.378  28.209  1.00  0.00    -0.237 OA
ATOM     79  O   UNL A   1      32.856  33.569  27.804  1.00  0.00    -0.237 OA
ATOM     80  O   UNL A   1      32.991  34.637  30.020  1.00  0.00    -0.744 OA
ENDBRANCH  76  77
ENDBRANCH  48  71
BRANCH  60  81
ATOM     81  C   UNL A   1      42.121  29.676  33.483  1.00  0.00    -0.014 A 
ATOM     82  C   UNL A   1      41.561  28.412  33.200  1.00  0.00     0.010 A 
ATOM     83  C   UNL A   1      42.569  29.922  34.792  1.00  0.00     0.010 A 
ATOM     84  C   UNL A   1      41.432  27.438  34.205  1.00  0.00     0.020 A 
ATOM     85  C   UNL A   1      42.461  28.953  35.793  1.00  0.00     0.020 A 
ATOM     86  C   UNL A   1      41.883  27.718  35.498  1.00  0.00     0.054 A 
BRANCH  86  87
ATOM     87  S   UNL A   1      41.749  26.449  36.790  1.00  0.00     0.124 S 
ATOM     88  O   UNL A   1      41.887  25.208  36.032  1.00  0.00    -0.237 OA
ATOM     89  O   UNL A   1      42.861  26.769  37.680  1.00  0.00    -0.237 OA
ATOM     90  O   UNL A   1      40.422  26.675  37.365  1.00  0.00    -0.744 OA
ENDBRANCH  86  87
ENDBRANCH  60  81
ENDBRANCH  34  35
ENDBRANCH  26  29
ENDBRANCH  24  25
ENDBRANCH  23  24
ENDBRANCH   1  23
TORSDOF 18
ENDMDL
MODEL 2
REMARK VINA RESULT:     -11.0      1.282      1.993
REMARK SMILES O=C(/C=C/c1ccc(Br)cc1-n1ccnc1)NCCCCCCNC(=O)c1ccc(-c2c3nc(c(-c4ccc(S(=O)(=O)[O-])cc4)c4ccc([nH]4)c(-c4ccc(S(=O)(=O)[O-])cc4)c4nc(c(-c5ccc(S(=O)(=O)[O-])cc5)c5ccc2[nH]5)C=C4)C=C3)cc1
REMARK SMILES IDX 21 1 20 2 19 3 18 4 17 5 1 6 2 7 3 9 4 10 5 11 6 12 11 13
REMARK SMILES IDX 7 14 10 15 8 16 9 17 12 18 13 19 16 20 14 21 15 22 22 23
REMARK SMILES IDX 23 24 24 25 25 26 26 28 27 29 28 30 86 31 29 32 85 33 30 34
REMARK SMILES IDX 31 35 32 36 79 37 33 38 84 39 78 40 80 41 34 42 83 43 77 44
REMARK SMILES IDX 76 45 35 47 65 48 46 49 64 50 47 51 50 52 63 53 81 54 48 55
REMARK SMILES IDX 49 56 62 58 82 59 51 60 36 61 37 62 45 63 38 64 44 65 39 66
REMARK SMILES IDX 40 67 41 68 42 69 43 70 66 71 67 72 75 73 68 74 74 75 69 76
REMARK SMILES IDX 70 77 71 78 72 79 73 80 52 81 53 82 61 83 54 84 60 85 55 86
REMARK SMILES IDX 56 87 57 88 58 89 59 90
REMARK H PARENT 17 8 24 27 80 46 50 57
REMARK Flexibility Score: inf
ROOT
ATOM      1  C   UNL A   1      39.687  21.821  26.520  1.00  0.00     0.002 C 
ENDROOT
BRANCH   1   2
ATOM      2  C   UNL A   1      38.537  22.616  25.880  1.00  0.00     0.002 C 
BRANCH   2   3
ATOM      3  C   UNL A   1      37.638  21.853  24.898  1.00  0.00     0.021 C 
BRANCH   3   4
ATOM      4  C   UNL A   1      36.155  21.816  25.271  1.00  0.00     0.116 C 
BRANCH   4   5
ATOM      5  N   UNL A   1      35.604  23.152  25.375  1.00  0.00    -0.353 N 
ATOM      6  O   UNL A   1      33.779  22.589  26.647  1.00  0.00    -0.270 OA
ATOM      7  C   UNL A   1      34.419  23.413  26.005  1.00  0.00     0.244 C 
ATOM      8  H   UNL A   1      36.102  23.902  24.976  1.00  0.00     0.163 HD
BRANCH   7   9
ATOM      9  C   UNL A   1      33.895  24.801  25.893  1.00  0.00     0.072 C 
ATOM     10  C   UNL A   1      32.626  25.207  26.058  1.00  0.00     0.016 C 
BRANCH  10  11
ATOM     11  C   UNL A   1      32.226  26.623  25.961  1.00  0.00    -0.001 A 
ATOM     12  C   UNL A   1      31.983  27.325  27.157  1.00  0.00     0.011 A 
ATOM     13  C   UNL A   1      32.223  27.349  24.750  1.00  0.00     0.055 A 
ATOM     14  C   UNL A   1      31.700  28.692  27.153  1.00  0.00     0.016 A 
ATOM     15  C   UNL A   1      31.963  28.733  24.752  1.00  0.00     0.043 A 
ATOM     16  C   UNL A   1      31.684  29.388  25.950  1.00  0.00     0.020 A 
ATOM     17  Br  UNL A   1      31.266  31.231  25.939  1.00  0.00    -0.051 Br
BRANCH  13  18
ATOM     18  N   UNL A   1      32.452  26.732  23.492  1.00  0.00    -0.306 N 
ATOM     19  C   UNL A   1      31.606  25.912  22.785  1.00  0.00     0.113 A 
ATOM     20  C   UNL A   1      33.578  26.876  22.711  1.00  0.00     0.204 A 
ATOM     21  C   UNL A   1      32.266  25.610  21.616  1.00  0.00     0.131 A 
ATOM     22  N   UNL A   1      33.500  26.198  21.590  1.00  0.00    -0.245 NA
ENDBRANCH  13  18
ENDBRANCH  10  11
ENDBRANCH   7   9
ENDBRANCH   4   5
ENDBRANCH   3   4
ENDBRANCH   2   3
ENDBRANCH   1   2
BRANCH   1  23
ATOM     23  C   UNL A   1      40.389  22.459  27.728  1.00  0.00     0.021 C 
BRANCH  23  24
ATOM     24  C   UNL A   1      41.851  22.072  27.881  1.00  0.00     0.116 C 
BRANCH  24  25
ATOM     25  N   UNL A   1      42.608  22.112  26.622  1.00  0.00    -0.352 N 
ATOM     26  C   UNL A   1      42.729  23.170  25.725  1.00  0.00     0.251 C 
ATOM     27  H   UNL A   1      43.091  21.288  26.384  1.00  0.00     0.163 HD
ATOM     28  O   UNL A   1      43.040  22.983  24.562  1.00  0.00    -0.269 OA
BRANCH  26  29
ATOM     29  C   UNL A   1      42.486  24.534  26.236  1.00  0.00     0.039 A 
ATOM     30  C   UNL A   1      41.423  25.345  25.828  1.00  0.00     0.014 A 
ATOM     31  C   UNL A   1      43.360  24.962  27.222  1.00  0.00     0.014 A 
ATOM     32  C   UNL A   1      41.232  26.563  26.484  1.00  0.00     0.010 A 
ATOM     33  C   UNL A   1      42.980  25.969  28.051  1.00  0.00     0.010 A 
ATOM     34  C   UNL A   1      42.021  26.858  27.606  1.00  0.00    -0.014 A 
BRANCH  34  35
ATOM     35  C   UNL A   1      41.879  28.068  28.397  1.00  0.00     0.031 A 
ATOM     36  C   UNL A   1      42.930  29.084  28.164  1.00  0.00     0.074 A 
ATOM     37  C   UNL A   1      40.737  28.353  29.067  1.00  0.00     0.049 A 
ATOM     38  N   UNL A   1      43.882  29.418  28.967  1.00  0.00    -0.248 NA
ATOM     39  C   UNL A   1      43.035  29.690  26.826  1.00  0.00     0.031 C 
ATOM     40  C   UNL A   1      39.468  27.605  29.099  1.00  0.00     0.029 A 
ATOM     41  N   UNL A   1      40.420  29.474  29.757  1.00  0.00    -0.354 N 
ATOM     42  C   UNL A   1      44.564  30.450  28.335  1.00  0.00     0.074 A 
ATOM     43  C   UNL A   1      44.144  30.422  26.956  1.00  0.00     0.031 C 
ATOM     44  C   UNL A   1      38.474  28.413  29.531  1.00  0.00     0.029 A 
ATOM     45  C   UNL A   1      39.060  29.661  29.981  1.00  0.00     0.049 A 
ATOM     46  H   UNL A   1      41.100  30.109  30.078  1.00  0.00     0.167 HD
ATOM     47  C   UNL A   1      45.211  31.413  29.050  1.00  0.00     0.031 A 
ATOM     48  C   UNL A   1      38.466  30.784  30.461  1.00  0.00     0.031 A 
ATOM     49  C   UNL A   1      45.304  31.065  30.446  1.00  0.00     0.049 A 
ATOM     50  C   UNL A   1      39.530  31.556  31.157  1.00  0.00     0.074 A 
ATOM     51  C   UNL A   1      45.834  29.996  31.144  1.00  0.00     0.029 A 
ATOM     52  N   UNL A   1      44.403  31.661  31.303  1.00  0.00    -0.354 N 
ATOM     53  N   UNL A   1      40.144  31.116  32.223  1.00  0.00    -0.248 NA
ATOM     54  C   UNL A   1      40.262  32.550  30.385  1.00  0.00     0.031 C 
ATOM     55  C   UNL A   1      44.863  29.703  32.147  1.00  0.00     0.029 A 
ATOM     56  C   UNL A   1      43.852  30.663  32.068  1.00  0.00     0.049 A 
ATOM     57  H   UNL A   1      44.193  32.621  31.354  1.00  0.00     0.167 HD
ATOM     58  C   UNL A   1      41.482  31.429  32.019  1.00  0.00     0.074 A 
ATOM     59  C   UNL A   1      41.480  32.386  30.910  1.00  0.00     0.031 C 
ATOM     60  C   UNL A   1      42.487  30.672  32.558  1.00  0.00     0.031 A 
BRANCH  47  61
ATOM     61  C   UNL A   1      45.392  32.832  28.577  1.00  0.00    -0.014 A 
ATOM     62  C   UNL A   1      46.685  33.389  28.590  1.00  0.00     0.010 A 
ATOM     63  C   UNL A   1      44.312  33.718  28.380  1.00  0.00     0.010 A 
ATOM     64  C   UNL A   1      46.881  34.772  28.482  1.00  0.00     0.020 A 
ATOM     65  C   UNL A   1      44.499  35.092  28.226  1.00  0.00     0.020 A 
ATOM     66  C   UNL A   1      45.782  35.614  28.314  1.00  0.00     0.054 A 
BRANCH  66  67
ATOM     67  S   UNL A   1      46.036  37.405  28.284  1.00  0.00     0.124 S 
ATOM     68  O   UNL A   1      45.367  37.779  27.041  1.00  0.00    -0.237 OA
ATOM     69  O   UNL A   1      45.373  37.830  29.514  1.00  0.00    -0.237 OA
ATOM     70  O   UNL A   1      47.489  37.543  28.283  1.00  0.00    -0.744 OA
ENDBRANCH  66  67
ENDBRANCH  47  61
BRANCH  48  71
ATOM     71  C   UNL A   1      37.166  31.375  30.038  1.00  0.00    -0.014 A 
ATOM     72  C   UNL A   1      36.202  31.783  30.979  1.00  0.00     0.010 A 
ATOM     73  C   UNL A   1      36.986  31.798  28.703  1.00  0.00     0.010 A 
ATOM     74  C   UNL A   1      35.139  32.633  30.613  1.00  0.00     0.020 A 
ATOM     75  C   UNL A   1      35.929  32.639  28.330  1.00  0.00     0.020 A 
ATOM     76  C   UNL A   1      35.023  33.074  29.292  1.00  0.00     0.054 A 
BRANCH  76  77
ATOM     77  S   UNL A   1      33.765  34.316  28.861  1.00  0.00     0.124 S 
ATOM     78  O   UNL A   1      34.572  35.403  28.313  1.00  0.00    -0.237 OA
ATOM     79  O   UNL A   1      32.931  33.603  27.897  1.00  0.00    -0.237 OA
ATOM     80  O   UNL A   1      33.118  34.608  30.139  1.00  0.00    -0.744 OA
ENDBRANCH  76  77
ENDBRANCH  48  71
BRANCH  60  81
ATOM     81  C   UNL A   1      42.138  29.605  33.574  1.00  0.00    -0.014 A 
ATOM     82  C   UNL A   1      41.800  28.277  33.241  1.00  0.00     0.010 A 
ATOM     83  C   UNL A   1      42.336  29.918  34.930  1.00  0.00     0.010 A 
ATOM     84  C   UNL A   1      41.640  27.301  34.240  1.00  0.00     0.020 A 
ATOM     85  C   UNL A   1      42.196  28.949  35.928  1.00  0.00     0.020 A 
ATOM     86  C   UNL A   1      41.838  27.647  35.581  1.00  0.00     0.054 A 
BRANCH  86  87
ATOM     87  S   UNL A   1      41.665  26.380  36.870  1.00  0.00     0.124 S 
ATOM     88  O   UNL A   1      42.899  26.537  37.637  1.00  0.00    -0.237 OA
ATOM     89  O   UNL A   1      40.441  26.780  37.560  1.00  0.00    -0.237 OA
ATOM     90  O   UNL A   1      41.562  25.129  36.118  1.00  0.00    -0.744 OA
ENDBRANCH  86  87
ENDBRANCH  60  81
ENDBRANCH  34  35
ENDBRANCH  26  29
ENDBRANCH  24  25
ENDBRANCH  23  24
ENDBRANCH   1  23
TORSDOF 18
ENDMDL
MODEL 3
REMARK VINA RESULT:     -11.0      2.687      3.906
REMARK SMILES O=C(/C=C/c1ccc(Br)cc1-n1ccnc1)NCCCCCCNC(=O)c1ccc(-c2c3nc(c(-c4ccc(S(=O)(=O)[O-])cc4)c4ccc([nH]4)c(-c4ccc(S(=O)(=O)[O-])cc4)c4nc(c(-c5ccc(S(=O)(=O)[O-])cc5)c5ccc2[nH]5)C=C4)C=C3)cc1
REMARK SMILES IDX 21 1 20 2 19 3 18 4 17 5 1 6 2 7 3 9 4 10 5 11 6 12 11 13
REMARK SMILES IDX 7 14 10 15 8 16 9 17 12 18 13 19 16 20 14 21 15 22 22 23
REMARK SMILES IDX 23 24 24 25 25 26 26 28 27 29 28 30 86 31 29 32 85 33 30 34
REMARK SMILES IDX 31 35 32 36 79 37 33 38 84 39 78 40 80 41 34 42 83 43 77 44
REMARK SMILES IDX 76 45 35 47 65 48 46 49 64 50 47 51 50 52 63 53 81 54 48 55
REMARK SMILES IDX 49 56 62 58 82 59 51 60 36 61 37 62 45 63 38 64 44 65 39 66
REMARK SMILES IDX 40 67 41 68 42 69 43 70 66 71 67 72 75 73 68 74 74 75 69 76
REMARK SMILES IDX 70 77 71 78 72 79 73 80 52 81 53 82 61 83 54 84 60 85 55 86
REMARK SMILES IDX 56 87 57 88 58 89 59 90
REMARK H PARENT 17 8 24 27 80 46 50 57
REMARK Flexibility Score: inf
ROOT
ATOM      1  C   UNL A   1      40.737  19.987  25.947  1.00  0.00     0.002 C 
ENDROOT
BRANCH   1   2
ATOM      2  C   UNL A   1      40.800  21.274  26.786  1.00  0.00     0.002 C 
BRANCH   2   3
ATOM      3  C   UNL A   1      39.729  22.335  26.496  1.00  0.00     0.021 C 
BRANCH   3   4
ATOM      4  C   UNL A   1      38.500  21.827  25.740  1.00  0.00     0.116 C 
BRANCH   4   5
ATOM      5  N   UNL A   1      37.456  22.831  25.694  1.00  0.00    -0.353 N 
ATOM      6  O   UNL A   1      36.653  22.286  23.615  1.00  0.00    -0.270 OA
ATOM      7  C   UNL A   1      36.659  23.016  24.598  1.00  0.00     0.244 C 
ATOM      8  H   UNL A   1      37.315  23.404  26.483  1.00  0.00     0.163 HD
BRANCH   7   9
ATOM      9  C   UNL A   1      35.744  24.188  24.630  1.00  0.00     0.072 C 
ATOM     10  C   UNL A   1      34.420  24.180  24.853  1.00  0.00     0.016 C 
BRANCH  10  11
ATOM     11  C   UNL A   1      33.615  25.414  24.901  1.00  0.00    -0.001 A 
ATOM     12  C   UNL A   1      34.185  26.596  24.391  1.00  0.00     0.011 A 
ATOM     13  C   UNL A   1      32.256  25.442  25.287  1.00  0.00     0.055 A 
ATOM     14  C   UNL A   1      33.450  27.781  24.308  1.00  0.00     0.016 A 
ATOM     15  C   UNL A   1      31.511  26.632  25.176  1.00  0.00     0.043 A 
ATOM     16  C   UNL A   1      32.119  27.794  24.707  1.00  0.00     0.020 A 
ATOM     17  Br  UNL A   1      31.133  29.405  24.628  1.00  0.00    -0.051 Br
BRANCH  13  18
ATOM     18  N   UNL A   1      31.592  24.305  25.816  1.00  0.00    -0.306 N 
ATOM     19  C   UNL A   1      30.832  23.379  25.141  1.00  0.00     0.113 A 
ATOM     20  C   UNL A   1      31.618  23.887  27.128  1.00  0.00     0.204 A 
ATOM     21  C   UNL A   1      30.445  22.453  26.083  1.00  0.00     0.131 A 
ATOM     22  N   UNL A   1      30.923  22.790  27.319  1.00  0.00    -0.245 NA
ENDBRANCH  13  18
ENDBRANCH  10  11
ENDBRANCH   7   9
ENDBRANCH   4   5
ENDBRANCH   3   4
ENDBRANCH   2   3
ENDBRANCH   1   2
BRANCH   1  23
ATOM     23  C   UNL A   1      41.810  18.923  26.220  1.00  0.00     0.021 C 
BRANCH  23  24
ATOM     24  C   UNL A   1      43.180  19.486  26.561  1.00  0.00     0.116 C 
BRANCH  24  25
ATOM     25  N   UNL A   1      44.128  19.456  25.438  1.00  0.00    -0.352 N 
ATOM     26  C   UNL A   1      44.495  20.501  24.595  1.00  0.00     0.251 C 
ATOM     27  H   UNL A   1      44.558  18.588  25.261  1.00  0.00     0.163 HD
ATOM     28  O   UNL A   1      44.967  20.290  23.491  1.00  0.00    -0.269 OA
BRANCH  26  29
ATOM     29  C   UNL A   1      44.311  21.879  25.091  1.00  0.00     0.039 A 
ATOM     30  C   UNL A   1      43.330  22.756  24.619  1.00  0.00     0.014 A 
ATOM     31  C   UNL A   1      45.150  22.254  26.128  1.00  0.00     0.014 A 
ATOM     32  C   UNL A   1      43.179  23.987  25.263  1.00  0.00     0.010 A 
ATOM     33  C   UNL A   1      44.788  23.287  26.933  1.00  0.00     0.010 A 
ATOM     34  C   UNL A   1      43.916  24.234  26.430  1.00  0.00    -0.014 A 
BRANCH  34  35
ATOM     35  C   UNL A   1      43.806  25.454  27.213  1.00  0.00     0.031 A 
ATOM     36  C   UNL A   1      44.784  26.505  26.855  1.00  0.00     0.074 A 
ATOM     37  C   UNL A   1      42.728  25.707  27.992  1.00  0.00     0.049 A 
ATOM     38  N   UNL A   1      45.799  26.894  27.549  1.00  0.00    -0.248 NA
ATOM     39  C   UNL A   1      44.725  27.087  25.504  1.00  0.00     0.031 C 
ATOM     40  C   UNL A   1      41.501  24.909  28.168  1.00  0.00     0.029 A 
ATOM     41  N   UNL A   1      42.437  26.828  28.693  1.00  0.00    -0.354 N 
ATOM     42  C   UNL A   1      46.368  27.939  26.833  1.00  0.00     0.074 A 
ATOM     43  C   UNL A   1      45.810  27.865  25.505  1.00  0.00     0.031 C 
ATOM     44  C   UNL A   1      40.525  25.685  28.688  1.00  0.00     0.029 A 
ATOM     45  C   UNL A   1      41.100  26.965  29.054  1.00  0.00     0.049 A 
ATOM     46  H   UNL A   1      43.120  27.496  28.931  1.00  0.00     0.167 HD
ATOM     47  C   UNL A   1      47.044  28.942  27.460  1.00  0.00     0.031 A 
ATOM     48  C   UNL A   1      40.512  28.073  29.574  1.00  0.00     0.031 A 
ATOM     49  C   UNL A   1      47.296  28.627  28.845  1.00  0.00     0.049 A 
ATOM     50  C   UNL A   1      41.610  28.901  30.143  1.00  0.00     0.074 A 
ATOM     51  C   UNL A   1      47.939  27.595  29.502  1.00  0.00     0.029 A 
ATOM     52  N   UNL A   1      46.463  29.204  29.780  1.00  0.00    -0.354 N 
ATOM     53  N   UNL A   1      42.348  28.508  31.146  1.00  0.00    -0.248 NA
ATOM     54  C   UNL A   1      42.216  29.908  29.283  1.00  0.00     0.031 C 
ATOM     55  C   UNL A   1      47.089  27.284  30.605  1.00  0.00     0.029 A 
ATOM     56  C   UNL A   1      46.036  28.201  30.615  1.00  0.00     0.049 A 
ATOM     57  H   UNL A   1      46.220  30.156  29.838  1.00  0.00     0.167 HD
ATOM     58  C   UNL A   1      43.643  28.871  30.800  1.00  0.00     0.074 A 
ATOM     59  C   UNL A   1      43.487  29.803  29.682  1.00  0.00     0.031 C 
ATOM     60  C   UNL A   1      44.730  28.166  31.244  1.00  0.00     0.031 A 
BRANCH  47  61
ATOM     61  C   UNL A   1      47.116  30.357  26.948  1.00  0.00    -0.014 A 
ATOM     62  C   UNL A   1      48.330  31.060  27.071  1.00  0.00     0.010 A 
ATOM     63  C   UNL A   1      45.971  31.106  26.602  1.00  0.00     0.010 A 
ATOM     64  C   UNL A   1      48.380  32.452  26.925  1.00  0.00     0.020 A 
ATOM     65  C   UNL A   1      46.019  32.486  26.409  1.00  0.00     0.020 A 
ATOM     66  C   UNL A   1      47.219  33.156  26.607  1.00  0.00     0.054 A 
BRANCH  66  67
ATOM     67  S   UNL A   1      47.273  34.962  26.526  1.00  0.00     0.124 S 
ATOM     68  O   UNL A   1      45.869  35.311  26.724  1.00  0.00    -0.237 OA
ATOM     69  O   UNL A   1      48.171  35.293  27.628  1.00  0.00    -0.237 OA
ATOM     70  O   UNL A   1      47.805  35.228  25.192  1.00  0.00    -0.744 OA
ENDBRANCH  66  67
ENDBRANCH  47  61
BRANCH  48  71
ATOM     71  C   UNL A   1      39.153  28.602  29.278  1.00  0.00    -0.014 A 
ATOM     72  C   UNL A   1      38.204  28.805  30.299  1.00  0.00     0.010 A 
ATOM     73  C   UNL A   1      38.879  29.177  28.018  1.00  0.00     0.010 A 
ATOM     74  C   UNL A   1      37.062  29.602  30.085  1.00  0.00     0.020 A 
ATOM     75  C   UNL A   1      37.743  29.967  27.796  1.00  0.00     0.020 A 
ATOM     76  C   UNL A   1      36.851  30.198  28.838  1.00  0.00     0.054 A 
BRANCH  76  77
ATOM     77  S   UNL A   1      35.481  31.375  28.619  1.00  0.00     0.124 S 
ATOM     78  O   UNL A   1      36.104  32.438  27.835  1.00  0.00    -0.237 OA
ATOM     79  O   UNL A   1      34.483  30.574  27.915  1.00  0.00    -0.237 OA
ATOM     80  O   UNL A   1      35.122  31.744  29.987  1.00  0.00    -0.744 OA
ENDBRANCH  76  77
ENDBRANCH  48  71
BRANCH  60  81
ATOM     81  C   UNL A   1      44.533  27.106  32.309  1.00  0.00    -0.014 A 
ATOM     82  C   UNL A   1      44.294  27.388  33.670  1.00  0.00     0.010 A 
ATOM     83  C   UNL A   1      44.408  25.775  31.876  1.00  0.00     0.010 A 
ATOM     84  C   UNL A   1      43.966  26.362  34.573  1.00  0.00     0.020 A 
ATOM     85  C   UNL A   1      44.065  24.751  32.764  1.00  0.00     0.020 A 
ATOM     86  C   UNL A   1      43.856  25.047  34.111  1.00  0.00     0.054 A 
BRANCH  86  87
ATOM     87  S   UNL A   1      43.399  23.724  35.268  1.00  0.00     0.124 S 
ATOM     88  O   UNL A   1      44.126  24.097  36.479  1.00  0.00    -0.237 OA
ATOM     89  O   UNL A   1      41.946  23.843  35.344  1.00  0.00    -0.237 OA
ATOM     90  O   UNL A   1      43.878  22.506  34.612  1.00  0.00    -0.744 OA
ENDBRANCH  86  87
ENDBRANCH  60  81
ENDBRANCH  34  35
ENDBRANCH  26  29
ENDBRANCH  24  25
ENDBRANCH  23  24
ENDBRANCH   1  23
TORSDOF 18
ENDMDL
