MODEL 1
REMARK VINA RESULT:     -10.4      0.000      0.000
REMARK SMILES O=C(COc1ccccc1/C=N/NC(=O)C1CC1)NCCCCCCNC(=O)c1ccc(-c2c3nc(c(-c4ccc(S(=O)(=O)[O-])cc4)c4ccc([nH]4)c(-c4ccc(S(=O)(=O)[O-])cc4)c4nc(c(-c5ccc(S(=O)(=O)[O-])cc5)c5ccc2[nH]5)C=C4)C=C3)cc1
REMARK SMILES IDX 21 1 20 2 19 3 1 4 2 5 3 7 4 8 5 9 6 10 10 11 7 12 9 13 8 14
REMARK SMILES IDX 11 15 12 16 13 17 14 18 15 20 16 21 17 22 18 23 22 24 23 25
REMARK SMILES IDX 24 26 25 27 26 28 27 29 28 31 29 32 30 33 88 34 31 35 87 36
REMARK SMILES IDX 32 37 33 38 34 39 81 40 35 41 86 42 80 43 82 44 36 45 85 46
REMARK SMILES IDX 79 47 78 48 37 50 67 51 48 52 66 53 49 54 52 55 65 56 83 57
REMARK SMILES IDX 50 58 51 59 64 61 84 62 53 63 38 64 39 65 47 66 40 67 46 68
REMARK SMILES IDX 41 69 42 70 43 71 44 72 45 73 68 74 69 75 77 76 70 77 76 78
REMARK SMILES IDX 71 79 72 80 73 81 74 82 75 83 54 84 55 85 63 86 56 87 62 88
REMARK SMILES IDX 57 89 58 90 59 91 60 92 61 93
REMARK H PARENT 19 6 13 19 26 30 82 49 52 60
REMARK Flexibility Score: inf
ROOT
ATOM      1  C   UNL A   1      35.605  32.698  27.864  1.00  0.00     0.021 C 
ENDROOT
BRANCH   1   2
ATOM      2  C   UNL A   1      34.185  32.330  28.235  1.00  0.00     0.116 C 
BRANCH   2   3
ATOM      3  N   UNL A   1      33.857  30.928  28.149  1.00  0.00    -0.353 N 
ATOM      4  O   UNL A   1      31.906  30.862  26.894  1.00  0.00    -0.271 OA
ATOM      5  C   UNL A   1      33.020  30.424  27.160  1.00  0.00     0.257 C 
ATOM      6  H   UNL A   1      34.238  30.309  28.812  1.00  0.00     0.163 HD
BRANCH   5   7
ATOM      7  C   UNL A   1      33.627  29.227  26.441  1.00  0.00     0.329 C 
BRANCH   7   8
ATOM      8  O   UNL A   1      32.640  28.798  25.496  1.00  0.00    -0.483 OA
BRANCH   8   9
ATOM      9  C   UNL A   1      32.864  27.565  24.957  1.00  0.00     0.128 A 
ATOM     10  C   UNL A   1      33.536  26.659  25.787  1.00  0.00     0.047 A 
ATOM     11  C   UNL A   1      32.756  27.304  23.586  1.00  0.00     0.037 A 
ATOM     12  C   UNL A   1      34.137  25.521  25.249  1.00  0.00     0.004 A 
ATOM     13  C   UNL A   1      33.398  26.179  23.050  1.00  0.00     0.013 A 
ATOM     14  C   UNL A   1      34.091  25.295  23.877  1.00  0.00     0.001 A 
BRANCH  11  15
ATOM     15  C   UNL A   1      32.050  28.114  22.572  1.00  0.00     0.145 C 
ATOM     16  N   UNL A   1      31.421  29.225  22.820  1.00  0.00    -0.181 NA
BRANCH  16  17
ATOM     17  N   UNL A   1      30.601  29.616  21.779  1.00  0.00    -0.247 N 
ATOM     18  C   UNL A   1      29.324  30.134  21.900  1.00  0.00     0.243 C 
ATOM     19  H   UNL A   1      30.958  29.518  20.867  1.00  0.00     0.193 HD
ATOM     20  O   UNL A   1      28.627  30.318  20.905  1.00  0.00    -0.273 OA
BRANCH  18  21
ATOM     21  C   UNL A   1      28.852  30.536  23.244  1.00  0.00     0.080 C 
ATOM     22  C   UNL A   1      29.008  31.950  23.759  1.00  0.00     0.014 C 
ATOM     23  C   UNL A   1      27.644  31.410  23.434  1.00  0.00     0.014 C 
ENDBRANCH  18  21
ENDBRANCH  16  17
ENDBRANCH  11  15
ENDBRANCH   8   9
ENDBRANCH   7   8
ENDBRANCH   5   7
ENDBRANCH   2   3
ENDBRANCH   1   2
BRANCH   1  24
ATOM     24  C   UNL A   1      36.256  33.637  28.873  1.00  0.00     0.002 C 
BRANCH  24  25
ATOM     25  C   UNL A   1      37.529  33.091  29.532  1.00  0.00     0.002 C 
BRANCH  25  26
ATOM     26  C   UNL A   1      37.352  32.546  30.954  1.00  0.00     0.021 C 
BRANCH  26  27
ATOM     27  C   UNL A   1      37.669  31.061  31.112  1.00  0.00     0.116 C 
BRANCH  27  28
ATOM     28  N   UNL A   1      36.785  30.232  30.305  1.00  0.00    -0.352 N 
ATOM     29  C   UNL A   1      37.064  29.466  29.204  1.00  0.00     0.251 C 
ATOM     30  H   UNL A   1      35.844  30.222  30.593  1.00  0.00     0.163 HD
ATOM     31  O   UNL A   1      36.151  29.035  28.505  1.00  0.00    -0.269 OA
BRANCH  29  32
ATOM     32  C   UNL A   1      38.467  29.168  28.860  1.00  0.00     0.039 A 
ATOM     33  C   UNL A   1      38.952  29.540  27.605  1.00  0.00     0.014 A 
ATOM     34  C   UNL A   1      39.295  28.512  29.776  1.00  0.00     0.014 A 
ATOM     35  C   UNL A   1      40.290  29.306  27.288  1.00  0.00     0.010 A 
ATOM     36  C   UNL A   1      40.643  28.336  29.482  1.00  0.00     0.010 A 
ATOM     37  C   UNL A   1      41.153  28.733  28.237  1.00  0.00    -0.014 A 
BRANCH  37  38
ATOM     38  C   UNL A   1      42.599  28.560  27.956  1.00  0.00     0.031 A 
ATOM     39  C   UNL A   1      43.546  29.715  28.126  1.00  0.00     0.074 A 
ATOM     40  C   UNL A   1      43.040  27.385  27.467  1.00  0.00     0.049 A 
ATOM     41  N   UNL A   1      44.826  29.775  27.861  1.00  0.00    -0.248 NA
ATOM     42  C   UNL A   1      42.975  30.971  28.636  1.00  0.00     0.031 C 
ATOM     43  C   UNL A   1      42.204  26.209  27.212  1.00  0.00     0.029 A 
ATOM     44  N   UNL A   1      44.295  26.992  27.081  1.00  0.00    -0.354 N 
ATOM     45  C   UNL A   1      45.212  31.075  28.161  1.00  0.00     0.074 A 
ATOM     46  C   UNL A   1      44.021  31.783  28.579  1.00  0.00     0.031 C 
ATOM     47  C   UNL A   1      42.972  25.226  26.718  1.00  0.00     0.029 A 
ATOM     48  C   UNL A   1      44.342  25.710  26.588  1.00  0.00     0.049 A 
ATOM     49  H   UNL A   1      45.088  27.572  27.151  1.00  0.00     0.167 HD
ATOM     50  C   UNL A   1      46.449  31.626  28.109  1.00  0.00     0.031 A 
ATOM     51  C   UNL A   1      45.368  25.007  26.070  1.00  0.00     0.031 A 
ATOM     52  C   UNL A   1      47.627  30.918  27.682  1.00  0.00     0.049 A 
ATOM     53  C   UNL A   1      46.730  25.637  26.010  1.00  0.00     0.074 A 
ATOM     54  C   UNL A   1      48.934  31.366  27.641  1.00  0.00     0.029 A 
ATOM     55  N   UNL A   1      47.637  29.613  27.208  1.00  0.00    -0.354 N 
ATOM     56  N   UNL A   1      47.093  26.845  26.371  1.00  0.00    -0.248 NA
ATOM     57  C   UNL A   1      47.822  24.810  25.482  1.00  0.00     0.031 C 
ATOM     58  C   UNL A   1      49.729  30.351  27.095  1.00  0.00     0.029 A 
ATOM     59  C   UNL A   1      48.924  29.249  26.847  1.00  0.00     0.049 A 
ATOM     60  H   UNL A   1      46.846  29.031  27.139  1.00  0.00     0.167 HD
ATOM     61  C   UNL A   1      48.459  26.920  26.126  1.00  0.00     0.074 A 
ATOM     62  C   UNL A   1      48.860  25.628  25.605  1.00  0.00     0.031 C 
ATOM     63  C   UNL A   1      49.303  27.964  26.315  1.00  0.00     0.031 A 
BRANCH  50  64
ATOM     64  C   UNL A   1      46.577  33.071  28.515  1.00  0.00    -0.014 A 
ATOM     65  C   UNL A   1      46.834  33.429  29.852  1.00  0.00     0.010 A 
ATOM     66  C   UNL A   1      46.439  34.086  27.552  1.00  0.00     0.010 A 
ATOM     67  C   UNL A   1      46.891  34.773  30.228  1.00  0.00     0.020 A 
ATOM     68  C   UNL A   1      46.527  35.433  27.919  1.00  0.00     0.020 A 
ATOM     69  C   UNL A   1      46.727  35.768  29.259  1.00  0.00     0.054 A 
BRANCH  69  70
ATOM     70  S   UNL A   1      46.793  37.504  29.777  1.00  0.00     0.124 S 
ATOM     71  O   UNL A   1      48.229  37.713  29.948  1.00  0.00    -0.237 OA
ATOM     72  O   UNL A   1      46.189  38.202  28.645  1.00  0.00    -0.237 OA
ATOM     73  O   UNL A   1      46.010  37.529  31.009  1.00  0.00    -0.744 OA
ENDBRANCH  69  70
ENDBRANCH  50  64
BRANCH  51  74
ATOM     74  C   UNL A   1      45.128  23.626  25.575  1.00  0.00    -0.014 A 
ATOM     75  C   UNL A   1      44.822  23.391  24.223  1.00  0.00     0.010 A 
ATOM     76  C   UNL A   1      45.266  22.528  26.447  1.00  0.00     0.010 A 
ATOM     77  C   UNL A   1      44.660  22.084  23.752  1.00  0.00     0.020 A 
ATOM     78  C   UNL A   1      45.129  21.221  25.973  1.00  0.00     0.020 A 
ATOM     79  C   UNL A   1      44.824  21.007  24.628  1.00  0.00     0.054 A 
BRANCH  79  80
ATOM     80  S   UNL A   1      44.700  19.319  23.975  1.00  0.00     0.124 S 
ATOM     81  O   UNL A   1      45.988  18.749  24.358  1.00  0.00    -0.237 OA
ATOM     82  O   UNL A   1      43.536  18.791  24.683  1.00  0.00    -0.237 OA
ATOM     83  O   UNL A   1      44.505  19.520  22.540  1.00  0.00    -0.744 OA
ENDBRANCH  79  80
ENDBRANCH  51  74
BRANCH  63  84
ATOM     84  C   UNL A   1      50.751  27.753  25.962  1.00  0.00    -0.014 A 
ATOM     85  C   UNL A   1      51.648  27.193  26.890  1.00  0.00     0.010 A 
ATOM     86  C   UNL A   1      51.206  28.061  24.668  1.00  0.00     0.010 A 
ATOM     87  C   UNL A   1      52.980  26.967  26.534  1.00  0.00     0.020 A 
ATOM     88  C   UNL A   1      52.531  27.811  24.301  1.00  0.00     0.020 A 
ATOM     89  C   UNL A   1      53.413  27.276  25.241  1.00  0.00     0.054 A 
BRANCH  89  90
ATOM     90  S   UNL A   1      55.134  26.923  24.789  1.00  0.00     0.124 S 
ATOM     91  O   UNL A   1      55.149  25.464  24.764  1.00  0.00    -0.237 OA
ATOM     92  O   UNL A   1      55.265  27.576  23.489  1.00  0.00    -0.237 OA
ATOM     93  O   UNL A   1      55.907  27.537  25.867  1.00  0.00    -0.744 OA
ENDBRANCH  89  90
ENDBRANCH  63  84
ENDBRANCH  37  38
ENDBRANCH  29  32
ENDBRANCH  27  28
ENDBRANCH  26  27
ENDBRANCH  25  26
ENDBRANCH  24  25
ENDBRANCH   1  24
TORSDOF 21
ENDMDL
MODEL 2
REMARK VINA RESULT:     -10.1      6.884     13.164
REMARK SMILES O=C(COc1ccccc1/C=N/NC(=O)C1CC1)NCCCCCCNC(=O)c1ccc(-c2c3nc(c(-c4ccc(S(=O)(=O)[O-])cc4)c4ccc([nH]4)c(-c4ccc(S(=O)(=O)[O-])cc4)c4nc(c(-c5ccc(S(=O)(=O)[O-])cc5)c5ccc2[nH]5)C=C4)C=C3)cc1
REMARK SMILES IDX 21 1 20 2 19 3 1 4 2 5 3 7 4 8 5 9 6 10 10 11 7 12 9 13 8 14
REMARK SMILES IDX 11 15 12 16 13 17 14 18 15 20 16 21 17 22 18 23 22 24 23 25
REMARK SMILES IDX 24 26 25 27 26 28 27 29 28 31 29 32 30 33 88 34 31 35 87 36
REMARK SMILES IDX 32 37 33 38 34 39 81 40 35 41 86 42 80 43 82 44 36 45 85 46
REMARK SMILES IDX 79 47 78 48 37 50 67 51 48 52 66 53 49 54 52 55 65 56 83 57
REMARK SMILES IDX 50 58 51 59 64 61 84 62 53 63 38 64 39 65 47 66 40 67 46 68
REMARK SMILES IDX 41 69 42 70 43 71 44 72 45 73 68 74 69 75 77 76 70 77 76 78
REMARK SMILES IDX 71 79 72 80 73 81 74 82 75 83 54 84 55 85 63 86 56 87 62 88
REMARK SMILES IDX 57 89 58 90 59 91 60 92 61 93
REMARK H PARENT 19 6 13 19 26 30 82 49 52 60
REMARK Flexibility Score: inf
ROOT
ATOM      1  C   UNL A   1      41.730  20.901  26.198  1.00  0.00     0.021 C 
ENDROOT
BRANCH   1   2
ATOM      2  C   UNL A   1      40.285  21.089  26.605  1.00  0.00     0.116 C 
BRANCH   2   3
ATOM      3  N   UNL A   1      39.482  21.893  25.717  1.00  0.00    -0.353 N 
ATOM      4  O   UNL A   1      37.828  20.451  24.960  1.00  0.00    -0.271 OA
ATOM      5  C   UNL A   1      38.178  21.548  25.383  1.00  0.00     0.257 C 
ATOM      6  H   UNL A   1      39.872  22.712  25.335  1.00  0.00     0.163 HD
BRANCH   5   7
ATOM      7  C   UNL A   1      37.205  22.705  25.574  1.00  0.00     0.329 C 
BRANCH   7   8
ATOM      8  O   UNL A   1      35.966  22.271  25.002  1.00  0.00    -0.483 OA
BRANCH   8   9
ATOM      9  C   UNL A   1      34.925  23.135  25.174  1.00  0.00     0.128 A 
ATOM     10  C   UNL A   1      35.206  24.479  24.899  1.00  0.00     0.047 A 
ATOM     11  C   UNL A   1      33.769  22.799  25.889  1.00  0.00     0.037 A 
ATOM     12  C   UNL A   1      34.366  25.487  25.370  1.00  0.00     0.004 A 
ATOM     13  C   UNL A   1      32.953  23.822  26.393  1.00  0.00     0.013 A 
ATOM     14  C   UNL A   1      33.254  25.160  26.140  1.00  0.00     0.001 A 
BRANCH  11  15
ATOM     15  C   UNL A   1      33.288  21.445  26.230  1.00  0.00     0.145 C 
ATOM     16  N   UNL A   1      33.644  20.356  25.614  1.00  0.00    -0.181 NA
BRANCH  16  17
ATOM     17  N   UNL A   1      32.831  19.281  25.920  1.00  0.00    -0.247 N 
ATOM     18  C   UNL A   1      32.819  18.060  25.270  1.00  0.00     0.243 C 
ATOM     19  H   UNL A   1      32.203  19.394  26.669  1.00  0.00     0.193 HD
ATOM     20  O   UNL A   1      31.959  17.221  25.530  1.00  0.00    -0.273 OA
BRANCH  18  21
ATOM     21  C   UNL A   1      33.911  17.758  24.318  1.00  0.00     0.080 C 
ATOM     22  C   UNL A   1      34.964  16.712  24.610  1.00  0.00     0.014 C 
ATOM     23  C   UNL A   1      33.948  16.480  23.528  1.00  0.00     0.014 C 
ENDBRANCH  18  21
ENDBRANCH  16  17
ENDBRANCH  11  15
ENDBRANCH   8   9
ENDBRANCH   7   8
ENDBRANCH   5   7
ENDBRANCH   2   3
ENDBRANCH   1   2
BRANCH   1  24
ATOM     24  C   UNL A   1      42.685  21.802  26.973  1.00  0.00     0.002 C 
BRANCH  24  25
ATOM     25  C   UNL A   1      43.745  22.504  26.116  1.00  0.00     0.002 C 
BRANCH  25  26
ATOM     26  C   UNL A   1      44.357  23.768  26.731  1.00  0.00     0.021 C 
BRANCH  26  27
ATOM     27  C   UNL A   1      43.740  25.076  26.245  1.00  0.00     0.116 C 
BRANCH  27  28
ATOM     28  N   UNL A   1      42.390  24.879  25.735  1.00  0.00    -0.352 N 
ATOM     29  C   UNL A   1      41.184  25.200  26.300  1.00  0.00     0.251 C 
ATOM     30  H   UNL A   1      42.336  24.448  24.853  1.00  0.00     0.163 HD
ATOM     31  O   UNL A   1      40.145  24.735  25.842  1.00  0.00    -0.269 OA
BRANCH  29  32
ATOM     32  C   UNL A   1      41.143  26.104  27.465  1.00  0.00     0.039 A 
ATOM     33  C   UNL A   1      41.983  27.219  27.489  1.00  0.00     0.014 A 
ATOM     34  C   UNL A   1      40.284  25.839  28.536  1.00  0.00     0.014 A 
ATOM     35  C   UNL A   1      41.918  28.106  28.564  1.00  0.00     0.010 A 
ATOM     36  C   UNL A   1      40.176  26.757  29.576  1.00  0.00     0.010 A 
ATOM     37  C   UNL A   1      40.991  27.898  29.598  1.00  0.00    -0.014 A 
BRANCH  37  38
ATOM     38  C   UNL A   1      40.840  28.877  30.702  1.00  0.00     0.031 A 
ATOM     39  C   UNL A   1      41.672  28.747  31.947  1.00  0.00     0.074 A 
ATOM     40  C   UNL A   1      39.893  29.830  30.613  1.00  0.00     0.049 A 
ATOM     41  N   UNL A   1      41.630  29.461  33.043  1.00  0.00    -0.248 NA
ATOM     42  C   UNL A   1      42.662  27.660  31.973  1.00  0.00     0.031 C 
ATOM     43  C   UNL A   1      38.990  30.021  29.475  1.00  0.00     0.029 A 
ATOM     44  N   UNL A   1      39.519  30.805  31.502  1.00  0.00    -0.354 N 
ATOM     45  C   UNL A   1      42.578  28.905  33.893  1.00  0.00     0.074 A 
ATOM     46  C   UNL A   1      43.142  27.763  33.205  1.00  0.00     0.031 C 
ATOM     47  C   UNL A   1      38.173  31.053  29.733  1.00  0.00     0.029 A 
ATOM     48  C   UNL A   1      38.468  31.574  31.064  1.00  0.00     0.049 A 
ATOM     49  H   UNL A   1      39.963  30.943  32.371  1.00  0.00     0.167 HD
ATOM     50  C   UNL A   1      42.956  29.316  35.127  1.00  0.00     0.031 A 
ATOM     51  C   UNL A   1      37.800  32.573  31.672  1.00  0.00     0.031 A 
ATOM     52  C   UNL A   1      42.381  30.445  35.809  1.00  0.00     0.049 A 
ATOM     53  C   UNL A   1      38.225  33.009  33.045  1.00  0.00     0.074 A 
ATOM     54  C   UNL A   1      42.728  30.977  37.038  1.00  0.00     0.029 A 
ATOM     55  N   UNL A   1      41.331  31.212  35.324  1.00  0.00    -0.354 N 
ATOM     56  N   UNL A   1      39.177  32.519  33.804  1.00  0.00    -0.248 NA
ATOM     57  C   UNL A   1      37.495  34.135  33.641  1.00  0.00     0.031 C 
ATOM     58  C   UNL A   1      41.853  32.033  37.320  1.00  0.00     0.029 A 
ATOM     59  C   UNL A   1      40.997  32.195  36.241  1.00  0.00     0.049 A 
ATOM     60  H   UNL A   1      40.887  31.077  34.455  1.00  0.00     0.167 HD
ATOM     61  C   UNL A   1      39.170  33.285  34.963  1.00  0.00     0.074 A 
ATOM     62  C   UNL A   1      38.132  34.283  34.796  1.00  0.00     0.031 C 
ATOM     63  C   UNL A   1      39.951  33.171  36.066  1.00  0.00     0.031 A 
BRANCH  50  64
ATOM     64  C   UNL A   1      44.034  28.522  35.817  1.00  0.00    -0.014 A 
ATOM     65  C   UNL A   1      43.718  27.393  36.595  1.00  0.00     0.010 A 
ATOM     66  C   UNL A   1      45.381  28.905  35.686  1.00  0.00     0.010 A 
ATOM     67  C   UNL A   1      44.720  26.699  37.278  1.00  0.00     0.020 A 
ATOM     68  C   UNL A   1      46.391  28.195  36.344  1.00  0.00     0.020 A 
ATOM     69  C   UNL A   1      46.050  27.111  37.156  1.00  0.00     0.054 A 
BRANCH  69  70
ATOM     70  S   UNL A   1      47.329  26.201  38.063  1.00  0.00     0.124 S 
ATOM     71  O   UNL A   1      47.655  25.126  37.129  1.00  0.00    -0.237 OA
ATOM     72  O   UNL A   1      48.372  27.207  38.249  1.00  0.00    -0.237 OA
ATOM     73  O   UNL A   1      46.652  25.778  39.286  1.00  0.00    -0.744 OA
ENDBRANCH  69  70
ENDBRANCH  50  64
BRANCH  51  74
ATOM     74  C   UNL A   1      36.662  33.223  30.968  1.00  0.00    -0.014 A 
ATOM     75  C   UNL A   1      35.357  33.139  31.484  1.00  0.00     0.010 A 
ATOM     76  C   UNL A   1      36.891  33.984  29.806  1.00  0.00     0.010 A 
ATOM     77  C   UNL A   1      34.303  33.805  30.852  1.00  0.00     0.020 A 
ATOM     78  C   UNL A   1      35.843  34.670  29.186  1.00  0.00     0.020 A 
ATOM     79  C   UNL A   1      34.554  34.573  29.712  1.00  0.00     0.054 A 
BRANCH  79  80
ATOM     80  S   UNL A   1      33.188  35.503  28.961  1.00  0.00     0.124 S 
ATOM     81  O   UNL A   1      32.581  36.144  30.124  1.00  0.00    -0.237 OA
ATOM     82  O   UNL A   1      33.883  36.394  28.037  1.00  0.00    -0.237 OA
ATOM     83  O   UNL A   1      32.379  34.466  28.323  1.00  0.00    -0.744 OA
ENDBRANCH  79  80
ENDBRANCH  51  74
BRANCH  63  84
ATOM     84  C   UNL A   1      39.719  34.156  37.180  1.00  0.00    -0.014 A 
ATOM     85  C   UNL A   1      38.869  33.845  38.256  1.00  0.00     0.010 A 
ATOM     86  C   UNL A   1      40.408  35.382  37.181  1.00  0.00     0.010 A 
ATOM     87  C   UNL A   1      38.695  34.755  39.303  1.00  0.00     0.020 A 
ATOM     88  C   UNL A   1      40.257  36.282  38.239  1.00  0.00     0.020 A 
ATOM     89  C   UNL A   1      39.392  35.968  39.288  1.00  0.00     0.054 A 
BRANCH  89  90
ATOM     90  S   UNL A   1      39.189  37.107  40.685  1.00  0.00     0.124 S 
ATOM     91  O   UNL A   1      38.324  38.136  40.115  1.00  0.00    -0.237 OA
ATOM     92  O   UNL A   1      38.573  36.261  41.703  1.00  0.00    -0.237 OA
ATOM     93  O   UNL A   1      40.554  37.535  40.983  1.00  0.00    -0.744 OA
ENDBRANCH  89  90
ENDBRANCH  63  84
ENDBRANCH  37  38
ENDBRANCH  29  32
ENDBRANCH  27  28
ENDBRANCH  26  27
ENDBRANCH  25  26
ENDBRANCH  24  25
ENDBRANCH   1  24
TORSDOF 21
ENDMDL
MODEL 3
REMARK VINA RESULT:      -9.8      0.629      8.113
REMARK SMILES O=C(COc1ccccc1/C=N/NC(=O)C1CC1)NCCCCCCNC(=O)c1ccc(-c2c3nc(c(-c4ccc(S(=O)(=O)[O-])cc4)c4ccc([nH]4)c(-c4ccc(S(=O)(=O)[O-])cc4)c4nc(c(-c5ccc(S(=O)(=O)[O-])cc5)c5ccc2[nH]5)C=C4)C=C3)cc1
REMARK SMILES IDX 21 1 20 2 19 3 1 4 2 5 3 7 4 8 5 9 6 10 10 11 7 12 9 13 8 14
REMARK SMILES IDX 11 15 12 16 13 17 14 18 15 20 16 21 17 22 18 23 22 24 23 25
REMARK SMILES IDX 24 26 25 27 26 28 27 29 28 31 29 32 30 33 88 34 31 35 87 36
REMARK SMILES IDX 32 37 33 38 34 39 81 40 35 41 86 42 80 43 82 44 36 45 85 46
REMARK SMILES IDX 79 47 78 48 37 50 67 51 48 52 66 53 49 54 52 55 65 56 83 57
REMARK SMILES IDX 50 58 51 59 64 61 84 62 53 63 38 64 39 65 47 66 40 67 46 68
REMARK SMILES IDX 41 69 42 70 43 71 44 72 45 73 68 74 69 75 77 76 70 77 76 78
REMARK SMILES IDX 71 79 72 80 73 81 74 82 75 83 54 84 55 85 63 86 56 87 62 88
REMARK SMILES IDX 57 89 58 90 59 91 60 92 61 93
REMARK H PARENT 19 6 13 19 26 30 82 49 52 60
REMARK Flexibility Score: inf
ROOT
ATOM      1  C   UNL A   1      35.959  32.630  28.052  1.00  0.00     0.021 C 
ENDROOT
BRANCH   1   2
ATOM      2  C   UNL A   1      34.512  32.207  27.917  1.00  0.00     0.116 C 
BRANCH   2   3
ATOM      3  N   UNL A   1      34.254  30.797  28.075  1.00  0.00    -0.353 N 
ATOM      4  O   UNL A   1      32.195  30.465  27.057  1.00  0.00    -0.271 OA
ATOM      5  C   UNL A   1      33.351  30.116  27.266  1.00  0.00     0.257 C 
ATOM      6  H   UNL A   1      34.731  30.302  28.779  1.00  0.00     0.163 HD
BRANCH   5   7
ATOM      7  C   UNL A   1      33.949  28.847  26.673  1.00  0.00     0.329 C 
BRANCH   7   8
ATOM      8  O   UNL A   1      33.424  28.753  25.344  1.00  0.00    -0.483 OA
BRANCH   8   9
ATOM      9  C   UNL A   1      33.354  27.485  24.845  1.00  0.00     0.128 A 
ATOM     10  C   UNL A   1      33.953  26.495  25.634  1.00  0.00     0.047 A 
ATOM     11  C   UNL A   1      33.028  27.210  23.512  1.00  0.00     0.037 A 
ATOM     12  C   UNL A   1      34.268  25.252  25.087  1.00  0.00     0.004 A 
ATOM     13  C   UNL A   1      33.386  25.971  22.962  1.00  0.00     0.013 A 
ATOM     14  C   UNL A   1      34.009  24.999  23.744  1.00  0.00     0.001 A 
BRANCH  11  15
ATOM     15  C   UNL A   1      32.355  28.106  22.550  1.00  0.00     0.145 C 
ATOM     16  N   UNL A   1      31.654  29.151  22.878  1.00  0.00    -0.181 NA
BRANCH  16  17
ATOM     17  N   UNL A   1      30.891  29.631  21.830  1.00  0.00    -0.247 N 
ATOM     18  C   UNL A   1      29.617  30.162  21.928  1.00  0.00     0.243 C 
ATOM     19  H   UNL A   1      31.290  29.591  20.931  1.00  0.00     0.193 HD
ATOM     20  O   UNL A   1      28.972  30.429  20.917  1.00  0.00    -0.273 OA
BRANCH  18  21
ATOM     21  C   UNL A   1      29.087  30.475  23.274  1.00  0.00     0.080 C 
ATOM     22  C   UNL A   1      28.796  31.894  23.711  1.00  0.00     0.014 C 
ATOM     23  C   UNL A   1      27.669  30.926  23.485  1.00  0.00     0.014 C 
ENDBRANCH  18  21
ENDBRANCH  16  17
ENDBRANCH  11  15
ENDBRANCH   8   9
ENDBRANCH   7   8
ENDBRANCH   5   7
ENDBRANCH   2   3
ENDBRANCH   1   2
BRANCH   1  24
ATOM     24  C   UNL A   1      36.169  33.684  29.134  1.00  0.00     0.002 C 
BRANCH  24  25
ATOM     25  C   UNL A   1      37.463  33.528  29.942  1.00  0.00     0.002 C 
BRANCH  25  26
ATOM     26  C   UNL A   1      37.379  32.581  31.143  1.00  0.00     0.021 C 
BRANCH  26  27
ATOM     27  C   UNL A   1      38.074  31.236  30.945  1.00  0.00     0.116 C 
BRANCH  27  28
ATOM     28  N   UNL A   1      37.212  30.278  30.267  1.00  0.00    -0.352 N 
ATOM     29  C   UNL A   1      37.485  29.443  29.216  1.00  0.00     0.251 C 
ATOM     30  H   UNL A   1      36.294  30.223  30.616  1.00  0.00     0.163 HD
ATOM     31  O   UNL A   1      36.571  28.888  28.616  1.00  0.00    -0.269 OA
BRANCH  29  32
ATOM     32  C   UNL A   1      38.885  29.221  28.807  1.00  0.00     0.039 A 
ATOM     33  C   UNL A   1      39.235  29.387  27.465  1.00  0.00     0.014 A 
ATOM     34  C   UNL A   1      39.845  28.839  29.749  1.00  0.00     0.014 A 
ATOM     35  C   UNL A   1      40.565  29.226  27.077  1.00  0.00     0.010 A 
ATOM     36  C   UNL A   1      41.180  28.741  29.371  1.00  0.00     0.010 A 
ATOM     37  C   UNL A   1      41.552  28.935  28.033  1.00  0.00    -0.014 A 
BRANCH  37  38
ATOM     38  C   UNL A   1      42.984  28.852  27.657  1.00  0.00     0.031 A 
ATOM     39  C   UNL A   1      43.552  27.570  27.115  1.00  0.00     0.074 A 
ATOM     40  C   UNL A   1      43.788  29.909  27.886  1.00  0.00     0.049 A 
ATOM     41  N   UNL A   1      44.790  27.287  26.801  1.00  0.00    -0.248 NA
ATOM     42  C   UNL A   1      42.610  26.456  26.925  1.00  0.00     0.031 C 
ATOM     43  C   UNL A   1      43.359  31.188  28.456  1.00  0.00     0.029 A 
ATOM     44  N   UNL A   1      45.134  30.068  27.683  1.00  0.00    -0.354 N 
ATOM     45  C   UNL A   1      44.779  25.961  26.387  1.00  0.00     0.074 A 
ATOM     46  C   UNL A   1      43.422  25.482  26.538  1.00  0.00     0.031 C 
ATOM     47  C   UNL A   1      44.421  32.003  28.551  1.00  0.00     0.029 A 
ATOM     48  C   UNL A   1      45.608  31.294  28.084  1.00  0.00     0.049 A 
ATOM     49  H   UNL A   1      45.707  29.372  27.287  1.00  0.00     0.167 HD
ATOM     50  C   UNL A   1      45.803  25.213  25.908  1.00  0.00     0.031 A 
ATOM     51  C   UNL A   1      46.861  31.789  28.094  1.00  0.00     0.031 A 
ATOM     52  C   UNL A   1      47.153  25.693  25.771  1.00  0.00     0.049 A 
ATOM     53  C   UNL A   1      47.986  30.943  27.570  1.00  0.00     0.074 A 
ATOM     54  C   UNL A   1      48.252  25.036  25.249  1.00  0.00     0.029 A 
ATOM     55  N   UNL A   1      47.591  26.949  26.169  1.00  0.00    -0.354 N 
ATOM     56  N   UNL A   1      47.944  29.715  27.109  1.00  0.00    -0.248 NA
ATOM     57  C   UNL A   1      49.324  31.549  27.558  1.00  0.00     0.031 C 
ATOM     58  C   UNL A   1      49.366  25.874  25.380  1.00  0.00     0.029 A 
ATOM     59  C   UNL A   1      48.949  27.076  25.931  1.00  0.00     0.049 A 
ATOM     60  H   UNL A   1      47.019  27.647  26.564  1.00  0.00     0.167 HD
ATOM     61  C   UNL A   1      49.248  29.404  26.740  1.00  0.00     0.074 A 
ATOM     62  C   UNL A   1      50.050  30.580  27.013  1.00  0.00     0.031 C 
ATOM     63  C   UNL A   1      49.735  28.249  26.224  1.00  0.00     0.031 A 
BRANCH  50  64
ATOM     64  C   UNL A   1      45.493  23.793  25.513  1.00  0.00    -0.014 A 
ATOM     65  C   UNL A   1      44.957  23.493  24.247  1.00  0.00     0.010 A 
ATOM     66  C   UNL A   1      45.740  22.743  26.416  1.00  0.00     0.010 A 
ATOM     67  C   UNL A   1      44.618  22.180  23.913  1.00  0.00     0.020 A 
ATOM     68  C   UNL A   1      45.430  21.423  26.074  1.00  0.00     0.020 A 
ATOM     69  C   UNL A   1      44.848  21.153  24.834  1.00  0.00     0.054 A 
BRANCH  69  70
ATOM     70  S   UNL A   1      44.386  19.459  24.380  1.00  0.00     0.124 S 
ATOM     71  O   UNL A   1      45.317  18.669  25.181  1.00  0.00    -0.237 OA
ATOM     72  O   UNL A   1      42.986  19.385  24.791  1.00  0.00    -0.237 OA
ATOM     73  O   UNL A   1      44.611  19.413  22.938  1.00  0.00    -0.744 OA
ENDBRANCH  69  70
ENDBRANCH  50  64
BRANCH  51  74
ATOM     74  C   UNL A   1      47.099  33.160  28.619  1.00  0.00    -0.014 A 
ATOM     75  C   UNL A   1      47.068  34.273  27.761  1.00  0.00     0.010 A 
ATOM     76  C   UNL A   1      47.300  33.364  29.998  1.00  0.00     0.010 A 
ATOM     77  C   UNL A   1      47.230  35.564  28.271  1.00  0.00     0.020 A 
ATOM     78  C   UNL A   1      47.438  34.655  30.514  1.00  0.00     0.020 A 
ATOM     79  C   UNL A   1      47.405  35.747  29.646  1.00  0.00     0.054 A 
BRANCH  79  80
ATOM     80  S   UNL A   1      47.522  37.437  30.298  1.00  0.00     0.124 S 
ATOM     81  O   UNL A   1      47.393  38.241  29.086  1.00  0.00    -0.237 OA
ATOM     82  O   UNL A   1      46.392  37.498  31.222  1.00  0.00    -0.237 OA
ATOM     83  O   UNL A   1      48.837  37.468  30.935  1.00  0.00    -0.744 OA
ENDBRANCH  79  80
ENDBRANCH  51  74
BRANCH  63  84
ATOM     84  C   UNL A   1      51.207  28.200  25.911  1.00  0.00    -0.014 A 
ATOM     85  C   UNL A   1      51.699  28.647  24.672  1.00  0.00     0.010 A 
ATOM     86  C   UNL A   1      52.114  27.760  26.891  1.00  0.00     0.010 A 
ATOM     87  C   UNL A   1      53.071  28.632  24.411  1.00  0.00     0.020 A 
ATOM     88  C   UNL A   1      53.489  27.768  26.643  1.00  0.00     0.020 A 
ATOM     89  C   UNL A   1      53.958  28.194  25.399  1.00  0.00     0.054 A 
BRANCH  89  90
ATOM     90  S   UNL A   1      55.739  28.234  25.054  1.00  0.00     0.124 S 
ATOM     91  O   UNL A   1      56.228  27.110  25.847  1.00  0.00    -0.237 OA
ATOM     92  O   UNL A   1      55.790  28.052  23.606  1.00  0.00    -0.237 OA
ATOM     93  O   UNL A   1      56.152  29.555  25.524  1.00  0.00    -0.744 OA
ENDBRANCH  89  90
ENDBRANCH  63  84
ENDBRANCH  37  38
ENDBRANCH  29  32
ENDBRANCH  27  28
ENDBRANCH  26  27
ENDBRANCH  25  26
ENDBRANCH  24  25
ENDBRANCH   1  24
TORSDOF 21
ENDMDL
