MODEL 1
REMARK VINA RESULT:     -11.7      0.000      0.000
REMARK SMILES O=C(NCCCCCCNC(=O)c1cc(Br)ccc1NC(=O)c1ccc(Br)s1)c1ccc(-c2c3nc(c(-c4ccc(S(=O)(=O)[O-])cc4)c4ccc([nH]4)c(-c4ccc(S(=O)(=O)[O-])cc4)c4nc(c(-c5ccc(S(=O)(=O)[O-])cc5)c5ccc2[nH]5)C=C4)C=C3)cc1
REMARK SMILES IDX 6 1 5 2 4 3 3 4 1 5 2 6 29 8 30 9 88 10 31 11 87 12 32 13
REMARK SMILES IDX 33 14 34 15 81 16 35 17 86 18 80 19 82 20 36 21 85 22 79 23
REMARK SMILES IDX 78 24 37 26 67 27 48 28 66 29 49 30 52 31 65 32 83 33 50 34
REMARK SMILES IDX 51 35 64 37 84 38 53 39 38 40 39 41 47 42 40 43 46 44 41 45
REMARK SMILES IDX 42 46 43 47 44 48 45 49 68 50 69 51 77 52 70 53 76 54 71 55
REMARK SMILES IDX 72 56 73 57 74 58 75 59 54 60 55 61 63 62 56 63 62 64 57 65
REMARK SMILES IDX 58 66 59 67 60 68 61 69 7 70 8 71 9 72 10 73 11 74 12 76
REMARK SMILES IDX 13 77 14 78 19 79 15 80 18 81 16 82 17 83 20 84 21 85 22 87
REMARK SMILES IDX 23 88 24 89 28 90 25 91 26 92 27 93
REMARK H PARENT 3 7 82 25 52 36 10 75 20 86
REMARK Flexibility Score: inf
ROOT
ATOM      1  C   UNL A   1      37.348  24.015  26.176  1.00  0.00     0.002 C 
ENDROOT
BRANCH   1   2
ATOM      2  C   UNL A   1      38.467  22.973  26.226  1.00  0.00     0.021 C 
BRANCH   2   3
ATOM      3  C   UNL A   1      39.759  23.423  26.898  1.00  0.00     0.116 C 
BRANCH   3   4
ATOM      4  N   UNL A   1      40.672  24.089  25.986  1.00  0.00    -0.352 N 
ATOM      5  O   UNL A   1      41.925  25.770  25.157  1.00  0.00    -0.269 OA
ATOM      6  C   UNL A   1      41.278  25.319  26.099  1.00  0.00     0.251 C 
ATOM      7  H   UNL A   1      40.890  23.586  25.167  1.00  0.00     0.163 HD
BRANCH   6   8
ATOM      8  C   UNL A   1      41.124  26.112  27.340  1.00  0.00     0.039 A 
ATOM      9  C   UNL A   1      39.912  26.137  28.033  1.00  0.00     0.014 A 
ATOM     10  C   UNL A   1      42.216  26.843  27.819  1.00  0.00     0.014 A 
ATOM     11  C   UNL A   1      39.746  27.008  29.107  1.00  0.00     0.010 A 
ATOM     12  C   UNL A   1      42.071  27.657  28.949  1.00  0.00     0.010 A 
ATOM     13  C   UNL A   1      40.823  27.779  29.578  1.00  0.00    -0.014 A 
BRANCH  13  14
ATOM     14  C   UNL A   1      40.619  28.678  30.745  1.00  0.00     0.031 A 
ATOM     15  C   UNL A   1      41.532  28.622  31.942  1.00  0.00     0.074 A 
ATOM     16  C   UNL A   1      39.627  29.589  30.700  1.00  0.00     0.049 A 
ATOM     17  N   UNL A   1      41.540  29.388  33.005  1.00  0.00    -0.248 NA
ATOM     18  C   UNL A   1      42.561  27.572  31.954  1.00  0.00     0.031 C 
ATOM     19  C   UNL A   1      38.667  29.736  29.601  1.00  0.00     0.029 A 
ATOM     20  N   UNL A   1      39.277  30.580  31.581  1.00  0.00    -0.354 N 
ATOM     21  C   UNL A   1      42.552  28.897  33.823  1.00  0.00     0.074 A 
ATOM     22  C   UNL A   1      43.126  27.756  33.140  1.00  0.00     0.031 C 
ATOM     23  C   UNL A   1      37.882  30.797  29.845  1.00  0.00     0.029 A 
ATOM     24  C   UNL A   1      38.244  31.370  31.136  1.00  0.00     0.049 A 
ATOM     25  H   UNL A   1      39.723  30.713  32.449  1.00  0.00     0.167 HD
ATOM     26  C   UNL A   1      42.969  29.356  35.029  1.00  0.00     0.031 A 
ATOM     27  C   UNL A   1      37.652  32.440  31.698  1.00  0.00     0.031 A 
ATOM     28  C   UNL A   1      42.407  30.498  35.702  1.00  0.00     0.049 A 
ATOM     29  C   UNL A   1      38.135  32.931  33.031  1.00  0.00     0.074 A 
ATOM     30  C   UNL A   1      42.791  31.062  36.907  1.00  0.00     0.029 A 
ATOM     31  N   UNL A   1      41.340  31.249  35.233  1.00  0.00    -0.354 N 
ATOM     32  N   UNL A   1      39.119  32.474  33.768  1.00  0.00    -0.248 NA
ATOM     33  C   UNL A   1      37.428  34.081  33.608  1.00  0.00     0.031 C 
ATOM     34  C   UNL A   1      41.930  32.130  37.185  1.00  0.00     0.029 A 
ATOM     35  C   UNL A   1      41.040  32.259  36.132  1.00  0.00     0.049 A 
ATOM     36  H   UNL A   1      40.865  31.089  34.386  1.00  0.00     0.167 HD
ATOM     37  C   UNL A   1      39.159  33.293  34.890  1.00  0.00     0.074 A 
ATOM     38  C   UNL A   1      38.113  34.283  34.725  1.00  0.00     0.031 C 
ATOM     39  C   UNL A   1      39.989  33.231  35.960  1.00  0.00     0.031 A 
BRANCH  26  40
ATOM     40  C   UNL A   1      44.074  28.599  35.716  1.00  0.00    -0.014 A 
ATOM     41  C   UNL A   1      45.424  28.942  35.522  1.00  0.00     0.010 A 
ATOM     42  C   UNL A   1      43.755  27.551  36.599  1.00  0.00     0.010 A 
ATOM     43  C   UNL A   1      46.436  28.222  36.166  1.00  0.00     0.020 A 
ATOM     44  C   UNL A   1      44.762  26.844  37.262  1.00  0.00     0.020 A 
ATOM     45  C   UNL A   1      46.099  27.172  37.025  1.00  0.00     0.054 A 
BRANCH  45  46
ATOM     46  S   UNL A   1      47.429  26.257  37.853  1.00  0.00     0.124 S 
ATOM     47  O   UNL A   1      48.496  26.314  36.858  1.00  0.00    -0.237 OA
ATOM     48  O   UNL A   1      47.657  27.043  39.063  1.00  0.00    -0.237 OA
ATOM     49  O   UNL A   1      46.853  24.932  38.075  1.00  0.00    -0.744 OA
ENDBRANCH  45  46
ENDBRANCH  26  40
BRANCH  27  50
ATOM     50  C   UNL A   1      36.544  33.127  30.984  1.00  0.00    -0.014 A 
ATOM     51  C   UNL A   1      35.343  33.424  31.651  1.00  0.00     0.010 A 
ATOM     52  C   UNL A   1      36.701  33.521  29.642  1.00  0.00     0.010 A 
ATOM     53  C   UNL A   1      34.315  34.098  30.987  1.00  0.00     0.020 A 
ATOM     54  C   UNL A   1      35.684  34.217  28.983  1.00  0.00     0.020 A 
ATOM     55  C   UNL A   1      34.493  34.492  29.658  1.00  0.00     0.054 A 
BRANCH  55  56
ATOM     56  S   UNL A   1      33.174  35.427  28.834  1.00  0.00     0.124 S 
ATOM     57  O   UNL A   1      32.531  34.396  28.027  1.00  0.00    -0.237 OA
ATOM     58  O   UNL A   1      32.391  35.932  29.960  1.00  0.00    -0.237 OA
ATOM     59  O   UNL A   1      33.901  36.450  28.085  1.00  0.00    -0.744 OA
ENDBRANCH  55  56
ENDBRANCH  27  50
BRANCH  39  60
ATOM     60  C   UNL A   1      39.812  34.278  37.024  1.00  0.00    -0.014 A 
ATOM     61  C   UNL A   1      40.404  35.547  36.900  1.00  0.00     0.010 A 
ATOM     62  C   UNL A   1      39.024  33.993  38.154  1.00  0.00     0.010 A 
ATOM     63  C   UNL A   1      40.242  36.501  37.907  1.00  0.00     0.020 A 
ATOM     64  C   UNL A   1      38.842  34.953  39.152  1.00  0.00     0.020 A 
ATOM     65  C   UNL A   1      39.468  36.195  39.031  1.00  0.00     0.054 A 
BRANCH  65  66
ATOM     66  S   UNL A   1      39.251  37.456  40.318  1.00  0.00     0.124 S 
ATOM     67  O   UNL A   1      38.340  38.395  39.670  1.00  0.00    -0.237 OA
ATOM     68  O   UNL A   1      38.685  36.693  41.427  1.00  0.00    -0.237 OA
ATOM     69  O   UNL A   1      40.607  37.956  40.541  1.00  0.00    -0.744 OA
ENDBRANCH  65  66
ENDBRANCH  39  60
ENDBRANCH  13  14
ENDBRANCH   6   8
ENDBRANCH   3   4
ENDBRANCH   2   3
ENDBRANCH   1   2
BRANCH   1  70
ATOM     70  C   UNL A   1      36.043  23.569  25.510  1.00  0.00     0.002 C 
BRANCH  70  71
ATOM     71  C   UNL A   1      34.866  23.304  26.452  1.00  0.00     0.021 C 
BRANCH  71  72
ATOM     72  C   UNL A   1      33.532  23.911  26.023  1.00  0.00     0.116 C 
BRANCH  72  73
ATOM     73  N   UNL A   1      33.554  24.399  24.651  1.00  0.00    -0.352 N 
ATOM     74  C   UNL A   1      33.201  25.640  24.178  1.00  0.00     0.253 C 
ATOM     75  H   UNL A   1      33.862  23.755  23.973  1.00  0.00     0.163 HD
ATOM     76  O   UNL A   1      33.107  25.855  22.974  1.00  0.00    -0.269 OA
BRANCH  74  77
ATOM     77  C   UNL A   1      32.860  26.706  25.143  1.00  0.00     0.064 A 
ATOM     78  C   UNL A   1      33.909  27.487  25.656  1.00  0.00     0.031 A 
ATOM     79  C   UNL A   1      31.529  26.892  25.567  1.00  0.00     0.054 A 
ATOM     80  C   UNL A   1      33.654  28.373  26.693  1.00  0.00     0.018 A 
ATOM     81  C   UNL A   1      31.326  27.724  26.672  1.00  0.00     0.028 A 
ATOM     82  Br  UNL A   1      35.058  29.403  27.420  1.00  0.00    -0.051 Br
ATOM     83  C   UNL A   1      32.374  28.468  27.227  1.00  0.00     0.018 A 
BRANCH  79  84
ATOM     84  N   UNL A   1      30.486  26.213  24.893  1.00  0.00    -0.321 N 
ATOM     85  C   UNL A   1      29.559  26.598  23.944  1.00  0.00     0.265 C 
ATOM     86  H   UNL A   1      30.403  25.268  25.156  1.00  0.00     0.170 HD
ATOM     87  O   UNL A   1      28.650  25.806  23.685  1.00  0.00    -0.268 OA
BRANCH  85  88
ATOM     88  C   UNL A   1      29.707  27.855  23.243  1.00  0.00     0.093 A 
ATOM     89  C   UNL A   1      30.814  28.375  22.591  1.00  0.00     0.027 A 
ATOM     90  S   UNL A   1      28.358  28.907  23.124  1.00  0.00    -0.123 S 
ATOM     91  C   UNL A   1      30.578  29.696  22.102  1.00  0.00     0.028 A 
ATOM     92  C   UNL A   1      29.288  30.092  22.349  1.00  0.00     0.071 A 
ATOM     93  Br  UNL A   1      28.615  31.776  21.884  1.00  0.00    -0.039 Br
ENDBRANCH  85  88
ENDBRANCH  79  84
ENDBRANCH  74  77
ENDBRANCH  72  73
ENDBRANCH  71  72
ENDBRANCH  70  71
ENDBRANCH   1  70
TORSDOF 18
ENDMDL
MODEL 2
REMARK VINA RESULT:     -11.6      1.798      3.016
REMARK SMILES O=C(NCCCCCCNC(=O)c1cc(Br)ccc1NC(=O)c1ccc(Br)s1)c1ccc(-c2c3nc(c(-c4ccc(S(=O)(=O)[O-])cc4)c4ccc([nH]4)c(-c4ccc(S(=O)(=O)[O-])cc4)c4nc(c(-c5ccc(S(=O)(=O)[O-])cc5)c5ccc2[nH]5)C=C4)C=C3)cc1
REMARK SMILES IDX 6 1 5 2 4 3 3 4 1 5 2 6 29 8 30 9 88 10 31 11 87 12 32 13
REMARK SMILES IDX 33 14 34 15 81 16 35 17 86 18 80 19 82 20 36 21 85 22 79 23
REMARK SMILES IDX 78 24 37 26 67 27 48 28 66 29 49 30 52 31 65 32 83 33 50 34
REMARK SMILES IDX 51 35 64 37 84 38 53 39 38 40 39 41 47 42 40 43 46 44 41 45
REMARK SMILES IDX 42 46 43 47 44 48 45 49 68 50 69 51 77 52 70 53 76 54 71 55
REMARK SMILES IDX 72 56 73 57 74 58 75 59 54 60 55 61 63 62 56 63 62 64 57 65
REMARK SMILES IDX 58 66 59 67 60 68 61 69 7 70 8 71 9 72 10 73 11 74 12 76
REMARK SMILES IDX 13 77 14 78 19 79 15 80 18 81 16 82 17 83 20 84 21 85 22 87
REMARK SMILES IDX 23 88 24 89 28 90 25 91 26 92 27 93
REMARK H PARENT 3 7 82 25 52 36 10 75 20 86
REMARK Flexibility Score: inf
ROOT
ATOM      1  C   UNL A   1      40.390  21.577  26.401  1.00  0.00     0.002 C 
ENDROOT
BRANCH   1   2
ATOM      2  C   UNL A   1      40.730  22.277  27.717  1.00  0.00     0.021 C 
BRANCH   2   3
ATOM      3  C   UNL A   1      41.900  23.253  27.663  1.00  0.00     0.116 C 
BRANCH   3   4
ATOM      4  N   UNL A   1      41.981  23.975  26.405  1.00  0.00    -0.352 N 
ATOM      5  O   UNL A   1      41.726  25.703  24.980  1.00  0.00    -0.269 OA
ATOM      6  C   UNL A   1      41.725  25.300  26.140  1.00  0.00     0.251 C 
ATOM      7  H   UNL A   1      42.260  23.437  25.628  1.00  0.00     0.163 HD
BRANCH   6   8
ATOM      8  C   UNL A   1      41.417  26.234  27.249  1.00  0.00     0.039 A 
ATOM      9  C   UNL A   1      42.208  27.360  27.483  1.00  0.00     0.014 A 
ATOM     10  C   UNL A   1      40.314  25.974  28.068  1.00  0.00     0.014 A 
ATOM     11  C   UNL A   1      41.991  28.135  28.620  1.00  0.00     0.010 A 
ATOM     12  C   UNL A   1      40.048  26.801  29.165  1.00  0.00     0.010 A 
ATOM     13  C   UNL A   1      40.908  27.864  29.475  1.00  0.00    -0.014 A 
BRANCH  13  14
ATOM     14  C   UNL A   1      40.689  28.729  30.666  1.00  0.00     0.031 A 
ATOM     15  C   UNL A   1      41.590  28.642  31.870  1.00  0.00     0.074 A 
ATOM     16  C   UNL A   1      39.692  29.636  30.637  1.00  0.00     0.049 A 
ATOM     17  N   UNL A   1      41.584  29.378  32.954  1.00  0.00    -0.248 NA
ATOM     18  C   UNL A   1      42.625  27.597  31.862  1.00  0.00     0.031 C 
ATOM     19  C   UNL A   1      38.743  29.810  29.534  1.00  0.00     0.029 A 
ATOM     20  N   UNL A   1      39.330  30.600  31.543  1.00  0.00    -0.354 N 
ATOM     21  C   UNL A   1      42.592  28.868  33.767  1.00  0.00     0.074 A 
ATOM     22  C   UNL A   1      43.177  27.750  33.058  1.00  0.00     0.031 C 
ATOM     23  C   UNL A   1      37.950  30.860  29.800  1.00  0.00     0.029 A 
ATOM     24  C   UNL A   1      38.297  31.397  31.110  1.00  0.00     0.049 A 
ATOM     25  H   UNL A   1      39.766  30.710  32.419  1.00  0.00     0.167 HD
ATOM     26  C   UNL A   1      42.994  29.294  34.990  1.00  0.00     0.031 A 
ATOM     27  C   UNL A   1      37.695  32.448  31.696  1.00  0.00     0.031 A 
ATOM     28  C   UNL A   1      42.420  30.415  35.689  1.00  0.00     0.049 A 
ATOM     29  C   UNL A   1      38.163  32.903  33.048  1.00  0.00     0.074 A 
ATOM     30  C   UNL A   1      42.791  30.945  36.914  1.00  0.00     0.029 A 
ATOM     31  N   UNL A   1      41.355  31.174  35.232  1.00  0.00    -0.354 N 
ATOM     32  N   UNL A   1      39.142  32.430  33.781  1.00  0.00    -0.248 NA
ATOM     33  C   UNL A   1      37.445  34.034  33.650  1.00  0.00     0.031 C 
ATOM     34  C   UNL A   1      41.922  32.002  37.214  1.00  0.00     0.029 A 
ATOM     35  C   UNL A   1      41.041  32.157  36.156  1.00  0.00     0.049 A 
ATOM     36  H   UNL A   1      40.889  31.035  34.376  1.00  0.00     0.167 HD
ATOM     37  C   UNL A   1      39.168  33.217  34.926  1.00  0.00     0.074 A 
ATOM     38  C   UNL A   1      38.119  34.206  34.779  1.00  0.00     0.031 C 
ATOM     39  C   UNL A   1      39.988  33.128  36.002  1.00  0.00     0.031 A 
BRANCH  26  40
ATOM     40  C   UNL A   1      44.097  28.523  35.665  1.00  0.00    -0.014 A 
ATOM     41  C   UNL A   1      43.821  27.389  36.449  1.00  0.00     0.010 A 
ATOM     42  C   UNL A   1      45.435  28.919  35.481  1.00  0.00     0.010 A 
ATOM     43  C   UNL A   1      44.861  26.690  37.072  1.00  0.00     0.020 A 
ATOM     44  C   UNL A   1      46.478  28.209  36.083  1.00  0.00     0.020 A 
ATOM     45  C   UNL A   1      46.182  27.110  36.892  1.00  0.00     0.054 A 
BRANCH  45  46
ATOM     46  S   UNL A   1      47.513  26.184  37.706  1.00  0.00     0.124 S 
ATOM     47  O   UNL A   1      47.116  26.260  39.109  1.00  0.00    -0.237 OA
ATOM     48  O   UNL A   1      47.407  24.861  37.094  1.00  0.00    -0.237 OA
ATOM     49  O   UNL A   1      48.719  26.932  37.357  1.00  0.00    -0.744 OA
ENDBRANCH  45  46
ENDBRANCH  26  40
BRANCH  27  50
ATOM     50  C   UNL A   1      36.590  33.151  30.992  1.00  0.00    -0.014 A 
ATOM     51  C   UNL A   1      35.254  32.938  31.373  1.00  0.00     0.010 A 
ATOM     52  C   UNL A   1      36.875  34.065  29.961  1.00  0.00     0.010 A 
ATOM     53  C   UNL A   1      34.220  33.623  30.729  1.00  0.00     0.020 A 
ATOM     54  C   UNL A   1      35.844  34.770  29.333  1.00  0.00     0.020 A 
ATOM     55  C   UNL A   1      34.522  34.536  29.715  1.00  0.00     0.054 A 
BRANCH  55  56
ATOM     56  S   UNL A   1      33.171  35.467  28.940  1.00  0.00     0.124 S 
ATOM     57  O   UNL A   1      32.470  34.424  28.200  1.00  0.00    -0.237 OA
ATOM     58  O   UNL A   1      32.459  36.014  30.093  1.00  0.00    -0.237 OA
ATOM     59  O   UNL A   1      33.868  36.458  28.123  1.00  0.00    -0.744 OA
ENDBRANCH  55  56
ENDBRANCH  27  50
BRANCH  39  60
ATOM     60  C   UNL A   1      39.795  34.143  37.094  1.00  0.00    -0.014 A 
ATOM     61  C   UNL A   1      40.364  35.426  37.000  1.00  0.00     0.010 A 
ATOM     62  C   UNL A   1      39.017  33.815  38.218  1.00  0.00     0.010 A 
ATOM     63  C   UNL A   1      40.189  36.351  38.033  1.00  0.00     0.020 A 
ATOM     64  C   UNL A   1      38.821  34.745  39.241  1.00  0.00     0.020 A 
ATOM     65  C   UNL A   1      39.424  36.002  39.151  1.00  0.00     0.054 A 
BRANCH  65  66
ATOM     66  S   UNL A   1      39.189  37.224  40.471  1.00  0.00     0.124 S 
ATOM     67  O   UNL A   1      38.321  38.204  39.824  1.00  0.00    -0.237 OA
ATOM     68  O   UNL A   1      38.569  36.438  41.534  1.00  0.00    -0.237 OA
ATOM     69  O   UNL A   1      40.546  37.686  40.757  1.00  0.00    -0.744 OA
ENDBRANCH  65  66
ENDBRANCH  39  60
ENDBRANCH  13  14
ENDBRANCH   6   8
ENDBRANCH   3   4
ENDBRANCH   2   3
ENDBRANCH   1   2
BRANCH   1  70
ATOM     70  C   UNL A   1      38.954  21.753  25.898  1.00  0.00     0.002 C 
BRANCH  70  71
ATOM     71  C   UNL A   1      38.204  22.980  26.423  1.00  0.00     0.021 C 
BRANCH  71  72
ATOM     72  C   UNL A   1      36.929  23.345  25.668  1.00  0.00     0.116 C 
BRANCH  72  73
ATOM     73  N   UNL A   1      37.121  23.369  24.224  1.00  0.00    -0.352 N 
ATOM     74  C   UNL A   1      36.257  22.955  23.239  1.00  0.00     0.253 C 
ATOM     75  H   UNL A   1      37.983  23.727  23.914  1.00  0.00     0.163 HD
ATOM     76  O   UNL A   1      36.622  22.875  22.070  1.00  0.00    -0.269 OA
BRANCH  74  77
ATOM     77  C   UNL A   1      34.891  22.534  23.612  1.00  0.00     0.064 A 
ATOM     78  C   UNL A   1      34.756  21.457  24.504  1.00  0.00     0.031 A 
ATOM     79  C   UNL A   1      33.765  23.165  23.045  1.00  0.00     0.054 A 
ATOM     80  C   UNL A   1      33.498  20.920  24.737  1.00  0.00     0.018 A 
ATOM     81  C   UNL A   1      32.528  22.541  23.230  1.00  0.00     0.028 A 
ATOM     82  Br  UNL A   1      33.302  19.450  25.904  1.00  0.00    -0.051 Br
ATOM     83  C   UNL A   1      32.389  21.433  24.076  1.00  0.00     0.018 A 
BRANCH  79  84
ATOM     84  N   UNL A   1      33.940  24.356  22.300  1.00  0.00    -0.321 N 
ATOM     85  C   UNL A   1      33.748  25.694  22.587  1.00  0.00     0.265 C 
ATOM     86  H   UNL A   1      34.268  24.198  21.386  1.00  0.00     0.170 HD
ATOM     87  O   UNL A   1      33.820  26.490  21.649  1.00  0.00    -0.268 OA
BRANCH  85  88
ATOM     88  C   UNL A   1      33.541  26.128  23.952  1.00  0.00     0.093 A 
ATOM     89  C   UNL A   1      34.236  25.784  25.100  1.00  0.00     0.027 A 
ATOM     90  S   UNL A   1      32.297  27.259  24.286  1.00  0.00    -0.123 S 
ATOM     91  C   UNL A   1      33.657  26.361  26.271  1.00  0.00     0.028 A 
ATOM     92  C   UNL A   1      32.592  27.164  25.952  1.00  0.00     0.071 A 
ATOM     93  Br  UNL A   1      31.558  28.067  27.226  1.00  0.00    -0.039 Br
ENDBRANCH  85  88
ENDBRANCH  79  84
ENDBRANCH  74  77
ENDBRANCH  72  73
ENDBRANCH  71  72
ENDBRANCH  70  71
ENDBRANCH   1  70
TORSDOF 18
ENDMDL
MODEL 3
REMARK VINA RESULT:     -11.4      2.329      3.459
REMARK SMILES O=C(NCCCCCCNC(=O)c1cc(Br)ccc1NC(=O)c1ccc(Br)s1)c1ccc(-c2c3nc(c(-c4ccc(S(=O)(=O)[O-])cc4)c4ccc([nH]4)c(-c4ccc(S(=O)(=O)[O-])cc4)c4nc(c(-c5ccc(S(=O)(=O)[O-])cc5)c5ccc2[nH]5)C=C4)C=C3)cc1
REMARK SMILES IDX 6 1 5 2 4 3 3 4 1 5 2 6 29 8 30 9 88 10 31 11 87 12 32 13
REMARK SMILES IDX 33 14 34 15 81 16 35 17 86 18 80 19 82 20 36 21 85 22 79 23
REMARK SMILES IDX 78 24 37 26 67 27 48 28 66 29 49 30 52 31 65 32 83 33 50 34
REMARK SMILES IDX 51 35 64 37 84 38 53 39 38 40 39 41 47 42 40 43 46 44 41 45
REMARK SMILES IDX 42 46 43 47 44 48 45 49 68 50 69 51 77 52 70 53 76 54 71 55
REMARK SMILES IDX 72 56 73 57 74 58 75 59 54 60 55 61 63 62 56 63 62 64 57 65
REMARK SMILES IDX 58 66 59 67 60 68 61 69 7 70 8 71 9 72 10 73 11 74 12 76
REMARK SMILES IDX 13 77 14 78 19 79 15 80 18 81 16 82 17 83 20 84 21 85 22 87
REMARK SMILES IDX 23 88 24 89 28 90 25 91 26 92 27 93
REMARK H PARENT 3 7 82 25 52 36 10 75 20 86
REMARK Flexibility Score: inf
ROOT
ATOM      1  C   UNL A   1      38.205  24.158  26.413  1.00  0.00     0.002 C 
ENDROOT
BRANCH   1   2
ATOM      2  C   UNL A   1      39.237  23.089  26.774  1.00  0.00     0.021 C 
BRANCH   2   3
ATOM      3  C   UNL A   1      40.624  23.606  27.135  1.00  0.00     0.116 C 
BRANCH   3   4
ATOM      4  N   UNL A   1      41.245  24.365  26.063  1.00  0.00    -0.352 N 
ATOM      5  O   UNL A   1      41.902  26.196  24.923  1.00  0.00    -0.269 OA
ATOM      6  C   UNL A   1      41.476  25.719  25.971  1.00  0.00     0.251 C 
ATOM      7  H   UNL A   1      41.545  23.834  25.290  1.00  0.00     0.163 HD
BRANCH   6   8
ATOM      8  C   UNL A   1      41.179  26.603  27.123  1.00  0.00     0.039 A 
ATOM      9  C   UNL A   1      41.880  27.794  27.315  1.00  0.00     0.014 A 
ATOM     10  C   UNL A   1      40.178  26.229  28.025  1.00  0.00     0.014 A 
ATOM     11  C   UNL A   1      41.691  28.529  28.483  1.00  0.00     0.010 A 
ATOM     12  C   UNL A   1      39.933  27.012  29.160  1.00  0.00     0.010 A 
ATOM     13  C   UNL A   1      40.716  28.146  29.420  1.00  0.00    -0.014 A 
BRANCH  13  14
ATOM     14  C   UNL A   1      40.521  28.969  30.644  1.00  0.00     0.031 A 
ATOM     15  C   UNL A   1      41.428  28.819  31.837  1.00  0.00     0.074 A 
ATOM     16  C   UNL A   1      39.542  29.895  30.657  1.00  0.00     0.049 A 
ATOM     17  N   UNL A   1      41.443  29.513  32.948  1.00  0.00    -0.248 NA
ATOM     18  C   UNL A   1      42.441  27.755  31.783  1.00  0.00     0.031 C 
ATOM     19  C   UNL A   1      38.589  30.130  29.568  1.00  0.00     0.029 A 
ATOM     20  N   UNL A   1      39.204  30.831  31.601  1.00  0.00    -0.354 N 
ATOM     21  C   UNL A   1      42.445  28.954  33.735  1.00  0.00     0.074 A 
ATOM     22  C   UNL A   1      43.004  27.852  32.980  1.00  0.00     0.031 C 
ATOM     23  C   UNL A   1      37.819  31.184  29.879  1.00  0.00     0.029 A 
ATOM     24  C   UNL A   1      38.185  31.664  31.206  1.00  0.00     0.049 A 
ATOM     25  H   UNL A   1      39.648  30.899  32.477  1.00  0.00     0.167 HD
ATOM     26  C   UNL A   1      42.864  29.325  34.970  1.00  0.00     0.031 A 
ATOM     27  C   UNL A   1      37.607  32.704  31.836  1.00  0.00     0.031 A 
ATOM     28  C   UNL A   1      42.317  30.429  35.716  1.00  0.00     0.049 A 
ATOM     29  C   UNL A   1      38.092  33.098  33.200  1.00  0.00     0.074 A 
ATOM     30  C   UNL A   1      42.705  30.906  36.956  1.00  0.00     0.029 A 
ATOM     31  N   UNL A   1      41.263  31.225  35.294  1.00  0.00    -0.354 N 
ATOM     32  N   UNL A   1      39.066  32.578  33.908  1.00  0.00    -0.248 NA
ATOM     33  C   UNL A   1      37.400  34.218  33.850  1.00  0.00     0.031 C 
ATOM     34  C   UNL A   1      41.859  31.966  37.302  1.00  0.00     0.029 A 
ATOM     35  C   UNL A   1      40.975  32.178  36.258  1.00  0.00     0.049 A 
ATOM     36  H   UNL A   1      40.789  31.129  34.437  1.00  0.00     0.167 HD
ATOM     37  C   UNL A   1      39.115  33.321  35.082  1.00  0.00     0.074 A 
ATOM     38  C   UNL A   1      38.084  34.335  34.980  1.00  0.00     0.031 C 
ATOM     39  C   UNL A   1      39.940  33.175  36.148  1.00  0.00     0.031 A 
BRANCH  26  40
ATOM     40  C   UNL A   1      43.955  28.508  35.608  1.00  0.00    -0.014 A 
ATOM     41  C   UNL A   1      43.660  27.372  36.382  1.00  0.00     0.010 A 
ATOM     42  C   UNL A   1      45.301  28.861  35.398  1.00  0.00     0.010 A 
ATOM     43  C   UNL A   1      44.690  26.629  36.970  1.00  0.00     0.020 A 
ATOM     44  C   UNL A   1      46.334  28.109  35.965  1.00  0.00     0.020 A 
ATOM     45  C   UNL A   1      46.020  27.008  36.765  1.00  0.00     0.054 A 
BRANCH  45  46
ATOM     46  S   UNL A   1      47.338  26.026  37.534  1.00  0.00     0.124 S 
ATOM     47  O   UNL A   1      48.483  26.347  36.687  1.00  0.00    -0.237 OA
ATOM     48  O   UNL A   1      47.391  26.563  38.892  1.00  0.00    -0.237 OA
ATOM     49  O   UNL A   1      46.851  24.652  37.430  1.00  0.00    -0.744 OA
ENDBRANCH  45  46
ENDBRANCH  26  40
BRANCH  27  50
ATOM     50  C   UNL A   1      36.511  33.454  31.166  1.00  0.00    -0.014 A 
ATOM     51  C   UNL A   1      36.609  33.791  29.805  1.00  0.00     0.010 A 
ATOM     52  C   UNL A   1      35.349  33.800  31.879  1.00  0.00     0.010 A 
ATOM     53  C   UNL A   1      35.565  34.469  29.170  1.00  0.00     0.020 A 
ATOM     54  C   UNL A   1      34.293  34.455  31.240  1.00  0.00     0.020 A 
ATOM     55  C   UNL A   1      34.413  34.794  29.891  1.00  0.00     0.054 A 
BRANCH  55  56
ATOM     56  S   UNL A   1      33.040  35.611  29.032  1.00  0.00     0.124 S 
ATOM     57  O   UNL A   1      33.728  36.668  28.298  1.00  0.00    -0.237 OA
ATOM     58  O   UNL A   1      32.486  34.531  28.218  1.00  0.00    -0.237 OA
ATOM     59  O   UNL A   1      32.177  36.062  30.122  1.00  0.00    -0.744 OA
ENDBRANCH  55  56
ENDBRANCH  27  50
BRANCH  39  60
ATOM     60  C   UNL A   1      39.774  34.152  37.278  1.00  0.00    -0.014 A 
ATOM     61  C   UNL A   1      39.032  33.816  38.424  1.00  0.00     0.010 A 
ATOM     62  C   UNL A   1      40.387  35.415  37.200  1.00  0.00     0.010 A 
ATOM     63  C   UNL A   1      38.873  34.743  39.458  1.00  0.00     0.020 A 
ATOM     64  C   UNL A   1      40.249  36.335  38.242  1.00  0.00     0.020 A 
ATOM     65  C   UNL A   1      39.477  36.000  39.356  1.00  0.00     0.054 A 
BRANCH  65  66
ATOM     66  S   UNL A   1      39.279  37.182  40.718  1.00  0.00     0.124 S 
ATOM     67  O   UNL A   1      38.600  36.372  41.725  1.00  0.00    -0.237 OA
ATOM     68  O   UNL A   1      40.657  37.550  41.031  1.00  0.00    -0.237 OA
ATOM     69  O   UNL A   1      38.474  38.252  40.131  1.00  0.00    -0.744 OA
ENDBRANCH  65  66
ENDBRANCH  39  60
ENDBRANCH  13  14
ENDBRANCH   6   8
ENDBRANCH   3   4
ENDBRANCH   2   3
ENDBRANCH   1   2
BRANCH   1  70
ATOM     70  C   UNL A   1      37.036  23.696  25.538  1.00  0.00     0.002 C 
BRANCH  70  71
ATOM     71  C   UNL A   1      37.257  22.400  24.753  1.00  0.00     0.021 C 
BRANCH  71  72
ATOM     72  C   UNL A   1      36.532  21.171  25.296  1.00  0.00     0.116 C 
BRANCH  72  73
ATOM     73  N   UNL A   1      35.796  21.452  26.521  1.00  0.00    -0.352 N 
ATOM     74  C   UNL A   1      34.454  21.290  26.769  1.00  0.00     0.253 C 
ATOM     75  H   UNL A   1      36.329  21.804  27.269  1.00  0.00     0.163 HD
ATOM     76  O   UNL A   1      33.942  21.730  27.793  1.00  0.00    -0.269 OA
BRANCH  74  77
ATOM     77  C   UNL A   1      33.608  20.637  25.748  1.00  0.00     0.064 A 
ATOM     78  C   UNL A   1      34.059  19.425  25.199  1.00  0.00     0.031 A 
ATOM     79  C   UNL A   1      32.416  21.245  25.308  1.00  0.00     0.054 A 
ATOM     80  C   UNL A   1      33.387  18.876  24.116  1.00  0.00     0.018 A 
ATOM     81  C   UNL A   1      31.819  20.716  24.160  1.00  0.00     0.028 A 
ATOM     82  Br  UNL A   1      33.999  17.268  23.342  1.00  0.00    -0.051 Br
ATOM     83  C   UNL A   1      32.291  19.536  23.571  1.00  0.00     0.018 A 
BRANCH  79  84
ATOM     84  N   UNL A   1      31.907  22.364  26.012  1.00  0.00    -0.321 N 
ATOM     85  C   UNL A   1      32.015  23.729  25.834  1.00  0.00     0.265 C 
ATOM     86  H   UNL A   1      31.363  22.116  26.794  1.00  0.00     0.170 HD
ATOM     87  O   UNL A   1      31.598  24.454  26.740  1.00  0.00    -0.268 OA
BRANCH  85  88
ATOM     88  C   UNL A   1      32.535  24.267  24.595  1.00  0.00     0.093 A 
ATOM     89  C   UNL A   1      33.810  24.720  24.298  1.00  0.00     0.027 A 
ATOM     90  S   UNL A   1      31.500  24.366  23.231  1.00  0.00    -0.123 S 
ATOM     91  C   UNL A   1      33.894  25.263  22.980  1.00  0.00     0.028 A 
ATOM     92  C   UNL A   1      32.699  25.140  22.317  1.00  0.00     0.071 A 
ATOM     93  Br  UNL A   1      32.411  25.767  20.576  1.00  0.00    -0.039 Br
ENDBRANCH  85  88
ENDBRANCH  79  84
ENDBRANCH  74  77
ENDBRANCH  72  73
ENDBRANCH  71  72
ENDBRANCH  70  71
ENDBRANCH   1  70
TORSDOF 18
ENDMDL
