MODEL 1
REMARK VINA RESULT:     -11.8      0.000      0.000
REMARK SMILES CC1(C)[C@@]2(C(=O)NCCCCCCNC(=O)c3ccc(-c4c5nc(c(-c6ccc(S(=O)(=O)[O-])cc6)c6ccc([nH]6)c(-c6ccc(S(=O)(=O)[O-])cc6)c6nc(c(-c7ccc(S(=O)(=O)[O-])cc7)c7ccc4[nH]7)C=C6)C=C5)cc3)CC[C@]1(C)/C(=N/NC(=O)c1ccc(Cl)cc1)C2
REMARK SMILES IDX 11 1 10 2 9 3 8 4 7 5 5 6 6 7 4 9 1 10 2 11 3 12 79 13 77 14
REMARK SMILES IDX 93 15 78 16 80 17 81 18 82 19 83 20 84 21 85 23 86 24 87 25
REMARK SMILES IDX 92 26 88 27 91 28 89 29 90 30 12 31 13 32 14 33 15 34 16 36
REMARK SMILES IDX 17 37 18 38 76 39 19 40 75 41 20 42 21 43 22 44 69 45 23 46
REMARK SMILES IDX 74 47 68 48 70 49 24 50 73 51 67 52 66 53 25 55 55 56 36 57
REMARK SMILES IDX 54 58 37 59 40 60 53 61 71 62 38 63 39 64 52 66 72 67 41 68
REMARK SMILES IDX 26 69 27 70 35 71 28 72 34 73 29 74 30 75 31 76 32 77 33 78
REMARK SMILES IDX 56 79 57 80 65 81 58 82 64 83 59 84 60 85 61 86 62 87 63 88
REMARK SMILES IDX 42 89 43 90 51 91 44 92 50 93 45 94 46 95 47 96 48 97 49 98
REMARK H PARENT 7 8 83 22 14 35 70 54 40 65
REMARK Flexibility Score: inf
ROOT
ATOM      1  C   UNL A   1      40.176  21.576  26.204  1.00  0.00     0.002 C 
ENDROOT
BRANCH   1   2
ATOM      2  C   UNL A   1      38.711  22.025  26.080  1.00  0.00     0.002 C 
BRANCH   2   3
ATOM      3  C   UNL A   1      37.863  21.148  25.154  1.00  0.00     0.021 C 
BRANCH   3   4
ATOM      4  C   UNL A   1      37.033  21.847  24.063  1.00  0.00     0.116 C 
BRANCH   4   5
ATOM      5  N   UNL A   1      36.738  23.269  24.222  1.00  0.00    -0.356 N 
ATOM      6  C   UNL A   1      35.698  23.876  24.890  1.00  0.00     0.227 C 
ATOM      7  O   UNL A   1      35.983  24.873  25.560  1.00  0.00    -0.274 OA
ATOM      8  H   UNL A   1      37.374  23.882  23.787  1.00  0.00     0.163 HD
BRANCH   6   9
ATOM      9  C   UNL A   1      34.228  23.492  24.656  1.00  0.00     0.060 C 
ATOM     10  C   UNL A   1      34.101  21.230  25.921  1.00  0.00     0.013 C 
ATOM     11  C   UNL A   1      33.478  22.631  25.733  1.00  0.00    -0.010 C 
ATOM     12  C   UNL A   1      33.295  23.227  27.146  1.00  0.00     0.013 C 
ATOM     13  C   UNL A   1      32.138  22.665  24.918  1.00  0.00     0.014 C 
ATOM     14  C   UNL A   1      33.922  22.710  23.337  1.00  0.00     0.019 C 
ATOM     15  C   UNL A   1      33.370  24.781  24.644  1.00  0.00     0.071 C 
ATOM     16  C   UNL A   1      32.544  22.064  23.566  1.00  0.00     0.014 C 
ATOM     17  C   UNL A   1      30.910  22.034  25.538  1.00  0.00     0.018 C 
ATOM     18  C   UNL A   1      32.005  24.180  24.580  1.00  0.00     0.046 C 
ATOM     19  N   UNL A   1      30.863  24.635  24.187  1.00  0.00    -0.181 NA
BRANCH  19  20
ATOM     20  N   UNL A   1      30.427  25.826  23.706  1.00  0.00    -0.243 N 
ATOM     21  C   UNL A   1      30.572  27.183  23.881  1.00  0.00     0.271 C 
ATOM     22  H   UNL A   1      29.785  25.662  22.977  1.00  0.00     0.194 HD
ATOM     23  O   UNL A   1      29.871  27.944  23.207  1.00  0.00    -0.267 OA
BRANCH  21  24
ATOM     24  C   UNL A   1      31.466  27.819  24.841  1.00  0.00     0.041 A 
ATOM     25  C   UNL A   1      31.353  27.458  26.189  1.00  0.00     0.015 A 
ATOM     26  C   UNL A   1      32.352  28.822  24.456  1.00  0.00     0.015 A 
ATOM     27  C   UNL A   1      32.286  27.925  27.112  1.00  0.00     0.021 A 
ATOM     28  C   UNL A   1      33.310  29.256  25.378  1.00  0.00     0.021 A 
ATOM     29  C   UNL A   1      33.308  28.763  26.683  1.00  0.00     0.041 A 
ATOM     30  Cl  UNL A   1      34.607  29.123  27.751  1.00  0.00    -0.084 Cl
ENDBRANCH  21  24
ENDBRANCH  19  20
ENDBRANCH   6   9
ENDBRANCH   4   5
ENDBRANCH   3   4
ENDBRANCH   2   3
ENDBRANCH   1   2
BRANCH   1  31
ATOM     31  C   UNL A   1      40.857  21.829  27.555  1.00  0.00     0.021 C 
BRANCH  31  32
ATOM     32  C   UNL A   1      41.568  23.175  27.678  1.00  0.00     0.116 C 
BRANCH  32  33
ATOM     33  N   UNL A   1      41.506  23.929  26.435  1.00  0.00    -0.352 N 
ATOM     34  C   UNL A   1      41.153  25.248  26.240  1.00  0.00     0.251 C 
ATOM     35  H   UNL A   1      41.750  23.430  25.623  1.00  0.00     0.163 HD
ATOM     36  O   UNL A   1      40.890  25.659  25.120  1.00  0.00    -0.269 OA
BRANCH  34  37
ATOM     37  C   UNL A   1      41.089  26.163  27.402  1.00  0.00     0.039 A 
ATOM     38  C   UNL A   1      42.096  27.113  27.587  1.00  0.00     0.014 A 
ATOM     39  C   UNL A   1      40.038  26.063  28.318  1.00  0.00     0.014 A 
ATOM     40  C   UNL A   1      42.017  28.005  28.662  1.00  0.00     0.010 A 
ATOM     41  C   UNL A   1      39.933  26.986  29.356  1.00  0.00     0.010 A 
ATOM     42  C   UNL A   1      40.921  27.965  29.540  1.00  0.00    -0.014 A 
BRANCH  42  43
ATOM     43  C   UNL A   1      40.791  28.933  30.661  1.00  0.00     0.031 A 
ATOM     44  C   UNL A   1      41.664  28.798  31.881  1.00  0.00     0.074 A 
ATOM     45  C   UNL A   1      39.840  29.888  30.616  1.00  0.00     0.049 A 
ATOM     46  N   UNL A   1      41.649  29.496  32.988  1.00  0.00    -0.248 NA
ATOM     47  C   UNL A   1      42.668  27.722  31.862  1.00  0.00     0.031 C 
ATOM     48  C   UNL A   1      38.905  30.101  29.509  1.00  0.00     0.029 A 
ATOM     49  N   UNL A   1      39.495  30.853  31.530  1.00  0.00    -0.354 N 
ATOM     50  C   UNL A   1      42.625  28.934  33.803  1.00  0.00     0.074 A 
ATOM     51  C   UNL A   1      43.182  27.811  33.081  1.00  0.00     0.031 C 
ATOM     52  C   UNL A   1      38.106  31.141  29.802  1.00  0.00     0.029 A 
ATOM     53  C   UNL A   1      38.446  31.646  31.129  1.00  0.00     0.049 A 
ATOM     54  H   UNL A   1      39.955  30.966  32.392  1.00  0.00     0.167 HD
ATOM     55  C   UNL A   1      43.034  29.328  35.033  1.00  0.00     0.031 A 
ATOM     56  C   UNL A   1      37.821  32.661  31.758  1.00  0.00     0.031 A 
ATOM     57  C   UNL A   1      42.488  30.453  35.744  1.00  0.00     0.049 A 
ATOM     58  C   UNL A   1      38.290  33.077  33.125  1.00  0.00     0.074 A 
ATOM     59  C   UNL A   1      42.875  30.966  36.970  1.00  0.00     0.029 A 
ATOM     60  N   UNL A   1      41.439  31.239  35.294  1.00  0.00    -0.354 N 
ATOM     61  N   UNL A   1      39.259  32.573  33.852  1.00  0.00    -0.248 NA
ATOM     62  C   UNL A   1      37.589  34.207  33.753  1.00  0.00     0.031 C 
ATOM     63  C   UNL A   1      42.028  32.035  37.283  1.00  0.00     0.029 A 
ATOM     64  C   UNL A   1      41.149  32.220  36.227  1.00  0.00     0.049 A 
ATOM     65  H   UNL A   1      40.969  31.118  34.437  1.00  0.00     0.167 HD
ATOM     66  C   UNL A   1      39.300  33.339  35.011  1.00  0.00     0.074 A 
ATOM     67  C   UNL A   1      38.268  34.348  34.884  1.00  0.00     0.031 C 
ATOM     68  C   UNL A   1      40.120  33.218  36.085  1.00  0.00     0.031 A 
BRANCH  55  69
ATOM     69  C   UNL A   1      44.128  28.526  35.690  1.00  0.00    -0.014 A 
ATOM     70  C   UNL A   1      45.483  28.854  35.500  1.00  0.00     0.010 A 
ATOM     71  C   UNL A   1      43.797  27.451  36.536  1.00  0.00     0.010 A 
ATOM     72  C   UNL A   1      46.487  28.096  36.107  1.00  0.00     0.020 A 
ATOM     73  C   UNL A   1      44.799  26.707  37.167  1.00  0.00     0.020 A 
ATOM     74  C   UNL A   1      46.139  27.023  36.933  1.00  0.00     0.054 A 
BRANCH  74  75
ATOM     75  S   UNL A   1      47.464  26.064  37.718  1.00  0.00     0.124 S 
ATOM     76  O   UNL A   1      48.261  25.653  36.566  1.00  0.00    -0.237 OA
ATOM     77  O   UNL A   1      48.093  27.046  38.599  1.00  0.00    -0.237 OA
ATOM     78  O   UNL A   1      46.753  24.986  38.401  1.00  0.00    -0.744 OA
ENDBRANCH  74  75
ENDBRANCH  55  69
BRANCH  56  79
ATOM     79  C   UNL A   1      36.692  33.366  31.091  1.00  0.00    -0.014 A 
ATOM     80  C   UNL A   1      35.453  33.501  31.741  1.00  0.00     0.010 A 
ATOM     81  C   UNL A   1      36.856  33.919  29.808  1.00  0.00     0.010 A 
ATOM     82  C   UNL A   1      34.394  34.165  31.116  1.00  0.00     0.020 A 
ATOM     83  C   UNL A   1      35.806  34.605  29.191  1.00  0.00     0.020 A 
ATOM     84  C   UNL A   1      34.578  34.716  29.845  1.00  0.00     0.054 A 
BRANCH  84  85
ATOM     85  S   UNL A   1      33.207  35.625  29.076  1.00  0.00     0.124 S 
ATOM     86  O   UNL A   1      32.527  34.574  28.328  1.00  0.00    -0.237 OA
ATOM     87  O   UNL A   1      32.487  36.149  30.234  1.00  0.00    -0.237 OA
ATOM     88  O   UNL A   1      33.884  36.636  28.265  1.00  0.00    -0.744 OA
ENDBRANCH  84  85
ENDBRANCH  56  79
BRANCH  68  89
ATOM     89  C   UNL A   1      39.959  34.219  37.197  1.00  0.00    -0.014 A 
ATOM     90  C   UNL A   1      40.717  35.403  37.227  1.00  0.00     0.010 A 
ATOM     91  C   UNL A   1      38.987  34.001  38.191  1.00  0.00     0.010 A 
ATOM     92  C   UNL A   1      40.523  36.340  38.245  1.00  0.00     0.020 A 
ATOM     93  C   UNL A   1      38.772  34.948  39.196  1.00  0.00     0.020 A 
ATOM     94  C   UNL A   1      39.551  36.106  39.223  1.00  0.00     0.054 A 
BRANCH  94  95
ATOM     95  S   UNL A   1      39.280  37.362  40.503  1.00  0.00     0.124 S 
ATOM     96  O   UNL A   1      38.185  38.143  39.936  1.00  0.00    -0.237 OA
ATOM     97  O   UNL A   1      38.938  36.559  41.675  1.00  0.00    -0.237 OA
ATOM     98  O   UNL A   1      40.564  38.056  40.584  1.00  0.00    -0.744 OA
ENDBRANCH  94  95
ENDBRANCH  68  89
ENDBRANCH  42  43
ENDBRANCH  34  37
ENDBRANCH  32  33
ENDBRANCH  31  32
ENDBRANCH   1  31
TORSDOF 18
ENDMDL
MODEL 2
REMARK VINA RESULT:     -11.7      3.243      9.580
REMARK SMILES CC1(C)[C@@]2(C(=O)NCCCCCCNC(=O)c3ccc(-c4c5nc(c(-c6ccc(S(=O)(=O)[O-])cc6)c6ccc([nH]6)c(-c6ccc(S(=O)(=O)[O-])cc6)c6nc(c(-c7ccc(S(=O)(=O)[O-])cc7)c7ccc4[nH]7)C=C6)C=C5)cc3)CC[C@]1(C)/C(=N/NC(=O)c1ccc(Cl)cc1)C2
REMARK SMILES IDX 11 1 10 2 9 3 8 4 7 5 5 6 6 7 4 9 1 10 2 11 3 12 79 13 77 14
REMARK SMILES IDX 93 15 78 16 80 17 81 18 82 19 83 20 84 21 85 23 86 24 87 25
REMARK SMILES IDX 92 26 88 27 91 28 89 29 90 30 12 31 13 32 14 33 15 34 16 36
REMARK SMILES IDX 17 37 18 38 76 39 19 40 75 41 20 42 21 43 22 44 69 45 23 46
REMARK SMILES IDX 74 47 68 48 70 49 24 50 73 51 67 52 66 53 25 55 55 56 36 57
REMARK SMILES IDX 54 58 37 59 40 60 53 61 71 62 38 63 39 64 52 66 72 67 41 68
REMARK SMILES IDX 26 69 27 70 35 71 28 72 34 73 29 74 30 75 31 76 32 77 33 78
REMARK SMILES IDX 56 79 57 80 65 81 58 82 64 83 59 84 60 85 61 86 62 87 63 88
REMARK SMILES IDX 42 89 43 90 51 91 44 92 50 93 45 94 46 95 47 96 48 97 49 98
REMARK H PARENT 7 8 83 22 14 35 70 54 40 65
REMARK Flexibility Score: inf
ROOT
ATOM      1  C   UNL A   1      31.596  29.150  25.622  1.00  0.00     0.002 C 
ENDROOT
BRANCH   1   2
ATOM      2  C   UNL A   1      32.292  29.190  24.252  1.00  0.00     0.002 C 
BRANCH   2   3
ATOM      3  C   UNL A   1      31.333  29.116  23.060  1.00  0.00     0.021 C 
BRANCH   3   4
ATOM      4  C   UNL A   1      31.185  27.764  22.340  1.00  0.00     0.116 C 
BRANCH   4   5
ATOM      5  N   UNL A   1      32.393  27.099  21.858  1.00  0.00    -0.356 N 
ATOM      6  C   UNL A   1      32.793  25.791  22.016  1.00  0.00     0.227 C 
ATOM      7  O   UNL A   1      33.289  25.245  21.026  1.00  0.00    -0.274 OA
ATOM      8  H   UNL A   1      33.012  27.669  21.346  1.00  0.00     0.163 HD
BRANCH   6   9
ATOM      9  C   UNL A   1      32.838  25.100  23.388  1.00  0.00     0.060 C 
ATOM     10  C   UNL A   1      30.501  25.722  24.330  1.00  0.00     0.013 C 
ATOM     11  C   UNL A   1      31.503  24.583  24.032  1.00  0.00    -0.010 C 
ATOM     12  C   UNL A   1      30.713  23.482  23.292  1.00  0.00     0.013 C 
ATOM     13  C   UNL A   1      32.255  24.008  25.283  1.00  0.00     0.014 C 
ATOM     14  C   UNL A   1      33.469  25.927  24.556  1.00  0.00     0.019 C 
ATOM     15  C   UNL A   1      33.644  23.784  23.260  1.00  0.00     0.071 C 
ATOM     16  C   UNL A   1      32.980  25.239  25.843  1.00  0.00     0.014 C 
ATOM     17  C   UNL A   1      31.450  23.238  26.308  1.00  0.00     0.018 C 
ATOM     18  C   UNL A   1      33.419  23.211  24.620  1.00  0.00     0.046 C 
ATOM     19  N   UNL A   1      34.063  22.344  25.326  1.00  0.00    -0.181 NA
BRANCH  19  20
ATOM     20  N   UNL A   1      35.170  21.587  25.124  1.00  0.00    -0.243 N 
ATOM     21  C   UNL A   1      35.574  20.283  24.947  1.00  0.00     0.271 C 
ATOM     22  H   UNL A   1      35.959  22.175  25.093  1.00  0.00     0.194 HD
ATOM     23  O   UNL A   1      36.782  20.045  24.860  1.00  0.00    -0.267 OA
BRANCH  21  24
ATOM     24  C   UNL A   1      34.688  19.127  24.892  1.00  0.00     0.041 A 
ATOM     25  C   UNL A   1      35.183  17.941  24.338  1.00  0.00     0.015 A 
ATOM     26  C   UNL A   1      33.357  19.210  25.296  1.00  0.00     0.015 A 
ATOM     27  C   UNL A   1      34.424  16.773  24.406  1.00  0.00     0.021 A 
ATOM     28  C   UNL A   1      32.616  18.028  25.398  1.00  0.00     0.021 A 
ATOM     29  C   UNL A   1      33.172  16.810  25.008  1.00  0.00     0.041 A 
ATOM     30  Cl  UNL A   1      32.352  15.334  25.335  1.00  0.00    -0.084 Cl
ENDBRANCH  21  24
ENDBRANCH  19  20
ENDBRANCH   6   9
ENDBRANCH   4   5
ENDBRANCH   3   4
ENDBRANCH   2   3
ENDBRANCH   1   2
BRANCH   1  31
ATOM     31  C   UNL A   1      32.460  28.720  26.815  1.00  0.00     0.021 C 
BRANCH  31  32
ATOM     32  C   UNL A   1      33.816  29.414  26.912  1.00  0.00     0.116 C 
BRANCH  32  33
ATOM     33  N   UNL A   1      33.672  30.842  27.155  1.00  0.00    -0.352 N 
ATOM     34  C   UNL A   1      34.384  31.649  28.017  1.00  0.00     0.251 C 
ATOM     35  H   UNL A   1      32.971  31.293  26.632  1.00  0.00     0.163 HD
ATOM     36  O   UNL A   1      33.971  32.762  28.306  1.00  0.00    -0.269 OA
BRANCH  34  37
ATOM     37  C   UNL A   1      35.653  31.153  28.597  1.00  0.00     0.039 A 
ATOM     38  C   UNL A   1      36.852  31.795  28.280  1.00  0.00     0.014 A 
ATOM     39  C   UNL A   1      35.652  30.038  29.440  1.00  0.00     0.014 A 
ATOM     40  C   UNL A   1      38.047  31.353  28.858  1.00  0.00     0.010 A 
ATOM     41  C   UNL A   1      36.834  29.635  30.056  1.00  0.00     0.010 A 
ATOM     42  C   UNL A   1      38.044  30.285  29.771  1.00  0.00    -0.014 A 
BRANCH  42  43
ATOM     43  C   UNL A   1      39.293  29.829  30.434  1.00  0.00     0.031 A 
ATOM     44  C   UNL A   1      39.815  30.557  31.644  1.00  0.00     0.074 A 
ATOM     45  C   UNL A   1      39.998  28.807  29.908  1.00  0.00     0.049 A 
ATOM     46  N   UNL A   1      40.921  30.356  32.316  1.00  0.00    -0.248 NA
ATOM     47  C   UNL A   1      38.998  31.671  32.153  1.00  0.00     0.031 C 
ATOM     48  C   UNL A   1      39.621  28.044  28.716  1.00  0.00     0.029 A 
ATOM     49  N   UNL A   1      41.186  28.240  30.301  1.00  0.00    -0.354 N 
ATOM     50  C   UNL A   1      40.942  31.328  33.310  1.00  0.00     0.074 A 
ATOM     51  C   UNL A   1      39.762  32.145  33.127  1.00  0.00     0.031 C 
ATOM     52  C   UNL A   1      40.549  27.099  28.487  1.00  0.00     0.029 A 
ATOM     53  C   UNL A   1      41.603  27.212  29.491  1.00  0.00     0.049 A 
ATOM     54  H   UNL A   1      41.691  28.544  31.089  1.00  0.00     0.167 HD
ATOM     55  C   UNL A   1      41.851  31.514  34.297  1.00  0.00     0.031 A 
ATOM     56  C   UNL A   1      42.712  26.448  29.543  1.00  0.00     0.031 A 
ATOM     57  C   UNL A   1      43.018  30.694  34.485  1.00  0.00     0.049 A 
ATOM     58  C   UNL A   1      43.710  26.675  30.645  1.00  0.00     0.074 A 
ATOM     59  C   UNL A   1      43.968  30.766  35.489  1.00  0.00     0.029 A 
ATOM     60  N   UNL A   1      43.394  29.651  33.652  1.00  0.00    -0.354 N 
ATOM     61  N   UNL A   1      43.679  27.559  31.615  1.00  0.00    -0.248 NA
ATOM     62  C   UNL A   1      44.888  25.796  30.668  1.00  0.00     0.031 C 
ATOM     63  C   UNL A   1      44.944  29.796  35.237  1.00  0.00     0.029 A 
ATOM     64  C   UNL A   1      44.574  29.086  34.106  1.00  0.00     0.049 A 
ATOM     65  H   UNL A   1      42.897  29.356  32.855  1.00  0.00     0.167 HD
ATOM     66  C   UNL A   1      44.818  27.325  32.376  1.00  0.00     0.074 A 
ATOM     67  C   UNL A   1      45.511  26.210  31.764  1.00  0.00     0.031 C 
ATOM     68  C   UNL A   1      45.250  27.975  33.485  1.00  0.00     0.031 A 
BRANCH  55  69
ATOM     69  C   UNL A   1      41.618  32.658  35.250  1.00  0.00    -0.014 A 
ATOM     70  C   UNL A   1      42.205  33.917  35.031  1.00  0.00     0.010 A 
ATOM     71  C   UNL A   1      40.773  32.481  36.362  1.00  0.00     0.010 A 
ATOM     72  C   UNL A   1      41.989  34.965  35.928  1.00  0.00     0.020 A 
ATOM     73  C   UNL A   1      40.532  33.537  37.248  1.00  0.00     0.020 A 
ATOM     74  C   UNL A   1      41.158  34.768  37.035  1.00  0.00     0.054 A 
BRANCH  74  75
ATOM     75  S   UNL A   1      40.884  36.150  38.177  1.00  0.00     0.124 S 
ATOM     76  O   UNL A   1      40.770  35.463  39.460  1.00  0.00    -0.237 OA
ATOM     77  O   UNL A   1      42.091  36.955  38.002  1.00  0.00    -0.237 OA
ATOM     78  O   UNL A   1      39.654  36.766  37.687  1.00  0.00    -0.744 OA
ENDBRANCH  74  75
ENDBRANCH  55  69
BRANCH  56  79
ATOM     79  C   UNL A   1      42.929  25.383  28.525  1.00  0.00    -0.014 A 
ATOM     80  C   UNL A   1      42.547  24.056  28.790  1.00  0.00     0.010 A 
ATOM     81  C   UNL A   1      43.504  25.693  27.280  1.00  0.00     0.010 A 
ATOM     82  C   UNL A   1      42.748  23.056  27.833  1.00  0.00     0.020 A 
ATOM     83  C   UNL A   1      43.683  24.701  26.312  1.00  0.00     0.020 A 
ATOM     84  C   UNL A   1      43.313  23.386  26.598  1.00  0.00     0.054 A 
BRANCH  84  85
ATOM     85  S   UNL A   1      43.511  22.084  25.349  1.00  0.00     0.124 S 
ATOM     86  O   UNL A   1      44.795  21.499  25.720  1.00  0.00    -0.237 OA
ATOM     87  O   UNL A   1      42.339  21.242  25.582  1.00  0.00    -0.237 OA
ATOM     88  O   UNL A   1      43.496  22.820  24.087  1.00  0.00    -0.744 OA
ENDBRANCH  84  85
ENDBRANCH  56  79
BRANCH  68  89
ATOM     89  C   UNL A   1      46.517  27.481  34.130  1.00  0.00    -0.014 A 
ATOM     90  C   UNL A   1      46.487  26.502  35.138  1.00  0.00     0.010 A 
ATOM     91  C   UNL A   1      47.760  27.956  33.671  1.00  0.00     0.010 A 
ATOM     92  C   UNL A   1      47.677  26.025  35.694  1.00  0.00     0.020 A 
ATOM     93  C   UNL A   1      48.952  27.463  34.207  1.00  0.00     0.020 A 
ATOM     94  C   UNL A   1      48.903  26.509  35.224  1.00  0.00     0.054 A 
BRANCH  94  95
ATOM     95  S   UNL A   1      50.434  25.835  35.924  1.00  0.00     0.124 S 
ATOM     96  O   UNL A   1      51.444  26.367  35.014  1.00  0.00    -0.237 OA
ATOM     97  O   UNL A   1      50.446  26.396  37.273  1.00  0.00    -0.237 OA
ATOM     98  O   UNL A   1      50.237  24.388  35.860  1.00  0.00    -0.744 OA
ENDBRANCH  94  95
ENDBRANCH  68  89
ENDBRANCH  42  43
ENDBRANCH  34  37
ENDBRANCH  32  33
ENDBRANCH  31  32
ENDBRANCH   1  31
TORSDOF 18
ENDMDL
MODEL 3
REMARK VINA RESULT:     -11.7      6.339     11.575
REMARK SMILES CC1(C)[C@@]2(C(=O)NCCCCCCNC(=O)c3ccc(-c4c5nc(c(-c6ccc(S(=O)(=O)[O-])cc6)c6ccc([nH]6)c(-c6ccc(S(=O)(=O)[O-])cc6)c6nc(c(-c7ccc(S(=O)(=O)[O-])cc7)c7ccc4[nH]7)C=C6)C=C5)cc3)CC[C@]1(C)/C(=N/NC(=O)c1ccc(Cl)cc1)C2
REMARK SMILES IDX 11 1 10 2 9 3 8 4 7 5 5 6 6 7 4 9 1 10 2 11 3 12 79 13 77 14
REMARK SMILES IDX 93 15 78 16 80 17 81 18 82 19 83 20 84 21 85 23 86 24 87 25
REMARK SMILES IDX 92 26 88 27 91 28 89 29 90 30 12 31 13 32 14 33 15 34 16 36
REMARK SMILES IDX 17 37 18 38 76 39 19 40 75 41 20 42 21 43 22 44 69 45 23 46
REMARK SMILES IDX 74 47 68 48 70 49 24 50 73 51 67 52 66 53 25 55 55 56 36 57
REMARK SMILES IDX 54 58 37 59 40 60 53 61 71 62 38 63 39 64 52 66 72 67 41 68
REMARK SMILES IDX 26 69 27 70 35 71 28 72 34 73 29 74 30 75 31 76 32 77 33 78
REMARK SMILES IDX 56 79 57 80 65 81 58 82 64 83 59 84 60 85 61 86 62 87 63 88
REMARK SMILES IDX 42 89 43 90 51 91 44 92 50 93 45 94 46 95 47 96 48 97 49 98
REMARK H PARENT 7 8 83 22 14 35 70 54 40 65
REMARK Flexibility Score: inf
ROOT
ATOM      1  C   UNL A   1      35.133  31.611  27.885  1.00  0.00     0.002 C 
ENDROOT
BRANCH   1   2
ATOM      2  C   UNL A   1      33.628  31.749  27.605  1.00  0.00     0.002 C 
BRANCH   2   3
ATOM      3  C   UNL A   1      32.941  30.438  27.212  1.00  0.00     0.021 C 
BRANCH   3   4
ATOM      4  C   UNL A   1      33.828  29.201  26.991  1.00  0.00     0.116 C 
BRANCH   4   5
ATOM      5  N   UNL A   1      34.242  28.879  25.627  1.00  0.00    -0.356 N 
ATOM      6  C   UNL A   1      33.471  28.547  24.536  1.00  0.00     0.227 C 
ATOM      7  O   UNL A   1      33.795  29.056  23.458  1.00  0.00    -0.274 OA
ATOM      8  H   UNL A   1      35.213  28.903  25.465  1.00  0.00     0.163 HD
BRANCH   6   9
ATOM      9  C   UNL A   1      32.405  27.440  24.582  1.00  0.00     0.060 C 
ATOM     10  C   UNL A   1      31.298  27.723  22.252  1.00  0.00     0.013 C 
ATOM     11  C   UNL A   1      31.962  26.744  23.247  1.00  0.00    -0.010 C 
ATOM     12  C   UNL A   1      33.020  25.953  22.449  1.00  0.00     0.013 C 
ATOM     13  C   UNL A   1      30.976  25.785  24.001  1.00  0.00     0.014 C 
ATOM     14  C   UNL A   1      31.033  27.832  25.222  1.00  0.00     0.019 C 
ATOM     15  C   UNL A   1      32.966  26.238  25.381  1.00  0.00     0.071 C 
ATOM     16  C   UNL A   1      30.044  26.758  24.734  1.00  0.00     0.014 C 
ATOM     17  C   UNL A   1      30.260  24.722  23.196  1.00  0.00     0.018 C 
ATOM     18  C   UNL A   1      31.871  25.248  25.158  1.00  0.00     0.046 C 
ATOM     19  N   UNL A   1      31.496  24.194  25.801  1.00  0.00    -0.181 NA
BRANCH  19  20
ATOM     20  N   UNL A   1      31.943  23.542  26.903  1.00  0.00    -0.243 N 
ATOM     21  C   UNL A   1      32.934  22.688  27.329  1.00  0.00     0.271 C 
ATOM     22  H   UNL A   1      31.353  23.755  27.662  1.00  0.00     0.194 HD
ATOM     23  O   UNL A   1      32.901  22.278  28.493  1.00  0.00    -0.267 OA
BRANCH  21  24
ATOM     24  C   UNL A   1      34.021  22.178  26.502  1.00  0.00     0.041 A 
ATOM     25  C   UNL A   1      35.185  22.947  26.393  1.00  0.00     0.015 A 
ATOM     26  C   UNL A   1      33.885  21.004  25.765  1.00  0.00     0.015 A 
ATOM     27  C   UNL A   1      36.301  22.427  25.740  1.00  0.00     0.021 A 
ATOM     28  C   UNL A   1      35.020  20.470  25.146  1.00  0.00     0.021 A 
ATOM     29  C   UNL A   1      36.234  21.155  25.186  1.00  0.00     0.041 A 
ATOM     30  Cl  UNL A   1      37.675  20.405  24.621  1.00  0.00    -0.084 Cl
ENDBRANCH  21  24
ENDBRANCH  19  20
ENDBRANCH   6   9
ENDBRANCH   4   5
ENDBRANCH   3   4
ENDBRANCH   2   3
ENDBRANCH   1   2
BRANCH   1  31
ATOM     31  C   UNL A   1      35.895  32.908  28.187  1.00  0.00     0.021 C 
BRANCH  31  32
ATOM     32  C   UNL A   1      36.780  32.863  29.430  1.00  0.00     0.116 C 
BRANCH  32  33
ATOM     33  N   UNL A   1      36.360  31.815  30.349  1.00  0.00    -0.352 N 
ATOM     34  C   UNL A   1      36.926  30.577  30.567  1.00  0.00     0.251 C 
ATOM     35  H   UNL A   1      35.563  32.019  30.889  1.00  0.00     0.163 HD
ATOM     36  O   UNL A   1      36.309  29.711  31.168  1.00  0.00    -0.269 OA
BRANCH  34  37
ATOM     37  C   UNL A   1      38.291  30.303  30.061  1.00  0.00     0.039 A 
ATOM     38  C   UNL A   1      39.369  30.309  30.949  1.00  0.00     0.014 A 
ATOM     39  C   UNL A   1      38.500  30.058  28.701  1.00  0.00     0.014 A 
ATOM     40  C   UNL A   1      40.653  30.011  30.481  1.00  0.00     0.010 A 
ATOM     41  C   UNL A   1      39.769  29.707  28.247  1.00  0.00     0.010 A 
ATOM     42  C   UNL A   1      40.859  29.682  29.131  1.00  0.00    -0.014 A 
BRANCH  42  43
ATOM     43  C   UNL A   1      42.206  29.315  28.619  1.00  0.00     0.031 A 
ATOM     44  C   UNL A   1      42.487  27.902  28.180  1.00  0.00     0.074 A 
ATOM     45  C   UNL A   1      43.196  30.230  28.618  1.00  0.00     0.049 A 
ATOM     46  N   UNL A   1      43.613  27.373  27.775  1.00  0.00    -0.248 NA
ATOM     47  C   UNL A   1      41.360  26.956  28.224  1.00  0.00     0.031 C 
ATOM     48  C   UNL A   1      43.064  31.622  29.054  1.00  0.00     0.029 A 
ATOM     49  N   UNL A   1      44.514  30.125  28.246  1.00  0.00    -0.354 N 
ATOM     50  C   UNL A   1      43.337  26.032  27.535  1.00  0.00     0.074 A 
ATOM     51  C   UNL A   1      41.948  25.819  27.882  1.00  0.00     0.031 C 
ATOM     52  C   UNL A   1      44.246  32.243  28.908  1.00  0.00     0.029 A 
ATOM     53  C   UNL A   1      45.228  31.289  28.404  1.00  0.00     0.049 A 
ATOM     54  H   UNL A   1      44.910  29.293  27.900  1.00  0.00     0.167 HD
ATOM     55  C   UNL A   1      44.157  25.068  27.053  1.00  0.00     0.031 A 
ATOM     56  C   UNL A   1      46.529  31.558  28.175  1.00  0.00     0.031 A 
ATOM     57  C   UNL A   1      45.535  25.283  26.697  1.00  0.00     0.049 A 
ATOM     58  C   UNL A   1      47.422  30.471  27.643  1.00  0.00     0.074 A 
ATOM     59  C   UNL A   1      46.432  24.385  26.146  1.00  0.00     0.029 A 
ATOM     60  N   UNL A   1      46.214  26.482  26.855  1.00  0.00    -0.354 N 
ATOM     61  N   UNL A   1      47.124  29.224  27.362  1.00  0.00    -0.248 NA
ATOM     62  C   UNL A   1      48.825  30.829  27.389  1.00  0.00     0.031 C 
ATOM     63  C   UNL A   1      47.668  25.027  26.015  1.00  0.00     0.029 A 
ATOM     64  C   UNL A   1      47.526  26.341  26.435  1.00  0.00     0.049 A 
ATOM     65  H   UNL A   1      45.822  27.310  27.215  1.00  0.00     0.167 HD
ATOM     66  C   UNL A   1      48.295  28.657  26.874  1.00  0.00     0.074 A 
ATOM     67  C   UNL A   1      49.303  29.698  26.886  1.00  0.00     0.031 C 
ATOM     68  C   UNL A   1      48.516  27.387  26.452  1.00  0.00     0.031 A 
BRANCH  55  69
ATOM     69  C   UNL A   1      43.582  23.685  26.887  1.00  0.00    -0.014 A 
ATOM     70  C   UNL A   1      43.259  23.180  25.614  1.00  0.00     0.010 A 
ATOM     71  C   UNL A   1      43.393  22.865  28.016  1.00  0.00     0.010 A 
ATOM     72  C   UNL A   1      42.717  21.901  25.476  1.00  0.00     0.020 A 
ATOM     73  C   UNL A   1      42.876  21.572  27.878  1.00  0.00     0.020 A 
ATOM     74  C   UNL A   1      42.523  21.106  26.610  1.00  0.00     0.054 A 
BRANCH  74  75
ATOM     75  S   UNL A   1      41.829  19.443  26.399  1.00  0.00     0.124 S 
ATOM     76  O   UNL A   1      42.319  18.760  27.593  1.00  0.00    -0.237 OA
ATOM     77  O   UNL A   1      40.390  19.697  26.368  1.00  0.00    -0.237 OA
ATOM     78  O   UNL A   1      42.404  18.985  25.138  1.00  0.00    -0.744 OA
ENDBRANCH  74  75
ENDBRANCH  55  69
BRANCH  56  79
ATOM     79  C   UNL A   1      47.060  32.925  28.433  1.00  0.00    -0.014 A 
ATOM     80  C   UNL A   1      47.011  33.909  27.431  1.00  0.00     0.010 A 
ATOM     81  C   UNL A   1      47.605  33.252  29.688  1.00  0.00     0.010 A 
ATOM     82  C   UNL A   1      47.508  35.194  27.674  1.00  0.00     0.020 A 
ATOM     83  C   UNL A   1      48.079  34.543  29.942  1.00  0.00     0.020 A 
ATOM     84  C   UNL A   1      48.036  35.503  28.930  1.00  0.00     0.054 A 
BRANCH  84  85
ATOM     85  S   UNL A   1      48.622  37.192  29.243  1.00  0.00     0.124 S 
ATOM     86  O   UNL A   1      50.070  37.016  29.247  1.00  0.00    -0.237 OA
ATOM     87  O   UNL A   1      48.076  37.931  28.107  1.00  0.00    -0.237 OA
ATOM     88  O   UNL A   1      48.026  37.524  30.536  1.00  0.00    -0.744 OA
ENDBRANCH  84  85
ENDBRANCH  56  79
BRANCH  68  89
ATOM     89  C   UNL A   1      49.891  27.056  25.938  1.00  0.00    -0.014 A 
ATOM     90  C   UNL A   1      50.259  27.335  24.610  1.00  0.00     0.010 A 
ATOM     91  C   UNL A   1      50.848  26.517  26.817  1.00  0.00     0.010 A 
ATOM     92  C   UNL A   1      51.554  27.059  24.164  1.00  0.00     0.020 A 
ATOM     93  C   UNL A   1      52.151  26.263  26.381  1.00  0.00     0.020 A 
ATOM     94  C   UNL A   1      52.493  26.525  25.053  1.00  0.00     0.054 A 
BRANCH  94  95
ATOM     95  S   UNL A   1      54.182  26.225  24.465  1.00  0.00     0.124 S 
ATOM     96  O   UNL A   1      54.383  24.824  24.821  1.00  0.00    -0.237 OA
ATOM     97  O   UNL A   1      54.078  26.501  23.034  1.00  0.00    -0.237 OA
ATOM     98  O   UNL A   1      54.986  27.183  25.220  1.00  0.00    -0.744 OA
ENDBRANCH  94  95
ENDBRANCH  68  89
ENDBRANCH  42  43
ENDBRANCH  34  37
ENDBRANCH  32  33
ENDBRANCH  31  32
ENDBRANCH   1  31
TORSDOF 18
ENDMDL
