MODEL 1
REMARK VINA RESULT:      -9.9      0.000      0.000
REMARK SMILES C[C@]([NH2+]Cc1nc(-c2ccsc2)no1)(C(=O)NCCCCCCNC(=O)c1ccc(-c2c3nc(c(-c4ccc(S(=O)(=O)[O-])cc4)c4ccc([nH]4)c(-c4ccc(S(=O)(=O)[O-])cc4)c4nc(c(-c5ccc(S(=O)(=O)[O-])cc5)c5ccc2[nH]5)C=C4)C=C3)cc1)C(F)(F)F
REMARK SMILES IDX 20 1 19 2 18 3 17 4 15 5 16 6 2 8 1 9 87 10 88 11 89 12
REMARK SMILES IDX 90 13 3 14 4 17 5 18 6 19 14 20 7 21 13 22 8 23 9 24 12 25
REMARK SMILES IDX 10 26 11 27 21 28 22 29 23 30 24 31 25 32 26 34 27 35 28 36
REMARK SMILES IDX 86 37 29 38 85 39 30 40 31 41 32 42 79 43 33 44 84 45 78 46
REMARK SMILES IDX 80 47 34 48 83 49 77 50 76 51 35 53 65 54 46 55 64 56 47 57
REMARK SMILES IDX 50 58 63 59 81 60 48 61 49 62 62 64 82 65 51 66 36 67 37 68
REMARK SMILES IDX 45 69 38 70 44 71 39 72 40 73 41 74 42 75 43 76 66 77 67 78
REMARK SMILES IDX 75 79 68 80 74 81 69 82 70 83 71 84 72 85 73 86 52 87 53 88
REMARK SMILES IDX 61 89 54 90 60 91 55 92 56 93 57 94 58 95 59 96
REMARK H PARENT 17 7 3 15 3 16 24 33 80 52 50 63
REMARK Flexibility Score: inf
ROOT
ATOM      1  C   UNL A   1      33.861  28.380  23.119  1.00  0.00     0.002 C 
ENDROOT
BRANCH   1   2
ATOM      2  C   UNL A   1      33.215  27.086  22.622  1.00  0.00     0.021 C 
BRANCH   2   3
ATOM      3  C   UNL A   1      34.066  25.829  22.846  1.00  0.00     0.116 C 
BRANCH   3   4
ATOM      4  N   UNL A   1      33.258  24.638  22.651  1.00  0.00    -0.350 N 
ATOM      5  C   UNL A   1      32.972  23.541  23.406  1.00  0.00     0.290 C 
ATOM      6  O   UNL A   1      32.492  22.607  22.753  1.00  0.00    -0.267 OA
ATOM      7  H   UNL A   1      32.816  24.619  21.771  1.00  0.00     0.163 HD
BRANCH   5   8
ATOM      8  C   UNL A   1      33.249  23.405  24.933  1.00  0.00     0.268 C 
ATOM      9  C   UNL A   1      32.489  22.238  25.587  1.00  0.00     0.101 C 
BRANCH   8  10
ATOM     10  C   UNL A   1      34.764  22.990  24.984  1.00  0.00     0.453 C 
ATOM     11  F   UNL A   1      35.002  21.984  25.859  1.00  0.00    -0.164 F 
ATOM     12  F   UNL A   1      35.182  22.534  23.772  1.00  0.00    -0.164 F 
ATOM     13  F   UNL A   1      35.573  24.031  25.297  1.00  0.00    -0.164 F 
ENDBRANCH   8  10
BRANCH   8  14
ATOM     14  N   UNL A   1      33.061  24.718  25.670  1.00  0.00    -0.318 N 
ATOM     15  H   UNL A   1      33.393  25.470  25.067  1.00  0.00     0.347 HD
ATOM     16  H   UNL A   1      33.584  24.628  26.542  1.00  0.00     0.347 HD
BRANCH  14  17
ATOM     17  C   UNL A   1      31.689  25.028  26.059  1.00  0.00     0.363 C 
BRANCH  17  18
ATOM     18  C   UNL A   1      30.807  25.695  25.060  1.00  0.00     0.282 A 
ATOM     19  N   UNL A   1      30.655  26.992  24.895  1.00  0.00    -0.186 NA
ATOM     20  O   UNL A   1      30.035  24.944  24.226  1.00  0.00    -0.333 OA
ATOM     21  C   UNL A   1      29.707  27.046  23.910  1.00  0.00     0.203 A 
ATOM     22  N   UNL A   1      29.283  25.853  23.468  1.00  0.00    -0.057 NA
BRANCH  21  23
ATOM     23  C   UNL A   1      29.193  28.342  23.467  1.00  0.00     0.033 A 
ATOM     24  C   UNL A   1      29.955  29.547  23.556  1.00  0.00     0.024 A 
ATOM     25  C   UNL A   1      27.939  28.565  22.943  1.00  0.00     0.077 A 
ATOM     26  C   UNL A   1      29.255  30.639  23.090  1.00  0.00     0.065 A 
ATOM     27  S   UNL A   1      27.680  30.216  22.569  1.00  0.00    -0.152 S 
ENDBRANCH  21  23
ENDBRANCH  17  18
ENDBRANCH  14  17
ENDBRANCH   8  14
ENDBRANCH   5   8
ENDBRANCH   3   4
ENDBRANCH   2   3
ENDBRANCH   1   2
BRANCH   1  28
ATOM     28  C   UNL A   1      33.456  28.796  24.536  1.00  0.00     0.002 C 
BRANCH  28  29
ATOM     29  C   UNL A   1      34.194  28.071  25.664  1.00  0.00     0.021 C 
BRANCH  29  30
ATOM     30  C   UNL A   1      33.632  28.315  27.063  1.00  0.00     0.116 C 
BRANCH  30  31
ATOM     31  N   UNL A   1      33.506  29.733  27.357  1.00  0.00    -0.352 N 
ATOM     32  C   UNL A   1      34.384  30.568  28.003  1.00  0.00     0.251 C 
ATOM     33  H   UNL A   1      32.672  30.155  27.050  1.00  0.00     0.163 HD
ATOM     34  O   UNL A   1      34.019  31.682  28.363  1.00  0.00    -0.269 OA
BRANCH  32  35
ATOM     35  C   UNL A   1      35.765  30.113  28.273  1.00  0.00     0.039 A 
ATOM     36  C   UNL A   1      36.716  30.191  27.252  1.00  0.00     0.014 A 
ATOM     37  C   UNL A   1      36.116  29.596  29.524  1.00  0.00     0.014 A 
ATOM     38  C   UNL A   1      38.033  29.802  27.504  1.00  0.00     0.010 A 
ATOM     39  C   UNL A   1      37.443  29.272  29.793  1.00  0.00     0.010 A 
ATOM     40  C   UNL A   1      38.414  29.365  28.784  1.00  0.00    -0.014 A 
BRANCH  40  41
ATOM     41  C   UNL A   1      39.821  29.002  29.085  1.00  0.00     0.031 A 
ATOM     42  C   UNL A   1      40.753  30.016  29.690  1.00  0.00     0.074 A 
ATOM     43  C   UNL A   1      40.277  27.776  28.758  1.00  0.00     0.049 A 
ATOM     44  N   UNL A   1      42.026  29.902  29.970  1.00  0.00    -0.248 NA
ATOM     45  C   UNL A   1      40.187  31.340  29.998  1.00  0.00     0.031 C 
ATOM     46  C   UNL A   1      39.484  26.716  28.128  1.00  0.00     0.029 A 
ATOM     47  N   UNL A   1      41.522  27.215  28.902  1.00  0.00    -0.354 N 
ATOM     48  C   UNL A   1      42.416  31.139  30.469  1.00  0.00     0.074 A 
ATOM     49  C   UNL A   1      41.258  32.003  30.409  1.00  0.00     0.031 C 
ATOM     50  C   UNL A   1      40.254  25.629  27.962  1.00  0.00     0.029 A 
ATOM     51  C   UNL A   1      41.603  25.924  28.436  1.00  0.00     0.049 A 
ATOM     52  H   UNL A   1      42.283  27.692  29.302  1.00  0.00     0.167 HD
ATOM     53  C   UNL A   1      43.624  31.516  30.953  1.00  0.00     0.031 A 
ATOM     54  C   UNL A   1      42.647  25.073  28.387  1.00  0.00     0.031 A 
ATOM     55  C   UNL A   1      44.771  30.649  31.023  1.00  0.00     0.049 A 
ATOM     56  C   UNL A   1      43.978  25.515  28.929  1.00  0.00     0.074 A 
ATOM     57  C   UNL A   1      46.022  30.921  31.549  1.00  0.00     0.029 A 
ATOM     58  N   UNL A   1      44.807  29.345  30.557  1.00  0.00    -0.354 N 
ATOM     59  N   UNL A   1      44.310  26.669  29.456  1.00  0.00    -0.248 NA
ATOM     60  C   UNL A   1      45.072  24.535  28.882  1.00  0.00     0.031 C 
ATOM     61  C   UNL A   1      46.831  29.796  31.353  1.00  0.00     0.029 A 
ATOM     62  C   UNL A   1      46.065  28.804  30.760  1.00  0.00     0.049 A 
ATOM     63  H   UNL A   1      44.049  28.872  30.142  1.00  0.00     0.167 HD
ATOM     64  C   UNL A   1      45.645  26.545  29.826  1.00  0.00     0.074 A 
ATOM     65  C   UNL A   1      46.053  25.200  29.477  1.00  0.00     0.031 C 
ATOM     66  C   UNL A   1      46.458  27.464  30.406  1.00  0.00     0.031 A 
BRANCH  53  67
ATOM     67  C   UNL A   1      43.768  32.935  31.439  1.00  0.00    -0.014 A 
ATOM     68  C   UNL A   1      44.254  33.947  30.593  1.00  0.00     0.010 A 
ATOM     69  C   UNL A   1      43.373  33.270  32.748  1.00  0.00     0.010 A 
ATOM     70  C   UNL A   1      44.381  35.260  31.056  1.00  0.00     0.020 A 
ATOM     71  C   UNL A   1      43.470  34.587  33.207  1.00  0.00     0.020 A 
ATOM     72  C   UNL A   1      43.990  35.570  32.362  1.00  0.00     0.054 A 
BRANCH  72  73
ATOM     73  S   UNL A   1      44.143  37.286  32.930  1.00  0.00     0.124 S 
ATOM     74  O   UNL A   1      43.110  37.354  33.961  1.00  0.00    -0.237 OA
ATOM     75  O   UNL A   1      45.519  37.341  33.416  1.00  0.00    -0.237 OA
ATOM     76  O   UNL A   1      43.876  38.074  31.730  1.00  0.00    -0.744 OA
ENDBRANCH  72  73
ENDBRANCH  53  67
BRANCH  54  77
ATOM     77  C   UNL A   1      42.467  23.712  27.813  1.00  0.00    -0.014 A 
ATOM     78  C   UNL A   1      42.769  23.460  26.463  1.00  0.00     0.010 A 
ATOM     79  C   UNL A   1      42.008  22.655  28.619  1.00  0.00     0.010 A 
ATOM     80  C   UNL A   1      42.603  22.179  25.927  1.00  0.00     0.020 A 
ATOM     81  C   UNL A   1      41.868  21.367  28.094  1.00  0.00     0.020 A 
ATOM     82  C   UNL A   1      42.157  21.140  26.748  1.00  0.00     0.054 A 
BRANCH  82  83
ATOM     83  S   UNL A   1      42.005  19.473  26.046  1.00  0.00     0.124 S 
ATOM     84  O   UNL A   1      42.830  19.572  24.847  1.00  0.00    -0.237 OA
ATOM     85  O   UNL A   1      42.537  18.631  27.115  1.00  0.00    -0.237 OA
ATOM     86  O   UNL A   1      40.569  19.333  25.811  1.00  0.00    -0.744 OA
ENDBRANCH  82  83
ENDBRANCH  54  77
BRANCH  66  87
ATOM     87  C   UNL A   1      47.865  27.037  30.729  1.00  0.00    -0.014 A 
ATOM     88  C   UNL A   1      48.932  27.320  29.858  1.00  0.00     0.010 A 
ATOM     89  C   UNL A   1      48.129  26.392  31.952  1.00  0.00     0.010 A 
ATOM     90  C   UNL A   1      50.234  26.937  30.191  1.00  0.00     0.020 A 
ATOM     91  C   UNL A   1      49.433  26.034  32.299  1.00  0.00     0.020 A 
ATOM     92  C   UNL A   1      50.476  26.296  31.411  1.00  0.00     0.054 A 
BRANCH  92  93
ATOM     93  S   UNL A   1      52.181  25.848  31.838  1.00  0.00     0.124 S 
ATOM     94  O   UNL A   1      52.030  24.465  32.280  1.00  0.00    -0.237 OA
ATOM     95  O   UNL A   1      52.887  26.030  30.573  1.00  0.00    -0.237 OA
ATOM     96  O   UNL A   1      52.537  26.803  32.885  1.00  0.00    -0.744 OA
ENDBRANCH  92  93
ENDBRANCH  66  87
ENDBRANCH  40  41
ENDBRANCH  32  35
ENDBRANCH  30  31
ENDBRANCH  29  30
ENDBRANCH  28  29
ENDBRANCH   1  28
TORSDOF 21
ENDMDL
MODEL 2
REMARK VINA RESULT:      -9.6      3.336      5.104
REMARK SMILES C[C@]([NH2+]Cc1nc(-c2ccsc2)no1)(C(=O)NCCCCCCNC(=O)c1ccc(-c2c3nc(c(-c4ccc(S(=O)(=O)[O-])cc4)c4ccc([nH]4)c(-c4ccc(S(=O)(=O)[O-])cc4)c4nc(c(-c5ccc(S(=O)(=O)[O-])cc5)c5ccc2[nH]5)C=C4)C=C3)cc1)C(F)(F)F
REMARK SMILES IDX 20 1 19 2 18 3 17 4 15 5 16 6 2 8 1 9 87 10 88 11 89 12
REMARK SMILES IDX 90 13 3 14 4 17 5 18 6 19 14 20 7 21 13 22 8 23 9 24 12 25
REMARK SMILES IDX 10 26 11 27 21 28 22 29 23 30 24 31 25 32 26 34 27 35 28 36
REMARK SMILES IDX 86 37 29 38 85 39 30 40 31 41 32 42 79 43 33 44 84 45 78 46
REMARK SMILES IDX 80 47 34 48 83 49 77 50 76 51 35 53 65 54 46 55 64 56 47 57
REMARK SMILES IDX 50 58 63 59 81 60 48 61 49 62 62 64 82 65 51 66 36 67 37 68
REMARK SMILES IDX 45 69 38 70 44 71 39 72 40 73 41 74 42 75 43 76 66 77 67 78
REMARK SMILES IDX 75 79 68 80 74 81 69 82 70 83 71 84 72 85 73 86 52 87 53 88
REMARK SMILES IDX 61 89 54 90 60 91 55 92 56 93 57 94 58 95 59 96
REMARK H PARENT 17 7 3 15 3 16 24 33 80 52 50 63
REMARK Flexibility Score: inf
ROOT
ATOM      1  C   UNL A   1      32.681  29.884  25.532  1.00  0.00     0.002 C 
ENDROOT
BRANCH   1   2
ATOM      2  C   UNL A   1      31.388  29.118  25.251  1.00  0.00     0.021 C 
BRANCH   2   3
ATOM      3  C   UNL A   1      31.309  28.506  23.845  1.00  0.00     0.116 C 
BRANCH   3   4
ATOM      4  N   UNL A   1      30.618  27.230  23.895  1.00  0.00    -0.350 N 
ATOM      5  C   UNL A   1      31.015  25.927  23.931  1.00  0.00     0.290 C 
ATOM      6  O   UNL A   1      30.110  25.131  23.653  1.00  0.00    -0.267 OA
ATOM      7  H   UNL A   1      29.638  27.329  23.906  1.00  0.00     0.163 HD
BRANCH   5   8
ATOM      8  C   UNL A   1      32.462  25.438  24.233  1.00  0.00     0.268 C 
ATOM      9  C   UNL A   1      33.536  26.502  23.951  1.00  0.00     0.101 C 
BRANCH   8  10
ATOM     10  C   UNL A   1      32.459  25.259  25.795  1.00  0.00     0.453 C 
ATOM     11  F   UNL A   1      33.493  24.505  26.238  1.00  0.00    -0.164 F 
ATOM     12  F   UNL A   1      32.584  26.462  26.418  1.00  0.00    -0.164 F 
ATOM     13  F   UNL A   1      31.306  24.715  26.250  1.00  0.00    -0.164 F 
ENDBRANCH   8  10
BRANCH   8  14
ATOM     14  N   UNL A   1      32.767  24.104  23.574  1.00  0.00    -0.318 N 
ATOM     15  H   UNL A   1      33.771  23.942  23.640  1.00  0.00     0.347 HD
ATOM     16  H   UNL A   1      32.425  24.180  22.615  1.00  0.00     0.347 HD
BRANCH  14  17
ATOM     17  C   UNL A   1      32.086  22.950  24.151  1.00  0.00     0.363 C 
BRANCH  17  18
ATOM     18  C   UNL A   1      32.875  21.706  24.375  1.00  0.00     0.282 A 
ATOM     19  N   UNL A   1      32.436  20.471  24.262  1.00  0.00    -0.186 NA
ATOM     20  O   UNL A   1      34.178  21.789  24.765  1.00  0.00    -0.333 OA
ATOM     21  C   UNL A   1      33.533  19.742  24.631  1.00  0.00     0.203 A 
ATOM     22  N   UNL A   1      34.612  20.470  24.955  1.00  0.00    -0.057 NA
BRANCH  21  23
ATOM     23  C   UNL A   1      33.444  18.284  24.707  1.00  0.00     0.033 A 
ATOM     24  C   UNL A   1      34.109  17.419  23.784  1.00  0.00     0.024 A 
ATOM     25  C   UNL A   1      32.714  17.578  25.637  1.00  0.00     0.077 A 
ATOM     26  C   UNL A   1      33.864  16.089  24.051  1.00  0.00     0.065 A 
ATOM     27  S   UNL A   1      32.822  15.886  25.393  1.00  0.00    -0.152 S 
ENDBRANCH  21  23
ENDBRANCH  17  18
ENDBRANCH  14  17
ENDBRANCH   8  14
ENDBRANCH   5   8
ENDBRANCH   3   4
ENDBRANCH   2   3
ENDBRANCH   1   2
BRANCH   1  28
ATOM     28  C   UNL A   1      33.095  29.924  27.005  1.00  0.00     0.002 C 
BRANCH  28  29
ATOM     29  C   UNL A   1      34.261  29.005  27.381  1.00  0.00     0.021 C 
BRANCH  29  30
ATOM     30  C   UNL A   1      35.515  29.723  27.873  1.00  0.00     0.116 C 
BRANCH  30  31
ATOM     31  N   UNL A   1      35.453  30.008  29.297  1.00  0.00    -0.352 N 
ATOM     32  C   UNL A   1      36.420  29.849  30.258  1.00  0.00     0.251 C 
ATOM     33  H   UNL A   1      34.594  30.365  29.618  1.00  0.00     0.163 HD
ATOM     34  O   UNL A   1      36.124  29.927  31.446  1.00  0.00    -0.269 OA
BRANCH  32  35
ATOM     35  C   UNL A   1      37.816  29.571  29.856  1.00  0.00     0.039 A 
ATOM     36  C   UNL A   1      38.718  29.107  30.816  1.00  0.00     0.014 A 
ATOM     37  C   UNL A   1      38.236  29.784  28.539  1.00  0.00     0.014 A 
ATOM     38  C   UNL A   1      40.029  28.803  30.442  1.00  0.00     0.010 A 
ATOM     39  C   UNL A   1      39.523  29.418  28.155  1.00  0.00     0.010 A 
ATOM     40  C   UNL A   1      40.434  28.930  29.104  1.00  0.00    -0.014 A 
BRANCH  40  41
ATOM     41  C   UNL A   1      41.807  28.558  28.678  1.00  0.00     0.031 A 
ATOM     42  C   UNL A   1      42.887  29.603  28.606  1.00  0.00     0.074 A 
ATOM     43  C   UNL A   1      42.067  27.291  28.299  1.00  0.00     0.049 A 
ATOM     44  N   UNL A   1      44.127  29.482  28.205  1.00  0.00    -0.248 NA
ATOM     45  C   UNL A   1      42.520  30.970  29.015  1.00  0.00     0.031 C 
ATOM     46  C   UNL A   1      41.095  26.194  28.283  1.00  0.00     0.029 A 
ATOM     47  N   UNL A   1      43.225  26.712  27.844  1.00  0.00    -0.354 N 
ATOM     48  C   UNL A   1      44.680  30.753  28.296  1.00  0.00     0.074 A 
ATOM     49  C   UNL A   1      43.630  31.640  28.745  1.00  0.00     0.031 C 
ATOM     50  C   UNL A   1      41.702  25.073  27.865  1.00  0.00     0.029 A 
ATOM     51  C   UNL A   1      43.094  25.376  27.544  1.00  0.00     0.049 A 
ATOM     52  H   UNL A   1      44.070  27.206  27.742  1.00  0.00     0.167 HD
ATOM     53  C   UNL A   1      45.954  31.143  28.048  1.00  0.00     0.031 A 
ATOM     54  C   UNL A   1      43.990  24.493  27.060  1.00  0.00     0.031 A 
ATOM     55  C   UNL A   1      47.000  30.255  27.614  1.00  0.00     0.049 A 
ATOM     56  C   UNL A   1      45.397  24.951  26.791  1.00  0.00     0.074 A 
ATOM     57  C   UNL A   1      48.335  30.543  27.391  1.00  0.00     0.029 A 
ATOM     58  N   UNL A   1      46.830  28.906  27.339  1.00  0.00    -0.354 N 
ATOM     59  N   UNL A   1      45.918  26.144  26.945  1.00  0.00    -0.248 NA
ATOM     60  C   UNL A   1      46.341  23.939  26.296  1.00  0.00     0.031 C 
ATOM     61  C   UNL A   1      48.961  29.380  26.931  1.00  0.00     0.029 A 
ATOM     62  C   UNL A   1      48.029  28.353  26.925  1.00  0.00     0.049 A 
ATOM     63  H   UNL A   1      45.981  28.415  27.424  1.00  0.00     0.167 HD
ATOM     64  C   UNL A   1      47.257  26.021  26.589  1.00  0.00     0.074 A 
ATOM     65  C   UNL A   1      47.468  24.634  26.229  1.00  0.00     0.031 C 
ATOM     66  C   UNL A   1      48.224  26.971  26.567  1.00  0.00     0.031 A 
BRANCH  53  67
ATOM     67  C   UNL A   1      46.285  32.601  28.235  1.00  0.00    -0.014 A 
ATOM     68  C   UNL A   1      46.103  33.527  27.192  1.00  0.00     0.010 A 
ATOM     69  C   UNL A   1      46.745  33.060  29.483  1.00  0.00     0.010 A 
ATOM     70  C   UNL A   1      46.412  34.877  27.380  1.00  0.00     0.020 A 
ATOM     71  C   UNL A   1      47.028  34.414  29.685  1.00  0.00     0.020 A 
ATOM     72  C   UNL A   1      46.876  35.311  28.625  1.00  0.00     0.054 A 
BRANCH  72  73
ATOM     73  S   UNL A   1      47.247  37.073  28.849  1.00  0.00     0.124 S 
ATOM     74  O   UNL A   1      45.944  37.606  29.242  1.00  0.00    -0.237 OA
ATOM     75  O   UNL A   1      48.261  37.055  29.899  1.00  0.00    -0.237 OA
ATOM     76  O   UNL A   1      47.722  37.497  27.534  1.00  0.00    -0.744 OA
ENDBRANCH  72  73
ENDBRANCH  53  67
BRANCH  54  77
ATOM     77  C   UNL A   1      43.581  23.085  26.810  1.00  0.00    -0.014 A 
ATOM     78  C   UNL A   1      43.879  22.460  25.587  1.00  0.00     0.010 A 
ATOM     79  C   UNL A   1      42.907  22.353  27.805  1.00  0.00     0.010 A 
ATOM     80  C   UNL A   1      43.497  21.134  25.356  1.00  0.00     0.020 A 
ATOM     81  C   UNL A   1      42.549  21.019  27.589  1.00  0.00     0.020 A 
ATOM     82  C   UNL A   1      42.837  20.422  26.362  1.00  0.00     0.054 A 
BRANCH  82  83
ATOM     83  S   UNL A   1      42.404  18.685  26.063  1.00  0.00     0.124 S 
ATOM     84  O   UNL A   1      42.689  18.074  27.357  1.00  0.00    -0.237 OA
ATOM     85  O   UNL A   1      40.992  18.770  25.699  1.00  0.00    -0.237 OA
ATOM     86  O   UNL A   1      43.297  18.294  24.973  1.00  0.00    -0.744 OA
ENDBRANCH  82  83
ENDBRANCH  54  77
BRANCH  66  87
ATOM     87  C   UNL A   1      49.610  26.540  26.167  1.00  0.00    -0.014 A 
ATOM     88  C   UNL A   1      50.106  26.783  24.874  1.00  0.00     0.010 A 
ATOM     89  C   UNL A   1      50.447  25.931  27.121  1.00  0.00     0.010 A 
ATOM     90  C   UNL A   1      51.405  26.396  24.533  1.00  0.00     0.020 A 
ATOM     91  C   UNL A   1      51.755  25.569  26.791  1.00  0.00     0.020 A 
ATOM     92  C   UNL A   1      52.221  25.791  25.495  1.00  0.00     0.054 A 
BRANCH  92  93
ATOM     93  S   UNL A   1      53.918  25.339  25.039  1.00  0.00     0.124 S 
ATOM     94  O   UNL A   1      54.107  26.081  23.797  1.00  0.00    -0.237 OA
ATOM     95  O   UNL A   1      54.695  25.816  26.181  1.00  0.00    -0.237 OA
ATOM     96  O   UNL A   1      53.862  23.886  24.896  1.00  0.00    -0.744 OA
ENDBRANCH  92  93
ENDBRANCH  66  87
ENDBRANCH  40  41
ENDBRANCH  32  35
ENDBRANCH  30  31
ENDBRANCH  29  30
ENDBRANCH  28  29
ENDBRANCH   1  28
TORSDOF 21
ENDMDL
MODEL 3
REMARK VINA RESULT:      -9.4      3.613      9.439
REMARK SMILES C[C@]([NH2+]Cc1nc(-c2ccsc2)no1)(C(=O)NCCCCCCNC(=O)c1ccc(-c2c3nc(c(-c4ccc(S(=O)(=O)[O-])cc4)c4ccc([nH]4)c(-c4ccc(S(=O)(=O)[O-])cc4)c4nc(c(-c5ccc(S(=O)(=O)[O-])cc5)c5ccc2[nH]5)C=C4)C=C3)cc1)C(F)(F)F
REMARK SMILES IDX 20 1 19 2 18 3 17 4 15 5 16 6 2 8 1 9 87 10 88 11 89 12
REMARK SMILES IDX 90 13 3 14 4 17 5 18 6 19 14 20 7 21 13 22 8 23 9 24 12 25
REMARK SMILES IDX 10 26 11 27 21 28 22 29 23 30 24 31 25 32 26 34 27 35 28 36
REMARK SMILES IDX 86 37 29 38 85 39 30 40 31 41 32 42 79 43 33 44 84 45 78 46
REMARK SMILES IDX 80 47 34 48 83 49 77 50 76 51 35 53 65 54 46 55 64 56 47 57
REMARK SMILES IDX 50 58 63 59 81 60 48 61 49 62 62 64 82 65 51 66 36 67 37 68
REMARK SMILES IDX 45 69 38 70 44 71 39 72 40 73 41 74 42 75 43 76 66 77 67 78
REMARK SMILES IDX 75 79 68 80 74 81 69 82 70 83 71 84 72 85 73 86 52 87 53 88
REMARK SMILES IDX 61 89 54 90 60 91 55 92 56 93 57 94 58 95 59 96
REMARK H PARENT 17 7 3 15 3 16 24 33 80 52 50 63
REMARK Flexibility Score: inf
ROOT
ATOM      1  C   UNL A   1      32.921  29.781  27.180  1.00  0.00     0.002 C 
ENDROOT
BRANCH   1   2
ATOM      2  C   UNL A   1      32.305  29.537  25.801  1.00  0.00     0.021 C 
BRANCH   2   3
ATOM      3  C   UNL A   1      33.220  28.784  24.825  1.00  0.00     0.116 C 
BRANCH   3   4
ATOM      4  N   UNL A   1      32.421  28.057  23.854  1.00  0.00    -0.350 N 
ATOM      5  C   UNL A   1      32.147  26.741  23.633  1.00  0.00     0.290 C 
ATOM      6  O   UNL A   1      31.673  26.520  22.513  1.00  0.00    -0.267 OA
ATOM      7  H   UNL A   1      31.977  28.651  23.206  1.00  0.00     0.163 HD
BRANCH   5   8
ATOM      8  C   UNL A   1      32.430  25.585  24.637  1.00  0.00     0.268 C 
ATOM      9  C   UNL A   1      33.750  25.758  25.408  1.00  0.00     0.101 C 
BRANCH   8  10
ATOM     10  C   UNL A   1      31.298  25.761  25.713  1.00  0.00     0.453 C 
ATOM     11  F   UNL A   1      30.809  24.579  26.158  1.00  0.00    -0.164 F 
ATOM     12  F   UNL A   1      31.775  26.403  26.814  1.00  0.00    -0.164 F 
ATOM     13  F   UNL A   1      30.264  26.508  25.257  1.00  0.00    -0.164 F 
ENDBRANCH   8  10
BRANCH   8  14
ATOM     14  N   UNL A   1      32.301  24.218  23.990  1.00  0.00    -0.318 N 
ATOM     15  H   UNL A   1      32.544  24.310  23.004  1.00  0.00     0.347 HD
ATOM     16  H   UNL A   1      31.337  23.922  24.149  1.00  0.00     0.347 HD
BRANCH  14  17
ATOM     17  C   UNL A   1      33.139  23.171  24.564  1.00  0.00     0.363 C 
BRANCH  17  18
ATOM     18  C   UNL A   1      32.865  21.758  24.178  1.00  0.00     0.282 A 
ATOM     19  N   UNL A   1      33.247  20.681  24.829  1.00  0.00    -0.186 NA
ATOM     20  O   UNL A   1      32.181  21.488  23.030  1.00  0.00    -0.333 OA
ATOM     21  C   UNL A   1      32.791  19.678  24.019  1.00  0.00     0.203 A 
ATOM     22  N   UNL A   1      32.149  20.091  22.916  1.00  0.00    -0.057 NA
BRANCH  21  23
ATOM     23  C   UNL A   1      33.075  18.284  24.358  1.00  0.00     0.033 A 
ATOM     24  C   UNL A   1      33.931  17.454  23.570  1.00  0.00     0.024 A 
ATOM     25  C   UNL A   1      32.553  17.605  25.438  1.00  0.00     0.077 A 
ATOM     26  C   UNL A   1      34.032  16.179  24.084  1.00  0.00     0.065 A 
ATOM     27  S   UNL A   1      33.085  15.978  25.495  1.00  0.00    -0.152 S 
ENDBRANCH  21  23
ENDBRANCH  17  18
ENDBRANCH  14  17
ENDBRANCH   8  14
ENDBRANCH   5   8
ENDBRANCH   3   4
ENDBRANCH   2   3
ENDBRANCH   1   2
BRANCH   1  28
ATOM     28  C   UNL A   1      33.489  31.187  27.389  1.00  0.00     0.002 C 
BRANCH  28  29
ATOM     29  C   UNL A   1      34.994  31.249  27.663  1.00  0.00     0.021 C 
BRANCH  29  30
ATOM     30  C   UNL A   1      35.584  29.996  28.305  1.00  0.00     0.116 C 
BRANCH  30  31
ATOM     31  N   UNL A   1      35.642  30.105  29.753  1.00  0.00    -0.352 N 
ATOM     32  C   UNL A   1      36.648  29.737  30.612  1.00  0.00     0.251 C 
ATOM     33  H   UNL A   1      34.846  30.496  30.178  1.00  0.00     0.163 HD
ATOM     34  O   UNL A   1      36.437  29.693  31.820  1.00  0.00    -0.269 OA
BRANCH  32  35
ATOM     35  C   UNL A   1      37.980  29.384  30.075  1.00  0.00     0.039 A 
ATOM     36  C   UNL A   1      38.246  29.611  28.723  1.00  0.00     0.014 A 
ATOM     37  C   UNL A   1      38.956  28.817  30.900  1.00  0.00     0.014 A 
ATOM     38  C   UNL A   1      39.512  29.319  28.210  1.00  0.00     0.010 A 
ATOM     39  C   UNL A   1      40.236  28.590  30.403  1.00  0.00     0.010 A 
ATOM     40  C   UNL A   1      40.526  28.832  29.052  1.00  0.00    -0.014 A 
BRANCH  40  41
ATOM     41  C   UNL A   1      41.893  28.570  28.536  1.00  0.00     0.031 A 
ATOM     42  C   UNL A   1      42.274  27.192  28.068  1.00  0.00     0.074 A 
ATOM     43  C   UNL A   1      42.810  29.558  28.546  1.00  0.00     0.049 A 
ATOM     44  N   UNL A   1      43.432  26.758  27.640  1.00  0.00    -0.248 NA
ATOM     45  C   UNL A   1      41.225  26.160  28.109  1.00  0.00     0.031 C 
ATOM     46  C   UNL A   1      42.576  30.927  29.015  1.00  0.00     0.029 A 
ATOM     47  N   UNL A   1      44.126  29.563  28.158  1.00  0.00    -0.354 N 
ATOM     48  C   UNL A   1      43.256  25.405  27.378  1.00  0.00     0.074 A 
ATOM     49  C   UNL A   1      41.894  25.078  27.740  1.00  0.00     0.031 C 
ATOM     50  C   UNL A   1      43.702  31.642  28.865  1.00  0.00     0.029 A 
ATOM     51  C   UNL A   1      44.748  30.777  28.328  1.00  0.00     0.049 A 
ATOM     52  H   UNL A   1      44.582  28.771  27.792  1.00  0.00     0.167 HD
ATOM     53  C   UNL A   1      44.142  24.518  26.863  1.00  0.00     0.031 A 
ATOM     54  C   UNL A   1      46.020  31.154  28.087  1.00  0.00     0.031 A 
ATOM     55  C   UNL A   1      45.492  24.850  26.492  1.00  0.00     0.049 A 
ATOM     56  C   UNL A   1      46.985  30.151  27.517  1.00  0.00     0.074 A 
ATOM     57  C   UNL A   1      46.448  24.036  25.909  1.00  0.00     0.029 A 
ATOM     58  N   UNL A   1      46.078  26.095  26.664  1.00  0.00    -0.354 N 
ATOM     59  N   UNL A   1      46.780  28.891  27.216  1.00  0.00    -0.248 NA
ATOM     60  C   UNL A   1      48.348  30.624  27.241  1.00  0.00     0.031 C 
ATOM     61  C   UNL A   1      47.628  24.775  25.777  1.00  0.00     0.029 A 
ATOM     62  C   UNL A   1      47.389  26.066  26.222  1.00  0.00     0.049 A 
ATOM     63  H   UNL A   1      45.627  26.883  27.045  1.00  0.00     0.167 HD
ATOM     64  C   UNL A   1      47.982  28.427  26.692  1.00  0.00     0.074 A 
ATOM     65  C   UNL A   1      48.902  29.546  26.703  1.00  0.00     0.031 C 
ATOM     66  C   UNL A   1      48.294  27.187  26.240  1.00  0.00     0.031 A 
BRANCH  53  67
ATOM     67  C   UNL A   1      43.677  23.097  26.677  1.00  0.00    -0.014 A 
ATOM     68  C   UNL A   1      43.696  22.486  25.410  1.00  0.00     0.010 A 
ATOM     69  C   UNL A   1      43.256  22.346  27.790  1.00  0.00     0.010 A 
ATOM     70  C   UNL A   1      43.264  21.166  25.253  1.00  0.00     0.020 A 
ATOM     71  C   UNL A   1      42.851  21.017  27.643  1.00  0.00     0.020 A 
ATOM     72  C   UNL A   1      42.841  20.441  26.371  1.00  0.00     0.054 A 
BRANCH  72  73
ATOM     73  S   UNL A   1      42.309  18.722  26.141  1.00  0.00     0.124 S 
ATOM     74  O   UNL A   1      42.499  18.168  27.479  1.00  0.00    -0.237 OA
ATOM     75  O   UNL A   1      40.920  18.872  25.715  1.00  0.00    -0.237 OA
ATOM     76  O   UNL A   1      43.219  18.210  25.120  1.00  0.00    -0.744 OA
ENDBRANCH  72  73
ENDBRANCH  53  67
BRANCH  54  77
ATOM     77  C   UNL A   1      46.446  32.550  28.374  1.00  0.00    -0.014 A 
ATOM     78  C   UNL A   1      46.963  32.894  29.635  1.00  0.00     0.010 A 
ATOM     79  C   UNL A   1      46.354  33.540  27.380  1.00  0.00     0.010 A 
ATOM     80  C   UNL A   1      47.367  34.206  29.902  1.00  0.00     0.020 A 
ATOM     81  C   UNL A   1      46.783  34.846  27.633  1.00  0.00     0.020 A 
ATOM     82  C   UNL A   1      47.277  35.173  28.896  1.00  0.00     0.054 A 
BRANCH  82  83
ATOM     83  S   UNL A   1      47.863  36.855  29.244  1.00  0.00     0.124 S 
ATOM     84  O   UNL A   1      47.536  37.004  30.659  1.00  0.00    -0.237 OA
ATOM     85  O   UNL A   1      49.286  36.766  28.928  1.00  0.00    -0.237 OA
ATOM     86  O   UNL A   1      47.080  37.684  28.328  1.00  0.00    -0.744 OA
ENDBRANCH  82  83
ENDBRANCH  54  77
BRANCH  66  87
ATOM     87  C   UNL A   1      49.679  26.979  25.690  1.00  0.00    -0.014 A 
ATOM     88  C   UNL A   1      49.974  27.231  24.339  1.00  0.00     0.010 A 
ATOM     89  C   UNL A   1      50.714  26.577  26.556  1.00  0.00     0.010 A 
ATOM     90  C   UNL A   1      51.274  27.055  23.856  1.00  0.00     0.020 A 
ATOM     91  C   UNL A   1      52.020  26.428  26.082  1.00  0.00     0.020 A 
ATOM     92  C   UNL A   1      52.289  26.655  24.732  1.00  0.00     0.054 A 
BRANCH  92  93
ATOM     93  S   UNL A   1      53.975  26.476  24.090  1.00  0.00     0.124 S 
ATOM     94  O   UNL A   1      54.460  25.313  24.828  1.00  0.00    -0.237 OA
ATOM     95  O   UNL A   1      53.754  26.266  22.661  1.00  0.00    -0.237 OA
ATOM     96  O   UNL A   1      54.613  27.744  24.434  1.00  0.00    -0.744 OA
ENDBRANCH  92  93
ENDBRANCH  66  87
ENDBRANCH  40  41
ENDBRANCH  32  35
ENDBRANCH  30  31
ENDBRANCH  29  30
ENDBRANCH  28  29
ENDBRANCH   1  28
TORSDOF 21
ENDMDL
