MODEL 1
REMARK VINA RESULT:     -11.9      0.000      0.000
REMARK SMILES CC1(C)CCCC[C@H]1NC(=O)Nc1ccccc1C(=O)NCCCCCCNC(=O)c1ccc(-c2c3nc(c(-c4ccc(S(=O)(=O)[O-])cc4)c4ccc([nH]4)c(-c4ccc(S(=O)(=O)[O-])cc4)c4nc(c(-c5ccc(S(=O)(=O)[O-])cc5)c5ccc2[nH]5)C=C4)C=C3)cc1
REMARK SMILES IDX 25 1 24 2 23 3 22 4 21 5 19 6 20 7 18 9 13 10 14 11 15 12
REMARK SMILES IDX 17 13 16 14 12 15 9 16 10 17 11 19 8 21 1 22 2 23 3 24 4 25
REMARK SMILES IDX 5 26 7 27 6 28 26 29 27 30 28 31 29 32 30 34 31 35 32 36
REMARK SMILES IDX 90 37 33 38 89 39 34 40 35 41 36 42 83 43 37 44 88 45 82 46
REMARK SMILES IDX 84 47 38 48 87 49 81 50 80 51 39 53 69 54 50 55 68 56 51 57
REMARK SMILES IDX 54 58 67 59 85 60 52 61 53 62 66 64 86 65 55 66 40 67 41 68
REMARK SMILES IDX 49 69 42 70 48 71 43 72 44 73 45 74 46 75 47 76 70 77 71 78
REMARK SMILES IDX 79 79 72 80 78 81 73 82 74 83 75 84 76 85 77 86 56 87 57 88
REMARK SMILES IDX 65 89 58 90 64 91 59 92 60 93 61 94 62 95 63 96
REMARK H PARENT 21 8 9 18 12 20 28 33 84 52 54 63
REMARK Flexibility Score: inf
ROOT
ATOM      1  C   UNL A   1      37.239  21.164  24.864  1.00  0.00     0.002 C 
ENDROOT
BRANCH   1   2
ATOM      2  C   UNL A   1      35.845  20.841  25.429  1.00  0.00     0.002 C 
BRANCH   2   3
ATOM      3  C   UNL A   1      35.242  21.839  26.432  1.00  0.00     0.021 C 
BRANCH   3   4
ATOM      4  C   UNL A   1      33.998  21.341  27.154  1.00  0.00     0.116 C 
BRANCH   4   5
ATOM      5  N   UNL A   1      33.296  20.278  26.487  1.00  0.00    -0.352 N 
ATOM      6  C   UNL A   1      32.590  20.259  25.312  1.00  0.00     0.253 C 
ATOM      7  O   UNL A   1      32.151  19.150  24.981  1.00  0.00    -0.269 OA
ATOM      8  H   UNL A   1      33.328  19.412  26.955  1.00  0.00     0.163 HD
BRANCH   6   9
ATOM      9  C   UNL A   1      32.241  21.448  24.453  1.00  0.00     0.063 A 
ATOM     10  C   UNL A   1      31.196  22.392  24.550  1.00  0.00     0.055 A 
ATOM     11  C   UNL A   1      30.974  23.280  23.470  1.00  0.00     0.027 A 
ATOM     12  C   UNL A   1      31.866  23.387  22.406  1.00  0.00     0.002 A 
ATOM     13  C   UNL A   1      33.145  21.601  23.365  1.00  0.00     0.016 A 
ATOM     14  C   UNL A   1      32.982  22.574  22.376  1.00  0.00     0.001 A 
BRANCH  10  15
ATOM     15  N   UNL A   1      30.354  22.688  25.640  1.00  0.00    -0.307 N 
ATOM     16  N   UNL A   1      31.386  24.433  26.874  1.00  0.00    -0.335 N 
ATOM     17  C   UNL A   1      30.448  23.480  26.727  1.00  0.00     0.319 C 
ATOM     18  H   UNL A   1      31.653  24.629  27.802  1.00  0.00     0.165 HD
ATOM     19  O   UNL A   1      29.616  23.337  27.625  1.00  0.00    -0.248 OA
ATOM     20  H   UNL A   1      29.497  22.205  25.598  1.00  0.00     0.171 HD
BRANCH  16  21
ATOM     21  C   UNL A   1      32.056  25.208  25.850  1.00  0.00     0.089 C 
ATOM     22  C   UNL A   1      31.588  27.553  26.809  1.00  0.00     0.013 C 
ATOM     23  C   UNL A   1      31.410  26.601  25.609  1.00  0.00    -0.015 C 
ATOM     24  C   UNL A   1      29.896  26.466  25.341  1.00  0.00     0.013 C 
ATOM     25  C   UNL A   1      32.094  27.183  24.343  1.00  0.00     0.008 C 
ATOM     26  C   UNL A   1      33.628  27.202  24.416  1.00  0.00     0.001 C 
ATOM     27  C   UNL A   1      33.556  25.330  26.123  1.00  0.00     0.025 C 
ATOM     28  C   UNL A   1      34.243  25.880  24.877  1.00  0.00     0.002 C 
ENDBRANCH  16  21
ENDBRANCH  10  15
ENDBRANCH   6   9
ENDBRANCH   4   5
ENDBRANCH   3   4
ENDBRANCH   2   3
ENDBRANCH   1   2
BRANCH   1  29
ATOM     29  C   UNL A   1      38.311  20.080  25.004  1.00  0.00     0.021 C 
BRANCH  29  30
ATOM     30  C   UNL A   1      39.341  20.297  26.105  1.00  0.00     0.116 C 
BRANCH  30  31
ATOM     31  N   UNL A   1      40.425  19.332  26.072  1.00  0.00    -0.352 N 
ATOM     32  C   UNL A   1      41.776  19.537  26.172  1.00  0.00     0.251 C 
ATOM     33  H   UNL A   1      40.149  18.393  25.962  1.00  0.00     0.163 HD
ATOM     34  O   UNL A   1      42.545  18.588  26.007  1.00  0.00    -0.269 OA
BRANCH  32  35
ATOM     35  C   UNL A   1      42.317  20.885  26.449  1.00  0.00     0.039 A 
ATOM     36  C   UNL A   1      42.579  21.731  25.369  1.00  0.00     0.014 A 
ATOM     37  C   UNL A   1      42.588  21.314  27.752  1.00  0.00     0.014 A 
ATOM     38  C   UNL A   1      43.079  23.015  25.596  1.00  0.00     0.010 A 
ATOM     39  C   UNL A   1      43.006  22.623  27.982  1.00  0.00     0.010 A 
ATOM     40  C   UNL A   1      43.274  23.481  26.906  1.00  0.00    -0.014 A 
BRANCH  40  41
ATOM     41  C   UNL A   1      43.780  24.855  27.158  1.00  0.00     0.031 A 
ATOM     42  C   UNL A   1      45.235  25.178  26.948  1.00  0.00     0.074 A 
ATOM     43  C   UNL A   1      42.932  25.804  27.604  1.00  0.00     0.049 A 
ATOM     44  N   UNL A   1      45.860  26.317  27.115  1.00  0.00    -0.248 NA
ATOM     45  C   UNL A   1      46.111  24.075  26.518  1.00  0.00     0.031 C 
ATOM     46  C   UNL A   1      41.509  25.602  27.886  1.00  0.00     0.029 A 
ATOM     47  N   UNL A   1      43.142  27.129  27.893  1.00  0.00    -0.354 N 
ATOM     48  C   UNL A   1      47.196  26.063  26.823  1.00  0.00     0.074 A 
ATOM     49  C   UNL A   1      47.303  24.653  26.526  1.00  0.00     0.031 C 
ATOM     50  C   UNL A   1      40.966  26.770  28.268  1.00  0.00     0.029 A 
ATOM     51  C   UNL A   1      42.008  27.792  28.301  1.00  0.00     0.049 A 
ATOM     52  H   UNL A   1      44.022  27.565  27.816  1.00  0.00     0.167 HD
ATOM     53  C   UNL A   1      48.235  26.931  26.782  1.00  0.00     0.031 A 
ATOM     54  C   UNL A   1      41.825  29.076  28.661  1.00  0.00     0.031 A 
ATOM     55  C   UNL A   1      48.119  28.336  27.072  1.00  0.00     0.049 A 
ATOM     56  C   UNL A   1      42.997  30.020  28.615  1.00  0.00     0.074 A 
ATOM     57  C   UNL A   1      49.100  29.311  27.013  1.00  0.00     0.029 A 
ATOM     58  N   UNL A   1      46.953  28.967  27.479  1.00  0.00    -0.354 N 
ATOM     59  N   UNL A   1      44.239  29.774  28.273  1.00  0.00    -0.248 NA
ATOM     60  C   UNL A   1      42.737  31.417  28.987  1.00  0.00     0.031 C 
ATOM     61  C   UNL A   1      48.541  30.518  27.441  1.00  0.00     0.029 A 
ATOM     62  C   UNL A   1      47.195  30.313  27.696  1.00  0.00     0.049 A 
ATOM     63  H   UNL A   1      46.082  28.523  27.596  1.00  0.00     0.167 HD
ATOM     64  C   UNL A   1      44.901  30.995  28.354  1.00  0.00     0.074 A 
ATOM     65  C   UNL A   1      43.918  31.977  28.763  1.00  0.00     0.031 C 
ATOM     66  C   UNL A   1      46.204  31.279  28.103  1.00  0.00     0.031 A 
BRANCH  53  67
ATOM     67  C   UNL A   1      49.591  26.382  26.419  1.00  0.00    -0.014 A 
ATOM     68  C   UNL A   1      50.057  26.407  25.090  1.00  0.00     0.010 A 
ATOM     69  C   UNL A   1      50.432  25.870  27.424  1.00  0.00     0.010 A 
ATOM     70  C   UNL A   1      51.316  25.892  24.770  1.00  0.00     0.020 A 
ATOM     71  C   UNL A   1      51.705  25.385  27.113  1.00  0.00     0.020 A 
ATOM     72  C   UNL A   1      52.132  25.383  25.784  1.00  0.00     0.054 A 
BRANCH  72  73
ATOM     73  S   UNL A   1      53.772  24.746  25.341  1.00  0.00     0.124 S 
ATOM     74  O   UNL A   1      53.474  23.354  25.012  1.00  0.00    -0.237 OA
ATOM     75  O   UNL A   1      54.149  25.591  24.212  1.00  0.00    -0.237 OA
ATOM     76  O   UNL A   1      54.561  24.942  26.554  1.00  0.00    -0.744 OA
ENDBRANCH  72  73
ENDBRANCH  53  67
BRANCH  54  77
ATOM     77  C   UNL A   1      40.474  29.548  29.075  1.00  0.00    -0.014 A 
ATOM     78  C   UNL A   1      40.221  29.922  30.407  1.00  0.00     0.010 A 
ATOM     79  C   UNL A   1      39.433  29.639  28.132  1.00  0.00     0.010 A 
ATOM     80  C   UNL A   1      38.948  30.356  30.793  1.00  0.00     0.020 A 
ATOM     81  C   UNL A   1      38.169  30.102  28.507  1.00  0.00     0.020 A 
ATOM     82  C   UNL A   1      37.931  30.446  29.838  1.00  0.00     0.054 A 
BRANCH  82  83
ATOM     83  S   UNL A   1      36.300  31.053  30.352  1.00  0.00     0.124 S 
ATOM     84  O   UNL A   1      35.911  30.066  31.354  1.00  0.00    -0.237 OA
ATOM     85  O   UNL A   1      36.608  32.386  30.862  1.00  0.00    -0.237 OA
ATOM     86  O   UNL A   1      35.521  31.030  29.116  1.00  0.00    -0.744 OA
ENDBRANCH  82  83
ENDBRANCH  54  77
BRANCH  66  87
ATOM     87  C   UNL A   1      46.635  32.718  28.216  1.00  0.00    -0.014 A 
ATOM     88  C   UNL A   1      47.401  33.176  29.303  1.00  0.00     0.010 A 
ATOM     89  C   UNL A   1      46.304  33.617  27.185  1.00  0.00     0.010 A 
ATOM     90  C   UNL A   1      47.792  34.516  29.375  1.00  0.00     0.020 A 
ATOM     91  C   UNL A   1      46.721  34.948  27.237  1.00  0.00     0.020 A 
ATOM     92  C   UNL A   1      47.449  35.394  28.342  1.00  0.00     0.054 A 
BRANCH  92  93
ATOM     93  S   UNL A   1      47.996  37.119  28.444  1.00  0.00     0.124 S 
ATOM     94  O   UNL A   1      49.350  37.041  27.905  1.00  0.00    -0.237 OA
ATOM     95  O   UNL A   1      47.023  37.814  27.605  1.00  0.00    -0.237 OA
ATOM     96  O   UNL A   1      47.911  37.426  29.870  1.00  0.00    -0.744 OA
ENDBRANCH  92  93
ENDBRANCH  66  87
ENDBRANCH  40  41
ENDBRANCH  32  35
ENDBRANCH  30  31
ENDBRANCH  29  30
ENDBRANCH   1  29
TORSDOF 18
ENDMDL
MODEL 2
REMARK VINA RESULT:     -11.8      5.827      8.075
REMARK SMILES CC1(C)CCCC[C@H]1NC(=O)Nc1ccccc1C(=O)NCCCCCCNC(=O)c1ccc(-c2c3nc(c(-c4ccc(S(=O)(=O)[O-])cc4)c4ccc([nH]4)c(-c4ccc(S(=O)(=O)[O-])cc4)c4nc(c(-c5ccc(S(=O)(=O)[O-])cc5)c5ccc2[nH]5)C=C4)C=C3)cc1
REMARK SMILES IDX 25 1 24 2 23 3 22 4 21 5 19 6 20 7 18 9 13 10 14 11 15 12
REMARK SMILES IDX 17 13 16 14 12 15 9 16 10 17 11 19 8 21 1 22 2 23 3 24 4 25
REMARK SMILES IDX 5 26 7 27 6 28 26 29 27 30 28 31 29 32 30 34 31 35 32 36
REMARK SMILES IDX 90 37 33 38 89 39 34 40 35 41 36 42 83 43 37 44 88 45 82 46
REMARK SMILES IDX 84 47 38 48 87 49 81 50 80 51 39 53 69 54 50 55 68 56 51 57
REMARK SMILES IDX 54 58 67 59 85 60 52 61 53 62 66 64 86 65 55 66 40 67 41 68
REMARK SMILES IDX 49 69 42 70 48 71 43 72 44 73 45 74 46 75 47 76 70 77 71 78
REMARK SMILES IDX 79 79 72 80 78 81 73 82 74 83 75 84 76 85 77 86 56 87 57 88
REMARK SMILES IDX 65 89 58 90 64 91 59 92 60 93 61 94 62 95 63 96
REMARK H PARENT 21 8 9 18 12 20 28 33 84 52 54 63
REMARK Flexibility Score: inf
ROOT
ATOM      1  C   UNL A   1      39.994  21.589  26.516  1.00  0.00     0.002 C 
ENDROOT
BRANCH   1   2
ATOM      2  C   UNL A   1      38.732  22.089  25.793  1.00  0.00     0.002 C 
BRANCH   2   3
ATOM      3  C   UNL A   1      38.065  23.364  26.336  1.00  0.00     0.021 C 
BRANCH   3   4
ATOM      4  C   UNL A   1      36.587  23.499  26.004  1.00  0.00     0.116 C 
BRANCH   4   5
ATOM      5  N   UNL A   1      35.709  22.698  26.814  1.00  0.00    -0.352 N 
ATOM      6  C   UNL A   1      34.514  22.093  26.524  1.00  0.00     0.253 C 
ATOM      7  O   UNL A   1      34.033  21.413  27.441  1.00  0.00    -0.269 OA
ATOM      8  H   UNL A   1      36.020  22.561  27.738  1.00  0.00     0.163 HD
BRANCH   6   9
ATOM      9  C   UNL A   1      33.715  22.241  25.254  1.00  0.00     0.063 A 
ATOM     10  C   UNL A   1      32.324  22.205  25.020  1.00  0.00     0.055 A 
ATOM     11  C   UNL A   1      31.855  22.149  23.686  1.00  0.00     0.027 A 
ATOM     12  C   UNL A   1      32.704  22.325  22.596  1.00  0.00     0.002 A 
ATOM     13  C   UNL A   1      34.550  22.442  24.120  1.00  0.00     0.016 A 
ATOM     14  C   UNL A   1      34.054  22.517  22.817  1.00  0.00     0.001 A 
BRANCH  10  15
ATOM     15  N   UNL A   1      31.257  22.326  25.934  1.00  0.00    -0.307 N 
ATOM     16  N   UNL A   1      31.404  24.486  26.906  1.00  0.00    -0.335 N 
ATOM     17  C   UNL A   1      30.888  23.246  26.848  1.00  0.00     0.319 C 
ATOM     18  H   UNL A   1      31.425  24.898  27.800  1.00  0.00     0.165 HD
ATOM     19  O   UNL A   1      30.014  22.938  27.662  1.00  0.00    -0.248 OA
ATOM     20  H   UNL A   1      30.638  21.561  25.896  1.00  0.00     0.171 HD
BRANCH  16  21
ATOM     21  C   UNL A   1      31.933  25.296  25.827  1.00  0.00     0.089 C 
ATOM     22  C   UNL A   1      31.103  27.589  26.658  1.00  0.00     0.013 C 
ATOM     23  C   UNL A   1      31.070  26.552  25.518  1.00  0.00    -0.015 C 
ATOM     24  C   UNL A   1      29.596  26.161  25.284  1.00  0.00     0.013 C 
ATOM     25  C   UNL A   1      31.642  27.159  24.209  1.00  0.00     0.008 C 
ATOM     26  C   UNL A   1      33.154  27.427  24.255  1.00  0.00     0.001 C 
ATOM     27  C   UNL A   1      33.396  25.673  26.067  1.00  0.00     0.025 C 
ATOM     28  C   UNL A   1      33.976  26.250  24.780  1.00  0.00     0.002 C 
ENDBRANCH  16  21
ENDBRANCH  10  15
ENDBRANCH   6   9
ENDBRANCH   4   5
ENDBRANCH   3   4
ENDBRANCH   2   3
ENDBRANCH   1   2
BRANCH   1  29
ATOM     29  C   UNL A   1      40.534  22.462  27.652  1.00  0.00     0.021 C 
BRANCH  29  30
ATOM     30  C   UNL A   1      41.898  23.098  27.416  1.00  0.00     0.116 C 
BRANCH  30  31
ATOM     31  N   UNL A   1      41.949  23.912  26.216  1.00  0.00    -0.352 N 
ATOM     32  C   UNL A   1      41.743  25.258  26.067  1.00  0.00     0.251 C 
ATOM     33  H   UNL A   1      42.164  23.426  25.387  1.00  0.00     0.163 HD
ATOM     34  O   UNL A   1      41.723  25.746  24.935  1.00  0.00    -0.269 OA
BRANCH  32  35
ATOM     35  C   UNL A   1      41.520  26.123  27.246  1.00  0.00     0.039 A 
ATOM     36  C   UNL A   1      42.444  27.136  27.513  1.00  0.00     0.014 A 
ATOM     37  C   UNL A   1      40.430  25.932  28.100  1.00  0.00     0.014 A 
ATOM     38  C   UNL A   1      42.256  27.977  28.612  1.00  0.00     0.010 A 
ATOM     39  C   UNL A   1      40.199  26.823  29.146  1.00  0.00     0.010 A 
ATOM     40  C   UNL A   1      41.119  27.843  29.424  1.00  0.00    -0.014 A 
BRANCH  40  41
ATOM     41  C   UNL A   1      40.898  28.751  30.579  1.00  0.00     0.031 A 
ATOM     42  C   UNL A   1      41.751  28.628  31.814  1.00  0.00     0.074 A 
ATOM     43  C   UNL A   1      39.909  29.666  30.526  1.00  0.00     0.049 A 
ATOM     44  N   UNL A   1      41.707  29.330  32.919  1.00  0.00    -0.248 NA
ATOM     45  C   UNL A   1      42.771  27.566  31.821  1.00  0.00     0.031 C 
ATOM     46  C   UNL A   1      38.989  29.852  29.402  1.00  0.00     0.029 A 
ATOM     47  N   UNL A   1      39.516  30.614  31.435  1.00  0.00    -0.354 N 
ATOM     48  C   UNL A   1      42.679  28.786  33.751  1.00  0.00     0.074 A 
ATOM     49  C   UNL A   1      43.257  27.662  33.050  1.00  0.00     0.031 C 
ATOM     50  C   UNL A   1      38.166  30.878  29.672  1.00  0.00     0.029 A 
ATOM     51  C   UNL A   1      38.469  31.394  31.003  1.00  0.00     0.049 A 
ATOM     52  H   UNL A   1      39.943  30.726  32.316  1.00  0.00     0.167 HD
ATOM     53  C   UNL A   1      43.073  29.201  34.979  1.00  0.00     0.031 A 
ATOM     54  C   UNL A   1      37.825  32.410  31.608  1.00  0.00     0.031 A 
ATOM     55  C   UNL A   1      42.498  30.325  35.669  1.00  0.00     0.049 A 
ATOM     56  C   UNL A   1      38.275  32.848  32.975  1.00  0.00     0.074 A 
ATOM     57  C   UNL A   1      42.857  30.859  36.896  1.00  0.00     0.029 A 
ATOM     58  N   UNL A   1      41.442  31.090  35.196  1.00  0.00    -0.354 N 
ATOM     59  N   UNL A   1      39.240  32.363  33.719  1.00  0.00    -0.248 NA
ATOM     60  C   UNL A   1      37.560  33.981  33.577  1.00  0.00     0.031 C 
ATOM     61  C   UNL A   1      41.979  31.906  37.189  1.00  0.00     0.029 A 
ATOM     62  C   UNL A   1      41.121  32.074  36.114  1.00  0.00     0.049 A 
ATOM     63  H   UNL A   1      40.987  30.952  34.333  1.00  0.00     0.167 HD
ATOM     64  C   UNL A   1      39.272  33.156  34.861  1.00  0.00     0.074 A 
ATOM     65  C   UNL A   1      38.238  34.158  34.702  1.00  0.00     0.031 C 
ATOM     66  C   UNL A   1      40.089  33.067  35.941  1.00  0.00     0.031 A 
BRANCH  53  67
ATOM     67  C   UNL A   1      44.174  28.427  35.660  1.00  0.00    -0.014 A 
ATOM     68  C   UNL A   1      45.523  28.802  35.521  1.00  0.00     0.010 A 
ATOM     69  C   UNL A   1      43.853  27.333  36.484  1.00  0.00     0.010 A 
ATOM     70  C   UNL A   1      46.532  28.073  36.157  1.00  0.00     0.020 A 
ATOM     71  C   UNL A   1      44.856  26.621  37.149  1.00  0.00     0.020 A 
ATOM     72  C   UNL A   1      46.191  26.985  36.967  1.00  0.00     0.054 A 
BRANCH  72  73
ATOM     73  S   UNL A   1      47.520  26.073  37.800  1.00  0.00     0.124 S 
ATOM     74  O   UNL A   1      47.318  26.456  39.195  1.00  0.00    -0.237 OA
ATOM     75  O   UNL A   1      47.205  24.685  37.479  1.00  0.00    -0.237 OA
ATOM     76  O   UNL A   1      48.738  26.593  37.184  1.00  0.00    -0.744 OA
ENDBRANCH  72  73
ENDBRANCH  53  67
BRANCH  54  77
ATOM     77  C   UNL A   1      36.699  33.097  30.913  1.00  0.00    -0.014 A 
ATOM     78  C   UNL A   1      35.381  32.975  31.388  1.00  0.00     0.010 A 
ATOM     79  C   UNL A   1      36.944  33.889  29.776  1.00  0.00     0.010 A 
ATOM     80  C   UNL A   1      34.327  33.614  30.727  1.00  0.00     0.020 A 
ATOM     81  C   UNL A   1      35.897  34.555  29.132  1.00  0.00     0.020 A 
ATOM     82  C   UNL A   1      34.593  34.402  29.604  1.00  0.00     0.054 A 
BRANCH  82  83
ATOM     83  S   UNL A   1      33.216  35.257  28.789  1.00  0.00     0.124 S 
ATOM     84  O   UNL A   1      33.912  36.249  27.975  1.00  0.00    -0.237 OA
ATOM     85  O   UNL A   1      32.567  34.176  28.052  1.00  0.00    -0.237 OA
ATOM     86  O   UNL A   1      32.439  35.795  29.904  1.00  0.00    -0.744 OA
ENDBRANCH  82  83
ENDBRANCH  54  77
BRANCH  66  87
ATOM     87  C   UNL A   1      39.934  34.110  37.016  1.00  0.00    -0.014 A 
ATOM     88  C   UNL A   1      40.581  35.356  36.934  1.00  0.00     0.010 A 
ATOM     89  C   UNL A   1      39.084  33.851  38.108  1.00  0.00     0.010 A 
ATOM     90  C   UNL A   1      40.413  36.307  37.944  1.00  0.00     0.020 A 
ATOM     91  C   UNL A   1      38.886  34.812  39.102  1.00  0.00     0.020 A 
ATOM     92  C   UNL A   1      39.567  36.028  39.022  1.00  0.00     0.054 A 
BRANCH  92  93
ATOM     93  S   UNL A   1      39.339  37.291  40.303  1.00  0.00     0.124 S 
ATOM     94  O   UNL A   1      38.607  36.556  41.329  1.00  0.00    -0.237 OA
ATOM     95  O   UNL A   1      40.713  37.651  40.645  1.00  0.00    -0.237 OA
ATOM     96  O   UNL A   1      38.578  38.339  39.626  1.00  0.00    -0.744 OA
ENDBRANCH  92  93
ENDBRANCH  66  87
ENDBRANCH  40  41
ENDBRANCH  32  35
ENDBRANCH  30  31
ENDBRANCH  29  30
ENDBRANCH   1  29
TORSDOF 18
ENDMDL
MODEL 3
REMARK VINA RESULT:     -11.7      2.100      8.815
REMARK SMILES CC1(C)CCCC[C@H]1NC(=O)Nc1ccccc1C(=O)NCCCCCCNC(=O)c1ccc(-c2c3nc(c(-c4ccc(S(=O)(=O)[O-])cc4)c4ccc([nH]4)c(-c4ccc(S(=O)(=O)[O-])cc4)c4nc(c(-c5ccc(S(=O)(=O)[O-])cc5)c5ccc2[nH]5)C=C4)C=C3)cc1
REMARK SMILES IDX 25 1 24 2 23 3 22 4 21 5 19 6 20 7 18 9 13 10 14 11 15 12
REMARK SMILES IDX 17 13 16 14 12 15 9 16 10 17 11 19 8 21 1 22 2 23 3 24 4 25
REMARK SMILES IDX 5 26 7 27 6 28 26 29 27 30 28 31 29 32 30 34 31 35 32 36
REMARK SMILES IDX 90 37 33 38 89 39 34 40 35 41 36 42 83 43 37 44 88 45 82 46
REMARK SMILES IDX 84 47 38 48 87 49 81 50 80 51 39 53 69 54 50 55 68 56 51 57
REMARK SMILES IDX 54 58 67 59 85 60 52 61 53 62 66 64 86 65 55 66 40 67 41 68
REMARK SMILES IDX 49 69 42 70 48 71 43 72 44 73 45 74 46 75 47 76 70 77 71 78
REMARK SMILES IDX 79 79 72 80 78 81 73 82 74 83 75 84 76 85 77 86 56 87 57 88
REMARK SMILES IDX 65 89 58 90 64 91 59 92 60 93 61 94 62 95 63 96
REMARK H PARENT 21 8 9 18 12 20 28 33 84 52 54 63
REMARK Flexibility Score: inf
ROOT
ATOM      1  C   UNL A   1      34.915  31.172  27.751  1.00  0.00     0.002 C 
ENDROOT
BRANCH   1   2
ATOM      2  C   UNL A   1      33.383  31.244  27.626  1.00  0.00     0.002 C 
BRANCH   2   3
ATOM      3  C   UNL A   1      32.659  29.996  27.095  1.00  0.00     0.021 C 
BRANCH   3   4
ATOM      4  C   UNL A   1      33.382  29.272  25.970  1.00  0.00     0.116 C 
BRANCH   4   5
ATOM      5  N   UNL A   1      33.586  27.865  26.188  1.00  0.00    -0.352 N 
ATOM      6  C   UNL A   1      32.823  26.778  25.849  1.00  0.00     0.253 C 
ATOM      7  O   UNL A   1      33.318  25.679  26.133  1.00  0.00    -0.269 OA
ATOM      8  H   UNL A   1      34.418  27.644  26.665  1.00  0.00     0.163 HD
BRANCH   6   9
ATOM      9  C   UNL A   1      31.439  26.802  25.251  1.00  0.00     0.063 A 
ATOM     10  C   UNL A   1      30.322  25.964  25.456  1.00  0.00     0.055 A 
ATOM     11  C   UNL A   1      29.210  26.082  24.589  1.00  0.00     0.027 A 
ATOM     12  C   UNL A   1      29.097  27.121  23.669  1.00  0.00     0.002 A 
ATOM     13  C   UNL A   1      31.280  27.865  24.319  1.00  0.00     0.016 A 
ATOM     14  C   UNL A   1      30.119  28.044  23.565  1.00  0.00     0.001 A 
BRANCH  10  15
ATOM     15  N   UNL A   1      30.066  25.049  26.497  1.00  0.00    -0.307 N 
ATOM     16  N   UNL A   1      30.620  22.888  25.687  1.00  0.00    -0.335 N 
ATOM     17  C   UNL A   1      30.073  23.705  26.604  1.00  0.00     0.319 C 
ATOM     18  H   UNL A   1      30.211  21.995  25.613  1.00  0.00     0.165 HD
ATOM     19  O   UNL A   1      29.570  23.200  27.610  1.00  0.00    -0.248 OA
ATOM     20  H   UNL A   1      29.827  25.495  27.342  1.00  0.00     0.171 HD
BRANCH  16  21
ATOM     21  C   UNL A   1      31.730  23.147  24.793  1.00  0.00     0.089 C 
ATOM     22  C   UNL A   1      32.372  20.701  24.298  1.00  0.00     0.013 C 
ATOM     23  C   UNL A   1      32.841  22.061  24.857  1.00  0.00    -0.015 C 
ATOM     24  C   UNL A   1      33.304  21.834  26.311  1.00  0.00     0.013 C 
ATOM     25  C   UNL A   1      34.032  22.610  24.030  1.00  0.00     0.008 C 
ATOM     26  C   UNL A   1      33.656  23.046  22.605  1.00  0.00     0.001 C 
ATOM     27  C   UNL A   1      31.259  23.376  23.356  1.00  0.00     0.025 C 
ATOM     28  C   UNL A   1      32.417  23.939  22.538  1.00  0.00     0.002 C 
ENDBRANCH  16  21
ENDBRANCH  10  15
ENDBRANCH   6   9
ENDBRANCH   4   5
ENDBRANCH   3   4
ENDBRANCH   2   3
ENDBRANCH   1   2
BRANCH   1  29
ATOM     29  C   UNL A   1      35.654  32.493  27.976  1.00  0.00     0.021 C 
BRANCH  29  30
ATOM     30  C   UNL A   1      36.475  32.591  29.255  1.00  0.00     0.116 C 
BRANCH  30  31
ATOM     31  N   UNL A   1      36.061  31.644  30.274  1.00  0.00    -0.352 N 
ATOM     32  C   UNL A   1      36.682  30.501  30.705  1.00  0.00     0.251 C 
ATOM     33  H   UNL A   1      35.210  31.854  30.722  1.00  0.00     0.163 HD
ATOM     34  O   UNL A   1      36.108  29.767  31.511  1.00  0.00    -0.269 OA
BRANCH  32  35
ATOM     35  C   UNL A   1      38.019  30.129  30.191  1.00  0.00     0.039 A 
ATOM     36  C   UNL A   1      39.064  29.979  31.105  1.00  0.00     0.014 A 
ATOM     37  C   UNL A   1      38.257  29.951  28.825  1.00  0.00     0.014 A 
ATOM     38  C   UNL A   1      40.336  29.617  30.655  1.00  0.00     0.010 A 
ATOM     39  C   UNL A   1      39.503  29.509  28.387  1.00  0.00     0.010 A 
ATOM     40  C   UNL A   1      40.561  29.356  29.294  1.00  0.00    -0.014 A 
BRANCH  40  41
ATOM     41  C   UNL A   1      41.903  28.944  28.810  1.00  0.00     0.031 A 
ATOM     42  C   UNL A   1      43.024  29.947  28.739  1.00  0.00     0.074 A 
ATOM     43  C   UNL A   1      42.104  27.673  28.407  1.00  0.00     0.049 A 
ATOM     44  N   UNL A   1      44.261  29.774  28.345  1.00  0.00    -0.248 NA
ATOM     45  C   UNL A   1      42.713  31.329  29.139  1.00  0.00     0.031 C 
ATOM     46  C   UNL A   1      41.085  26.621  28.388  1.00  0.00     0.029 A 
ATOM     47  N   UNL A   1      43.233  27.048  27.941  1.00  0.00    -0.354 N 
ATOM     48  C   UNL A   1      44.866  31.023  28.438  1.00  0.00     0.074 A 
ATOM     49  C   UNL A   1      43.849  31.955  28.870  1.00  0.00     0.031 C 
ATOM     50  C   UNL A   1      41.645  25.473  27.973  1.00  0.00     0.029 A 
ATOM     51  C   UNL A   1      43.049  25.716  27.654  1.00  0.00     0.049 A 
ATOM     52  H   UNL A   1      44.095  27.510  27.822  1.00  0.00     0.167 HD
ATOM     53  C   UNL A   1      46.158  31.358  28.210  1.00  0.00     0.031 A 
ATOM     54  C   UNL A   1      43.910  24.792  27.188  1.00  0.00     0.031 A 
ATOM     55  C   UNL A   1      47.168  30.424  27.787  1.00  0.00     0.049 A 
ATOM     56  C   UNL A   1      45.339  25.191  26.933  1.00  0.00     0.074 A 
ATOM     57  C   UNL A   1      48.517  30.651  27.574  1.00  0.00     0.029 A 
ATOM     58  N   UNL A   1      46.940  29.083  27.511  1.00  0.00    -0.354 N 
ATOM     59  N   UNL A   1      45.908  26.363  27.090  1.00  0.00    -0.248 NA
ATOM     60  C   UNL A   1      46.245  24.138  26.456  1.00  0.00     0.031 C 
ATOM     61  C   UNL A   1      49.091  29.464  27.112  1.00  0.00     0.029 A 
ATOM     62  C   UNL A   1      48.118  28.478  27.107  1.00  0.00     0.049 A 
ATOM     63  H   UNL A   1      46.070  28.630  27.589  1.00  0.00     0.167 HD
ATOM     64  C   UNL A   1      47.247  26.179  26.766  1.00  0.00     0.074 A 
ATOM     65  C   UNL A   1      47.404  24.782  26.417  1.00  0.00     0.031 C 
ATOM     66  C   UNL A   1      48.259  27.084  26.764  1.00  0.00     0.031 A 
BRANCH  53  67
ATOM     67  C   UNL A   1      46.551  32.801  28.403  1.00  0.00    -0.014 A 
ATOM     68  C   UNL A   1      46.455  33.731  27.350  1.00  0.00     0.010 A 
ATOM     69  C   UNL A   1      46.984  33.246  29.666  1.00  0.00     0.010 A 
ATOM     70  C   UNL A   1      46.826  35.065  27.546  1.00  0.00     0.020 A 
ATOM     71  C   UNL A   1      47.323  34.586  29.875  1.00  0.00     0.020 A 
ATOM     72  C   UNL A   1      47.258  35.483  28.807  1.00  0.00     0.054 A 
BRANCH  72  73
ATOM     73  S   UNL A   1      47.707  37.226  29.037  1.00  0.00     0.124 S 
ATOM     74  O   UNL A   1      46.400  37.878  29.024  1.00  0.00    -0.237 OA
ATOM     75  O   UNL A   1      48.388  37.213  30.328  1.00  0.00    -0.237 OA
ATOM     76  O   UNL A   1      48.559  37.520  27.888  1.00  0.00    -0.744 OA
ENDBRANCH  72  73
ENDBRANCH  53  67
BRANCH  54  77
ATOM     77  C   UNL A   1      43.449  23.395  26.953  1.00  0.00    -0.014 A 
ATOM     78  C   UNL A   1      43.438  22.851  25.656  1.00  0.00     0.010 A 
ATOM     79  C   UNL A   1      43.029  22.594  28.031  1.00  0.00     0.010 A 
ATOM     80  C   UNL A   1      42.995  21.542  25.439  1.00  0.00     0.020 A 
ATOM     81  C   UNL A   1      42.617  21.275  27.822  1.00  0.00     0.020 A 
ATOM     82  C   UNL A   1      42.590  20.762  26.525  1.00  0.00     0.054 A 
BRANCH  82  83
ATOM     83  S   UNL A   1      42.062  19.052  26.225  1.00  0.00     0.124 S 
ATOM     84  O   UNL A   1      40.658  19.226  25.867  1.00  0.00    -0.237 OA
ATOM     85  O   UNL A   1      42.945  18.636  25.140  1.00  0.00    -0.237 OA
ATOM     86  O   UNL A   1      42.304  18.390  27.505  1.00  0.00    -0.744 OA
ENDBRANCH  82  83
ENDBRANCH  54  77
BRANCH  66  87
ATOM     87  C   UNL A   1      49.638  26.583  26.421  1.00  0.00    -0.014 A 
ATOM     88  C   UNL A   1      50.469  25.992  27.389  1.00  0.00     0.010 A 
ATOM     89  C   UNL A   1      50.087  26.666  25.090  1.00  0.00     0.010 A 
ATOM     90  C   UNL A   1      51.741  25.531  27.039  1.00  0.00     0.020 A 
ATOM     91  C   UNL A   1      51.344  26.176  24.730  1.00  0.00     0.020 A 
ATOM     92  C   UNL A   1      52.171  25.627  25.712  1.00  0.00     0.054 A 
BRANCH  92  93
ATOM     93  S   UNL A   1      53.813  24.991  25.278  1.00  0.00     0.124 S 
ATOM     94  O   UNL A   1      53.553  23.563  25.120  1.00  0.00    -0.237 OA
ATOM     95  O   UNL A   1      54.121  25.715  24.047  1.00  0.00    -0.237 OA
ATOM     96  O   UNL A   1      54.639  25.350  26.428  1.00  0.00    -0.744 OA
ENDBRANCH  92  93
ENDBRANCH  66  87
ENDBRANCH  40  41
ENDBRANCH  32  35
ENDBRANCH  30  31
ENDBRANCH  29  30
ENDBRANCH   1  29
TORSDOF 18
ENDMDL
