MODEL 1
REMARK VINA RESULT:     -11.7      0.000      0.000
REMARK SMILES Cc1c([C@H](C)NC(=O)c2cnn(CC(=O)NCCCCCCNC(=O)c3ccc(-c4c5nc(c(-c6ccc(S(=O)(=O)[O-])cc6)c6ccc([nH]6)c(-c6ccc(S(=O)(=O)[O-])cc6)c6nc(c(-c7ccc(S(=O)(=O)[O-])cc7)c7ccc4[nH]7)C=C6)C=C5)cc3)c2)cnn1C
REMARK SMILES IDX 19 1 18 2 17 3 16 4 14 5 15 6 13 8 12 9 9 10 10 11 86 12
REMARK SMILES IDX 11 13 7 14 6 15 8 17 4 18 5 19 3 20 1 21 2 22 89 23 87 24
REMARK SMILES IDX 88 25 90 26 20 27 21 28 22 29 23 30 24 31 25 33 26 34 27 35
REMARK SMILES IDX 85 36 28 37 84 38 29 39 30 40 31 41 78 42 32 43 83 44 77 45
REMARK SMILES IDX 79 46 33 47 82 48 76 49 75 50 34 52 64 53 45 54 63 55 46 56
REMARK SMILES IDX 49 57 62 58 80 59 47 60 48 61 61 63 81 64 50 65 35 66 36 67
REMARK SMILES IDX 44 68 37 69 43 70 38 71 39 72 40 73 41 74 42 75 65 76 66 77
REMARK SMILES IDX 74 78 67 79 73 80 68 81 69 82 70 83 71 84 72 85 51 86 52 87
REMARK SMILES IDX 60 88 53 89 59 90 54 91 55 92 56 93 57 94 58 95
REMARK H PARENT 16 7 6 16 23 32 79 51 49 62
REMARK Flexibility Score: inf
ROOT
ATOM      1  C   UNL A   1      34.771  24.318  23.835  1.00  0.00     0.002 C 
ENDROOT
BRANCH   1   2
ATOM      2  C   UNL A   1      34.204  25.732  23.654  1.00  0.00     0.021 C 
BRANCH   2   3
ATOM      3  C   UNL A   1      33.157  25.862  22.546  1.00  0.00     0.116 C 
BRANCH   3   4
ATOM      4  N   UNL A   1      32.601  27.200  22.464  1.00  0.00    -0.354 N 
ATOM      5  C   UNL A   1      31.335  27.647  22.730  1.00  0.00     0.241 C 
ATOM      6  O   UNL A   1      31.135  28.864  22.651  1.00  0.00    -0.273 OA
ATOM      7  H   UNL A   1      33.233  27.895  22.170  1.00  0.00     0.163 HD
BRANCH   5   8
ATOM      8  C   UNL A   1      30.255  26.714  23.241  1.00  0.00     0.243 C 
BRANCH   8   9
ATOM      9  N   UNL A   1      30.650  25.985  24.427  1.00  0.00    -0.262 N 
ATOM     10  C   UNL A   1      30.616  24.513  26.064  1.00  0.00     0.077 A 
ATOM     11  C   UNL A   1      31.189  25.752  26.436  1.00  0.00     0.149 A 
ATOM     12  C   UNL A   1      30.386  24.677  24.709  1.00  0.00     0.123 A 
ATOM     13  N   UNL A   1      31.234  26.635  25.439  1.00  0.00    -0.180 NA
BRANCH  10  14
ATOM     14  C   UNL A   1      30.337  23.289  26.800  1.00  0.00     0.254 C 
ATOM     15  N   UNL A   1      31.195  22.223  26.726  1.00  0.00    -0.345 N 
ATOM     16  H   UNL A   1      30.855  21.380  27.106  1.00  0.00     0.164 HD
ATOM     17  O   UNL A   1      29.354  23.199  27.532  1.00  0.00    -0.269 OA
BRANCH  15  18
ATOM     18  C   UNL A   1      32.527  22.162  26.170  1.00  0.00     0.113 C 
ATOM     19  C   UNL A   1      33.536  21.809  27.258  1.00  0.00     0.036 C 
BRANCH  18  20
ATOM     20  C   UNL A   1      32.595  21.283  24.956  1.00  0.00     0.015 A 
ATOM     21  C   UNL A   1      32.883  18.754  25.724  1.00  0.00     0.067 C 
ATOM     22  C   UNL A   1      32.686  19.900  24.792  1.00  0.00     0.040 A 
ATOM     23  N   UNL A   1      32.415  19.664  23.462  1.00  0.00    -0.273 N 
ATOM     24  C   UNL A   1      32.388  21.759  23.638  1.00  0.00     0.141 A 
ATOM     25  N   UNL A   1      32.198  20.786  22.755  1.00  0.00    -0.181 NA
ATOM     26  C   UNL A   1      32.220  18.377  22.827  1.00  0.00     0.174 C 
ENDBRANCH  18  20
ENDBRANCH  15  18
ENDBRANCH  10  14
ENDBRANCH   8   9
ENDBRANCH   5   8
ENDBRANCH   3   4
ENDBRANCH   2   3
ENDBRANCH   1   2
BRANCH   1  27
ATOM     27  C   UNL A   1      35.493  24.044  25.163  1.00  0.00     0.002 C 
BRANCH  27  28
ATOM     28  C   UNL A   1      36.337  22.763  25.235  1.00  0.00     0.021 C 
BRANCH  28  29
ATOM     29  C   UNL A   1      37.840  23.005  25.230  1.00  0.00     0.116 C 
BRANCH  29  30
ATOM     30  N   UNL A   1      38.563  22.098  26.121  1.00  0.00    -0.352 N 
ATOM     31  C   UNL A   1      39.666  22.370  26.917  1.00  0.00     0.251 C 
ATOM     32  H   UNL A   1      38.222  21.175  26.161  1.00  0.00     0.163 HD
ATOM     33  O   UNL A   1      40.395  21.473  27.302  1.00  0.00    -0.269 OA
BRANCH  31  34
ATOM     34  C   UNL A   1      39.924  23.773  27.297  1.00  0.00     0.039 A 
ATOM     35  C   UNL A   1      39.013  24.802  27.041  1.00  0.00     0.014 A 
ATOM     36  C   UNL A   1      41.120  24.040  27.951  1.00  0.00     0.014 A 
ATOM     37  C   UNL A   1      39.281  26.081  27.539  1.00  0.00     0.010 A 
ATOM     38  C   UNL A   1      41.298  25.245  28.574  1.00  0.00     0.010 A 
ATOM     39  C   UNL A   1      40.421  26.292  28.331  1.00  0.00    -0.014 A 
BRANCH  39  40
ATOM     40  C   UNL A   1      40.685  27.564  29.003  1.00  0.00     0.031 A 
ATOM     41  C   UNL A   1      41.784  28.373  28.402  1.00  0.00     0.074 A 
ATOM     42  C   UNL A   1      39.860  28.102  29.932  1.00  0.00     0.049 A 
ATOM     43  N   UNL A   1      42.954  28.619  28.891  1.00  0.00    -0.248 NA
ATOM     44  C   UNL A   1      41.603  28.862  27.024  1.00  0.00     0.031 C 
ATOM     45  C   UNL A   1      38.559  27.614  30.411  1.00  0.00     0.029 A 
ATOM     46  N   UNL A   1      39.985  29.282  30.596  1.00  0.00    -0.354 N 
ATOM     47  C   UNL A   1      43.586  29.468  27.984  1.00  0.00     0.074 A 
ATOM     48  C   UNL A   1      42.786  29.433  26.785  1.00  0.00     0.031 C 
ATOM     49  C   UNL A   1      37.939  28.578  31.132  1.00  0.00     0.029 A 
ATOM     50  C   UNL A   1      38.858  29.688  31.316  1.00  0.00     0.049 A 
ATOM     51  H   UNL A   1      40.812  29.815  30.571  1.00  0.00     0.167 HD
ATOM     52  C   UNL A   1      44.591  30.309  28.363  1.00  0.00     0.031 A 
ATOM     53  C   UNL A   1      38.708  30.850  32.010  1.00  0.00     0.031 A 
ATOM     54  C   UNL A   1      45.101  29.971  29.668  1.00  0.00     0.049 A 
ATOM     55  C   UNL A   1      40.069  31.380  32.231  1.00  0.00     0.074 A 
ATOM     56  C   UNL A   1      45.708  28.862  30.223  1.00  0.00     0.029 A 
ATOM     57  N   UNL A   1      44.637  30.710  30.732  1.00  0.00    -0.354 N 
ATOM     58  N   UNL A   1      40.926  30.813  33.030  1.00  0.00    -0.248 NA
ATOM     59  C   UNL A   1      40.635  32.269  31.229  1.00  0.00     0.031 C 
ATOM     60  C   UNL A   1      45.132  28.741  31.524  1.00  0.00     0.029 A 
ATOM     61  C   UNL A   1      44.265  29.819  31.706  1.00  0.00     0.049 A 
ATOM     62  H   UNL A   1      44.583  31.692  30.785  1.00  0.00     0.167 HD
ATOM     63  C   UNL A   1      42.145  30.932  32.383  1.00  0.00     0.074 A 
ATOM     64  C   UNL A   1      41.921  31.919  31.326  1.00  0.00     0.031 C 
ATOM     65  C   UNL A   1      43.136  30.016  32.586  1.00  0.00     0.031 A 
BRANCH  52  66
ATOM     66  C   UNL A   1      44.843  31.664  27.738  1.00  0.00    -0.014 A 
ATOM     67  C   UNL A   1      46.175  32.056  27.479  1.00  0.00     0.010 A 
ATOM     68  C   UNL A   1      43.859  32.670  27.649  1.00  0.00     0.010 A 
ATOM     69  C   UNL A   1      46.508  33.396  27.236  1.00  0.00     0.020 A 
ATOM     70  C   UNL A   1      44.174  34.000  27.363  1.00  0.00     0.020 A 
ATOM     71  C   UNL A   1      45.504  34.362  27.199  1.00  0.00     0.054 A 
BRANCH  71  72
ATOM     72  S   UNL A   1      45.951  36.106  27.016  1.00  0.00     0.124 S 
ATOM     73  O   UNL A   1      46.548  36.400  28.314  1.00  0.00    -0.237 OA
ATOM     74  O   UNL A   1      46.875  36.070  25.885  1.00  0.00    -0.237 OA
ATOM     75  O   UNL A   1      44.672  36.760  26.750  1.00  0.00    -0.744 OA
ENDBRANCH  71  72
ENDBRANCH  52  66
BRANCH  53  76
ATOM     76  C   UNL A   1      37.508  31.649  32.371  1.00  0.00    -0.014 A 
ATOM     77  C   UNL A   1      37.586  32.749  33.255  1.00  0.00     0.010 A 
ATOM     78  C   UNL A   1      36.340  31.526  31.615  1.00  0.00     0.010 A 
ATOM     79  C   UNL A   1      36.583  33.742  33.292  1.00  0.00     0.020 A 
ATOM     80  C   UNL A   1      35.341  32.501  31.659  1.00  0.00     0.020 A 
ATOM     81  C   UNL A   1      35.474  33.626  32.459  1.00  0.00     0.054 A 
BRANCH  81  82
ATOM     82  S   UNL A   1      34.272  34.973  32.247  1.00  0.00     0.124 S 
ATOM     83  O   UNL A   1      34.231  35.131  30.796  1.00  0.00    -0.237 OA
ATOM     84  O   UNL A   1      33.055  34.451  32.860  1.00  0.00    -0.237 OA
ATOM     85  O   UNL A   1      34.896  36.083  32.968  1.00  0.00    -0.744 OA
ENDBRANCH  81  82
ENDBRANCH  53  76
BRANCH  65  86
ATOM     86  C   UNL A   1      42.920  28.979  33.665  1.00  0.00    -0.014 A 
ATOM     87  C   UNL A   1      43.444  29.094  34.971  1.00  0.00     0.010 A 
ATOM     88  C   UNL A   1      42.046  27.917  33.388  1.00  0.00     0.010 A 
ATOM     89  C   UNL A   1      43.115  28.160  35.965  1.00  0.00     0.020 A 
ATOM     90  C   UNL A   1      41.704  26.990  34.376  1.00  0.00     0.020 A 
ATOM     91  C   UNL A   1      42.243  27.111  35.658  1.00  0.00     0.054 A 
BRANCH  91  92
ATOM     92  S   UNL A   1      41.773  25.931  36.955  1.00  0.00     0.124 S 
ATOM     93  O   UNL A   1      40.690  26.627  37.643  1.00  0.00    -0.237 OA
ATOM     94  O   UNL A   1      41.376  24.749  36.192  1.00  0.00    -0.237 OA
ATOM     95  O   UNL A   1      42.998  25.767  37.737  1.00  0.00    -0.744 OA
ENDBRANCH  91  92
ENDBRANCH  65  86
ENDBRANCH  39  40
ENDBRANCH  31  34
ENDBRANCH  29  30
ENDBRANCH  28  29
ENDBRANCH  27  28
ENDBRANCH   1  27
TORSDOF 20
ENDMDL
MODEL 2
REMARK VINA RESULT:     -11.6      1.709      3.861
REMARK SMILES Cc1c([C@H](C)NC(=O)c2cnn(CC(=O)NCCCCCCNC(=O)c3ccc(-c4c5nc(c(-c6ccc(S(=O)(=O)[O-])cc6)c6ccc([nH]6)c(-c6ccc(S(=O)(=O)[O-])cc6)c6nc(c(-c7ccc(S(=O)(=O)[O-])cc7)c7ccc4[nH]7)C=C6)C=C5)cc3)c2)cnn1C
REMARK SMILES IDX 19 1 18 2 17 3 16 4 14 5 15 6 13 8 12 9 9 10 10 11 86 12
REMARK SMILES IDX 11 13 7 14 6 15 8 17 4 18 5 19 3 20 1 21 2 22 89 23 87 24
REMARK SMILES IDX 88 25 90 26 20 27 21 28 22 29 23 30 24 31 25 33 26 34 27 35
REMARK SMILES IDX 85 36 28 37 84 38 29 39 30 40 31 41 78 42 32 43 83 44 77 45
REMARK SMILES IDX 79 46 33 47 82 48 76 49 75 50 34 52 64 53 45 54 63 55 46 56
REMARK SMILES IDX 49 57 62 58 80 59 47 60 48 61 61 63 81 64 50 65 35 66 36 67
REMARK SMILES IDX 44 68 37 69 43 70 38 71 39 72 40 73 41 74 42 75 65 76 66 77
REMARK SMILES IDX 74 78 67 79 73 80 68 81 69 82 70 83 71 84 72 85 51 86 52 87
REMARK SMILES IDX 60 88 53 89 59 90 54 91 55 92 56 93 57 94 58 95
REMARK H PARENT 16 7 6 16 23 32 79 51 49 62
REMARK Flexibility Score: inf
ROOT
ATOM      1  C   UNL A   1      37.321  23.563  25.178  1.00  0.00     0.002 C 
ENDROOT
BRANCH   1   2
ATOM      2  C   UNL A   1      35.848  23.595  25.606  1.00  0.00     0.021 C 
BRANCH   2   3
ATOM      3  C   UNL A   1      35.270  22.235  26.002  1.00  0.00     0.116 C 
BRANCH   3   4
ATOM      4  N   UNL A   1      34.433  22.312  27.185  1.00  0.00    -0.354 N 
ATOM      5  C   UNL A   1      33.071  22.386  27.299  1.00  0.00     0.241 C 
ATOM      6  O   UNL A   1      32.596  22.368  28.439  1.00  0.00    -0.273 OA
ATOM      7  H   UNL A   1      34.921  22.311  28.040  1.00  0.00     0.163 HD
BRANCH   5   8
ATOM      8  C   UNL A   1      32.169  22.348  26.080  1.00  0.00     0.243 C 
BRANCH   8   9
ATOM      9  N   UNL A   1      32.198  23.577  25.316  1.00  0.00    -0.262 N 
ATOM     10  C   UNL A   1      32.568  24.982  23.662  1.00  0.00     0.077 A 
ATOM     11  C   UNL A   1      32.662  25.583  24.939  1.00  0.00     0.149 A 
ATOM     12  C   UNL A   1      32.148  23.697  23.958  1.00  0.00     0.123 A 
ATOM     13  N   UNL A   1      32.413  24.740  25.940  1.00  0.00    -0.180 NA
BRANCH  10  14
ATOM     14  C   UNL A   1      32.777  25.484  22.312  1.00  0.00     0.254 C 
ATOM     15  N   UNL A   1      32.433  26.770  21.988  1.00  0.00    -0.345 N 
ATOM     16  H   UNL A   1      32.441  26.981  21.025  1.00  0.00     0.164 HD
ATOM     17  O   UNL A   1      33.301  24.784  21.448  1.00  0.00    -0.269 OA
BRANCH  15  18
ATOM     18  C   UNL A   1      32.061  27.861  22.859  1.00  0.00     0.113 C 
ATOM     19  C   UNL A   1      33.082  28.990  22.756  1.00  0.00     0.036 C 
BRANCH  18  20
ATOM     20  C   UNL A   1      30.639  28.293  22.650  1.00  0.00     0.015 A 
ATOM     21  C   UNL A   1      29.014  26.567  23.853  1.00  0.00     0.067 C 
ATOM     22  C   UNL A   1      29.419  27.790  23.103  1.00  0.00     0.040 A 
ATOM     23  N   UNL A   1      28.489  28.768  22.832  1.00  0.00    -0.273 N 
ATOM     24  C   UNL A   1      30.281  29.515  22.026  1.00  0.00     0.141 A 
ATOM     25  N   UNL A   1      29.007  29.839  22.207  1.00  0.00    -0.181 NA
ATOM     26  C   UNL A   1      27.105  28.799  23.262  1.00  0.00     0.174 C 
ENDBRANCH  18  20
ENDBRANCH  15  18
ENDBRANCH  10  14
ENDBRANCH   8   9
ENDBRANCH   5   8
ENDBRANCH   3   4
ENDBRANCH   2   3
ENDBRANCH   1   2
BRANCH   1  27
ATOM     27  C   UNL A   1      38.317  23.032  26.220  1.00  0.00     0.002 C 
BRANCH  27  28
ATOM     28  C   UNL A   1      38.981  21.683  25.911  1.00  0.00     0.021 C 
BRANCH  28  29
ATOM     29  C   UNL A   1      40.204  21.379  26.765  1.00  0.00     0.116 C 
BRANCH  29  30
ATOM     30  N   UNL A   1      41.459  21.509  26.024  1.00  0.00    -0.352 N 
ATOM     31  C   UNL A   1      42.196  22.657  25.771  1.00  0.00     0.251 C 
ATOM     32  H   UNL A   1      41.829  20.672  25.659  1.00  0.00     0.163 HD
ATOM     33  O   UNL A   1      42.986  22.700  24.846  1.00  0.00    -0.269 OA
BRANCH  31  34
ATOM     34  C   UNL A   1      42.005  23.819  26.661  1.00  0.00     0.039 A 
ATOM     35  C   UNL A   1      42.572  23.891  27.937  1.00  0.00     0.014 A 
ATOM     36  C   UNL A   1      41.245  24.872  26.170  1.00  0.00     0.014 A 
ATOM     37  C   UNL A   1      42.442  25.076  28.668  1.00  0.00     0.010 A 
ATOM     38  C   UNL A   1      41.261  26.079  26.815  1.00  0.00     0.010 A 
ATOM     39  C   UNL A   1      41.802  26.182  28.088  1.00  0.00    -0.014 A 
BRANCH  39  40
ATOM     40  C   UNL A   1      41.758  27.493  28.735  1.00  0.00     0.031 A 
ATOM     41  C   UNL A   1      42.843  28.431  28.324  1.00  0.00     0.074 A 
ATOM     42  C   UNL A   1      40.699  27.934  29.454  1.00  0.00     0.049 A 
ATOM     43  N   UNL A   1      43.847  28.845  29.023  1.00  0.00    -0.248 NA
ATOM     44  C   UNL A   1      42.883  28.859  26.915  1.00  0.00     0.031 C 
ATOM     45  C   UNL A   1      39.402  27.284  29.689  1.00  0.00     0.029 A 
ATOM     46  N   UNL A   1      40.533  29.135  30.070  1.00  0.00    -0.354 N 
ATOM     47  C   UNL A   1      44.535  29.751  28.218  1.00  0.00     0.074 A 
ATOM     48  C   UNL A   1      44.006  29.581  26.887  1.00  0.00     0.031 C 
ATOM     49  C   UNL A   1      38.530  28.171  30.224  1.00  0.00     0.029 A 
ATOM     50  C   UNL A   1      39.241  29.400  30.532  1.00  0.00     0.049 A 
ATOM     51  H   UNL A   1      41.273  29.775  30.183  1.00  0.00     0.167 HD
ATOM     52  C   UNL A   1      45.325  30.730  28.747  1.00  0.00     0.031 A 
ATOM     53  C   UNL A   1      38.804  30.546  31.123  1.00  0.00     0.031 A 
ATOM     54  C   UNL A   1      45.598  30.495  30.142  1.00  0.00     0.049 A 
ATOM     55  C   UNL A   1      40.012  31.262  31.583  1.00  0.00     0.074 A 
ATOM     56  C   UNL A   1      46.218  29.491  30.861  1.00  0.00     0.029 A 
ATOM     57  N   UNL A   1      44.836  31.187  31.055  1.00  0.00    -0.354 N 
ATOM     58  N   UNL A   1      40.755  30.835  32.563  1.00  0.00    -0.248 NA
ATOM     59  C   UNL A   1      40.650  32.197  30.670  1.00  0.00     0.031 C 
ATOM     60  C   UNL A   1      45.410  29.323  32.026  1.00  0.00     0.029 A 
ATOM     61  C   UNL A   1      44.392  30.276  31.979  1.00  0.00     0.049 A 
ATOM     62  H   UNL A   1      44.647  32.153  31.047  1.00  0.00     0.167 HD
ATOM     63  C   UNL A   1      42.054  31.104  32.166  1.00  0.00     0.074 A 
ATOM     64  C   UNL A   1      41.924  32.027  31.038  1.00  0.00     0.031 C 
ATOM     65  C   UNL A   1      43.093  30.337  32.607  1.00  0.00     0.031 A 
BRANCH  52  66
ATOM     66  C   UNL A   1      45.522  32.092  28.117  1.00  0.00    -0.014 A 
ATOM     67  C   UNL A   1      46.635  32.297  27.272  1.00  0.00     0.010 A 
ATOM     68  C   UNL A   1      44.824  33.245  28.534  1.00  0.00     0.010 A 
ATOM     69  C   UNL A   1      47.074  33.586  26.941  1.00  0.00     0.020 A 
ATOM     70  C   UNL A   1      45.226  34.533  28.173  1.00  0.00     0.020 A 
ATOM     71  C   UNL A   1      46.375  34.697  27.412  1.00  0.00     0.054 A 
BRANCH  71  72
ATOM     72  S   UNL A   1      47.020  36.357  27.091  1.00  0.00     0.124 S 
ATOM     73  O   UNL A   1      47.509  36.229  25.722  1.00  0.00    -0.237 OA
ATOM     74  O   UNL A   1      45.832  37.188  27.266  1.00  0.00    -0.237 OA
ATOM     75  O   UNL A   1      48.050  36.526  28.113  1.00  0.00    -0.744 OA
ENDBRANCH  71  72
ENDBRANCH  52  66
BRANCH  53  76
ATOM     76  C   UNL A   1      37.463  31.182  31.199  1.00  0.00    -0.014 A 
ATOM     77  C   UNL A   1      36.658  31.083  32.357  1.00  0.00     0.010 A 
ATOM     78  C   UNL A   1      37.097  32.142  30.253  1.00  0.00     0.010 A 
ATOM     79  C   UNL A   1      35.602  31.987  32.604  1.00  0.00     0.020 A 
ATOM     80  C   UNL A   1      36.044  33.030  30.490  1.00  0.00     0.020 A 
ATOM     81  C   UNL A   1      35.324  32.985  31.675  1.00  0.00     0.054 A 
BRANCH  81  82
ATOM     82  S   UNL A   1      34.167  34.343  32.022  1.00  0.00     0.124 S 
ATOM     83  O   UNL A   1      33.313  33.771  33.060  1.00  0.00    -0.237 OA
ATOM     84  O   UNL A   1      35.034  35.436  32.450  1.00  0.00    -0.237 OA
ATOM     85  O   UNL A   1      33.510  34.550  30.731  1.00  0.00    -0.744 OA
ENDBRANCH  81  82
ENDBRANCH  53  76
BRANCH  65  86
ATOM     86  C   UNL A   1      42.798  29.304  33.672  1.00  0.00    -0.014 A 
ATOM     87  C   UNL A   1      42.558  29.629  35.024  1.00  0.00     0.010 A 
ATOM     88  C   UNL A   1      42.626  27.973  33.264  1.00  0.00     0.010 A 
ATOM     89  C   UNL A   1      42.174  28.642  35.945  1.00  0.00     0.020 A 
ATOM     90  C   UNL A   1      42.232  26.988  34.172  1.00  0.00     0.020 A 
ATOM     91  C   UNL A   1      42.013  27.324  35.509  1.00  0.00     0.054 A 
BRANCH  91  92
ATOM     92  S   UNL A   1      41.465  26.054  36.686  1.00  0.00     0.124 S 
ATOM     93  O   UNL A   1      40.674  26.823  37.641  1.00  0.00    -0.237 OA
ATOM     94  O   UNL A   1      40.709  25.132  35.841  1.00  0.00    -0.237 OA
ATOM     95  O   UNL A   1      42.715  25.509  37.216  1.00  0.00    -0.744 OA
ENDBRANCH  91  92
ENDBRANCH  65  86
ENDBRANCH  39  40
ENDBRANCH  31  34
ENDBRANCH  29  30
ENDBRANCH  28  29
ENDBRANCH  27  28
ENDBRANCH   1  27
TORSDOF 20
ENDMDL
MODEL 3
REMARK VINA RESULT:     -11.1      2.879      5.169
REMARK SMILES Cc1c([C@H](C)NC(=O)c2cnn(CC(=O)NCCCCCCNC(=O)c3ccc(-c4c5nc(c(-c6ccc(S(=O)(=O)[O-])cc6)c6ccc([nH]6)c(-c6ccc(S(=O)(=O)[O-])cc6)c6nc(c(-c7ccc(S(=O)(=O)[O-])cc7)c7ccc4[nH]7)C=C6)C=C5)cc3)c2)cnn1C
REMARK SMILES IDX 19 1 18 2 17 3 16 4 14 5 15 6 13 8 12 9 9 10 10 11 86 12
REMARK SMILES IDX 11 13 7 14 6 15 8 17 4 18 5 19 3 20 1 21 2 22 89 23 87 24
REMARK SMILES IDX 88 25 90 26 20 27 21 28 22 29 23 30 24 31 25 33 26 34 27 35
REMARK SMILES IDX 85 36 28 37 84 38 29 39 30 40 31 41 78 42 32 43 83 44 77 45
REMARK SMILES IDX 79 46 33 47 82 48 76 49 75 50 34 52 64 53 45 54 63 55 46 56
REMARK SMILES IDX 49 57 62 58 80 59 47 60 48 61 61 63 81 64 50 65 35 66 36 67
REMARK SMILES IDX 44 68 37 69 43 70 38 71 39 72 40 73 41 74 42 75 65 76 66 77
REMARK SMILES IDX 74 78 67 79 73 80 68 81 69 82 70 83 71 84 72 85 51 86 52 87
REMARK SMILES IDX 60 88 53 89 59 90 54 91 55 92 56 93 57 94 58 95
REMARK H PARENT 16 7 6 16 23 32 79 51 49 62
REMARK Flexibility Score: inf
ROOT
ATOM      1  C   UNL A   1      40.838  21.718  27.737  1.00  0.00     0.002 C 
ENDROOT
BRANCH   1   2
ATOM      2  C   UNL A   1      40.309  22.145  26.362  1.00  0.00     0.021 C 
BRANCH   2   3
ATOM      3  C   UNL A   1      38.884  22.703  26.372  1.00  0.00     0.116 C 
BRANCH   3   4
ATOM      4  N   UNL A   1      37.892  21.694  26.046  1.00  0.00    -0.354 N 
ATOM      5  C   UNL A   1      36.543  21.813  25.856  1.00  0.00     0.241 C 
ATOM      6  O   UNL A   1      35.927  20.799  25.511  1.00  0.00    -0.273 OA
ATOM      7  H   UNL A   1      38.247  20.781  25.946  1.00  0.00     0.163 HD
BRANCH   5   8
ATOM      8  C   UNL A   1      35.847  23.159  25.924  1.00  0.00     0.243 C 
BRANCH   8   9
ATOM      9  N   UNL A   1      34.436  23.083  25.610  1.00  0.00    -0.262 N 
ATOM     10  C   UNL A   1      32.544  23.290  24.503  1.00  0.00     0.077 A 
ATOM     11  C   UNL A   1      32.391  23.421  25.904  1.00  0.00     0.149 A 
ATOM     12  C   UNL A   1      33.880  22.953  24.371  1.00  0.00     0.123 A 
ATOM     13  N   UNL A   1      33.531  23.270  26.576  1.00  0.00    -0.180 NA
BRANCH  10  14
ATOM     14  C   UNL A   1      31.614  23.400  23.390  1.00  0.00     0.254 C 
ATOM     15  N   UNL A   1      31.190  24.629  22.957  1.00  0.00    -0.345 N 
ATOM     16  H   UNL A   1      30.436  24.617  22.322  1.00  0.00     0.164 HD
ATOM     17  O   UNL A   1      31.221  22.401  22.790  1.00  0.00    -0.269 OA
BRANCH  15  18
ATOM     18  C   UNL A   1      31.693  25.939  23.299  1.00  0.00     0.113 C 
ATOM     19  C   UNL A   1      33.127  26.099  22.803  1.00  0.00     0.036 C 
BRANCH  18  20
ATOM     20  C   UNL A   1      30.765  27.034  22.865  1.00  0.00     0.015 A 
ATOM     21  C   UNL A   1      28.374  26.639  23.958  1.00  0.00     0.067 C 
ATOM     22  C   UNL A   1      29.439  27.334  23.182  1.00  0.00     0.040 A 
ATOM     23  N   UNL A   1      29.224  28.611  22.713  1.00  0.00    -0.273 N 
ATOM     24  C   UNL A   1      31.186  28.157  22.108  1.00  0.00     0.141 A 
ATOM     25  N   UNL A   1      30.290  29.137  22.088  1.00  0.00    -0.181 NA
ATOM     26  C   UNL A   1      28.058  29.440  22.945  1.00  0.00     0.174 C 
ENDBRANCH  18  20
ENDBRANCH  15  18
ENDBRANCH  10  14
ENDBRANCH   8   9
ENDBRANCH   5   8
ENDBRANCH   3   4
ENDBRANCH   2   3
ENDBRANCH   1   2
BRANCH   1  27
ATOM     27  C   UNL A   1      42.197  21.001  27.746  1.00  0.00     0.002 C 
BRANCH  27  28
ATOM     28  C   UNL A   1      42.241  19.605  27.110  1.00  0.00     0.021 C 
BRANCH  28  29
ATOM     29  C   UNL A   1      42.395  19.614  25.595  1.00  0.00     0.116 C 
BRANCH  29  30
ATOM     30  N   UNL A   1      43.772  19.370  25.163  1.00  0.00    -0.352 N 
ATOM     31  C   UNL A   1      44.720  20.292  24.745  1.00  0.00     0.251 C 
ATOM     32  H   UNL A   1      44.063  18.429  25.171  1.00  0.00     0.163 HD
ATOM     33  O   UNL A   1      45.668  19.948  24.062  1.00  0.00    -0.269 OA
BRANCH  31  34
ATOM     34  C   UNL A   1      44.556  21.699  25.161  1.00  0.00     0.039 A 
ATOM     35  C   UNL A   1      43.642  22.563  24.551  1.00  0.00     0.014 A 
ATOM     36  C   UNL A   1      45.342  22.140  26.218  1.00  0.00     0.014 A 
ATOM     37  C   UNL A   1      43.465  23.845  25.083  1.00  0.00     0.010 A 
ATOM     38  C   UNL A   1      45.049  23.327  26.832  1.00  0.00     0.010 A 
ATOM     39  C   UNL A   1      44.158  24.215  26.247  1.00  0.00    -0.014 A 
BRANCH  39  40
ATOM     40  C   UNL A   1      43.912  25.479  26.938  1.00  0.00     0.031 A 
ATOM     41  C   UNL A   1      44.950  26.526  26.716  1.00  0.00     0.074 A 
ATOM     42  C   UNL A   1      42.733  25.789  27.528  1.00  0.00     0.049 A 
ATOM     43  N   UNL A   1      45.815  26.985  27.560  1.00  0.00    -0.248 NA
ATOM     44  C   UNL A   1      45.133  27.034  25.345  1.00  0.00     0.031 C 
ATOM     45  C   UNL A   1      41.482  25.020  27.561  1.00  0.00     0.029 A 
ATOM     46  N   UNL A   1      42.381  26.936  28.169  1.00  0.00    -0.354 N 
ATOM     47  C   UNL A   1      46.515  27.989  26.893  1.00  0.00     0.074 A 
ATOM     48  C   UNL A   1      46.179  27.848  25.498  1.00  0.00     0.031 C 
ATOM     49  C   UNL A   1      40.471  25.800  28.013  1.00  0.00     0.029 A 
ATOM     50  C   UNL A   1      41.022  27.065  28.465  1.00  0.00     0.049 A 
ATOM     51  H   UNL A   1      43.039  27.629  28.407  1.00  0.00     0.167 HD
ATOM     52  C   UNL A   1      47.139  29.001  27.564  1.00  0.00     0.031 A 
ATOM     53  C   UNL A   1      40.410  28.136  29.042  1.00  0.00     0.031 A 
ATOM     54  C   UNL A   1      47.250  28.713  28.972  1.00  0.00     0.049 A 
ATOM     55  C   UNL A   1      41.479  28.925  29.690  1.00  0.00     0.074 A 
ATOM     56  C   UNL A   1      47.861  27.728  29.723  1.00  0.00     0.029 A 
ATOM     57  N   UNL A   1      46.317  29.287  29.805  1.00  0.00    -0.354 N 
ATOM     58  N   UNL A   1      42.125  28.509  30.740  1.00  0.00    -0.248 NA
ATOM     59  C   UNL A   1      42.141  29.959  28.911  1.00  0.00     0.031 C 
ATOM     60  C   UNL A   1      46.929  27.428  30.762  1.00  0.00     0.029 A 
ATOM     61  C   UNL A   1      45.843  28.293  30.621  1.00  0.00     0.049 A 
ATOM     62  H   UNL A   1      46.044  30.233  29.813  1.00  0.00     0.167 HD
ATOM     63  C   UNL A   1      43.434  28.909  30.531  1.00  0.00     0.074 A 
ATOM     64  C   UNL A   1      43.367  29.878  29.437  1.00  0.00     0.031 C 
ATOM     65  C   UNL A   1      44.474  28.209  31.073  1.00  0.00     0.031 A 
BRANCH  52  66
ATOM     66  C   UNL A   1      47.290  30.407  27.026  1.00  0.00    -0.014 A 
ATOM     67  C   UNL A   1      48.556  31.029  27.094  1.00  0.00     0.010 A 
ATOM     68  C   UNL A   1      46.194  31.237  26.712  1.00  0.00     0.010 A 
ATOM     69  C   UNL A   1      48.698  32.415  26.946  1.00  0.00     0.020 A 
ATOM     70  C   UNL A   1      46.331  32.614  26.519  1.00  0.00     0.020 A 
ATOM     71  C   UNL A   1      47.578  33.201  26.679  1.00  0.00     0.054 A 
BRANCH  71  72
ATOM     72  S   UNL A   1      47.746  35.002  26.619  1.00  0.00     0.124 S 
ATOM     73  O   UNL A   1      48.467  35.193  25.364  1.00  0.00    -0.237 OA
ATOM     74  O   UNL A   1      46.353  35.442  26.625  1.00  0.00    -0.237 OA
ATOM     75  O   UNL A   1      48.499  35.314  27.831  1.00  0.00    -0.744 OA
ENDBRANCH  71  72
ENDBRANCH  52  66
BRANCH  53  76
ATOM     76  C   UNL A   1      39.018  28.651  28.967  1.00  0.00    -0.014 A 
ATOM     77  C   UNL A   1      38.236  28.853  30.127  1.00  0.00     0.010 A 
ATOM     78  C   UNL A   1      38.559  29.235  27.785  1.00  0.00     0.010 A 
ATOM     79  C   UNL A   1      37.105  29.698  30.121  1.00  0.00     0.020 A 
ATOM     80  C   UNL A   1      37.432  30.062  27.773  1.00  0.00     0.020 A 
ATOM     81  C   UNL A   1      36.730  30.330  28.939  1.00  0.00     0.054 A 
BRANCH  81  82
ATOM     82  S   UNL A   1      35.459  31.628  28.891  1.00  0.00     0.124 S 
ATOM     83  O   UNL A   1      35.234  31.900  30.308  1.00  0.00    -0.237 OA
ATOM     84  O   UNL A   1      36.091  32.704  28.134  1.00  0.00    -0.237 OA
ATOM     85  O   UNL A   1      34.345  30.969  28.208  1.00  0.00    -0.744 OA
ENDBRANCH  81  82
ENDBRANCH  53  76
BRANCH  65  86
ATOM     86  C   UNL A   1      44.140  27.098  32.043  1.00  0.00    -0.014 A 
ATOM     87  C   UNL A   1      44.305  25.729  31.745  1.00  0.00     0.010 A 
ATOM     88  C   UNL A   1      43.773  27.458  33.349  1.00  0.00     0.010 A 
ATOM     89  C   UNL A   1      44.090  24.746  32.724  1.00  0.00     0.020 A 
ATOM     90  C   UNL A   1      43.570  26.486  34.332  1.00  0.00     0.020 A 
ATOM     91  C   UNL A   1      43.723  25.135  34.015  1.00  0.00     0.054 A 
BRANCH  91  92
ATOM     92  S   UNL A   1      43.496  23.871  35.298  1.00  0.00     0.124 S 
ATOM     93  O   UNL A   1      44.471  24.263  36.311  1.00  0.00    -0.237 OA
ATOM     94  O   UNL A   1      42.094  24.039  35.677  1.00  0.00    -0.237 OA
ATOM     95  O   UNL A   1      43.794  22.616  34.607  1.00  0.00    -0.744 OA
ENDBRANCH  91  92
ENDBRANCH  65  86
ENDBRANCH  39  40
ENDBRANCH  31  34
ENDBRANCH  29  30
ENDBRANCH  28  29
ENDBRANCH  27  28
ENDBRANCH   1  27
TORSDOF 20
ENDMDL
