MODEL 1
REMARK VINA RESULT:     -12.0      0.000      0.000
REMARK SMILES CC(C)(C)c1cc2c(cc1Cl)C=C(C(=O)NCCCCCCNC(=O)c1ccc(-c3c4nc(c(-c5ccc(S(=O)(=O)[O-])cc5)c5ccc([nH]5)c(-c5ccc(S(=O)(=O)[O-])cc5)c5nc(c(-c6ccc(S(=O)(=O)[O-])cc6)c6ccc3[nH]6)C=C5)C=C4)cc1)[C@@H](C(F)(F)F)O2
REMARK SMILES IDX 20 1 19 2 18 3 17 4 16 5 14 6 15 7 13 9 5 10 6 11 10 12 7 13
REMARK SMILES IDX 9 14 11 15 8 16 91 17 12 18 86 19 2 20 1 21 3 22 4 23 87 24
REMARK SMILES IDX 88 25 89 26 90 27 21 28 22 29 23 30 24 31 25 33 26 34 27 35
REMARK SMILES IDX 85 36 28 37 84 38 29 39 30 40 31 41 78 42 32 43 83 44 77 45
REMARK SMILES IDX 79 46 33 47 82 48 76 49 75 50 34 52 64 53 45 54 63 55 46 56
REMARK SMILES IDX 49 57 62 58 80 59 47 60 48 61 61 63 81 64 50 65 35 66 36 67
REMARK SMILES IDX 44 68 37 69 43 70 38 71 39 72 40 73 41 74 42 75 65 76 66 77
REMARK SMILES IDX 74 78 67 79 73 80 68 81 69 82 70 83 71 84 72 85 51 86 52 87
REMARK SMILES IDX 60 88 53 89 59 90 54 91 55 92 56 93 57 94 58 95
REMARK H PARENT 16 8 23 32 79 51 49 62
REMARK Flexibility Score: inf
ROOT
ATOM      1  C   UNL A   1      33.956  29.294  27.523  1.00  0.00     0.002 C 
ENDROOT
BRANCH   1   2
ATOM      2  C   UNL A   1      32.755  30.214  27.272  1.00  0.00     0.002 C 
BRANCH   2   3
ATOM      3  C   UNL A   1      31.576  29.582  26.524  1.00  0.00     0.021 C 
BRANCH   3   4
ATOM      4  C   UNL A   1      31.344  30.146  25.125  1.00  0.00     0.116 C 
BRANCH   4   5
ATOM      5  N   UNL A   1      30.437  29.318  24.349  1.00  0.00    -0.352 N 
ATOM      6  C   UNL A   1      30.463  28.105  23.751  1.00  0.00     0.251 C 
ATOM      7  O   UNL A   1      29.410  27.773  23.196  1.00  0.00    -0.270 OA
ATOM      8  H   UNL A   1      29.565  29.760  24.226  1.00  0.00     0.163 HD
BRANCH   6   9
ATOM      9  C   UNL A   1      31.637  27.179  23.715  1.00  0.00     0.067 C 
ATOM     10  C   UNL A   1      35.043  23.550  24.842  1.00  0.00    -0.020 A 
ATOM     11  C   UNL A   1      34.751  24.377  23.729  1.00  0.00     0.053 A 
ATOM     12  C   UNL A   1      34.210  23.727  25.968  1.00  0.00     0.045 A 
ATOM     13  C   UNL A   1      33.695  25.288  23.720  1.00  0.00     0.128 A 
ATOM     14  C   UNL A   1      33.136  24.643  25.946  1.00  0.00     0.032 A 
ATOM     15  Cl  UNL A   1      34.382  22.900  27.476  1.00  0.00    -0.084 Cl
ATOM     16  C   UNL A   1      32.870  25.422  24.821  1.00  0.00     0.019 A 
ATOM     17  O   UNL A   1      33.511  25.981  22.563  1.00  0.00    -0.475 OA
ATOM     18  C   UNL A   1      31.742  26.341  24.764  1.00  0.00     0.025 C 
ATOM     19  C   UNL A   1      32.684  27.173  22.634  1.00  0.00     0.314 C 
BRANCH  10  20
ATOM     20  C   UNL A   1      36.247  22.589  24.680  1.00  0.00    -0.012 C 
ATOM     21  C   UNL A   1      37.371  23.050  25.637  1.00  0.00     0.016 C 
ATOM     22  C   UNL A   1      36.779  22.648  23.220  1.00  0.00     0.016 C 
ATOM     23  C   UNL A   1      36.009  21.092  24.959  1.00  0.00     0.016 C 
ENDBRANCH  10  20
BRANCH  19  24
ATOM     24  C   UNL A   1      33.600  28.407  22.688  1.00  0.00     0.429 C 
ATOM     25  F   UNL A   1      34.089  28.583  23.939  1.00  0.00    -0.167 F 
ATOM     26  F   UNL A   1      34.672  28.295  21.870  1.00  0.00    -0.167 F 
ATOM     27  F   UNL A   1      32.953  29.543  22.338  1.00  0.00    -0.167 F 
ENDBRANCH  19  24
ENDBRANCH   6   9
ENDBRANCH   4   5
ENDBRANCH   3   4
ENDBRANCH   2   3
ENDBRANCH   1   2
BRANCH   1  28
ATOM     28  C   UNL A   1      35.334  29.909  27.269  1.00  0.00     0.021 C 
BRANCH  28  29
ATOM     29  C   UNL A   1      35.753  30.993  28.255  1.00  0.00     0.116 C 
BRANCH  29  30
ATOM     30  N   UNL A   1      35.626  30.570  29.640  1.00  0.00    -0.352 N 
ATOM     31  C   UNL A   1      36.559  29.966  30.449  1.00  0.00     0.251 C 
ATOM     32  H   UNL A   1      34.750  30.740  30.057  1.00  0.00     0.163 HD
ATOM     33  O   UNL A   1      36.236  29.546  31.556  1.00  0.00    -0.269 OA
BRANCH  31  34
ATOM     34  C   UNL A   1      37.945  29.793  29.961  1.00  0.00     0.039 A 
ATOM     35  C   UNL A   1      38.227  29.816  28.593  1.00  0.00     0.014 A 
ATOM     36  C   UNL A   1      38.969  29.576  30.888  1.00  0.00     0.014 A 
ATOM     37  C   UNL A   1      39.500  29.471  28.147  1.00  0.00     0.010 A 
ATOM     38  C   UNL A   1      40.264  29.302  30.437  1.00  0.00     0.010 A 
ATOM     39  C   UNL A   1      40.530  29.202  29.063  1.00  0.00    -0.014 A 
BRANCH  39  40
ATOM     40  C   UNL A   1      41.875  28.814  28.563  1.00  0.00     0.031 A 
ATOM     41  C   UNL A   1      43.017  29.794  28.595  1.00  0.00     0.074 A 
ATOM     42  C   UNL A   1      42.079  27.554  28.132  1.00  0.00     0.049 A 
ATOM     43  N   UNL A   1      44.259  29.617  28.221  1.00  0.00    -0.248 NA
ATOM     44  C   UNL A   1      42.738  31.142  29.115  1.00  0.00     0.031 C 
ATOM     45  C   UNL A   1      41.054  26.508  28.080  1.00  0.00     0.029 A 
ATOM     46  N   UNL A   1      43.216  26.928  27.686  1.00  0.00    -0.354 N 
ATOM     47  C   UNL A   1      44.903  30.827  28.448  1.00  0.00     0.074 A 
ATOM     48  C   UNL A   1      43.911  31.743  28.966  1.00  0.00     0.031 C 
ATOM     49  C   UNL A   1      41.622  25.358  27.686  1.00  0.00     0.029 A 
ATOM     50  C   UNL A   1      43.032  25.596  27.394  1.00  0.00     0.049 A 
ATOM     51  H   UNL A   1      44.081  27.387  27.586  1.00  0.00     0.167 HD
ATOM     52  C   UNL A   1      46.205  31.142  28.253  1.00  0.00     0.031 A 
ATOM     53  C   UNL A   1      43.894  24.667  26.934  1.00  0.00     0.031 A 
ATOM     54  C   UNL A   1      47.192  30.222  27.750  1.00  0.00     0.049 A 
ATOM     55  C   UNL A   1      45.322  25.054  26.679  1.00  0.00     0.074 A 
ATOM     56  C   UNL A   1      48.538  30.451  27.525  1.00  0.00     0.029 A 
ATOM     57  N   UNL A   1      46.947  28.903  27.399  1.00  0.00    -0.354 N 
ATOM     58  N   UNL A   1      45.907  26.208  26.891  1.00  0.00    -0.248 NA
ATOM     59  C   UNL A   1      46.205  24.021  26.120  1.00  0.00     0.031 C 
ATOM     60  C   UNL A   1      49.096  29.288  26.991  1.00  0.00     0.029 A 
ATOM     61  C   UNL A   1      48.112  28.314  26.940  1.00  0.00     0.049 A 
ATOM     62  H   UNL A   1      46.073  28.453  27.467  1.00  0.00     0.167 HD
ATOM     63  C   UNL A   1      47.229  26.040  26.494  1.00  0.00     0.074 A 
ATOM     64  C   UNL A   1      47.363  24.668  26.052  1.00  0.00     0.031 C 
ATOM     65  C   UNL A   1      48.234  26.948  26.495  1.00  0.00     0.031 A 
BRANCH  52  66
ATOM     66  C   UNL A   1      46.663  32.538  28.585  1.00  0.00    -0.014 A 
ATOM     67  C   UNL A   1      47.029  32.858  29.906  1.00  0.00     0.010 A 
ATOM     68  C   UNL A   1      46.613  33.561  27.621  1.00  0.00     0.010 A 
ATOM     69  C   UNL A   1      47.308  34.180  30.264  1.00  0.00     0.020 A 
ATOM     70  C   UNL A   1      46.917  34.881  27.971  1.00  0.00     0.020 A 
ATOM     71  C   UNL A   1      47.240  35.184  29.296  1.00  0.00     0.054 A 
BRANCH  71  72
ATOM     72  S   UNL A   1      47.583  36.898  29.783  1.00  0.00     0.124 S 
ATOM     73  O   UNL A   1      48.892  36.782  30.416  1.00  0.00    -0.237 OA
ATOM     74  O   UNL A   1      47.558  37.606  28.506  1.00  0.00    -0.237 OA
ATOM     75  O   UNL A   1      46.478  37.223  30.683  1.00  0.00    -0.744 OA
ENDBRANCH  71  72
ENDBRANCH  52  66
BRANCH  53  76
ATOM     76  C   UNL A   1      43.407  23.279  26.707  1.00  0.00    -0.014 A 
ATOM     77  C   UNL A   1      42.978  22.491  27.791  1.00  0.00     0.010 A 
ATOM     78  C   UNL A   1      43.460  22.708  25.424  1.00  0.00     0.010 A 
ATOM     79  C   UNL A   1      42.673  21.140  27.609  1.00  0.00     0.020 A 
ATOM     80  C   UNL A   1      43.126  21.363  25.233  1.00  0.00     0.020 A 
ATOM     81  C   UNL A   1      42.766  20.580  26.332  1.00  0.00     0.054 A 
BRANCH  81  82
ATOM     82  S   UNL A   1      42.423  18.812  26.126  1.00  0.00     0.124 S 
ATOM     83  O   UNL A   1      43.399  18.436  25.107  1.00  0.00    -0.237 OA
ATOM     84  O   UNL A   1      42.672  18.277  27.463  1.00  0.00    -0.237 OA
ATOM     85  O   UNL A   1      41.026  18.784  25.698  1.00  0.00    -0.744 OA
ENDBRANCH  81  82
ENDBRANCH  53  76
BRANCH  65  86
ATOM     86  C   UNL A   1      49.585  26.510  25.997  1.00  0.00    -0.014 A 
ATOM     87  C   UNL A   1      50.447  25.799  26.852  1.00  0.00     0.010 A 
ATOM     88  C   UNL A   1      50.052  26.923  24.738  1.00  0.00     0.010 A 
ATOM     89  C   UNL A   1      51.766  25.540  26.472  1.00  0.00     0.020 A 
ATOM     90  C   UNL A   1      51.365  26.645  24.344  1.00  0.00     0.020 A 
ATOM     91  C   UNL A   1      52.221  25.979  25.226  1.00  0.00     0.054 A 
BRANCH  91  92
ATOM     92  S   UNL A   1      53.947  25.672  24.765  1.00  0.00     0.124 S 
ATOM     93  O   UNL A   1      53.953  26.015  23.347  1.00  0.00    -0.237 OA
ATOM     94  O   UNL A   1      54.682  26.586  25.637  1.00  0.00    -0.237 OA
ATOM     95  O   UNL A   1      54.135  24.254  25.067  1.00  0.00    -0.744 OA
ENDBRANCH  91  92
ENDBRANCH  65  86
ENDBRANCH  39  40
ENDBRANCH  31  34
ENDBRANCH  29  30
ENDBRANCH  28  29
ENDBRANCH   1  28
TORSDOF 18
ENDMDL
MODEL 2
REMARK VINA RESULT:     -11.3      0.620      7.980
REMARK SMILES CC(C)(C)c1cc2c(cc1Cl)C=C(C(=O)NCCCCCCNC(=O)c1ccc(-c3c4nc(c(-c5ccc(S(=O)(=O)[O-])cc5)c5ccc([nH]5)c(-c5ccc(S(=O)(=O)[O-])cc5)c5nc(c(-c6ccc(S(=O)(=O)[O-])cc6)c6ccc3[nH]6)C=C5)C=C4)cc1)[C@@H](C(F)(F)F)O2
REMARK SMILES IDX 20 1 19 2 18 3 17 4 16 5 14 6 15 7 13 9 5 10 6 11 10 12 7 13
REMARK SMILES IDX 9 14 11 15 8 16 91 17 12 18 86 19 2 20 1 21 3 22 4 23 87 24
REMARK SMILES IDX 88 25 89 26 90 27 21 28 22 29 23 30 24 31 25 33 26 34 27 35
REMARK SMILES IDX 85 36 28 37 84 38 29 39 30 40 31 41 78 42 32 43 83 44 77 45
REMARK SMILES IDX 79 46 33 47 82 48 76 49 75 50 34 52 64 53 45 54 63 55 46 56
REMARK SMILES IDX 49 57 62 58 80 59 47 60 48 61 61 63 81 64 50 65 35 66 36 67
REMARK SMILES IDX 44 68 37 69 43 70 38 71 39 72 40 73 41 74 42 75 65 76 66 77
REMARK SMILES IDX 74 78 67 79 73 80 68 81 69 82 70 83 71 84 72 85 51 86 52 87
REMARK SMILES IDX 60 88 53 89 59 90 54 91 55 92 56 93 57 94 58 95
REMARK H PARENT 16 8 23 32 79 51 49 62
REMARK Flexibility Score: inf
ROOT
ATOM      1  C   UNL A   1      33.343  31.150  27.505  1.00  0.00     0.002 C 
ENDROOT
BRANCH   1   2
ATOM      2  C   UNL A   1      33.139  29.642  27.319  1.00  0.00     0.002 C 
BRANCH   2   3
ATOM      3  C   UNL A   1      31.841  29.226  26.619  1.00  0.00     0.021 C 
BRANCH   3   4
ATOM      4  C   UNL A   1      31.525  30.023  25.357  1.00  0.00     0.116 C 
BRANCH   4   5
ATOM      5  N   UNL A   1      30.643  29.295  24.461  1.00  0.00    -0.352 N 
ATOM      6  C   UNL A   1      30.671  28.136  23.764  1.00  0.00     0.251 C 
ATOM      7  O   UNL A   1      29.644  27.888  23.121  1.00  0.00    -0.270 OA
ATOM      8  H   UNL A   1      29.795  29.776  24.323  1.00  0.00     0.163 HD
BRANCH   6   9
ATOM      9  C   UNL A   1      31.815  27.175  23.720  1.00  0.00     0.067 C 
ATOM     10  C   UNL A   1      35.105  23.429  24.809  1.00  0.00    -0.020 A 
ATOM     11  C   UNL A   1      34.843  24.280  23.707  1.00  0.00     0.053 A 
ATOM     12  C   UNL A   1      34.272  23.614  25.933  1.00  0.00     0.045 A 
ATOM     13  C   UNL A   1      33.815  25.222  23.706  1.00  0.00     0.128 A 
ATOM     14  C   UNL A   1      33.227  24.564  25.920  1.00  0.00     0.032 A 
ATOM     15  Cl  UNL A   1      34.412  22.762  27.430  1.00  0.00    -0.084 Cl
ATOM     16  C   UNL A   1      32.990  25.365  24.806  1.00  0.00     0.019 A 
ATOM     17  O   UNL A   1      33.658  25.937  22.559  1.00  0.00    -0.475 OA
ATOM     18  C   UNL A   1      31.891  26.320  24.757  1.00  0.00     0.025 C 
ATOM     19  C   UNL A   1      32.867  27.153  22.643  1.00  0.00     0.314 C 
BRANCH  10  20
ATOM     20  C   UNL A   1      36.280  22.433  24.638  1.00  0.00    -0.012 C 
ATOM     21  C   UNL A   1      37.407  22.838  25.617  1.00  0.00     0.016 C 
ATOM     22  C   UNL A   1      36.829  22.508  23.185  1.00  0.00     0.016 C 
ATOM     23  C   UNL A   1      35.992  20.939  24.881  1.00  0.00     0.016 C 
ENDBRANCH  10  20
BRANCH  19  24
ATOM     24  C   UNL A   1      33.820  28.357  22.718  1.00  0.00     0.429 C 
ATOM     25  F   UNL A   1      33.151  29.510  22.471  1.00  0.00    -0.167 F 
ATOM     26  F   UNL A   1      34.386  28.498  23.939  1.00  0.00    -0.167 F 
ATOM     27  F   UNL A   1      34.829  28.270  21.822  1.00  0.00    -0.167 F 
ENDBRANCH  19  24
ENDBRANCH   6   9
ENDBRANCH   4   5
ENDBRANCH   3   4
ENDBRANCH   2   3
ENDBRANCH   1   2
BRANCH   1  28
ATOM     28  C   UNL A   1      34.770  31.595  27.839  1.00  0.00     0.021 C 
BRANCH  28  29
ATOM     29  C   UNL A   1      35.556  30.639  28.727  1.00  0.00     0.116 C 
BRANCH  29  30
ATOM     30  N   UNL A   1      35.739  31.150  30.077  1.00  0.00    -0.352 N 
ATOM     31  C   UNL A   1      36.835  31.047  30.899  1.00  0.00     0.251 C 
ATOM     32  H   UNL A   1      34.971  31.637  30.453  1.00  0.00     0.163 HD
ATOM     33  O   UNL A   1      36.767  31.416  32.068  1.00  0.00    -0.269 OA
BRANCH  31  34
ATOM     34  C   UNL A   1      38.087  30.455  30.377  1.00  0.00     0.039 A 
ATOM     35  C   UNL A   1      38.907  29.679  31.200  1.00  0.00     0.014 A 
ATOM     36  C   UNL A   1      38.456  30.706  29.052  1.00  0.00     0.014 A 
ATOM     37  C   UNL A   1      40.162  29.285  30.747  1.00  0.00     0.010 A 
ATOM     38  C   UNL A   1      39.688  30.246  28.577  1.00  0.00     0.010 A 
ATOM     39  C   UNL A   1      40.571  29.571  29.434  1.00  0.00    -0.014 A 
BRANCH  39  40
ATOM     40  C   UNL A   1      41.925  29.161  28.980  1.00  0.00     0.031 A 
ATOM     41  C   UNL A   1      42.175  27.764  28.477  1.00  0.00     0.074 A 
ATOM     42  C   UNL A   1      42.919  30.070  28.967  1.00  0.00     0.049 A 
ATOM     43  N   UNL A   1      43.286  27.243  28.023  1.00  0.00    -0.248 NA
ATOM     44  C   UNL A   1      41.036  26.830  28.480  1.00  0.00     0.031 C 
ATOM     45  C   UNL A   1      42.790  31.462  29.405  1.00  0.00     0.029 A 
ATOM     46  N   UNL A   1      44.222  29.973  28.546  1.00  0.00    -0.354 N 
ATOM     47  C   UNL A   1      42.986  25.926  27.697  1.00  0.00     0.074 A 
ATOM     48  C   UNL A   1      41.596  25.713  28.032  1.00  0.00     0.031 C 
ATOM     49  C   UNL A   1      43.945  32.103  29.173  1.00  0.00     0.029 A 
ATOM     50  C   UNL A   1      44.917  31.157  28.634  1.00  0.00     0.049 A 
ATOM     51  H   UNL A   1      44.620  29.138  28.211  1.00  0.00     0.167 HD
ATOM     52  C   UNL A   1      43.794  24.983  27.157  1.00  0.00     0.031 A 
ATOM     53  C   UNL A   1      46.196  31.454  28.326  1.00  0.00     0.031 A 
ATOM     54  C   UNL A   1      45.175  25.204  26.814  1.00  0.00     0.049 A 
ATOM     55  C   UNL A   1      47.086  30.378  27.775  1.00  0.00     0.074 A 
ATOM     56  C   UNL A   1      46.070  24.307  26.256  1.00  0.00     0.029 A 
ATOM     57  N   UNL A   1      45.859  26.397  26.986  1.00  0.00    -0.354 N 
ATOM     58  N   UNL A   1      46.784  29.135  27.485  1.00  0.00    -0.248 NA
ATOM     59  C   UNL A   1      48.486  30.737  27.514  1.00  0.00     0.031 C 
ATOM     60  C   UNL A   1      47.308  24.942  26.139  1.00  0.00     0.029 A 
ATOM     61  C   UNL A   1      47.170  26.253  26.566  1.00  0.00     0.049 A 
ATOM     62  H   UNL A   1      45.469  27.224  27.353  1.00  0.00     0.167 HD
ATOM     63  C   UNL A   1      47.956  28.564  27.004  1.00  0.00     0.074 A 
ATOM     64  C   UNL A   1      48.966  29.602  27.020  1.00  0.00     0.031 C 
ATOM     65  C   UNL A   1      48.170  27.291  26.592  1.00  0.00     0.031 A 
BRANCH  52  66
ATOM     66  C   UNL A   1      43.222  23.615  26.892  1.00  0.00    -0.014 A 
ATOM     67  C   UNL A   1      42.786  22.819  27.968  1.00  0.00     0.010 A 
ATOM     68  C   UNL A   1      43.230  23.069  25.596  1.00  0.00     0.010 A 
ATOM     69  C   UNL A   1      42.396  21.494  27.759  1.00  0.00     0.020 A 
ATOM     70  C   UNL A   1      42.816  21.751  25.379  1.00  0.00     0.020 A 
ATOM     71  C   UNL A   1      42.425  20.965  26.466  1.00  0.00     0.054 A 
BRANCH  71  72
ATOM     72  S   UNL A   1      41.937  19.235  26.214  1.00  0.00     0.124 S 
ATOM     73  O   UNL A   1      42.621  18.901  24.969  1.00  0.00    -0.237 OA
ATOM     74  O   UNL A   1      42.452  18.579  27.414  1.00  0.00    -0.237 OA
ATOM     75  O   UNL A   1      40.480  19.301  26.131  1.00  0.00    -0.744 OA
ENDBRANCH  71  72
ENDBRANCH  52  66
BRANCH  53  76
ATOM     76  C   UNL A   1      46.683  32.846  28.528  1.00  0.00    -0.014 A 
ATOM     77  C   UNL A   1      46.615  33.781  27.478  1.00  0.00     0.010 A 
ATOM     78  C   UNL A   1      47.305  33.214  29.733  1.00  0.00     0.010 A 
ATOM     79  C   UNL A   1      47.214  35.036  27.607  1.00  0.00     0.020 A 
ATOM     80  C   UNL A   1      47.879  34.481  29.876  1.00  0.00     0.020 A 
ATOM     81  C   UNL A   1      47.858  35.371  28.800  1.00  0.00     0.054 A 
BRANCH  81  82
ATOM     82  S   UNL A   1      48.681  36.982  28.926  1.00  0.00     0.124 S 
ATOM     83  O   UNL A   1      48.157  37.678  27.753  1.00  0.00    -0.237 OA
ATOM     84  O   UNL A   1      48.213  37.484  30.216  1.00  0.00    -0.237 OA
ATOM     85  O   UNL A   1      50.101  36.644  28.871  1.00  0.00    -0.744 OA
ENDBRANCH  81  82
ENDBRANCH  53  76
BRANCH  65  86
ATOM     86  C   UNL A   1      49.551  26.920  26.124  1.00  0.00    -0.014 A 
ATOM     87  C   UNL A   1      50.504  26.464  27.053  1.00  0.00     0.010 A 
ATOM     88  C   UNL A   1      49.945  27.156  24.795  1.00  0.00     0.010 A 
ATOM     89  C   UNL A   1      51.836  26.286  26.673  1.00  0.00     0.020 A 
ATOM     90  C   UNL A   1      51.272  26.955  24.405  1.00  0.00     0.020 A 
ATOM     91  C   UNL A   1      52.214  26.547  25.353  1.00  0.00     0.054 A 
BRANCH  91  92
ATOM     92  S   UNL A   1      53.955  26.351  24.886  1.00  0.00     0.124 S 
ATOM     93  O   UNL A   1      54.071  24.905  24.730  1.00  0.00    -0.237 OA
ATOM     94  O   UNL A   1      54.048  27.127  23.651  1.00  0.00    -0.237 OA
ATOM     95  O   UNL A   1      54.680  26.918  26.022  1.00  0.00    -0.744 OA
ENDBRANCH  91  92
ENDBRANCH  65  86
ENDBRANCH  39  40
ENDBRANCH  31  34
ENDBRANCH  29  30
ENDBRANCH  28  29
ENDBRANCH   1  28
TORSDOF 18
ENDMDL
MODEL 3
REMARK VINA RESULT:     -11.3      6.263     12.032
REMARK SMILES CC(C)(C)c1cc2c(cc1Cl)C=C(C(=O)NCCCCCCNC(=O)c1ccc(-c3c4nc(c(-c5ccc(S(=O)(=O)[O-])cc5)c5ccc([nH]5)c(-c5ccc(S(=O)(=O)[O-])cc5)c5nc(c(-c6ccc(S(=O)(=O)[O-])cc6)c6ccc3[nH]6)C=C5)C=C4)cc1)[C@@H](C(F)(F)F)O2
REMARK SMILES IDX 20 1 19 2 18 3 17 4 16 5 14 6 15 7 13 9 5 10 6 11 10 12 7 13
REMARK SMILES IDX 9 14 11 15 8 16 91 17 12 18 86 19 2 20 1 21 3 22 4 23 87 24
REMARK SMILES IDX 88 25 89 26 90 27 21 28 22 29 23 30 24 31 25 33 26 34 27 35
REMARK SMILES IDX 85 36 28 37 84 38 29 39 30 40 31 41 78 42 32 43 83 44 77 45
REMARK SMILES IDX 79 46 33 47 82 48 76 49 75 50 34 52 64 53 45 54 63 55 46 56
REMARK SMILES IDX 49 57 62 58 80 59 47 60 48 61 61 63 81 64 50 65 35 66 36 67
REMARK SMILES IDX 44 68 37 69 43 70 38 71 39 72 40 73 41 74 42 75 65 76 66 77
REMARK SMILES IDX 74 78 67 79 73 80 68 81 69 82 70 83 71 84 72 85 51 86 52 87
REMARK SMILES IDX 60 88 53 89 59 90 54 91 55 92 56 93 57 94 58 95
REMARK H PARENT 16 8 23 32 79 51 49 62
REMARK Flexibility Score: inf
ROOT
ATOM      1  C   UNL A   1      40.891  20.900  26.544  1.00  0.00     0.002 C 
ENDROOT
BRANCH   1   2
ATOM      2  C   UNL A   1      39.587  21.556  26.075  1.00  0.00     0.002 C 
BRANCH   2   3
ATOM      3  C   UNL A   1      38.501  20.596  25.575  1.00  0.00     0.021 C 
BRANCH   3   4
ATOM      4  C   UNL A   1      37.136  21.246  25.365  1.00  0.00     0.116 C 
BRANCH   4   5
ATOM      5  N   UNL A   1      36.109  20.266  25.059  1.00  0.00    -0.352 N 
ATOM      6  C   UNL A   1      34.778  20.264  24.814  1.00  0.00     0.251 C 
ATOM      7  O   UNL A   1      34.294  19.153  24.567  1.00  0.00    -0.270 OA
ATOM      8  H   UNL A   1      36.482  19.356  25.019  1.00  0.00     0.163 HD
BRANCH   6   9
ATOM      9  C   UNL A   1      33.890  21.466  24.827  1.00  0.00     0.067 C 
ATOM     10  C   UNL A   1      31.644  25.903  23.681  1.00  0.00    -0.020 A 
ATOM     11  C   UNL A   1      31.400  24.825  24.568  1.00  0.00     0.053 A 
ATOM     12  C   UNL A   1      32.796  25.780  22.874  1.00  0.00     0.045 A 
ATOM     13  C   UNL A   1      32.216  23.696  24.629  1.00  0.00     0.128 A 
ATOM     14  C   UNL A   1      33.611  24.628  22.935  1.00  0.00     0.032 A 
ATOM     15  Cl  UNL A   1      33.364  26.970  21.757  1.00  0.00    -0.084 Cl
ATOM     16  C   UNL A   1      33.321  23.580  23.806  1.00  0.00     0.019 A 
ATOM     17  O   UNL A   1      31.831  22.723  25.499  1.00  0.00    -0.475 OA
ATOM     18  C   UNL A   1      34.125  22.367  23.854  1.00  0.00     0.025 C 
ATOM     19  C   UNL A   1      32.825  21.728  25.858  1.00  0.00     0.314 C 
BRANCH  10  20
ATOM     20  C   UNL A   1      30.632  27.075  23.738  1.00  0.00    -0.012 C 
ATOM     21  C   UNL A   1      31.146  28.113  24.763  1.00  0.00     0.016 C 
ATOM     22  C   UNL A   1      29.245  26.553  24.207  1.00  0.00     0.016 C 
ATOM     23  C   UNL A   1      30.351  27.840  22.429  1.00  0.00     0.016 C 
ENDBRANCH  10  20
BRANCH  19  24
ATOM     24  C   UNL A   1      33.408  22.086  27.236  1.00  0.00     0.429 C 
ATOM     25  F   UNL A   1      34.469  22.918  27.102  1.00  0.00    -0.167 F 
ATOM     26  F   UNL A   1      32.516  22.726  28.026  1.00  0.00    -0.167 F 
ATOM     27  F   UNL A   1      33.827  20.994  27.915  1.00  0.00    -0.167 F 
ENDBRANCH  19  24
ENDBRANCH   6   9
ENDBRANCH   4   5
ENDBRANCH   3   4
ENDBRANCH   2   3
ENDBRANCH   1   2
BRANCH   1  28
ATOM     28  C   UNL A   1      41.924  21.841  27.170  1.00  0.00     0.021 C 
BRANCH  28  29
ATOM     29  C   UNL A   1      41.538  23.315  27.179  1.00  0.00     0.116 C 
BRANCH  29  30
ATOM     30  N   UNL A   1      42.078  24.044  26.043  1.00  0.00    -0.352 N 
ATOM     31  C   UNL A   1      42.130  25.401  25.831  1.00  0.00     0.251 C 
ATOM     32  H   UNL A   1      42.459  23.488  25.325  1.00  0.00     0.163 HD
ATOM     33  O   UNL A   1      42.495  25.842  24.746  1.00  0.00    -0.269 OA
BRANCH  31  34
ATOM     34  C   UNL A   1      41.709  26.324  26.908  1.00  0.00     0.039 A 
ATOM     35  C   UNL A   1      42.392  27.522  27.128  1.00  0.00     0.014 A 
ATOM     36  C   UNL A   1      40.632  25.968  27.726  1.00  0.00     0.014 A 
ATOM     37  C   UNL A   1      42.099  28.286  28.254  1.00  0.00     0.010 A 
ATOM     38  C   UNL A   1      40.292  26.776  28.815  1.00  0.00     0.010 A 
ATOM     39  C   UNL A   1      41.052  27.917  29.114  1.00  0.00    -0.014 A 
BRANCH  39  40
ATOM     40  C   UNL A   1      40.772  28.736  30.323  1.00  0.00     0.031 A 
ATOM     41  C   UNL A   1      41.650  28.631  31.541  1.00  0.00     0.074 A 
ATOM     42  C   UNL A   1      39.755  29.620  30.298  1.00  0.00     0.049 A 
ATOM     43  N   UNL A   1      41.565  29.285  32.671  1.00  0.00    -0.248 NA
ATOM     44  C   UNL A   1      42.769  27.675  31.488  1.00  0.00     0.031 C 
ATOM     45  C   UNL A   1      38.852  29.830  29.164  1.00  0.00     0.029 A 
ATOM     46  N   UNL A   1      39.328  30.526  31.236  1.00  0.00    -0.354 N 
ATOM     47  C   UNL A   1      42.605  28.816  33.465  1.00  0.00     0.074 A 
ATOM     48  C   UNL A   1      43.293  27.799  32.701  1.00  0.00     0.031 C 
ATOM     49  C   UNL A   1      38.019  30.841  29.450  1.00  0.00     0.029 A 
ATOM     50  C   UNL A   1      38.281  31.308  30.808  1.00  0.00     0.049 A 
ATOM     51  H   UNL A   1      39.732  30.609  32.130  1.00  0.00     0.167 HD
ATOM     52  C   UNL A   1      42.960  29.205  34.711  1.00  0.00     0.031 A 
ATOM     53  C   UNL A   1      37.597  32.288  31.433  1.00  0.00     0.031 A 
ATOM     54  C   UNL A   1      42.279  30.227  35.462  1.00  0.00     0.049 A 
ATOM     55  C   UNL A   1      37.979  32.667  32.835  1.00  0.00     0.074 A 
ATOM     56  C   UNL A   1      42.572  30.693  36.733  1.00  0.00     0.029 A 
ATOM     57  N   UNL A   1      41.179  30.945  35.017  1.00  0.00    -0.354 N 
ATOM     58  N   UNL A   1      38.959  32.202  33.571  1.00  0.00    -0.248 NA
ATOM     59  C   UNL A   1      37.163  33.696  33.495  1.00  0.00     0.031 C 
ATOM     60  C   UNL A   1      41.620  31.654  37.076  1.00  0.00     0.029 A 
ATOM     61  C   UNL A   1      40.769  31.833  35.997  1.00  0.00     0.049 A 
ATOM     62  H   UNL A   1      40.753  30.838  34.136  1.00  0.00     0.167 HD
ATOM     63  C   UNL A   1      38.882  32.883  34.779  1.00  0.00     0.074 A 
ATOM     64  C   UNL A   1      37.773  33.809  34.668  1.00  0.00     0.031 C 
ATOM     65  C   UNL A   1      39.660  32.747  35.879  1.00  0.00     0.031 A 
BRANCH  52  66
ATOM     66  C   UNL A   1      44.143  28.537  35.362  1.00  0.00    -0.014 A 
ATOM     67  C   UNL A   1      45.438  29.048  35.152  1.00  0.00     0.010 A 
ATOM     68  C   UNL A   1      43.989  27.336  36.078  1.00  0.00     0.010 A 
ATOM     69  C   UNL A   1      46.558  28.357  35.618  1.00  0.00     0.020 A 
ATOM     70  C   UNL A   1      45.108  26.654  36.568  1.00  0.00     0.020 A 
ATOM     71  C   UNL A   1      46.386  27.158  36.314  1.00  0.00     0.054 A 
BRANCH  71  72
ATOM     72  S   UNL A   1      47.853  26.261  36.894  1.00  0.00     0.124 S 
ATOM     73  O   UNL A   1      47.262  25.143  37.624  1.00  0.00    -0.237 OA
ATOM     74  O   UNL A   1      48.531  25.914  35.647  1.00  0.00    -0.237 OA
ATOM     75  O   UNL A   1      48.552  27.246  37.716  1.00  0.00    -0.744 OA
ENDBRANCH  71  72
ENDBRANCH  52  66
BRANCH  53  76
ATOM     76  C   UNL A   1      36.493  32.974  30.710  1.00  0.00    -0.014 A 
ATOM     77  C   UNL A   1      36.780  33.941  29.729  1.00  0.00     0.010 A 
ATOM     78  C   UNL A   1      35.154  32.737  31.065  1.00  0.00     0.010 A 
ATOM     79  C   UNL A   1      35.755  34.702  29.161  1.00  0.00     0.020 A 
ATOM     80  C   UNL A   1      34.123  33.476  30.477  1.00  0.00     0.020 A 
ATOM     81  C   UNL A   1      34.434  34.477  29.553  1.00  0.00     0.054 A 
BRANCH  81  82
ATOM     82  S   UNL A   1      33.124  35.515  28.850  1.00  0.00     0.124 S 
ATOM     83  O   UNL A   1      33.897  36.509  28.109  1.00  0.00    -0.237 OA
ATOM     84  O   UNL A   1      32.367  34.570  28.032  1.00  0.00    -0.237 OA
ATOM     85  O   UNL A   1      32.421  36.018  30.027  1.00  0.00    -0.744 OA
ENDBRANCH  81  82
ENDBRANCH  53  76
BRANCH  65  86
ATOM     86  C   UNL A   1      39.354  33.606  37.076  1.00  0.00    -0.014 A 
ATOM     87  C   UNL A   1      39.981  34.859  37.214  1.00  0.00     0.010 A 
ATOM     88  C   UNL A   1      38.559  33.116  38.126  1.00  0.00     0.010 A 
ATOM     89  C   UNL A   1      39.850  35.590  38.397  1.00  0.00     0.020 A 
ATOM     90  C   UNL A   1      38.405  33.857  39.301  1.00  0.00     0.020 A 
ATOM     91  C   UNL A   1      39.074  35.076  39.439  1.00  0.00     0.054 A 
BRANCH  91  92
ATOM     92  S   UNL A   1      38.947  36.018  40.984  1.00  0.00     0.124 S 
ATOM     93  O   UNL A   1      40.305  35.927  41.511  1.00  0.00    -0.237 OA
ATOM     94  O   UNL A   1      38.539  37.343  40.522  1.00  0.00    -0.237 OA
ATOM     95  O   UNL A   1      37.931  35.293  41.744  1.00  0.00    -0.744 OA
ENDBRANCH  91  92
ENDBRANCH  65  86
ENDBRANCH  39  40
ENDBRANCH  31  34
ENDBRANCH  29  30
ENDBRANCH  28  29
ENDBRANCH   1  28
TORSDOF 18
ENDMDL
