MODEL 1
REMARK VINA RESULT:     -10.3      0.000      0.000
REMARK SMILES O=C(NCCCCCCNC(=O)C1([NH+]2CCOCC2)CCC1)c1ccc(-c2c3nc(c(-c4ccc(S(=O)(=O)[O-])cc4)c4ccc([nH]4)c(-c4ccc(S(=O)(=O)[O-])cc4)c4nc(c(-c5ccc(S(=O)(=O)[O-])cc5)c5ccc2[nH]5)C=C4)C=C3)cc1
REMARK SMILES IDX 5 1 4 2 3 3 1 4 2 5 23 7 24 8 82 9 25 10 81 11 26 12 27 13
REMARK SMILES IDX 28 14 75 15 29 16 80 17 74 18 76 19 30 20 79 21 73 22 72 23
REMARK SMILES IDX 31 25 61 26 42 27 60 28 43 29 46 30 59 31 77 32 44 33 45 34
REMARK SMILES IDX 58 36 78 37 47 38 32 39 33 40 41 41 34 42 40 43 35 44 36 45
REMARK SMILES IDX 37 46 38 47 39 48 62 49 63 50 71 51 64 52 70 53 65 54 66 55
REMARK SMILES IDX 67 56 68 57 69 58 48 59 49 60 57 61 50 62 56 63 51 64 52 65
REMARK SMILES IDX 53 66 54 67 55 68 6 69 7 70 8 71 9 72 10 73 11 74 12 76
REMARK SMILES IDX 13 77 20 78 22 79 21 80 14 81 15 82 19 83 16 85 18 86 17 87
REMARK H PARENT 3 6 76 24 46 35 10 75 14 84
REMARK Flexibility Score: inf
ROOT
ATOM      1  C   UNL A   1      31.495  32.370  26.852  1.00  0.00     0.021 C 
ENDROOT
BRANCH   1   2
ATOM      2  C   UNL A   1      32.749  33.066  27.360  1.00  0.00     0.116 C 
BRANCH   2   3
ATOM      3  N   UNL A   1      32.502  34.394  27.890  1.00  0.00    -0.352 N 
ATOM      4  O   UNL A   1      32.753  36.129  29.314  1.00  0.00    -0.269 OA
ATOM      5  C   UNL A   1      33.150  35.037  28.919  1.00  0.00     0.251 C 
ATOM      6  H   UNL A   1      31.776  34.901  27.457  1.00  0.00     0.163 HD
BRANCH   5   7
ATOM      7  C   UNL A   1      34.306  34.381  29.572  1.00  0.00     0.039 A 
ATOM      8  C   UNL A   1      34.130  33.607  30.721  1.00  0.00     0.014 A 
ATOM      9  C   UNL A   1      35.586  34.564  29.038  1.00  0.00     0.014 A 
ATOM     10  C   UNL A   1      35.240  33.139  31.414  1.00  0.00     0.010 A 
ATOM     11  C   UNL A   1      36.696  34.016  29.691  1.00  0.00     0.010 A 
ATOM     12  C   UNL A   1      36.535  33.324  30.900  1.00  0.00    -0.014 A 
BRANCH  12  13
ATOM     13  C   UNL A   1      37.685  32.713  31.617  1.00  0.00     0.031 A 
ATOM     14  C   UNL A   1      38.126  33.207  32.968  1.00  0.00     0.074 A 
ATOM     15  C   UNL A   1      38.299  31.657  31.048  1.00  0.00     0.049 A 
ATOM     16  N   UNL A   1      39.066  32.731  33.745  1.00  0.00    -0.248 NA
ATOM     17  C   UNL A   1      37.432  34.382  33.517  1.00  0.00     0.031 C 
ATOM     18  C   UNL A   1      37.973  31.102  29.730  1.00  0.00     0.029 A 
ATOM     19  N   UNL A   1      39.298  30.841  31.511  1.00  0.00    -0.354 N 
ATOM     20  C   UNL A   1      39.086  33.551  34.868  1.00  0.00     0.074 A 
ATOM     21  C   UNL A   1      38.079  34.571  34.660  1.00  0.00     0.031 C 
ATOM     22  C   UNL A   1      38.714  30.005  29.518  1.00  0.00     0.029 A 
ATOM     23  C   UNL A   1      39.606  29.812  30.654  1.00  0.00     0.049 A 
ATOM     24  H   UNL A   1      39.752  30.979  32.374  1.00  0.00     0.167 HD
ATOM     25  C   UNL A   1      39.867  33.458  35.972  1.00  0.00     0.031 A 
ATOM     26  C   UNL A   1      40.512  28.822  30.760  1.00  0.00     0.031 A 
ATOM     27  C   UNL A   1      40.873  32.445  36.172  1.00  0.00     0.049 A 
ATOM     28  C   UNL A   1      41.359  28.741  31.994  1.00  0.00     0.074 A 
ATOM     29  C   UNL A   1      41.717  32.269  37.257  1.00  0.00     0.029 A 
ATOM     30  N   UNL A   1      41.168  31.434  35.271  1.00  0.00    -0.354 N 
ATOM     31  N   UNL A   1      41.351  29.522  33.049  1.00  0.00    -0.248 NA
ATOM     32  C   UNL A   1      42.334  27.645  32.056  1.00  0.00     0.031 C 
ATOM     33  C   UNL A   1      42.545  31.171  36.995  1.00  0.00     0.029 A 
ATOM     34  C   UNL A   1      42.186  30.635  35.769  1.00  0.00     0.049 A 
ATOM     35  H   UNL A   1      40.722  31.301  34.404  1.00  0.00     0.167 HD
ATOM     36  C   UNL A   1      42.322  29.011  33.900  1.00  0.00     0.074 A 
ATOM     37  C   UNL A   1      42.870  27.835  33.254  1.00  0.00     0.031 C 
ATOM     38  C   UNL A   1      42.730  29.479  35.105  1.00  0.00     0.031 A 
BRANCH  25  39
ATOM     39  C   UNL A   1      39.674  34.488  37.054  1.00  0.00    -0.014 A 
ATOM     40  C   UNL A   1      38.907  34.200  38.198  1.00  0.00     0.010 A 
ATOM     41  C   UNL A   1      40.313  35.738  36.958  1.00  0.00     0.010 A 
ATOM     42  C   UNL A   1      38.759  35.153  39.210  1.00  0.00     0.020 A 
ATOM     43  C   UNL A   1      40.185  36.686  37.978  1.00  0.00     0.020 A 
ATOM     44  C   UNL A   1      39.396  36.391  39.092  1.00  0.00     0.054 A 
BRANCH  44  45
ATOM     45  S   UNL A   1      39.209  37.599  40.434  1.00  0.00     0.124 S 
ATOM     46  O   UNL A   1      38.196  38.499  39.888  1.00  0.00    -0.237 OA
ATOM     47  O   UNL A   1      38.774  36.769  41.555  1.00  0.00    -0.237 OA
ATOM     48  O   UNL A   1      40.545  38.174  40.572  1.00  0.00    -0.744 OA
ENDBRANCH  44  45
ENDBRANCH  25  39
BRANCH  26  49
ATOM     49  C   UNL A   1      40.667  27.846  29.650  1.00  0.00    -0.014 A 
ATOM     50  C   UNL A   1      39.767  26.777  29.498  1.00  0.00     0.010 A 
ATOM     51  C   UNL A   1      41.709  28.004  28.717  1.00  0.00     0.010 A 
ATOM     52  C   UNL A   1      39.917  25.874  28.441  1.00  0.00     0.020 A 
ATOM     53  C   UNL A   1      41.844  27.121  27.644  1.00  0.00     0.020 A 
ATOM     54  C   UNL A   1      40.955  26.053  27.521  1.00  0.00     0.054 A 
BRANCH  54  55
ATOM     55  S   UNL A   1      41.100  24.905  26.123  1.00  0.00     0.124 S 
ATOM     56  O   UNL A   1      39.777  24.291  26.099  1.00  0.00    -0.237 OA
ATOM     57  O   UNL A   1      41.405  25.798  25.007  1.00  0.00    -0.237 OA
ATOM     58  O   UNL A   1      42.196  24.025  26.522  1.00  0.00    -0.744 OA
ENDBRANCH  54  55
ENDBRANCH  26  49
BRANCH  38  59
ATOM     59  C   UNL A   1      43.817  28.706  35.798  1.00  0.00    -0.014 A 
ATOM     60  C   UNL A   1      43.507  27.635  36.655  1.00  0.00     0.010 A 
ATOM     61  C   UNL A   1      45.163  29.051  35.584  1.00  0.00     0.010 A 
ATOM     62  C   UNL A   1      44.525  26.949  37.322  1.00  0.00     0.020 A 
ATOM     63  C   UNL A   1      46.185  28.351  36.232  1.00  0.00     0.020 A 
ATOM     64  C   UNL A   1      45.857  27.318  37.113  1.00  0.00     0.054 A 
BRANCH  64  65
ATOM     65  S   UNL A   1      47.164  26.409  37.981  1.00  0.00     0.124 S 
ATOM     66  O   UNL A   1      47.105  26.997  39.317  1.00  0.00    -0.237 OA
ATOM     67  O   UNL A   1      46.714  25.022  37.884  1.00  0.00    -0.237 OA
ATOM     68  O   UNL A   1      48.368  26.722  37.215  1.00  0.00    -0.744 OA
ENDBRANCH  64  65
ENDBRANCH  38  59
ENDBRANCH  12  13
ENDBRANCH   5   7
ENDBRANCH   2   3
ENDBRANCH   1   2
BRANCH   1  69
ATOM     69  C   UNL A   1      31.715  31.036  26.142  1.00  0.00     0.002 C 
BRANCH  69  70
ATOM     70  C   UNL A   1      32.551  29.997  26.893  1.00  0.00     0.002 C 
BRANCH  70  71
ATOM     71  C   UNL A   1      31.812  28.746  27.381  1.00  0.00     0.021 C 
BRANCH  71  72
ATOM     72  C   UNL A   1      32.264  27.420  26.778  1.00  0.00     0.116 C 
BRANCH  72  73
ATOM     73  N   UNL A   1      31.260  26.388  26.901  1.00  0.00    -0.351 N 
ATOM     74  C   UNL A   1      30.350  25.884  26.000  1.00  0.00     0.281 C 
ATOM     75  H   UNL A   1      31.222  25.969  27.790  1.00  0.00     0.163 HD
ATOM     76  O   UNL A   1      29.582  25.045  26.498  1.00  0.00    -0.268 OA
BRANCH  74  77
ATOM     77  C   UNL A   1      30.315  26.377  24.449  1.00  0.00     0.177 C 
ATOM     78  C   UNL A   1      28.865  26.431  23.872  1.00  0.00     0.079 C 
ATOM     79  C   UNL A   1      30.482  27.873  24.075  1.00  0.00     0.079 C 
ATOM     80  C   UNL A   1      29.140  27.839  23.320  1.00  0.00     0.014 C 
BRANCH  77  81
ATOM     81  N   UNL A   1      31.186  25.516  23.581  1.00  0.00    -0.318 N 
ATOM     82  C   UNL A   1      30.668  24.147  23.381  1.00  0.00     0.291 C 
ATOM     83  C   UNL A   1      32.648  25.495  23.734  1.00  0.00     0.291 C 
ATOM     84  H   UNL A   1      31.088  26.083  22.740  1.00  0.00     0.349 HD
ATOM     85  C   UNL A   1      31.274  23.085  24.309  1.00  0.00     0.221 C 
ATOM     86  C   UNL A   1      33.222  24.369  24.611  1.00  0.00     0.221 C 
ATOM     87  O   UNL A   1      32.703  23.087  24.243  1.00  0.00    -0.370 OA
ENDBRANCH  77  81
ENDBRANCH  74  77
ENDBRANCH  72  73
ENDBRANCH  71  72
ENDBRANCH  70  71
ENDBRANCH  69  70
ENDBRANCH   1  69
TORSDOF 17
ENDMDL
MODEL 2
REMARK VINA RESULT:     -10.2      4.797      9.902
REMARK SMILES O=C(NCCCCCCNC(=O)C1([NH+]2CCOCC2)CCC1)c1ccc(-c2c3nc(c(-c4ccc(S(=O)(=O)[O-])cc4)c4ccc([nH]4)c(-c4ccc(S(=O)(=O)[O-])cc4)c4nc(c(-c5ccc(S(=O)(=O)[O-])cc5)c5ccc2[nH]5)C=C4)C=C3)cc1
REMARK SMILES IDX 5 1 4 2 3 3 1 4 2 5 23 7 24 8 82 9 25 10 81 11 26 12 27 13
REMARK SMILES IDX 28 14 75 15 29 16 80 17 74 18 76 19 30 20 79 21 73 22 72 23
REMARK SMILES IDX 31 25 61 26 42 27 60 28 43 29 46 30 59 31 77 32 44 33 45 34
REMARK SMILES IDX 58 36 78 37 47 38 32 39 33 40 41 41 34 42 40 43 35 44 36 45
REMARK SMILES IDX 37 46 38 47 39 48 62 49 63 50 71 51 64 52 70 53 65 54 66 55
REMARK SMILES IDX 67 56 68 57 69 58 48 59 49 60 57 61 50 62 56 63 51 64 52 65
REMARK SMILES IDX 53 66 54 67 55 68 6 69 7 70 8 71 9 72 10 73 11 74 12 76
REMARK SMILES IDX 13 77 20 78 22 79 21 80 14 81 15 82 19 83 16 85 18 86 17 87
REMARK H PARENT 3 6 76 24 46 35 10 75 14 84
REMARK Flexibility Score: inf
ROOT
ATOM      1  C   UNL A   1      33.682  28.238  25.155  1.00  0.00     0.021 C 
ENDROOT
BRANCH   1   2
ATOM      2  C   UNL A   1      34.023  28.315  26.636  1.00  0.00     0.116 C 
BRANCH   2   3
ATOM      3  N   UNL A   1      33.710  29.598  27.237  1.00  0.00    -0.352 N 
ATOM      4  O   UNL A   1      34.058  31.404  28.548  1.00  0.00    -0.269 OA
ATOM      5  C   UNL A   1      34.509  30.385  28.035  1.00  0.00     0.251 C 
ATOM      6  H   UNL A   1      32.810  29.952  27.050  1.00  0.00     0.163 HD
BRANCH   5   7
ATOM      7  C   UNL A   1      35.905  29.969  28.300  1.00  0.00     0.039 A 
ATOM      8  C   UNL A   1      36.281  29.498  29.560  1.00  0.00     0.014 A 
ATOM      9  C   UNL A   1      36.855  30.074  27.278  1.00  0.00     0.014 A 
ATOM     10  C   UNL A   1      37.623  29.272  29.839  1.00  0.00     0.010 A 
ATOM     11  C   UNL A   1      38.193  29.761  27.539  1.00  0.00     0.010 A 
ATOM     12  C   UNL A   1      38.594  29.385  28.829  1.00  0.00    -0.014 A 
BRANCH  12  13
ATOM     13  C   UNL A   1      40.002  29.029  29.144  1.00  0.00     0.031 A 
ATOM     14  C   UNL A   1      40.578  27.688  28.779  1.00  0.00     0.074 A 
ATOM     15  C   UNL A   1      40.780  29.965  29.720  1.00  0.00     0.049 A 
ATOM     16  N   UNL A   1      41.806  27.258  28.926  1.00  0.00    -0.248 NA
ATOM     17  C   UNL A   1      39.666  26.702  28.178  1.00  0.00     0.031 C 
ATOM     18  C   UNL A   1      40.326  31.296  30.139  1.00  0.00     0.029 A 
ATOM     19  N   UNL A   1      42.117  29.962  30.026  1.00  0.00    -0.354 N 
ATOM     20  C   UNL A   1      41.814  25.952  28.449  1.00  0.00     0.074 A 
ATOM     21  C   UNL A   1      40.461  25.650  28.030  1.00  0.00     0.031 C 
ATOM     22  C   UNL A   1      41.376  31.998  30.590  1.00  0.00     0.029 A 
ATOM     23  C   UNL A   1      42.563  31.152  30.548  1.00  0.00     0.049 A 
ATOM     24  H   UNL A   1      42.700  29.181  29.885  1.00  0.00     0.167 HD
ATOM     25  C   UNL A   1      42.855  25.087  28.362  1.00  0.00     0.031 A 
ATOM     26  C   UNL A   1      43.788  31.526  30.958  1.00  0.00     0.031 A 
ATOM     27  C   UNL A   1      44.199  25.389  28.787  1.00  0.00     0.049 A 
ATOM     28  C   UNL A   1      44.921  30.551  30.847  1.00  0.00     0.074 A 
ATOM     29  C   UNL A   1      45.320  24.577  28.743  1.00  0.00     0.029 A 
ATOM     30  N   UNL A   1      44.604  26.598  29.331  1.00  0.00    -0.354 N 
ATOM     31  N   UNL A   1      44.907  29.325  30.381  1.00  0.00    -0.248 NA
ATOM     32  C   UNL A   1      46.237  31.010  31.313  1.00  0.00     0.031 C 
ATOM     33  C   UNL A   1      46.397  25.286  29.291  1.00  0.00     0.029 A 
ATOM     34  C   UNL A   1      45.956  26.554  29.633  1.00  0.00     0.049 A 
ATOM     35  H   UNL A   1      44.019  27.376  29.480  1.00  0.00     0.167 HD
ATOM     36  C   UNL A   1      46.211  28.863  30.499  1.00  0.00     0.074 A 
ATOM     37  C   UNL A   1      46.994  29.955  31.045  1.00  0.00     0.031 C 
ATOM     38  C   UNL A   1      46.714  27.643  30.192  1.00  0.00     0.031 A 
BRANCH  25  39
ATOM     39  C   UNL A   1      42.582  23.719  27.794  1.00  0.00    -0.014 A 
ATOM     40  C   UNL A   1      42.809  23.444  26.433  1.00  0.00     0.010 A 
ATOM     41  C   UNL A   1      42.150  22.679  28.638  1.00  0.00     0.010 A 
ATOM     42  C   UNL A   1      42.581  22.163  25.922  1.00  0.00     0.020 A 
ATOM     43  C   UNL A   1      41.942  21.391  28.135  1.00  0.00     0.020 A 
ATOM     44  C   UNL A   1      42.145  21.145  26.776  1.00  0.00     0.054 A 
BRANCH  44  45
ATOM     45  S   UNL A   1      41.884  19.485  26.090  1.00  0.00     0.124 S 
ATOM     46  O   UNL A   1      40.454  19.505  25.793  1.00  0.00    -0.237 OA
ATOM     47  O   UNL A   1      42.767  19.475  24.927  1.00  0.00    -0.237 OA
ATOM     48  O   UNL A   1      42.282  18.594  27.178  1.00  0.00    -0.744 OA
ENDBRANCH  44  45
ENDBRANCH  25  39
BRANCH  26  49
ATOM     49  C   UNL A   1      43.990  32.885  31.527  1.00  0.00    -0.014 A 
ATOM     50  C   UNL A   1      43.866  33.115  32.908  1.00  0.00     0.010 A 
ATOM     51  C   UNL A   1      44.340  33.955  30.682  1.00  0.00     0.010 A 
ATOM     52  C   UNL A   1      44.073  34.395  33.431  1.00  0.00     0.020 A 
ATOM     53  C   UNL A   1      44.575  35.227  31.204  1.00  0.00     0.020 A 
ATOM     54  C   UNL A   1      44.426  35.443  32.575  1.00  0.00     0.054 A 
BRANCH  54  55
ATOM     55  S   UNL A   1      44.747  37.085  33.277  1.00  0.00     0.124 S 
ATOM     56  O   UNL A   1      43.487  37.773  33.020  1.00  0.00    -0.237 OA
ATOM     57  O   UNL A   1      45.030  36.784  34.679  1.00  0.00    -0.237 OA
ATOM     58  O   UNL A   1      45.895  37.562  32.508  1.00  0.00    -0.744 OA
ENDBRANCH  54  55
ENDBRANCH  26  49
BRANCH  38  59
ATOM     59  C   UNL A   1      48.184  27.436  30.436  1.00  0.00    -0.014 A 
ATOM     60  C   UNL A   1      48.648  26.944  31.668  1.00  0.00     0.010 A 
ATOM     61  C   UNL A   1      49.108  27.733  29.419  1.00  0.00     0.010 A 
ATOM     62  C   UNL A   1      50.018  26.794  31.896  1.00  0.00     0.020 A 
ATOM     63  C   UNL A   1      50.478  27.561  29.635  1.00  0.00     0.020 A 
ATOM     64  C   UNL A   1      50.925  27.111  30.880  1.00  0.00     0.054 A 
BRANCH  64  65
ATOM     65  S   UNL A   1      52.699  26.900  31.191  1.00  0.00     0.124 S 
ATOM     66  O   UNL A   1      53.277  27.241  29.894  1.00  0.00    -0.237 OA
ATOM     67  O   UNL A   1      52.956  27.857  32.265  1.00  0.00    -0.237 OA
ATOM     68  O   UNL A   1      52.815  25.495  31.577  1.00  0.00    -0.744 OA
ENDBRANCH  64  65
ENDBRANCH  38  59
ENDBRANCH  12  13
ENDBRANCH   5   7
ENDBRANCH   2   3
ENDBRANCH   1   2
BRANCH   1  69
ATOM     69  C   UNL A   1      32.763  29.336  24.625  1.00  0.00     0.002 C 
BRANCH  69  70
ATOM     70  C   UNL A   1      31.635  28.886  23.694  1.00  0.00     0.002 C 
BRANCH  70  71
ATOM     71  C   UNL A   1      30.717  27.775  24.215  1.00  0.00     0.021 C 
BRANCH  71  72
ATOM     72  C   UNL A   1      30.651  26.506  23.371  1.00  0.00     0.116 C 
BRANCH  72  73
ATOM     73  N   UNL A   1      31.780  26.379  22.478  1.00  0.00    -0.351 N 
ATOM     74  C   UNL A   1      32.891  25.568  22.515  1.00  0.00     0.281 C 
ATOM     75  H   UNL A   1      31.747  26.982  21.701  1.00  0.00     0.163 HD
ATOM     76  O   UNL A   1      33.699  25.803  21.602  1.00  0.00    -0.268 OA
BRANCH  74  77
ATOM     77  C   UNL A   1      33.088  24.435  23.667  1.00  0.00     0.177 C 
ATOM     78  C   UNL A   1      34.553  23.899  23.734  1.00  0.00     0.079 C 
ATOM     79  C   UNL A   1      33.197  24.820  25.165  1.00  0.00     0.079 C 
ATOM     80  C   UNL A   1      34.550  24.090  25.259  1.00  0.00     0.014 C 
BRANCH  77  81
ATOM     81  N   UNL A   1      32.127  23.296  23.484  1.00  0.00    -0.318 N 
ATOM     82  C   UNL A   1      31.138  23.163  24.573  1.00  0.00     0.291 C 
ATOM     83  C   UNL A   1      32.576  21.972  23.033  1.00  0.00     0.291 C 
ATOM     84  H   UNL A   1      31.701  23.657  22.630  1.00  0.00     0.349 HD
ATOM     85  C   UNL A   1      31.497  22.127  25.648  1.00  0.00     0.221 C 
ATOM     86  C   UNL A   1      32.853  20.937  24.138  1.00  0.00     0.221 C 
ATOM     87  O   UNL A   1      31.771  20.848  25.070  1.00  0.00    -0.370 OA
ENDBRANCH  77  81
ENDBRANCH  74  77
ENDBRANCH  72  73
ENDBRANCH  71  72
ENDBRANCH  70  71
ENDBRANCH  69  70
ENDBRANCH   1  69
TORSDOF 17
ENDMDL
MODEL 3
REMARK VINA RESULT:     -10.0      6.221      8.476
REMARK SMILES O=C(NCCCCCCNC(=O)C1([NH+]2CCOCC2)CCC1)c1ccc(-c2c3nc(c(-c4ccc(S(=O)(=O)[O-])cc4)c4ccc([nH]4)c(-c4ccc(S(=O)(=O)[O-])cc4)c4nc(c(-c5ccc(S(=O)(=O)[O-])cc5)c5ccc2[nH]5)C=C4)C=C3)cc1
REMARK SMILES IDX 5 1 4 2 3 3 1 4 2 5 23 7 24 8 82 9 25 10 81 11 26 12 27 13
REMARK SMILES IDX 28 14 75 15 29 16 80 17 74 18 76 19 30 20 79 21 73 22 72 23
REMARK SMILES IDX 31 25 61 26 42 27 60 28 43 29 46 30 59 31 77 32 44 33 45 34
REMARK SMILES IDX 58 36 78 37 47 38 32 39 33 40 41 41 34 42 40 43 35 44 36 45
REMARK SMILES IDX 37 46 38 47 39 48 62 49 63 50 71 51 64 52 70 53 65 54 66 55
REMARK SMILES IDX 67 56 68 57 69 58 48 59 49 60 57 61 50 62 56 63 51 64 52 65
REMARK SMILES IDX 53 66 54 67 55 68 6 69 7 70 8 71 9 72 10 73 11 74 12 76
REMARK SMILES IDX 13 77 20 78 22 79 21 80 14 81 15 82 19 83 16 85 18 86 17 87
REMARK H PARENT 3 6 76 24 46 35 10 75 14 84
REMARK Flexibility Score: inf
ROOT
ATOM      1  C   UNL A   1      34.967  30.471  27.684  1.00  0.00     0.021 C 
ENDROOT
BRANCH   1   2
ATOM      2  C   UNL A   1      35.792  31.335  28.626  1.00  0.00     0.116 C 
BRANCH   2   3
ATOM      3  N   UNL A   1      35.634  30.983  30.025  1.00  0.00    -0.352 N 
ATOM      4  O   UNL A   1      36.182  29.993  31.979  1.00  0.00    -0.269 OA
ATOM      5  C   UNL A   1      36.509  30.299  30.837  1.00  0.00     0.251 C 
ATOM      6  H   UNL A   1      34.792  31.270  30.447  1.00  0.00     0.163 HD
BRANCH   5   7
ATOM      7  C   UNL A   1      37.833  29.901  30.306  1.00  0.00     0.039 A 
ATOM      8  C   UNL A   1      38.844  29.469  31.167  1.00  0.00     0.014 A 
ATOM      9  C   UNL A   1      38.071  29.984  28.931  1.00  0.00     0.014 A 
ATOM     10  C   UNL A   1      40.127  29.261  30.674  1.00  0.00     0.010 A 
ATOM     11  C   UNL A   1      39.342  29.689  28.426  1.00  0.00     0.010 A 
ATOM     12  C   UNL A   1      40.389  29.352  29.296  1.00  0.00    -0.014 A 
BRANCH  12  13
ATOM     13  C   UNL A   1      41.748  29.015  28.800  1.00  0.00     0.031 A 
ATOM     14  C   UNL A   1      42.871  30.016  28.831  1.00  0.00     0.074 A 
ATOM     15  C   UNL A   1      41.973  27.759  28.367  1.00  0.00     0.049 A 
ATOM     16  N   UNL A   1      44.126  29.848  28.498  1.00  0.00    -0.248 NA
ATOM     17  C   UNL A   1      42.550  31.377  29.288  1.00  0.00     0.031 C 
ATOM     18  C   UNL A   1      40.956  26.707  28.271  1.00  0.00     0.029 A 
ATOM     19  N   UNL A   1      43.126  27.141  27.959  1.00  0.00    -0.354 N 
ATOM     20  C   UNL A   1      44.742  31.079  28.692  1.00  0.00     0.074 A 
ATOM     21  C   UNL A   1      43.717  31.993  29.150  1.00  0.00     0.031 C 
ATOM     22  C   UNL A   1      41.540  25.562  27.890  1.00  0.00     0.029 A 
ATOM     23  C   UNL A   1      42.958  25.811  27.659  1.00  0.00     0.049 A 
ATOM     24  H   UNL A   1      43.991  27.606  27.886  1.00  0.00     0.167 HD
ATOM     25  C   UNL A   1      46.044  31.414  28.512  1.00  0.00     0.031 A 
ATOM     26  C   UNL A   1      43.841  24.888  27.235  1.00  0.00     0.031 A 
ATOM     27  C   UNL A   1      47.060  30.503  28.049  1.00  0.00     0.049 A 
ATOM     28  C   UNL A   1      45.275  25.285  27.049  1.00  0.00     0.074 A 
ATOM     29  C   UNL A   1      48.406  30.749  27.833  1.00  0.00     0.029 A 
ATOM     30  N   UNL A   1      46.844  29.169  27.736  1.00  0.00    -0.354 N 
ATOM     31  N   UNL A   1      45.836  26.453  27.251  1.00  0.00    -0.248 NA
ATOM     32  C   UNL A   1      46.195  24.240  26.581  1.00  0.00     0.031 C 
ATOM     33  C   UNL A   1      48.996  29.572  27.357  1.00  0.00     0.029 A 
ATOM     34  C   UNL A   1      48.029  28.581  27.321  1.00  0.00     0.049 A 
ATOM     35  H   UNL A   1      45.978  28.706  27.799  1.00  0.00     0.167 HD
ATOM     36  C   UNL A   1      47.178  26.284  26.933  1.00  0.00     0.074 A 
ATOM     37  C   UNL A   1      47.349  24.893  26.562  1.00  0.00     0.031 C 
ATOM     38  C   UNL A   1      48.176  27.201  26.939  1.00  0.00     0.031 A 
BRANCH  25  39
ATOM     39  C   UNL A   1      46.447  32.836  28.806  1.00  0.00    -0.014 A 
ATOM     40  C   UNL A   1      46.914  33.204  30.081  1.00  0.00     0.010 A 
ATOM     41  C   UNL A   1      46.416  33.802  27.784  1.00  0.00     0.010 A 
ATOM     42  C   UNL A   1      47.315  34.520  30.334  1.00  0.00     0.020 A 
ATOM     43  C   UNL A   1      46.836  35.113  28.028  1.00  0.00     0.020 A 
ATOM     44  C   UNL A   1      47.270  35.467  29.308  1.00  0.00     0.054 A 
BRANCH  44  45
ATOM     45  S   UNL A   1      47.822  37.160  29.658  1.00  0.00     0.124 S 
ATOM     46  O   UNL A   1      47.315  37.887  28.497  1.00  0.00    -0.237 OA
ATOM     47  O   UNL A   1      47.157  37.459  30.925  1.00  0.00    -0.237 OA
ATOM     48  O   UNL A   1      49.276  37.042  29.734  1.00  0.00    -0.744 OA
ENDBRANCH  44  45
ENDBRANCH  25  39
BRANCH  26  49
ATOM     49  C   UNL A   1      43.377  23.505  26.945  1.00  0.00    -0.014 A 
ATOM     50  C   UNL A   1      43.323  23.025  25.626  1.00  0.00     0.010 A 
ATOM     51  C   UNL A   1      43.015  22.650  28.002  1.00  0.00     0.010 A 
ATOM     52  C   UNL A   1      42.898  21.718  25.368  1.00  0.00     0.020 A 
ATOM     53  C   UNL A   1      42.619  21.336  27.751  1.00  0.00     0.020 A 
ATOM     54  C   UNL A   1      42.549  20.882  26.433  1.00  0.00     0.054 A 
BRANCH  54  55
ATOM     55  S   UNL A   1      42.056  19.171  26.086  1.00  0.00     0.124 S 
ATOM     56  O   UNL A   1      42.464  18.486  27.307  1.00  0.00    -0.237 OA
ATOM     57  O   UNL A   1      40.614  19.290  25.877  1.00  0.00    -0.237 OA
ATOM     58  O   UNL A   1      42.824  18.835  24.888  1.00  0.00    -0.744 OA
ENDBRANCH  54  55
ENDBRANCH  26  49
BRANCH  38  59
ATOM     59  C   UNL A   1      49.542  26.715  26.537  1.00  0.00    -0.014 A 
ATOM     60  C   UNL A   1      49.983  26.823  25.206  1.00  0.00     0.010 A 
ATOM     61  C   UNL A   1      50.393  26.150  27.503  1.00  0.00     0.010 A 
ATOM     62  C   UNL A   1      51.238  26.332  24.839  1.00  0.00     0.020 A 
ATOM     63  C   UNL A   1      51.659  25.680  27.143  1.00  0.00     0.020 A 
ATOM     64  C   UNL A   1      52.065  25.756  25.809  1.00  0.00     0.054 A 
BRANCH  64  65
ATOM     65  S   UNL A   1      53.695  25.135  25.313  1.00  0.00     0.124 S 
ATOM     66  O   UNL A   1      53.504  23.689  25.390  1.00  0.00    -0.237 OA
ATOM     67  O   UNL A   1      53.852  25.677  23.965  1.00  0.00    -0.237 OA
ATOM     68  O   UNL A   1      54.597  25.699  26.314  1.00  0.00    -0.744 OA
ENDBRANCH  64  65
ENDBRANCH  38  59
ENDBRANCH  12  13
ENDBRANCH   5   7
ENDBRANCH   2   3
ENDBRANCH   1   2
BRANCH   1  69
ATOM     69  C   UNL A   1      33.492  30.845  27.557  1.00  0.00     0.002 C 
BRANCH  69  70
ATOM     70  C   UNL A   1      32.636  29.942  26.665  1.00  0.00     0.002 C 
BRANCH  70  71
ATOM     71  C   UNL A   1      32.213  28.595  27.259  1.00  0.00     0.021 C 
BRANCH  71  72
ATOM     72  C   UNL A   1      31.429  27.669  26.334  1.00  0.00     0.116 C 
BRANCH  72  73
ATOM     73  N   UNL A   1      31.214  26.363  26.914  1.00  0.00    -0.351 N 
ATOM     74  C   UNL A   1      31.689  25.118  26.570  1.00  0.00     0.281 C 
ATOM     75  H   UNL A   1      30.621  26.365  27.699  1.00  0.00     0.163 HD
ATOM     76  O   UNL A   1      31.214  24.204  27.263  1.00  0.00    -0.268 OA
BRANCH  74  77
ATOM     77  C   UNL A   1      32.758  24.912  25.360  1.00  0.00     0.177 C 
ATOM     78  C   UNL A   1      33.974  25.885  25.466  1.00  0.00     0.079 C 
ATOM     79  C   UNL A   1      33.752  23.723  25.355  1.00  0.00     0.079 C 
ATOM     80  C   UNL A   1      34.933  24.704  25.238  1.00  0.00     0.014 C 
BRANCH  77  81
ATOM     81  N   UNL A   1      32.097  25.053  24.018  1.00  0.00    -0.318 N 
ATOM     82  C   UNL A   1      32.099  23.813  23.215  1.00  0.00     0.291 C 
ATOM     83  C   UNL A   1      32.333  26.222  23.160  1.00  0.00     0.291 C 
ATOM     84  H   UNL A   1      31.168  25.265  24.382  1.00  0.00     0.349 HD
ATOM     85  C   UNL A   1      33.225  23.720  22.175  1.00  0.00     0.221 C 
ATOM     86  C   UNL A   1      33.418  26.062  22.079  1.00  0.00     0.221 C 
ATOM     87  O   UNL A   1      33.241  24.864  21.318  1.00  0.00    -0.370 OA
ENDBRANCH  77  81
ENDBRANCH  74  77
ENDBRANCH  72  73
ENDBRANCH  71  72
ENDBRANCH  70  71
ENDBRANCH  69  70
ENDBRANCH   1  69
TORSDOF 17
ENDMDL
