MODEL 1
REMARK VINA RESULT:     -11.9      0.000      0.000
REMARK SMILES COc1cc(C)cc2c1[C@@H](C)[C@@H](CC(=O)N[C@@H](Cc1c[nH]c3ccccc13)C(=O)NCCCCCCNC(=O)c1ccc(-c3c4nc(c(-c5ccc(S(=O)(=O)[O-])cc5)c5ccc([nH]5)c(-c5ccc(S(=O)(=O)[O-])cc5)c5nc(c(-c6ccc(S(=O)(=O)[O-])cc6)c6ccc3[nH]6)C=C5)C=C4)cc1)C(=O)O2
REMARK SMILES IDX 33 1 32 2 31 3 30 4 28 5 29 6 17 8 16 9 14 10 15 11 13 13
REMARK SMILES IDX 12 14 3 15 4 16 9 17 5 18 8 19 10 20 6 21 7 22 102 23 11 24
REMARK SMILES IDX 100 25 101 26 2 27 1 28 18 29 19 30 20 31 27 32 21 33 22 34
REMARK SMILES IDX 26 35 23 37 25 38 24 39 34 40 35 41 36 42 37 43 38 44 39 46
REMARK SMILES IDX 40 47 41 48 99 49 42 50 98 51 43 52 44 53 45 54 92 55 46 56
REMARK SMILES IDX 97 57 91 58 93 59 47 60 96 61 90 62 89 63 48 65 78 66 59 67
REMARK SMILES IDX 77 68 60 69 63 70 76 71 94 72 61 73 62 74 75 76 95 77 64 78
REMARK SMILES IDX 49 79 50 80 58 81 51 82 57 83 52 84 53 85 54 86 55 87 56 88
REMARK SMILES IDX 79 89 80 90 88 91 81 92 87 93 82 94 83 95 84 96 85 97 86 98
REMARK SMILES IDX 65 99 66 100 74 101 67 102 73 103 68 104 69 105 70 106
REMARK SMILES IDX 71 107 72 108
REMARK H PARENT 30 7 16 12 21 36 37 45 93 64 63 75
REMARK Flexibility Score: inf
ROOT
ATOM      1  C   UNL A   1      34.457  31.570  28.618  1.00  0.00     0.002 C 
ENDROOT
BRANCH   1   2
ATOM      2  C   UNL A   1      34.051  30.933  27.286  1.00  0.00     0.021 C 
BRANCH   2   3
ATOM      3  C   UNL A   1      34.308  29.430  27.277  1.00  0.00     0.116 C 
BRANCH   3   4
ATOM      4  N   UNL A   1      34.572  28.991  25.935  1.00  0.00    -0.354 N 
ATOM      5  C   UNL A   1      33.805  28.204  25.145  1.00  0.00     0.242 C 
ATOM      6  O   UNL A   1      34.369  27.682  24.174  1.00  0.00    -0.273 OA
ATOM      7  H   UNL A   1      35.417  29.303  25.539  1.00  0.00     0.163 HD
BRANCH   5   8
ATOM      8  C   UNL A   1      32.297  27.960  25.385  1.00  0.00     0.175 C 
BRANCH   8   9
ATOM      9  N   UNL A   1      31.939  27.029  26.435  1.00  0.00    -0.344 N 
ATOM     10  C   UNL A   1      31.769  25.681  26.269  1.00  0.00     0.221 C 
ATOM     11  O   UNL A   1      30.959  25.082  26.974  1.00  0.00    -0.275 OA
ATOM     12  H   UNL A   1      31.808  27.394  27.341  1.00  0.00     0.164 HD
BRANCH  10  13
ATOM     13  C   UNL A   1      32.704  24.936  25.325  1.00  0.00     0.116 C 
BRANCH  13  14
ATOM     14  C   UNL A   1      32.134  24.329  24.016  1.00  0.00     0.116 C 
ATOM     15  C   UNL A   1      33.903  21.056  24.737  1.00  0.00     0.126 A 
ATOM     16  C   UNL A   1      35.264  20.753  24.930  1.00  0.00     0.050 A 
ATOM     17  C   UNL A   1      33.522  22.266  24.157  1.00  0.00     0.041 A 
ATOM     18  C   UNL A   1      36.270  21.654  24.552  1.00  0.00    -0.044 A 
ATOM     19  C   UNL A   1      34.555  23.080  23.661  1.00  0.00     0.138 A 
ATOM     20  C   UNL A   1      32.089  22.776  24.028  1.00  0.00     0.038 C 
ATOM     21  C   UNL A   1      37.714  21.341  24.801  1.00  0.00     0.044 C 
ATOM     22  C   UNL A   1      35.905  22.814  23.875  1.00  0.00     0.051 A 
ATOM     23  O   UNL A   1      34.281  24.208  22.870  1.00  0.00    -0.426 OA
ATOM     24  C   UNL A   1      31.074  22.297  25.071  1.00  0.00     0.014 C 
ATOM     25  C   UNL A   1      32.958  24.584  22.772  1.00  0.00     0.315 C 
ATOM     26  O   UNL A   1      32.509  25.076  21.745  1.00  0.00    -0.251 OA
BRANCH  15  27
ATOM     27  O   UNL A   1      32.932  20.127  24.990  1.00  0.00    -0.496 OA
ATOM     28  C   UNL A   1      32.835  19.121  23.989  1.00  0.00     0.278 C 
ENDBRANCH  15  27
ENDBRANCH  13  14
ENDBRANCH  10  13
ENDBRANCH   8   9
BRANCH   8  29
ATOM     29  C   UNL A   1      31.215  28.997  25.119  1.00  0.00     0.072 C 
BRANCH  29  30
ATOM     30  C   UNL A   1      30.682  29.496  23.804  1.00  0.00    -0.020 A 
ATOM     31  C   UNL A   1      31.197  28.920  22.649  1.00  0.00     0.087 A 
ATOM     32  C   UNL A   1      29.608  30.360  23.366  1.00  0.00     0.003 A 
ATOM     33  N   UNL A   1      30.324  29.136  21.634  1.00  0.00    -0.361 N 
ATOM     34  C   UNL A   1      29.443  30.119  21.992  1.00  0.00     0.046 A 
ATOM     35  C   UNL A   1      28.714  31.293  23.941  1.00  0.00     0.010 A 
ATOM     36  H   UNL A   1      30.325  28.659  20.773  1.00  0.00     0.166 HD
ATOM     37  C   UNL A   1      28.496  30.763  21.188  1.00  0.00     0.026 A 
ATOM     38  C   UNL A   1      27.783  31.979  23.139  1.00  0.00     0.001 A 
ATOM     39  C   UNL A   1      27.685  31.724  21.778  1.00  0.00     0.002 A 
ENDBRANCH  29  30
ENDBRANCH   8  29
ENDBRANCH   5   8
ENDBRANCH   3   4
ENDBRANCH   2   3
ENDBRANCH   1   2
BRANCH   1  40
ATOM     40  C   UNL A   1      34.815  33.058  28.511  1.00  0.00     0.002 C 
BRANCH  40  41
ATOM     41  C   UNL A   1      33.610  33.997  28.596  1.00  0.00     0.021 C 
BRANCH  41  42
ATOM     42  C   UNL A   1      33.943  35.345  29.218  1.00  0.00     0.116 C 
BRANCH  42  43
ATOM     43  N   UNL A   1      32.966  35.714  30.233  1.00  0.00    -0.352 N 
ATOM     44  C   UNL A   1      32.906  35.332  31.552  1.00  0.00     0.251 C 
ATOM     45  H   UNL A   1      32.251  36.320  29.933  1.00  0.00     0.163 HD
ATOM     46  O   UNL A   1      31.893  35.509  32.207  1.00  0.00    -0.269 OA
BRANCH  44  47
ATOM     47  C   UNL A   1      34.095  34.689  32.147  1.00  0.00     0.039 A 
ATOM     48  C   UNL A   1      35.274  35.422  32.303  1.00  0.00     0.014 A 
ATOM     49  C   UNL A   1      34.044  33.339  32.497  1.00  0.00     0.014 A 
ATOM     50  C   UNL A   1      36.446  34.764  32.642  1.00  0.00     0.010 A 
ATOM     51  C   UNL A   1      35.206  32.703  32.937  1.00  0.00     0.010 A 
ATOM     52  C   UNL A   1      36.425  33.399  32.968  1.00  0.00    -0.014 A 
BRANCH  52  53
ATOM     53  C   UNL A   1      37.693  32.722  33.338  1.00  0.00     0.031 A 
ATOM     54  C   UNL A   1      38.377  33.035  34.642  1.00  0.00     0.074 A 
ATOM     55  C   UNL A   1      38.191  31.776  32.517  1.00  0.00     0.049 A 
ATOM     56  N   UNL A   1      39.485  32.533  35.125  1.00  0.00    -0.248 NA
ATOM     57  C   UNL A   1      37.745  34.037  35.518  1.00  0.00     0.031 C 
ATOM     58  C   UNL A   1      37.585  31.365  31.248  1.00  0.00     0.029 A 
ATOM     59  N   UNL A   1      39.291  30.967  32.635  1.00  0.00    -0.354 N 
ATOM     60  C   UNL A   1      39.687  33.163  36.348  1.00  0.00     0.074 A 
ATOM     61  C   UNL A   1      38.611  34.113  36.519  1.00  0.00     0.031 C 
ATOM     62  C   UNL A   1      38.278  30.336  30.743  1.00  0.00     0.029 A 
ATOM     63  C   UNL A   1      39.428  30.071  31.601  1.00  0.00     0.049 A 
ATOM     64  H   UNL A   1      39.923  31.022  33.388  1.00  0.00     0.167 HD
ATOM     65  C   UNL A   1      40.672  32.949  37.252  1.00  0.00     0.031 A 
ATOM     66  C   UNL A   1      40.378  29.145  31.356  1.00  0.00     0.031 A 
ATOM     67  C   UNL A   1      41.728  31.986  37.075  1.00  0.00     0.049 A 
ATOM     68  C   UNL A   1      41.500  28.984  32.340  1.00  0.00     0.074 A 
ATOM     69  C   UNL A   1      42.769  31.692  37.937  1.00  0.00     0.029 A 
ATOM     70  N   UNL A   1      41.876  31.155  35.974  1.00  0.00    -0.354 N 
ATOM     71  N   UNL A   1      41.676  29.590  33.489  1.00  0.00    -0.248 NA
ATOM     72  C   UNL A   1      42.553  28.019  31.997  1.00  0.00     0.031 C 
ATOM     73  C   UNL A   1      43.586  30.740  37.327  1.00  0.00     0.029 A 
ATOM     74  C   UNL A   1      43.008  30.371  36.122  1.00  0.00     0.049 A 
ATOM     75  H   UNL A   1      41.266  31.126  35.201  1.00  0.00     0.167 HD
ATOM     76  C   UNL A   1      42.850  29.067  34.018  1.00  0.00     0.074 A 
ATOM     77  C   UNL A   1      43.329  28.078  33.073  1.00  0.00     0.031 C 
ATOM     78  C   UNL A   1      43.474  29.384  35.178  1.00  0.00     0.031 A 
BRANCH  65  79
ATOM     79  C   UNL A   1      40.668  33.752  38.529  1.00  0.00    -0.014 A 
ATOM     80  C   UNL A   1      39.975  33.272  39.657  1.00  0.00     0.010 A 
ATOM     81  C   UNL A   1      41.224  35.043  38.572  1.00  0.00     0.010 A 
ATOM     82  C   UNL A   1      39.796  34.081  40.782  1.00  0.00     0.020 A 
ATOM     83  C   UNL A   1      41.076  35.845  39.708  1.00  0.00     0.020 A 
ATOM     84  C   UNL A   1      40.337  35.369  40.794  1.00  0.00     0.054 A 
BRANCH  84  85
ATOM     85  S   UNL A   1      40.045  36.426  42.239  1.00  0.00     0.124 S 
ATOM     86  O   UNL A   1      40.121  37.765  41.663  1.00  0.00    -0.237 OA
ATOM     87  O   UNL A   1      38.719  36.001  42.681  1.00  0.00    -0.237 OA
ATOM     88  O   UNL A   1      41.137  36.074  43.146  1.00  0.00    -0.744 OA
ENDBRANCH  84  85
ENDBRANCH  65  79
BRANCH  66  89
ATOM     89  C   UNL A   1      40.270  28.296  30.136  1.00  0.00    -0.014 A 
ATOM     90  C   UNL A   1      39.578  27.069  30.176  1.00  0.00     0.010 A 
ATOM     91  C   UNL A   1      40.932  28.664  28.952  1.00  0.00     0.010 A 
ATOM     92  C   UNL A   1      39.609  26.198  29.085  1.00  0.00     0.020 A 
ATOM     93  C   UNL A   1      40.932  27.812  27.843  1.00  0.00     0.020 A 
ATOM     94  C   UNL A   1      40.299  26.571  27.929  1.00  0.00     0.054 A 
BRANCH  94  95
ATOM     95  S   UNL A   1      40.373  25.399  26.547  1.00  0.00     0.124 S 
ATOM     96  O   UNL A   1      41.252  24.362  27.082  1.00  0.00    -0.237 OA
ATOM     97  O   UNL A   1      38.975  25.015  26.380  1.00  0.00    -0.237 OA
ATOM     98  O   UNL A   1      40.935  26.190  25.456  1.00  0.00    -0.744 OA
ENDBRANCH  94  95
ENDBRANCH  66  89
BRANCH  78  99
ATOM     99  C   UNL A   1      44.752  28.662  35.521  1.00  0.00    -0.014 A 
ATOM    100  C   UNL A   1      45.976  29.130  35.007  1.00  0.00     0.010 A 
ATOM    101  C   UNL A   1      44.725  27.443  36.221  1.00  0.00     0.010 A 
ATOM    102  C   UNL A   1      47.139  28.369  35.140  1.00  0.00     0.020 A 
ATOM    103  C   UNL A   1      45.894  26.696  36.389  1.00  0.00     0.020 A 
ATOM    104  C   UNL A   1      47.087  27.150  35.820  1.00  0.00     0.054 A 
BRANCH 104 105
ATOM    105  S   UNL A   1      48.596  26.149  35.930  1.00  0.00     0.124 S 
ATOM    106  O   UNL A   1      49.025  26.085  34.536  1.00  0.00    -0.237 OA
ATOM    107  O   UNL A   1      49.443  26.945  36.815  1.00  0.00    -0.237 OA
ATOM    108  O   UNL A   1      48.128  24.886  36.497  1.00  0.00    -0.744 OA
ENDBRANCH 104 105
ENDBRANCH  78  99
ENDBRANCH  52  53
ENDBRANCH  44  47
ENDBRANCH  42  43
ENDBRANCH  41  42
ENDBRANCH  40  41
ENDBRANCH   1  40
TORSDOF 22
ENDMDL
MODEL 2
REMARK VINA RESULT:     -11.9      5.603      9.659
REMARK SMILES COc1cc(C)cc2c1[C@@H](C)[C@@H](CC(=O)N[C@@H](Cc1c[nH]c3ccccc13)C(=O)NCCCCCCNC(=O)c1ccc(-c3c4nc(c(-c5ccc(S(=O)(=O)[O-])cc5)c5ccc([nH]5)c(-c5ccc(S(=O)(=O)[O-])cc5)c5nc(c(-c6ccc(S(=O)(=O)[O-])cc6)c6ccc3[nH]6)C=C5)C=C4)cc1)C(=O)O2
REMARK SMILES IDX 33 1 32 2 31 3 30 4 28 5 29 6 17 8 16 9 14 10 15 11 13 13
REMARK SMILES IDX 12 14 3 15 4 16 9 17 5 18 8 19 10 20 6 21 7 22 102 23 11 24
REMARK SMILES IDX 100 25 101 26 2 27 1 28 18 29 19 30 20 31 27 32 21 33 22 34
REMARK SMILES IDX 26 35 23 37 25 38 24 39 34 40 35 41 36 42 37 43 38 44 39 46
REMARK SMILES IDX 40 47 41 48 99 49 42 50 98 51 43 52 44 53 45 54 92 55 46 56
REMARK SMILES IDX 97 57 91 58 93 59 47 60 96 61 90 62 89 63 48 65 78 66 59 67
REMARK SMILES IDX 77 68 60 69 63 70 76 71 94 72 61 73 62 74 75 76 95 77 64 78
REMARK SMILES IDX 49 79 50 80 58 81 51 82 57 83 52 84 53 85 54 86 55 87 56 88
REMARK SMILES IDX 79 89 80 90 88 91 81 92 87 93 82 94 83 95 84 96 85 97 86 98
REMARK SMILES IDX 65 99 66 100 74 101 67 102 73 103 68 104 69 105 70 106
REMARK SMILES IDX 71 107 72 108
REMARK H PARENT 30 7 16 12 21 36 37 45 93 64 63 75
REMARK Flexibility Score: inf
ROOT
ATOM      1  C   UNL A   1      34.750  32.047  28.203  1.00  0.00     0.002 C 
ENDROOT
BRANCH   1   2
ATOM      2  C   UNL A   1      33.561  31.714  27.297  1.00  0.00     0.021 C 
BRANCH   2   3
ATOM      3  C   UNL A   1      33.348  30.210  27.174  1.00  0.00     0.116 C 
BRANCH   3   4
ATOM      4  N   UNL A   1      33.916  29.738  25.942  1.00  0.00    -0.354 N 
ATOM      5  C   UNL A   1      33.558  28.655  25.215  1.00  0.00     0.242 C 
ATOM      6  O   UNL A   1      34.384  28.249  24.387  1.00  0.00    -0.273 OA
ATOM      7  H   UNL A   1      34.660  30.271  25.580  1.00  0.00     0.163 HD
BRANCH   5   8
ATOM      8  C   UNL A   1      32.192  27.943  25.354  1.00  0.00     0.175 C 
BRANCH   8   9
ATOM      9  N   UNL A   1      32.065  26.963  26.414  1.00  0.00    -0.344 N 
ATOM     10  C   UNL A   1      32.115  25.605  26.242  1.00  0.00     0.221 C 
ATOM     11  O   UNL A   1      31.465  24.877  26.989  1.00  0.00    -0.275 OA
ATOM     12  H   UNL A   1      31.933  27.298  27.330  1.00  0.00     0.164 HD
BRANCH  10  13
ATOM     13  C   UNL A   1      33.100  25.032  25.231  1.00  0.00     0.116 C 
BRANCH  13  14
ATOM     14  C   UNL A   1      32.583  24.582  23.839  1.00  0.00     0.116 C 
ATOM     15  C   UNL A   1      33.703  21.031  24.545  1.00  0.00     0.126 A 
ATOM     16  C   UNL A   1      34.966  20.495  24.855  1.00  0.00     0.050 A 
ATOM     17  C   UNL A   1      33.590  22.310  23.999  1.00  0.00     0.041 A 
ATOM     18  C   UNL A   1      36.141  21.227  24.631  1.00  0.00    -0.044 A 
ATOM     19  C   UNL A   1      34.789  22.957  23.656  1.00  0.00     0.138 A 
ATOM     20  C   UNL A   1      32.282  23.060  23.758  1.00  0.00     0.038 C 
ATOM     21  C   UNL A   1      37.480  20.664  25.004  1.00  0.00     0.044 C 
ATOM     22  C   UNL A   1      36.047  22.458  23.988  1.00  0.00     0.051 A 
ATOM     23  O   UNL A   1      34.791  24.145  22.908  1.00  0.00    -0.426 OA
ATOM     24  C   UNL A   1      31.096  22.719  24.666  1.00  0.00     0.014 C 
ATOM     25  C   UNL A   1      33.566  24.743  22.700  1.00  0.00     0.315 C 
ATOM     26  O   UNL A   1      33.317  25.344  21.663  1.00  0.00    -0.251 OA
BRANCH  15  27
ATOM     27  O   UNL A   1      32.571  20.270  24.646  1.00  0.00    -0.496 OA
ATOM     28  C   UNL A   1      32.616  19.080  23.870  1.00  0.00     0.278 C 
ENDBRANCH  15  27
ENDBRANCH  13  14
ENDBRANCH  10  13
ENDBRANCH   8   9
BRANCH   8  29
ATOM     29  C   UNL A   1      30.862  28.573  24.969  1.00  0.00     0.072 C 
BRANCH  29  30
ATOM     30  C   UNL A   1      30.483  29.290  23.702  1.00  0.00    -0.020 A 
ATOM     31  C   UNL A   1      30.994  28.788  22.510  1.00  0.00     0.087 A 
ATOM     32  C   UNL A   1      29.560  30.336  23.322  1.00  0.00     0.003 A 
ATOM     33  N   UNL A   1      30.223  29.237  21.488  1.00  0.00    -0.361 N 
ATOM     34  C   UNL A   1      29.455  30.282  21.923  1.00  0.00     0.046 A 
ATOM     35  C   UNL A   1      28.759  31.309  23.965  1.00  0.00     0.010 A 
ATOM     36  H   UNL A   1      30.218  28.869  20.576  1.00  0.00     0.166 HD
ATOM     37  C   UNL A   1      28.652  31.138  21.160  1.00  0.00     0.026 A 
ATOM     38  C   UNL A   1      27.978  32.204  23.210  1.00  0.00     0.001 A 
ATOM     39  C   UNL A   1      27.935  32.125  21.824  1.00  0.00     0.002 A 
ENDBRANCH  29  30
ENDBRANCH   8  29
ENDBRANCH   5   8
ENDBRANCH   3   4
ENDBRANCH   2   3
ENDBRANCH   1   2
BRANCH   1  40
ATOM     40  C   UNL A   1      35.050  33.547  28.306  1.00  0.00     0.002 C 
BRANCH  40  41
ATOM     41  C   UNL A   1      35.546  33.991  29.684  1.00  0.00     0.021 C 
BRANCH  41  42
ATOM     42  C   UNL A   1      36.686  33.134  30.216  1.00  0.00     0.116 C 
BRANCH  42  43
ATOM     43  N   UNL A   1      36.183  32.003  30.983  1.00  0.00    -0.352 N 
ATOM     44  C   UNL A   1      36.722  30.747  31.123  1.00  0.00     0.251 C 
ATOM     45  H   UNL A   1      35.341  32.161  31.468  1.00  0.00     0.163 HD
ATOM     46  O   UNL A   1      36.060  29.831  31.580  1.00  0.00    -0.269 OA
BRANCH  44  47
ATOM     47  C   UNL A   1      38.118  30.534  30.690  1.00  0.00     0.039 A 
ATOM     48  C   UNL A   1      38.422  30.496  29.327  1.00  0.00     0.014 A 
ATOM     49  C   UNL A   1      39.110  30.319  31.647  1.00  0.00     0.014 A 
ATOM     50  C   UNL A   1      39.676  30.071  28.920  1.00  0.00     0.010 A 
ATOM     51  C   UNL A   1      40.402  29.990  31.231  1.00  0.00     0.010 A 
ATOM     52  C   UNL A   1      40.683  29.818  29.866  1.00  0.00    -0.014 A 
BRANCH  52  53
ATOM     53  C   UNL A   1      42.021  29.374  29.401  1.00  0.00     0.031 A 
ATOM     54  C   UNL A   1      42.226  27.978  28.876  1.00  0.00     0.074 A 
ATOM     55  C   UNL A   1      43.036  30.259  29.398  1.00  0.00     0.049 A 
ATOM     56  N   UNL A   1      43.323  27.428  28.425  1.00  0.00    -0.248 NA
ATOM     57  C   UNL A   1      41.056  27.082  28.854  1.00  0.00     0.031 C 
ATOM     58  C   UNL A   1      42.937  31.651  29.846  1.00  0.00     0.029 A 
ATOM     59  N   UNL A   1      44.336  30.140  28.977  1.00  0.00    -0.354 N 
ATOM     60  C   UNL A   1      42.982  26.125  28.078  1.00  0.00     0.074 A 
ATOM     61  C   UNL A   1      41.585  25.951  28.406  1.00  0.00     0.031 C 
ATOM     62  C   UNL A   1      44.099  32.273  29.611  1.00  0.00     0.029 A 
ATOM     63  C   UNL A   1      45.056  31.308  29.079  1.00  0.00     0.049 A 
ATOM     64  H   UNL A   1      44.718  29.300  28.635  1.00  0.00     0.167 HD
ATOM     65  C   UNL A   1      43.762  25.172  27.517  1.00  0.00     0.031 A 
ATOM     66  C   UNL A   1      46.346  31.576  28.792  1.00  0.00     0.031 A 
ATOM     67  C   UNL A   1      45.150  25.366  27.180  1.00  0.00     0.049 A 
ATOM     68  C   UNL A   1      47.208  30.477  28.243  1.00  0.00     0.074 A 
ATOM     69  C   UNL A   1      46.023  24.462  26.602  1.00  0.00     0.029 A 
ATOM     70  N   UNL A   1      45.863  26.540  27.375  1.00  0.00    -0.354 N 
ATOM     71  N   UNL A   1      46.867  29.251  27.924  1.00  0.00    -0.248 NA
ATOM     72  C   UNL A   1      48.624  30.790  28.016  1.00  0.00     0.031 C 
ATOM     73  C   UNL A   1      47.279  25.061  26.518  1.00  0.00     0.029 A 
ATOM     74  C   UNL A   1      47.172  26.372  26.959  1.00  0.00     0.049 A 
ATOM     75  H   UNL A   1      45.493  27.370  27.754  1.00  0.00     0.167 HD
ATOM     76  C   UNL A   1      48.024  28.651  27.440  1.00  0.00     0.074 A 
ATOM     77  C   UNL A   1      49.067  29.656  27.487  1.00  0.00     0.031 C 
ATOM     78  C   UNL A   1      48.203  27.381  27.003  1.00  0.00     0.031 A 
BRANCH  65  79
ATOM     79  C   UNL A   1      43.154  23.825  27.212  1.00  0.00    -0.014 A 
ATOM     80  C   UNL A   1      42.967  22.890  28.248  1.00  0.00     0.010 A 
ATOM     81  C   UNL A   1      42.902  23.431  25.886  1.00  0.00     0.010 A 
ATOM     82  C   UNL A   1      42.588  21.575  27.962  1.00  0.00     0.020 A 
ATOM     83  C   UNL A   1      42.491  22.125  25.597  1.00  0.00     0.020 A 
ATOM     84  C   UNL A   1      42.365  21.198  26.635  1.00  0.00     0.054 A 
BRANCH  84  85
ATOM     85  S   UNL A   1      41.931  19.474  26.277  1.00  0.00     0.124 S 
ATOM     86  O   UNL A   1      40.489  19.556  26.068  1.00  0.00    -0.237 OA
ATOM     87  O   UNL A   1      42.729  19.185  25.088  1.00  0.00    -0.237 OA
ATOM     88  O   UNL A   1      42.347  18.760  27.484  1.00  0.00    -0.744 OA
ENDBRANCH  84  85
ENDBRANCH  65  79
BRANCH  66  89
ATOM     89  C   UNL A   1      46.867  32.957  29.003  1.00  0.00    -0.014 A 
ATOM     90  C   UNL A   1      47.325  33.364  30.271  1.00  0.00     0.010 A 
ATOM     91  C   UNL A   1      46.828  33.898  27.960  1.00  0.00     0.010 A 
ATOM     92  C   UNL A   1      47.664  34.697  30.512  1.00  0.00     0.020 A 
ATOM     93  C   UNL A   1      47.204  35.226  28.186  1.00  0.00     0.020 A 
ATOM     94  C   UNL A   1      47.588  35.623  29.469  1.00  0.00     0.054 A 
BRANCH  94  95
ATOM     95  S   UNL A   1      47.978  37.359  29.820  1.00  0.00     0.124 S 
ATOM     96  O   UNL A   1      46.665  37.990  29.701  1.00  0.00    -0.237 OA
ATOM     97  O   UNL A   1      48.526  37.295  31.172  1.00  0.00    -0.237 OA
ATOM     98  O   UNL A   1      48.936  37.713  28.777  1.00  0.00    -0.744 OA
ENDBRANCH  94  95
ENDBRANCH  66  89
BRANCH  78  99
ATOM     99  C   UNL A   1      49.575  26.977  26.528  1.00  0.00    -0.014 A 
ATOM    100  C   UNL A   1      49.977  27.287  25.214  1.00  0.00     0.010 A 
ATOM    101  C   UNL A   1      50.402  26.164  27.323  1.00  0.00     0.010 A 
ATOM    102  C   UNL A   1      51.154  26.750  24.687  1.00  0.00     0.020 A 
ATOM    103  C   UNL A   1      51.599  25.655  26.811  1.00  0.00     0.020 A 
ATOM    104  C   UNL A   1      51.950  25.926  25.486  1.00  0.00     0.054 A 
BRANCH 104 105
ATOM    105  S   UNL A   1      53.443  25.192  24.763  1.00  0.00     0.124 S 
ATOM    106  O   UNL A   1      54.504  25.978  25.385  1.00  0.00    -0.237 OA
ATOM    107  O   UNL A   1      53.354  23.799  25.193  1.00  0.00    -0.237 OA
ATOM    108  O   UNL A   1      53.269  25.406  23.328  1.00  0.00    -0.744 OA
ENDBRANCH 104 105
ENDBRANCH  78  99
ENDBRANCH  52  53
ENDBRANCH  44  47
ENDBRANCH  42  43
ENDBRANCH  41  42
ENDBRANCH  40  41
ENDBRANCH   1  40
TORSDOF 22
ENDMDL
MODEL 3
REMARK VINA RESULT:     -11.8      0.893      7.529
REMARK SMILES COc1cc(C)cc2c1[C@@H](C)[C@@H](CC(=O)N[C@@H](Cc1c[nH]c3ccccc13)C(=O)NCCCCCCNC(=O)c1ccc(-c3c4nc(c(-c5ccc(S(=O)(=O)[O-])cc5)c5ccc([nH]5)c(-c5ccc(S(=O)(=O)[O-])cc5)c5nc(c(-c6ccc(S(=O)(=O)[O-])cc6)c6ccc3[nH]6)C=C5)C=C4)cc1)C(=O)O2
REMARK SMILES IDX 33 1 32 2 31 3 30 4 28 5 29 6 17 8 16 9 14 10 15 11 13 13
REMARK SMILES IDX 12 14 3 15 4 16 9 17 5 18 8 19 10 20 6 21 7 22 102 23 11 24
REMARK SMILES IDX 100 25 101 26 2 27 1 28 18 29 19 30 20 31 27 32 21 33 22 34
REMARK SMILES IDX 26 35 23 37 25 38 24 39 34 40 35 41 36 42 37 43 38 44 39 46
REMARK SMILES IDX 40 47 41 48 99 49 42 50 98 51 43 52 44 53 45 54 92 55 46 56
REMARK SMILES IDX 97 57 91 58 93 59 47 60 96 61 90 62 89 63 48 65 78 66 59 67
REMARK SMILES IDX 77 68 60 69 63 70 76 71 94 72 61 73 62 74 75 76 95 77 64 78
REMARK SMILES IDX 49 79 50 80 58 81 51 82 57 83 52 84 53 85 54 86 55 87 56 88
REMARK SMILES IDX 79 89 80 90 88 91 81 92 87 93 82 94 83 95 84 96 85 97 86 98
REMARK SMILES IDX 65 99 66 100 74 101 67 102 73 103 68 104 69 105 70 106
REMARK SMILES IDX 71 107 72 108
REMARK H PARENT 30 7 16 12 21 36 37 45 93 64 63 75
REMARK Flexibility Score: inf
ROOT
ATOM      1  C   UNL A   1      34.632  31.449  28.523  1.00  0.00     0.002 C 
ENDROOT
BRANCH   1   2
ATOM      2  C   UNL A   1      33.966  30.840  27.286  1.00  0.00     0.021 C 
BRANCH   2   3
ATOM      3  C   UNL A   1      34.209  29.339  27.194  1.00  0.00     0.116 C 
BRANCH   3   4
ATOM      4  N   UNL A   1      34.444  28.968  25.826  1.00  0.00    -0.354 N 
ATOM      5  C   UNL A   1      33.706  28.150  25.041  1.00  0.00     0.242 C 
ATOM      6  O   UNL A   1      34.264  27.708  24.027  1.00  0.00    -0.273 OA
ATOM      7  H   UNL A   1      35.244  29.360  25.405  1.00  0.00     0.163 HD
BRANCH   5   8
ATOM      8  C   UNL A   1      32.235  27.778  25.336  1.00  0.00     0.175 C 
BRANCH   8   9
ATOM      9  N   UNL A   1      31.994  26.855  26.427  1.00  0.00    -0.344 N 
ATOM     10  C   UNL A   1      31.930  25.493  26.307  1.00  0.00     0.221 C 
ATOM     11  O   UNL A   1      31.200  24.853  27.061  1.00  0.00    -0.275 OA
ATOM     12  H   UNL A   1      31.868  27.236  27.326  1.00  0.00     0.164 HD
BRANCH  10  13
ATOM     13  C   UNL A   1      32.888  24.796  25.348  1.00  0.00     0.116 C 
BRANCH  13  14
ATOM     14  C   UNL A   1      32.334  24.188  24.033  1.00  0.00     0.116 C 
ATOM     15  C   UNL A   1      34.040  20.895  24.810  1.00  0.00     0.126 A 
ATOM     16  C   UNL A   1      35.392  20.574  25.032  1.00  0.00     0.050 A 
ATOM     17  C   UNL A   1      33.688  22.106  24.214  1.00  0.00     0.041 A 
ATOM     18  C   UNL A   1      36.418  21.457  24.667  1.00  0.00    -0.044 A 
ATOM     19  C   UNL A   1      34.742  22.902  23.732  1.00  0.00     0.138 A 
ATOM     20  C   UNL A   1      32.265  22.636  24.054  1.00  0.00     0.038 C 
ATOM     21  C   UNL A   1      37.853  21.124  24.946  1.00  0.00     0.044 C 
ATOM     22  C   UNL A   1      36.084  22.617  23.974  1.00  0.00     0.051 A 
ATOM     23  O   UNL A   1      34.501  24.028  22.929  1.00  0.00    -0.426 OA
ATOM     24  C   UNL A   1      31.224  22.180  25.081  1.00  0.00     0.014 C 
ATOM     25  C   UNL A   1      33.185  24.422  22.803  1.00  0.00     0.315 C 
ATOM     26  O   UNL A   1      32.763  24.914  21.764  1.00  0.00    -0.251 OA
BRANCH  15  27
ATOM     27  O   UNL A   1      33.051  19.982  25.050  1.00  0.00    -0.496 OA
ATOM     28  C   UNL A   1      32.867  19.052  23.991  1.00  0.00     0.278 C 
ENDBRANCH  15  27
ENDBRANCH  13  14
ENDBRANCH  10  13
ENDBRANCH   8   9
BRANCH   8  29
ATOM     29  C   UNL A   1      31.055  28.702  25.073  1.00  0.00     0.072 C 
BRANCH  29  30
ATOM     30  C   UNL A   1      30.561  29.261  23.767  1.00  0.00    -0.020 A 
ATOM     31  C   UNL A   1      30.912  28.577  22.609  1.00  0.00     0.087 A 
ATOM     32  C   UNL A   1      29.641  30.295  23.347  1.00  0.00     0.003 A 
ATOM     33  N   UNL A   1      30.047  28.926  21.624  1.00  0.00    -0.361 N 
ATOM     34  C   UNL A   1      29.374  30.059  21.989  1.00  0.00     0.046 A 
ATOM     35  C   UNL A   1      28.956  31.386  23.931  1.00  0.00     0.010 A 
ATOM     36  H   UNL A   1      29.923  28.439  20.778  1.00  0.00     0.166 HD
ATOM     37  C   UNL A   1      28.522  30.846  21.205  1.00  0.00     0.026 A 
ATOM     38  C   UNL A   1      28.128  32.212  23.148  1.00  0.00     0.001 A 
ATOM     39  C   UNL A   1      27.924  31.950  21.800  1.00  0.00     0.002 A 
ENDBRANCH  29  30
ENDBRANCH   8  29
ENDBRANCH   5   8
ENDBRANCH   3   4
ENDBRANCH   2   3
ENDBRANCH   1   2
BRANCH   1  40
ATOM     40  C   UNL A   1      35.177  32.865  28.301  1.00  0.00     0.002 C 
BRANCH  40  41
ATOM     41  C   UNL A   1      34.094  33.939  28.180  1.00  0.00     0.021 C 
BRANCH  41  42
ATOM     42  C   UNL A   1      34.441  35.227  28.913  1.00  0.00     0.116 C 
BRANCH  42  43
ATOM     43  N   UNL A   1      33.411  35.578  29.880  1.00  0.00    -0.352 N 
ATOM     44  C   UNL A   1      33.279  35.173  31.187  1.00  0.00     0.251 C 
ATOM     45  H   UNL A   1      32.712  36.189  29.552  1.00  0.00     0.163 HD
ATOM     46  O   UNL A   1      32.232  35.338  31.788  1.00  0.00    -0.269 OA
BRANCH  44  47
ATOM     47  C   UNL A   1      34.434  34.519  31.834  1.00  0.00     0.039 A 
ATOM     48  C   UNL A   1      35.522  35.289  32.250  1.00  0.00     0.014 A 
ATOM     49  C   UNL A   1      34.449  33.131  31.973  1.00  0.00     0.014 A 
ATOM     50  C   UNL A   1      36.693  34.660  32.643  1.00  0.00     0.010 A 
ATOM     51  C   UNL A   1      35.596  32.506  32.466  1.00  0.00     0.010 A 
ATOM     52  C   UNL A   1      36.743  33.262  32.761  1.00  0.00    -0.014 A 
BRANCH  52  53
ATOM     53  C   UNL A   1      38.006  32.615  33.193  1.00  0.00     0.031 A 
ATOM     54  C   UNL A   1      38.803  31.771  32.234  1.00  0.00     0.074 A 
ATOM     55  C   UNL A   1      38.462  32.844  34.440  1.00  0.00     0.049 A 
ATOM     56  N   UNL A   1      39.929  31.139  32.443  1.00  0.00    -0.248 NA
ATOM     57  C   UNL A   1      38.274  31.612  30.869  1.00  0.00     0.031 C 
ATOM     58  C   UNL A   1      37.790  33.680  35.438  1.00  0.00     0.029 A 
ATOM     59  N   UNL A   1      39.606  32.430  35.074  1.00  0.00    -0.354 N 
ATOM     60  C   UNL A   1      40.236  30.501  31.246  1.00  0.00     0.074 A 
ATOM     61  C   UNL A   1      39.160  30.788  30.325  1.00  0.00     0.031 C 
ATOM     62  C   UNL A   1      38.565  33.776  36.527  1.00  0.00     0.029 A 
ATOM     63  C   UNL A   1      39.746  32.938  36.344  1.00  0.00     0.049 A 
ATOM     64  H   UNL A   1      40.265  31.828  34.659  1.00  0.00     0.167 HD
ATOM     65  C   UNL A   1      41.329  29.762  30.943  1.00  0.00     0.031 A 
ATOM     66  C   UNL A   1      40.707  32.745  37.270  1.00  0.00     0.031 A 
ATOM     67  C   UNL A   1      42.402  29.500  31.868  1.00  0.00     0.049 A 
ATOM     68  C   UNL A   1      41.869  31.857  36.931  1.00  0.00     0.074 A 
ATOM     69  C   UNL A   1      43.555  28.766  31.651  1.00  0.00     0.029 A 
ATOM     70  N   UNL A   1      42.465  29.966  33.173  1.00  0.00    -0.354 N 
ATOM     71  N   UNL A   1      42.140  31.261  35.795  1.00  0.00    -0.248 NA
ATOM     72  C   UNL A   1      42.853  31.612  37.993  1.00  0.00     0.031 C 
ATOM     73  C   UNL A   1      44.277  28.726  32.844  1.00  0.00     0.029 A 
ATOM     74  C   UNL A   1      43.621  29.508  33.782  1.00  0.00     0.049 A 
ATOM     75  H   UNL A   1      41.787  30.537  33.602  1.00  0.00     0.167 HD
ATOM     76  C   UNL A   1      43.337  30.584  35.999  1.00  0.00     0.074 A 
ATOM     77  C   UNL A   1      43.749  30.864  37.360  1.00  0.00     0.031 C 
ATOM     78  C   UNL A   1      44.026  29.798  35.137  1.00  0.00     0.031 A 
BRANCH  65  79
ATOM     79  C   UNL A   1      41.447  29.182  29.555  1.00  0.00    -0.014 A 
ATOM     80  C   UNL A   1      40.866  27.932  29.266  1.00  0.00     0.010 A 
ATOM     81  C   UNL A   1      42.252  29.799  28.582  1.00  0.00     0.010 A 
ATOM     82  C   UNL A   1      41.126  27.288  28.053  1.00  0.00     0.020 A 
ATOM     83  C   UNL A   1      42.488  29.174  27.352  1.00  0.00     0.020 A 
ATOM     84  C   UNL A   1      41.947  27.909  27.108  1.00  0.00     0.054 A 
BRANCH  84  85
ATOM     85  S   UNL A   1      42.320  27.034  25.564  1.00  0.00     0.124 S 
ATOM     86  O   UNL A   1      43.586  26.380  25.877  1.00  0.00    -0.237 OA
ATOM     87  O   UNL A   1      41.168  26.148  25.416  1.00  0.00    -0.237 OA
ATOM     88  O   UNL A   1      42.399  28.108  24.574  1.00  0.00    -0.744 OA
ENDBRANCH  84  85
ENDBRANCH  65  79
BRANCH  66  89
ATOM     89  C   UNL A   1      40.600  33.436  38.586  1.00  0.00    -0.014 A 
ATOM     90  C   UNL A   1      39.691  32.982  39.562  1.00  0.00     0.010 A 
ATOM     91  C   UNL A   1      41.341  34.604  38.838  1.00  0.00     0.010 A 
ATOM     92  C   UNL A   1      39.474  33.718  40.729  1.00  0.00     0.020 A 
ATOM     93  C   UNL A   1      41.155  35.322  40.023  1.00  0.00     0.020 A 
ATOM     94  C   UNL A   1      40.199  34.892  40.946  1.00  0.00     0.054 A 
BRANCH  94  95
ATOM     95  S   UNL A   1      39.858  35.860  42.441  1.00  0.00     0.124 S 
ATOM     96  O   UNL A   1      39.220  34.866  43.301  1.00  0.00    -0.237 OA
ATOM     97  O   UNL A   1      41.191  36.288  42.854  1.00  0.00    -0.237 OA
ATOM     98  O   UNL A   1      38.983  36.927  41.965  1.00  0.00    -0.744 OA
ENDBRANCH  94  95
ENDBRANCH  66  89
BRANCH  78  99
ATOM     99  C   UNL A   1      45.311  29.172  35.614  1.00  0.00    -0.014 A 
ATOM    100  C   UNL A   1      45.276  27.933  36.283  1.00  0.00     0.010 A 
ATOM    101  C   UNL A   1      46.527  29.873  35.535  1.00  0.00     0.010 A 
ATOM    102  C   UNL A   1      46.419  27.433  36.910  1.00  0.00     0.020 A 
ATOM    103  C   UNL A   1      47.682  29.358  36.129  1.00  0.00     0.020 A 
ATOM    104  C   UNL A   1      47.612  28.156  36.839  1.00  0.00     0.054 A 
BRANCH 104 105
ATOM    105  S   UNL A   1      49.070  27.518  37.710  1.00  0.00     0.124 S 
ATOM    106  O   UNL A   1      48.482  26.531  38.611  1.00  0.00    -0.237 OA
ATOM    107  O   UNL A   1      49.881  26.977  36.622  1.00  0.00    -0.237 OA
ATOM    108  O   UNL A   1      49.626  28.703  38.361  1.00  0.00    -0.744 OA
ENDBRANCH 104 105
ENDBRANCH  78  99
ENDBRANCH  52  53
ENDBRANCH  44  47
ENDBRANCH  42  43
ENDBRANCH  41  42
ENDBRANCH  40  41
ENDBRANCH   1  40
TORSDOF 22
ENDMDL
