MODEL 1
REMARK VINA RESULT:     -11.2      0.000      0.000
REMARK SMILES O=C(NCCCCCCNC(=O)[C@@H](Cc1ccccc1)N1C(=O)/C(=C/c2ccncc2)SC1=S)c1ccc(-c2c3nc(c(-c4ccc(S(=O)(=O)[O-])cc4)c4ccc([nH]4)c(-c4ccc(S(=O)(=O)[O-])cc4)c4nc(c(-c5ccc(S(=O)(=O)[O-])cc5)c5ccc2[nH]5)C=C4)C=C3)cc1
REMARK SMILES IDX 6 1 5 2 4 3 3 4 1 5 2 6 35 8 36 9 94 10 37 11 93 12 38 13
REMARK SMILES IDX 39 14 40 15 87 16 41 17 92 18 86 19 88 20 42 21 91 22 85 23
REMARK SMILES IDX 84 24 43 26 73 27 54 28 72 29 55 30 58 31 71 32 89 33 56 34
REMARK SMILES IDX 57 35 70 37 90 38 59 39 44 40 45 41 53 42 46 43 52 44 47 45
REMARK SMILES IDX 48 46 49 47 50 48 51 49 74 50 75 51 83 52 76 53 82 54 77 55
REMARK SMILES IDX 78 56 79 57 80 58 81 59 60 60 61 61 69 62 62 63 68 64 63 65
REMARK SMILES IDX 64 66 65 67 66 68 67 69 7 70 8 71 9 72 10 73 11 74 12 76
REMARK SMILES IDX 13 77 14 78 15 79 16 80 20 81 17 82 19 83 18 84 21 85 22 86
REMARK SMILES IDX 33 87 23 88 24 89 32 90 34 91 25 92 26 93 27 94 31 95 28 96
REMARK SMILES IDX 30 97 29 98
REMARK H PARENT 3 7 88 25 58 36 10 75
REMARK Flexibility Score: inf
ROOT
ATOM      1  C   UNL A   1      34.725  30.992  27.426  1.00  0.00     0.002 C 
ENDROOT
BRANCH   1   2
ATOM      2  C   UNL A   1      33.566  31.872  27.897  1.00  0.00     0.021 C 
BRANCH   2   3
ATOM      3  C   UNL A   1      33.540  33.297  27.357  1.00  0.00     0.116 C 
BRANCH   3   4
ATOM      4  N   UNL A   1      32.991  34.244  28.309  1.00  0.00    -0.352 N 
ATOM      5  O   UNL A   1      32.643  35.238  30.292  1.00  0.00    -0.269 OA
ATOM      6  C   UNL A   1      33.353  34.506  29.606  1.00  0.00     0.251 C 
ATOM      7  H   UNL A   1      32.239  34.783  27.970  1.00  0.00     0.163 HD
BRANCH   6   8
ATOM      8  C   UNL A   1      34.578  33.912  30.188  1.00  0.00     0.039 A 
ATOM      9  C   UNL A   1      35.846  34.407  29.874  1.00  0.00     0.014 A 
ATOM     10  C   UNL A   1      34.449  32.872  31.116  1.00  0.00     0.014 A 
ATOM     11  C   UNL A   1      36.981  33.791  30.393  1.00  0.00     0.010 A 
ATOM     12  C   UNL A   1      35.588  32.306  31.700  1.00  0.00     0.010 A 
ATOM     13  C   UNL A   1      36.865  32.751  31.331  1.00  0.00    -0.014 A 
BRANCH  13  14
ATOM     14  C   UNL A   1      38.094  32.221  31.977  1.00  0.00     0.031 A 
ATOM     15  C   UNL A   1      38.529  32.685  33.339  1.00  0.00     0.074 A 
ATOM     16  C   UNL A   1      38.802  31.276  31.325  1.00  0.00     0.049 A 
ATOM     17  N   UNL A   1      39.543  32.274  34.058  1.00  0.00    -0.248 NA
ATOM     18  C   UNL A   1      37.734  33.746  33.977  1.00  0.00     0.031 C 
ATOM     19  C   UNL A   1      38.490  30.765  29.986  1.00  0.00     0.029 A 
ATOM     20  N   UNL A   1      39.906  30.558  31.704  1.00  0.00    -0.354 N 
ATOM     21  C   UNL A   1      39.515  33.028  35.226  1.00  0.00     0.074 A 
ATOM     22  C   UNL A   1      38.398  33.940  35.109  1.00  0.00     0.031 C 
ATOM     23  C   UNL A   1      39.347  29.780  29.679  1.00  0.00     0.029 A 
ATOM     24  C   UNL A   1      40.299  29.626  30.771  1.00  0.00     0.049 A 
ATOM     25  H   UNL A   1      40.373  30.696  32.559  1.00  0.00     0.167 HD
ATOM     26  C   UNL A   1      40.343  32.958  36.298  1.00  0.00     0.031 A 
ATOM     27  C   UNL A   1      41.318  28.747  30.787  1.00  0.00     0.031 A 
ATOM     28  C   UNL A   1      41.456  32.050  36.407  1.00  0.00     0.049 A 
ATOM     29  C   UNL A   1      42.220  28.698  31.986  1.00  0.00     0.074 A 
ATOM     30  C   UNL A   1      42.341  31.896  37.461  1.00  0.00     0.029 A 
ATOM     31  N   UNL A   1      41.838  31.141  35.433  1.00  0.00    -0.354 N 
ATOM     32  N   UNL A   1      42.156  29.402  33.090  1.00  0.00    -0.248 NA
ATOM     33  C   UNL A   1      43.327  27.735  31.941  1.00  0.00     0.031 C 
ATOM     34  C   UNL A   1      43.282  30.922  37.107  1.00  0.00     0.029 A 
ATOM     35  C   UNL A   1      42.954  30.435  35.853  1.00  0.00     0.049 A 
ATOM     36  H   UNL A   1      41.383  31.015  34.568  1.00  0.00     0.167 HD
ATOM     37  C   UNL A   1      43.217  28.966  33.874  1.00  0.00     0.074 A 
ATOM     38  C   UNL A   1      43.882  27.913  33.131  1.00  0.00     0.031 C 
ATOM     39  C   UNL A   1      43.611  29.403  35.094  1.00  0.00     0.031 A 
BRANCH  26  40
ATOM     40  C   UNL A   1      40.086  33.900  37.445  1.00  0.00    -0.014 A 
ATOM     41  C   UNL A   1      40.605  35.207  37.437  1.00  0.00     0.010 A 
ATOM     42  C   UNL A   1      39.252  33.501  38.505  1.00  0.00     0.010 A 
ATOM     43  C   UNL A   1      40.310  36.092  38.479  1.00  0.00     0.020 A 
ATOM     44  C   UNL A   1      38.938  34.390  39.538  1.00  0.00     0.020 A 
ATOM     45  C   UNL A   1      39.478  35.678  39.523  1.00  0.00     0.054 A 
BRANCH  45  46
ATOM     46  S   UNL A   1      39.073  36.861  40.837  1.00  0.00     0.124 S 
ATOM     47  O   UNL A   1      38.284  37.856  40.114  1.00  0.00    -0.237 OA
ATOM     48  O   UNL A   1      38.329  36.041  41.791  1.00  0.00    -0.237 OA
ATOM     49  O   UNL A   1      40.378  37.322  41.304  1.00  0.00    -0.744 OA
ENDBRANCH  45  46
ENDBRANCH  26  40
BRANCH  27  50
ATOM     50  C   UNL A   1      41.548  27.857  29.617  1.00  0.00    -0.014 A 
ATOM     51  C   UNL A   1      40.802  26.677  29.455  1.00  0.00     0.010 A 
ATOM     52  C   UNL A   1      42.512  28.197  28.652  1.00  0.00     0.010 A 
ATOM     53  C   UNL A   1      41.033  25.841  28.358  1.00  0.00     0.020 A 
ATOM     54  C   UNL A   1      42.726  27.380  27.541  1.00  0.00     0.020 A 
ATOM     55  C   UNL A   1      41.996  26.198  27.409  1.00  0.00     0.054 A 
BRANCH  55  56
ATOM     56  S   UNL A   1      42.256  25.126  25.968  1.00  0.00     0.124 S 
ATOM     57  O   UNL A   1      41.957  26.030  24.862  1.00  0.00    -0.237 OA
ATOM     58  O   UNL A   1      43.657  24.736  26.108  1.00  0.00    -0.237 OA
ATOM     59  O   UNL A   1      41.295  24.045  26.174  1.00  0.00    -0.744 OA
ENDBRANCH  55  56
ENDBRANCH  27  50
BRANCH  39  60
ATOM     60  C   UNL A   1      44.814  28.732  35.697  1.00  0.00    -0.014 A 
ATOM     61  C   UNL A   1      44.676  27.585  36.498  1.00  0.00     0.010 A 
ATOM     62  C   UNL A   1      46.098  29.251  35.453  1.00  0.00     0.010 A 
ATOM     63  C   UNL A   1      45.798  26.994  37.083  1.00  0.00     0.020 A 
ATOM     64  C   UNL A   1      47.225  28.648  36.016  1.00  0.00     0.020 A 
ATOM     65  C   UNL A   1      47.065  27.535  36.845  1.00  0.00     0.054 A 
BRANCH  65  66
ATOM     66  S   UNL A   1      48.510  26.747  37.606  1.00  0.00     0.124 S 
ATOM     67  O   UNL A   1      49.193  27.887  38.212  1.00  0.00    -0.237 OA
ATOM     68  O   UNL A   1      47.908  25.803  38.545  1.00  0.00    -0.237 OA
ATOM     69  O   UNL A   1      49.203  26.133  36.476  1.00  0.00    -0.744 OA
ENDBRANCH  65  66
ENDBRANCH  39  60
ENDBRANCH  13  14
ENDBRANCH   6   8
ENDBRANCH   3   4
ENDBRANCH   2   3
ENDBRANCH   1   2
BRANCH   1  70
ATOM     70  C   UNL A   1      34.658  29.498  27.774  1.00  0.00     0.002 C 
BRANCH  70  71
ATOM     71  C   UNL A   1      33.894  28.590  26.808  1.00  0.00     0.021 C 
BRANCH  71  72
ATOM     72  C   UNL A   1      33.070  29.314  25.754  1.00  0.00     0.116 C 
BRANCH  72  73
ATOM     73  N   UNL A   1      33.619  29.279  24.428  1.00  0.00    -0.354 N 
ATOM     74  C   UNL A   1      33.067  28.747  23.307  1.00  0.00     0.243 C 
ATOM     75  H   UNL A   1      34.506  29.694  24.317  1.00  0.00     0.163 HD
ATOM     76  O   UNL A   1      33.473  29.230  22.240  1.00  0.00    -0.273 OA
BRANCH  74  77
ATOM     77  C   UNL A   1      31.980  27.629  23.289  1.00  0.00     0.185 C 
BRANCH  77  78
ATOM     78  C   UNL A   1      30.808  27.761  22.274  1.00  0.00     0.071 C 
BRANCH  78  79
ATOM     79  C   UNL A   1      29.720  28.789  22.435  1.00  0.00    -0.045 A 
ATOM     80  C   UNL A   1      29.912  30.104  21.983  1.00  0.00     0.004 A 
ATOM     81  C   UNL A   1      28.514  28.472  23.071  1.00  0.00     0.004 A 
ATOM     82  C   UNL A   1      28.884  31.046  22.072  1.00  0.00     0.000 A 
ATOM     83  C   UNL A   1      27.479  29.406  23.138  1.00  0.00     0.000 A 
ATOM     84  C   UNL A   1      27.658  30.688  22.625  1.00  0.00     0.000 A 
ENDBRANCH  78  79
ENDBRANCH  77  78
BRANCH  77  85
ATOM     85  N   UNL A   1      32.320  26.269  23.802  1.00  0.00    -0.280 N 
ATOM     86  C   UNL A   1      33.234  25.502  23.067  1.00  0.00     0.266 C 
ATOM     87  C   UNL A   1      31.842  25.611  24.917  1.00  0.00     0.149 C 
ATOM     88  O   UNL A   1      33.763  25.786  22.002  1.00  0.00    -0.268 OA
ATOM     89  C   UNL A   1      33.459  24.200  23.750  1.00  0.00     0.081 C 
ATOM     90  S   UNL A   1      32.988  24.368  25.386  1.00  0.00    -0.054 SA
ATOM     91  S   UNL A   1      30.415  25.686  25.753  1.00  0.00    -0.052 S 
ATOM     92  C   UNL A   1      33.769  23.051  23.133  1.00  0.00     0.029 C 
BRANCH  92  93
ATOM     93  C   UNL A   1      33.669  21.768  23.842  1.00  0.00    -0.021 A 
ATOM     94  C   UNL A   1      34.787  21.267  24.518  1.00  0.00     0.028 A 
ATOM     95  C   UNL A   1      32.537  20.968  23.716  1.00  0.00     0.028 A 
ATOM     96  C   UNL A   1      34.728  19.980  25.026  1.00  0.00     0.111 A 
ATOM     97  C   UNL A   1      32.575  19.698  24.269  1.00  0.00     0.111 A 
ATOM     98  N   UNL A   1      33.641  19.191  24.926  1.00  0.00    -0.265 NA
ENDBRANCH  92  93
ENDBRANCH  77  85
ENDBRANCH  74  77
ENDBRANCH  72  73
ENDBRANCH  71  72
ENDBRANCH  70  71
ENDBRANCH   1  70
TORSDOF 20
ENDMDL
MODEL 2
REMARK VINA RESULT:     -11.2      2.239      9.314
REMARK SMILES O=C(NCCCCCCNC(=O)[C@@H](Cc1ccccc1)N1C(=O)/C(=C/c2ccncc2)SC1=S)c1ccc(-c2c3nc(c(-c4ccc(S(=O)(=O)[O-])cc4)c4ccc([nH]4)c(-c4ccc(S(=O)(=O)[O-])cc4)c4nc(c(-c5ccc(S(=O)(=O)[O-])cc5)c5ccc2[nH]5)C=C4)C=C3)cc1
REMARK SMILES IDX 6 1 5 2 4 3 3 4 1 5 2 6 35 8 36 9 94 10 37 11 93 12 38 13
REMARK SMILES IDX 39 14 40 15 87 16 41 17 92 18 86 19 88 20 42 21 91 22 85 23
REMARK SMILES IDX 84 24 43 26 73 27 54 28 72 29 55 30 58 31 71 32 89 33 56 34
REMARK SMILES IDX 57 35 70 37 90 38 59 39 44 40 45 41 53 42 46 43 52 44 47 45
REMARK SMILES IDX 48 46 49 47 50 48 51 49 74 50 75 51 83 52 76 53 82 54 77 55
REMARK SMILES IDX 78 56 79 57 80 58 81 59 60 60 61 61 69 62 62 63 68 64 63 65
REMARK SMILES IDX 64 66 65 67 66 68 67 69 7 70 8 71 9 72 10 73 11 74 12 76
REMARK SMILES IDX 13 77 14 78 15 79 16 80 20 81 17 82 19 83 18 84 21 85 22 86
REMARK SMILES IDX 33 87 23 88 24 89 32 90 34 91 25 92 26 93 27 94 31 95 28 96
REMARK SMILES IDX 30 97 29 98
REMARK H PARENT 3 7 88 25 58 36 10 75
REMARK Flexibility Score: inf
ROOT
ATOM      1  C   UNL A   1      38.904  21.872  26.107  1.00  0.00     0.002 C 
ENDROOT
BRANCH   1   2
ATOM      2  C   UNL A   1      40.170  22.573  26.605  1.00  0.00     0.021 C 
BRANCH   2   3
ATOM      3  C   UNL A   1      40.239  24.078  26.382  1.00  0.00     0.116 C 
BRANCH   3   4
ATOM      4  N   UNL A   1      41.461  24.489  25.716  1.00  0.00    -0.352 N 
ATOM      5  O   UNL A   1      43.190  25.813  25.170  1.00  0.00    -0.269 OA
ATOM      6  C   UNL A   1      42.290  25.553  25.966  1.00  0.00     0.251 C 
ATOM      7  H   UNL A   1      41.738  23.913  24.967  1.00  0.00     0.163 HD
BRANCH   6   8
ATOM      8  C   UNL A   1      42.106  26.393  27.172  1.00  0.00     0.039 A 
ATOM      9  C   UNL A   1      42.585  27.704  27.224  1.00  0.00     0.014 A 
ATOM     10  C   UNL A   1      41.385  25.873  28.253  1.00  0.00     0.014 A 
ATOM     11  C   UNL A   1      42.445  28.449  28.391  1.00  0.00     0.010 A 
ATOM     12  C   UNL A   1      41.175  26.653  29.396  1.00  0.00     0.010 A 
ATOM     13  C   UNL A   1      41.718  27.942  29.481  1.00  0.00    -0.014 A 
BRANCH  13  14
ATOM     14  C   UNL A   1      41.460  28.823  30.650  1.00  0.00     0.031 A 
ATOM     15  C   UNL A   1      42.359  28.817  31.854  1.00  0.00     0.074 A 
ATOM     16  C   UNL A   1      40.410  29.668  30.593  1.00  0.00     0.049 A 
ATOM     17  N   UNL A   1      42.300  29.569  32.924  1.00  0.00    -0.248 NA
ATOM     18  C   UNL A   1      43.463  27.844  31.867  1.00  0.00     0.031 C 
ATOM     19  C   UNL A   1      39.452  29.746  29.485  1.00  0.00     0.029 A 
ATOM     20  N   UNL A   1      39.986  30.637  31.465  1.00  0.00    -0.354 N 
ATOM     21  C   UNL A   1      43.347  29.157  33.741  1.00  0.00     0.074 A 
ATOM     22  C   UNL A   1      44.012  28.072  33.054  1.00  0.00     0.031 C 
ATOM     23  C   UNL A   1      38.588  30.745  29.719  1.00  0.00     0.029 A 
ATOM     24  C   UNL A   1      38.895  31.342  31.013  1.00  0.00     0.049 A 
ATOM     25  H   UNL A   1      40.420  30.811  32.331  1.00  0.00     0.167 HD
ATOM     26  C   UNL A   1      43.720  29.647  34.949  1.00  0.00     0.031 A 
ATOM     27  C   UNL A   1      38.209  32.352  31.577  1.00  0.00     0.031 A 
ATOM     28  C   UNL A   1      43.052  30.726  35.630  1.00  0.00     0.049 A 
ATOM     29  C   UNL A   1      38.644  32.869  32.918  1.00  0.00     0.074 A 
ATOM     30  C   UNL A   1      43.367  31.301  36.850  1.00  0.00     0.029 A 
ATOM     31  N   UNL A   1      41.936  31.397  35.153  1.00  0.00    -0.354 N 
ATOM     32  N   UNL A   1      39.655  32.481  33.658  1.00  0.00    -0.248 NA
ATOM     33  C   UNL A   1      37.849  33.959  33.496  1.00  0.00     0.031 C 
ATOM     34  C   UNL A   1      42.418  32.291  37.129  1.00  0.00     0.029 A 
ATOM     35  C   UNL A   1      41.540  32.366  36.060  1.00  0.00     0.049 A 
ATOM     36  H   UNL A   1      41.489  31.210  34.295  1.00  0.00     0.167 HD
ATOM     37  C   UNL A   1      39.617  33.282  34.792  1.00  0.00     0.074 A 
ATOM     38  C   UNL A   1      38.506  34.198  34.622  1.00  0.00     0.031 C 
ATOM     39  C   UNL A   1      40.423  33.257  35.881  1.00  0.00     0.031 A 
BRANCH  26  40
ATOM     40  C   UNL A   1      44.906  29.013  35.627  1.00  0.00    -0.014 A 
ATOM     41  C   UNL A   1      46.201  29.536  35.457  1.00  0.00     0.010 A 
ATOM     42  C   UNL A   1      44.715  27.930  36.505  1.00  0.00     0.010 A 
ATOM     43  C   UNL A   1      47.285  28.975  36.138  1.00  0.00     0.020 A 
ATOM     44  C   UNL A   1      45.795  27.380  37.204  1.00  0.00     0.020 A 
ATOM     45  C   UNL A   1      47.075  27.901  37.008  1.00  0.00     0.054 A 
BRANCH  45  46
ATOM     46  S   UNL A   1      48.493  27.223  37.916  1.00  0.00     0.124 S 
ATOM     47  O   UNL A   1      49.618  27.855  37.233  1.00  0.00    -0.237 OA
ATOM     48  O   UNL A   1      48.249  27.681  39.282  1.00  0.00    -0.237 OA
ATOM     49  O   UNL A   1      48.374  25.781  37.717  1.00  0.00    -0.744 OA
ENDBRANCH  45  46
ENDBRANCH  26  40
BRANCH  27  50
ATOM     50  C   UNL A   1      37.027  32.927  30.880  1.00  0.00    -0.014 A 
ATOM     51  C   UNL A   1      35.724  32.537  31.235  1.00  0.00     0.010 A 
ATOM     52  C   UNL A   1      37.205  33.880  29.861  1.00  0.00     0.010 A 
ATOM     53  C   UNL A   1      34.620  33.075  30.566  1.00  0.00     0.020 A 
ATOM     54  C   UNL A   1      36.105  34.439  29.210  1.00  0.00     0.020 A 
ATOM     55  C   UNL A   1      34.819  34.021  29.555  1.00  0.00     0.054 A 
BRANCH  55  56
ATOM     56  S   UNL A   1      33.376  34.743  28.725  1.00  0.00     0.124 S 
ATOM     57  O   UNL A   1      32.988  33.672  27.812  1.00  0.00    -0.237 OA
ATOM     58  O   UNL A   1      32.459  34.992  29.836  1.00  0.00    -0.237 OA
ATOM     59  O   UNL A   1      33.915  35.944  28.092  1.00  0.00    -0.744 OA
ENDBRANCH  55  56
ENDBRANCH  27  50
BRANCH  39  60
ATOM     60  C   UNL A   1      40.128  34.257  36.964  1.00  0.00    -0.014 A 
ATOM     61  C   UNL A   1      39.275  33.932  38.034  1.00  0.00     0.010 A 
ATOM     62  C   UNL A   1      40.717  35.533  36.916  1.00  0.00     0.010 A 
ATOM     63  C   UNL A   1      38.978  34.883  39.013  1.00  0.00     0.020 A 
ATOM     64  C   UNL A   1      40.441  36.478  37.906  1.00  0.00     0.020 A 
ATOM     65  C   UNL A   1      39.557  36.154  38.938  1.00  0.00     0.054 A 
BRANCH  65  66
ATOM     66  S   UNL A   1      39.167  37.371  40.224  1.00  0.00     0.124 S 
ATOM     67  O   UNL A   1      38.555  36.537  41.255  1.00  0.00    -0.237 OA
ATOM     68  O   UNL A   1      40.479  37.921  40.558  1.00  0.00    -0.237 OA
ATOM     69  O   UNL A   1      38.262  38.301  39.554  1.00  0.00    -0.744 OA
ENDBRANCH  65  66
ENDBRANCH  39  60
ENDBRANCH  13  14
ENDBRANCH   6   8
ENDBRANCH   3   4
ENDBRANCH   2   3
ENDBRANCH   1   2
BRANCH   1  70
ATOM     70  C   UNL A   1      37.945  22.693  25.233  1.00  0.00     0.002 C 
BRANCH  70  71
ATOM     71  C   UNL A   1      36.820  21.933  24.529  1.00  0.00     0.021 C 
BRANCH  71  72
ATOM     72  C   UNL A   1      36.144  20.856  25.365  1.00  0.00     0.116 C 
BRANCH  72  73
ATOM     73  N   UNL A   1      35.415  21.343  26.503  1.00  0.00    -0.354 N 
ATOM     74  C   UNL A   1      34.077  21.547  26.615  1.00  0.00     0.243 C 
ATOM     75  H   UNL A   1      35.952  21.554  27.301  1.00  0.00     0.163 HD
ATOM     76  O   UNL A   1      33.633  21.510  27.771  1.00  0.00    -0.273 OA
BRANCH  74  77
ATOM     77  C   UNL A   1      33.106  21.789  25.419  1.00  0.00     0.185 C 
BRANCH  77  78
ATOM     78  C   UNL A   1      32.092  20.665  25.057  1.00  0.00     0.071 C 
BRANCH  78  79
ATOM     79  C   UNL A   1      32.537  19.309  24.577  1.00  0.00    -0.045 A 
ATOM     80  C   UNL A   1      33.003  18.350  25.489  1.00  0.00     0.004 A 
ATOM     81  C   UNL A   1      32.535  18.988  23.215  1.00  0.00     0.004 A 
ATOM     82  C   UNL A   1      33.357  17.068  25.058  1.00  0.00     0.000 A 
ATOM     83  C   UNL A   1      32.866  17.701  22.787  1.00  0.00     0.000 A 
ATOM     84  C   UNL A   1      33.262  16.737  23.710  1.00  0.00     0.000 A 
ENDBRANCH  78  79
ENDBRANCH  77  78
BRANCH  77  85
ATOM     85  N   UNL A   1      32.785  23.188  25.007  1.00  0.00    -0.280 N 
ATOM     86  C   UNL A   1      31.940  23.936  25.838  1.00  0.00     0.266 C 
ATOM     87  C   UNL A   1      33.185  23.882  23.884  1.00  0.00     0.149 C 
ATOM     88  O   UNL A   1      31.371  23.566  26.855  1.00  0.00    -0.268 OA
ATOM     89  C   UNL A   1      31.764  25.302  25.274  1.00  0.00     0.081 C 
ATOM     90  S   UNL A   1      33.057  25.604  24.196  1.00  0.00    -0.054 SA
ATOM     91  S   UNL A   1      33.604  23.415  22.352  1.00  0.00    -0.052 S 
ATOM     92  C   UNL A   1      30.669  26.060  25.425  1.00  0.00     0.029 C 
BRANCH  92  93
ATOM     93  C   UNL A   1      30.460  27.250  24.588  1.00  0.00    -0.021 A 
ATOM     94  C   UNL A   1      31.133  28.437  24.899  1.00  0.00     0.028 A 
ATOM     95  C   UNL A   1      29.485  27.263  23.595  1.00  0.00     0.028 A 
ATOM     96  C   UNL A   1      30.789  29.589  24.212  1.00  0.00     0.111 A 
ATOM     97  C   UNL A   1      29.222  28.466  22.958  1.00  0.00     0.111 A 
ATOM     98  N   UNL A   1      29.857  29.624  23.240  1.00  0.00    -0.265 NA
ENDBRANCH  92  93
ENDBRANCH  77  85
ENDBRANCH  74  77
ENDBRANCH  72  73
ENDBRANCH  71  72
ENDBRANCH  70  71
ENDBRANCH   1  70
TORSDOF 20
ENDMDL
MODEL 3
REMARK VINA RESULT:     -11.1      5.463      7.539
REMARK SMILES O=C(NCCCCCCNC(=O)[C@@H](Cc1ccccc1)N1C(=O)/C(=C/c2ccncc2)SC1=S)c1ccc(-c2c3nc(c(-c4ccc(S(=O)(=O)[O-])cc4)c4ccc([nH]4)c(-c4ccc(S(=O)(=O)[O-])cc4)c4nc(c(-c5ccc(S(=O)(=O)[O-])cc5)c5ccc2[nH]5)C=C4)C=C3)cc1
REMARK SMILES IDX 6 1 5 2 4 3 3 4 1 5 2 6 35 8 36 9 94 10 37 11 93 12 38 13
REMARK SMILES IDX 39 14 40 15 87 16 41 17 92 18 86 19 88 20 42 21 91 22 85 23
REMARK SMILES IDX 84 24 43 26 73 27 54 28 72 29 55 30 58 31 71 32 89 33 56 34
REMARK SMILES IDX 57 35 70 37 90 38 59 39 44 40 45 41 53 42 46 43 52 44 47 45
REMARK SMILES IDX 48 46 49 47 50 48 51 49 74 50 75 51 83 52 76 53 82 54 77 55
REMARK SMILES IDX 78 56 79 57 80 58 81 59 60 60 61 61 69 62 62 63 68 64 63 65
REMARK SMILES IDX 64 66 65 67 66 68 67 69 7 70 8 71 9 72 10 73 11 74 12 76
REMARK SMILES IDX 13 77 14 78 15 79 16 80 20 81 17 82 19 83 18 84 21 85 22 86
REMARK SMILES IDX 33 87 23 88 24 89 32 90 34 91 25 92 26 93 27 94 31 95 28 96
REMARK SMILES IDX 30 97 29 98
REMARK H PARENT 3 7 88 25 58 36 10 75
REMARK Flexibility Score: inf
ROOT
ATOM      1  C   UNL A   1      34.232  31.555  27.683  1.00  0.00     0.002 C 
ENDROOT
BRANCH   1   2
ATOM      2  C   UNL A   1      34.627  32.493  28.825  1.00  0.00     0.021 C 
BRANCH   2   3
ATOM      3  C   UNL A   1      35.962  32.209  29.500  1.00  0.00     0.116 C 
BRANCH   3   4
ATOM      4  N   UNL A   1      35.810  31.542  30.780  1.00  0.00    -0.352 N 
ATOM      5  O   UNL A   1      36.179  30.025  32.393  1.00  0.00    -0.269 OA
ATOM      6  C   UNL A   1      36.583  30.574  31.370  1.00  0.00     0.251 C 
ATOM      7  H   UNL A   1      35.030  31.829  31.306  1.00  0.00     0.163 HD
BRANCH   6   8
ATOM      8  C   UNL A   1      37.885  30.179  30.786  1.00  0.00     0.039 A 
ATOM      9  C   UNL A   1      38.122  30.269  29.412  1.00  0.00     0.014 A 
ATOM     10  C   UNL A   1      38.912  29.767  31.642  1.00  0.00     0.014 A 
ATOM     11  C   UNL A   1      39.337  29.838  28.888  1.00  0.00     0.010 A 
ATOM     12  C   UNL A   1      40.161  29.411  31.121  1.00  0.00     0.010 A 
ATOM     13  C   UNL A   1      40.378  29.428  29.736  1.00  0.00    -0.014 A 
BRANCH  13  14
ATOM     14  C   UNL A   1      41.709  29.121  29.150  1.00  0.00     0.031 A 
ATOM     15  C   UNL A   1      42.807  30.147  29.111  1.00  0.00     0.074 A 
ATOM     16  C   UNL A   1      41.928  27.875  28.681  1.00  0.00     0.049 A 
ATOM     17  N   UNL A   1      44.039  30.011  28.687  1.00  0.00    -0.248 NA
ATOM     18  C   UNL A   1      42.489  31.496  29.603  1.00  0.00     0.031 C 
ATOM     19  C   UNL A   1      40.929  26.802  28.644  1.00  0.00     0.029 A 
ATOM     20  N   UNL A   1      43.059  27.291  28.174  1.00  0.00    -0.354 N 
ATOM     21  C   UNL A   1      44.639  31.254  28.851  1.00  0.00     0.074 A 
ATOM     22  C   UNL A   1      43.630  32.139  29.391  1.00  0.00     0.031 C 
ATOM     23  C   UNL A   1      41.506  25.678  28.194  1.00  0.00     0.029 A 
ATOM     24  C   UNL A   1      42.895  25.962  27.860  1.00  0.00     0.049 A 
ATOM     25  H   UNL A   1      43.906  27.775  28.046  1.00  0.00     0.167 HD
ATOM     26  C   UNL A   1      45.918  31.618  28.581  1.00  0.00     0.031 A 
ATOM     27  C   UNL A   1      43.764  25.068  27.352  1.00  0.00     0.031 A 
ATOM     28  C   UNL A   1      46.917  30.734  28.041  1.00  0.00     0.049 A 
ATOM     29  C   UNL A   1      45.170  25.503  27.060  1.00  0.00     0.074 A 
ATOM     30  C   UNL A   1      48.243  31.008  27.749  1.00  0.00     0.029 A 
ATOM     31  N   UNL A   1      46.707  29.403  27.712  1.00  0.00    -0.354 N 
ATOM     32  N   UNL A   1      45.722  26.678  27.250  1.00  0.00    -0.248 NA
ATOM     33  C   UNL A   1      46.069  24.493  26.488  1.00  0.00     0.031 C 
ATOM     34  C   UNL A   1      48.823  29.856  27.206  1.00  0.00     0.029 A 
ATOM     35  C   UNL A   1      47.871  28.849  27.205  1.00  0.00     0.049 A 
ATOM     36  H   UNL A   1      45.854  28.923  27.821  1.00  0.00     0.167 HD
ATOM     37  C   UNL A   1      47.036  26.547  26.820  1.00  0.00     0.074 A 
ATOM     38  C   UNL A   1      47.204  25.171  26.395  1.00  0.00     0.031 C 
ATOM     39  C   UNL A   1      48.015  27.483  26.772  1.00  0.00     0.031 A 
BRANCH  26  40
ATOM     40  C   UNL A   1      46.313  33.045  28.857  1.00  0.00    -0.014 A 
ATOM     41  C   UNL A   1      46.203  34.031  27.860  1.00  0.00     0.010 A 
ATOM     42  C   UNL A   1      46.725  33.420  30.149  1.00  0.00     0.010 A 
ATOM     43  C   UNL A   1      46.516  35.364  28.146  1.00  0.00     0.020 A 
ATOM     44  C   UNL A   1      47.020  34.756  30.443  1.00  0.00     0.020 A 
ATOM     45  C   UNL A   1      46.923  35.717  29.436  1.00  0.00     0.054 A 
BRANCH  45  46
ATOM     46  S   UNL A   1      47.277  37.461  29.791  1.00  0.00     0.124 S 
ATOM     47  O   UNL A   1      46.108  38.128  29.224  1.00  0.00    -0.237 OA
ATOM     48  O   UNL A   1      47.366  37.481  31.249  1.00  0.00    -0.237 OA
ATOM     49  O   UNL A   1      48.535  37.709  29.092  1.00  0.00    -0.744 OA
ENDBRANCH  45  46
ENDBRANCH  26  40
BRANCH  27  50
ATOM     50  C   UNL A   1      43.317  23.677  27.071  1.00  0.00    -0.014 A 
ATOM     51  C   UNL A   1      43.274  22.715  28.094  1.00  0.00     0.010 A 
ATOM     52  C   UNL A   1      42.920  23.314  25.771  1.00  0.00     0.010 A 
ATOM     53  C   UNL A   1      42.863  21.408  27.818  1.00  0.00     0.020 A 
ATOM     54  C   UNL A   1      42.483  22.018  25.496  1.00  0.00     0.020 A 
ATOM     55  C   UNL A   1      42.473  21.068  26.519  1.00  0.00     0.054 A 
BRANCH  55  56
ATOM     56  S   UNL A   1      41.901  19.378  26.183  1.00  0.00     0.124 S 
ATOM     57  O   UNL A   1      42.070  18.739  27.484  1.00  0.00    -0.237 OA
ATOM     58  O   UNL A   1      40.519  19.587  25.754  1.00  0.00    -0.237 OA
ATOM     59  O   UNL A   1      42.806  18.917  25.133  1.00  0.00    -0.744 OA
ENDBRANCH  55  56
ENDBRANCH  27  50
BRANCH  39  60
ATOM     60  C   UNL A   1      49.352  27.039  26.247  1.00  0.00    -0.014 A 
ATOM     61  C   UNL A   1      49.651  27.117  24.876  1.00  0.00     0.010 A 
ATOM     62  C   UNL A   1      50.321  26.544  27.137  1.00  0.00     0.010 A 
ATOM     63  C   UNL A   1      50.882  26.664  24.396  1.00  0.00     0.020 A 
ATOM     64  C   UNL A   1      51.563  26.113  26.663  1.00  0.00     0.020 A 
ATOM     65  C   UNL A   1      51.828  26.157  25.292  1.00  0.00     0.054 A 
BRANCH  65  66
ATOM     66  S   UNL A   1      53.424  25.584  24.651  1.00  0.00     0.124 S 
ATOM     67  O   UNL A   1      54.368  26.325  25.482  1.00  0.00    -0.237 OA
ATOM     68  O   UNL A   1      53.371  24.144  24.891  1.00  0.00    -0.237 OA
ATOM     69  O   UNL A   1      53.390  25.975  23.243  1.00  0.00    -0.744 OA
ENDBRANCH  65  66
ENDBRANCH  39  60
ENDBRANCH  13  14
ENDBRANCH   6   8
ENDBRANCH   3   4
ENDBRANCH   2   3
ENDBRANCH   1   2
BRANCH   1  70
ATOM     70  C   UNL A   1      34.929  30.188  27.625  1.00  0.00     0.002 C 
BRANCH  70  71
ATOM     71  C   UNL A   1      34.145  29.031  27.002  1.00  0.00     0.021 C 
BRANCH  71  72
ATOM     72  C   UNL A   1      33.162  29.428  25.911  1.00  0.00     0.116 C 
BRANCH  72  73
ATOM     73  N   UNL A   1      33.694  29.395  24.577  1.00  0.00    -0.354 N 
ATOM     74  C   UNL A   1      33.107  28.905  23.454  1.00  0.00     0.243 C 
ATOM     75  H   UNL A   1      34.596  29.775  24.462  1.00  0.00     0.163 HD
ATOM     76  O   UNL A   1      33.519  29.390  22.391  1.00  0.00    -0.273 OA
BRANCH  74  77
ATOM     77  C   UNL A   1      31.976  27.833  23.431  1.00  0.00     0.185 C 
BRANCH  77  78
ATOM     78  C   UNL A   1      30.747  28.082  22.508  1.00  0.00     0.071 C 
BRANCH  78  79
ATOM     79  C   UNL A   1      29.934  29.347  22.580  1.00  0.00    -0.045 A 
ATOM     80  C   UNL A   1      29.832  30.059  23.785  1.00  0.00     0.004 A 
ATOM     81  C   UNL A   1      29.232  29.820  21.465  1.00  0.00     0.004 A 
ATOM     82  C   UNL A   1      29.132  31.267  23.842  1.00  0.00     0.000 A 
ATOM     83  C   UNL A   1      28.554  31.039  21.516  1.00  0.00     0.000 A 
ATOM     84  C   UNL A   1      28.516  31.770  22.700  1.00  0.00     0.000 A 
ENDBRANCH  78  79
ENDBRANCH  77  78
BRANCH  77  85
ATOM     85  N   UNL A   1      32.290  26.427  23.823  1.00  0.00    -0.280 N 
ATOM     86  C   UNL A   1      33.230  25.728  23.054  1.00  0.00     0.266 C 
ATOM     87  C   UNL A   1      31.766  25.668  24.850  1.00  0.00     0.149 C 
ATOM     88  O   UNL A   1      33.801  26.110  22.043  1.00  0.00    -0.268 OA
ATOM     89  C   UNL A   1      33.423  24.364  23.617  1.00  0.00     0.081 C 
ATOM     90  S   UNL A   1      32.888  24.378  25.241  1.00  0.00    -0.054 SA
ATOM     91  S   UNL A   1      30.307  25.673  25.632  1.00  0.00    -0.052 S 
ATOM     92  C   UNL A   1      33.753  23.279  22.904  1.00  0.00     0.029 C 
BRANCH  92  93
ATOM     93  C   UNL A   1      33.621  21.934  23.481  1.00  0.00    -0.021 A 
ATOM     94  C   UNL A   1      32.491  21.164  23.181  1.00  0.00     0.028 A 
ATOM     95  C   UNL A   1      34.516  21.479  24.445  1.00  0.00     0.028 A 
ATOM     96  C   UNL A   1      32.299  19.979  23.871  1.00  0.00     0.111 A 
ATOM     97  C   UNL A   1      34.238  20.274  25.072  1.00  0.00     0.111 A 
ATOM     98  N   UNL A   1      33.156  19.513  24.801  1.00  0.00    -0.265 NA
ENDBRANCH  92  93
ENDBRANCH  77  85
ENDBRANCH  74  77
ENDBRANCH  72  73
ENDBRANCH  71  72
ENDBRANCH  70  71
ENDBRANCH   1  70
TORSDOF 20
ENDMDL
