MODEL 1
REMARK VINA RESULT:     -11.0      0.000      0.000
REMARK SMILES O=C(COc1cccc(NC(=O)c2ccc3c(c2)C(=O)N(c2ccccc2-c2ccccc2)C3=O)c1)NCCCCCCNC(=O)c1ccc(-c2c3nc(c(-c4ccc(S(=O)(=O)[O-])cc4)c4ccc([nH]4)c(-c4ccc(S(=O)(=O)[O-])cc4)c4nc(c(-c5ccc(S(=O)(=O)[O-])cc5)c5ccc2[nH]5)C=C4)C=C3)cc1
REMARK SMILES IDX 39 1 38 2 37 3 1 4 2 5 3 7 4 8 5 9 6 10 36 11 7 12 9 13 8 14
REMARK SMILES IDX 10 15 11 16 12 18 13 19 14 20 18 21 15 22 17 23 16 24 19 25
REMARK SMILES IDX 34 26 20 27 21 28 35 29 22 30 23 31 27 32 24 33 26 34 25 35
REMARK SMILES IDX 28 36 29 37 33 38 30 39 32 40 31 41 40 42 41 43 42 44 43 45
REMARK SMILES IDX 44 46 45 47 46 49 47 50 48 51 106 52 49 53 105 54 50 55
REMARK SMILES IDX 51 56 52 57 99 58 53 59 104 60 98 61 100 62 54 63 103 64
REMARK SMILES IDX 97 65 96 66 55 68 85 69 66 70 84 71 67 72 70 73 83 74 101 75
REMARK SMILES IDX 68 76 69 77 82 79 102 80 71 81 56 82 57 83 65 84 58 85 64 86
REMARK SMILES IDX 59 87 60 88 61 89 62 90 63 91 86 92 87 93 95 94 88 95 94 96
REMARK SMILES IDX 89 97 90 98 91 99 92 100 93 101 72 102 73 103 81 104 74 105
REMARK SMILES IDX 80 106 75 107 76 108 77 109 78 110 79 111
REMARK H PARENT 37 6 10 17 44 48 100 67 70 78
REMARK Flexibility Score: inf
ROOT
ATOM      1  C   UNL A   1      38.475  22.560  25.725  1.00  0.00     0.021 C 
ENDROOT
BRANCH   1   2
ATOM      2  C   UNL A   1      37.108  22.314  25.101  1.00  0.00     0.116 C 
BRANCH   2   3
ATOM      3  N   UNL A   1      36.393  23.543  24.843  1.00  0.00    -0.353 N 
ATOM      4  O   UNL A   1      35.078  23.482  26.730  1.00  0.00    -0.271 OA
ATOM      5  C   UNL A   1      35.480  24.070  25.731  1.00  0.00     0.257 C 
ATOM      6  H   UNL A   1      36.565  24.023  24.001  1.00  0.00     0.163 HD
BRANCH   5   7
ATOM      7  C   UNL A   1      35.014  25.486  25.388  1.00  0.00     0.329 C 
BRANCH   7   8
ATOM      8  O   UNL A   1      34.197  26.141  26.348  1.00  0.00    -0.484 OA
BRANCH   8   9
ATOM      9  C   UNL A   1      33.667  27.354  25.996  1.00  0.00     0.122 A 
ATOM     10  C   UNL A   1      34.184  28.435  26.704  1.00  0.00     0.046 A 
ATOM     11  C   UNL A   1      32.580  27.546  25.129  1.00  0.00     0.072 A 
ATOM     12  C   UNL A   1      33.609  29.688  26.563  1.00  0.00     0.006 A 
ATOM     13  C   UNL A   1      31.964  28.801  25.002  1.00  0.00     0.045 A 
ATOM     14  C   UNL A   1      32.496  29.858  25.737  1.00  0.00     0.026 A 
BRANCH  13  15
ATOM     15  N   UNL A   1      30.772  28.869  24.232  1.00  0.00    -0.322 N 
ATOM     16  C   UNL A   1      30.443  28.420  22.963  1.00  0.00     0.255 C 
ATOM     17  H   UNL A   1      30.031  29.326  24.692  1.00  0.00     0.170 HD
ATOM     18  O   UNL A   1      29.434  28.806  22.384  1.00  0.00    -0.269 OA
BRANCH  16  19
ATOM     19  C   UNL A   1      31.231  27.335  22.362  1.00  0.00     0.041 A 
ATOM     20  C   UNL A   1      32.555  27.560  21.919  1.00  0.00     0.015 A 
ATOM     21  C   UNL A   1      30.711  26.052  22.512  1.00  0.00     0.028 A 
ATOM     22  C   UNL A   1      33.450  26.477  21.842  1.00  0.00     0.015 A 
ATOM     23  C   UNL A   1      31.623  25.028  22.436  1.00  0.00     0.054 A 
ATOM     24  C   UNL A   1      32.960  25.228  22.191  1.00  0.00     0.053 A 
ATOM     25  C   UNL A   1      31.451  23.685  22.938  1.00  0.00     0.266 C 
ATOM     26  C   UNL A   1      33.645  24.005  22.632  1.00  0.00     0.266 C 
ATOM     27  O   UNL A   1      30.335  23.204  22.989  1.00  0.00    -0.268 OA
ATOM     28  N   UNL A   1      32.705  23.232  23.288  1.00  0.00    -0.242 N 
ATOM     29  O   UNL A   1      34.810  23.819  22.335  1.00  0.00    -0.268 OA
BRANCH  28  30
ATOM     30  C   UNL A   1      32.912  22.163  24.235  1.00  0.00     0.060 A 
ATOM     31  C   UNL A   1      33.711  21.060  23.836  1.00  0.00     0.027 A 
ATOM     32  C   UNL A   1      32.268  22.045  25.497  1.00  0.00     0.006 A 
ATOM     33  C   UNL A   1      33.882  19.908  24.608  1.00  0.00     0.002 A 
ATOM     34  C   UNL A   1      32.492  20.877  26.282  1.00  0.00     0.011 A 
ATOM     35  C   UNL A   1      33.279  19.820  25.843  1.00  0.00     0.001 A 
BRANCH  32  36
ATOM     36  C   UNL A   1      31.257  22.956  26.051  1.00  0.00    -0.016 A 
ATOM     37  C   UNL A   1      30.054  22.461  26.579  1.00  0.00     0.009 A 
ATOM     38  C   UNL A   1      31.422  24.347  25.957  1.00  0.00     0.009 A 
ATOM     39  C   UNL A   1      29.069  23.332  27.052  1.00  0.00     0.001 A 
ATOM     40  C   UNL A   1      30.435  25.219  26.423  1.00  0.00     0.001 A 
ATOM     41  C   UNL A   1      29.264  24.710  26.980  1.00  0.00     0.000 A 
ENDBRANCH  32  36
ENDBRANCH  28  30
ENDBRANCH  16  19
ENDBRANCH  13  15
ENDBRANCH   8   9
ENDBRANCH   7   8
ENDBRANCH   5   7
ENDBRANCH   2   3
ENDBRANCH   1   2
BRANCH   1  42
ATOM     42  C   UNL A   1      39.226  21.288  26.138  1.00  0.00     0.002 C 
BRANCH  42  43
ATOM     43  C   UNL A   1      40.755  21.394  26.155  1.00  0.00     0.002 C 
BRANCH  43  44
ATOM     44  C   UNL A   1      41.385  21.697  27.518  1.00  0.00     0.021 C 
BRANCH  44  45
ATOM     45  C   UNL A   1      42.345  22.882  27.543  1.00  0.00     0.116 C 
BRANCH  45  46
ATOM     46  N   UNL A   1      42.336  23.635  26.300  1.00  0.00    -0.352 N 
ATOM     47  C   UNL A   1      42.028  24.956  26.084  1.00  0.00     0.251 C 
ATOM     48  H   UNL A   1      42.588  23.124  25.496  1.00  0.00     0.163 HD
ATOM     49  O   UNL A   1      41.930  25.375  24.934  1.00  0.00    -0.269 OA
BRANCH  47  50
ATOM     50  C   UNL A   1      41.792  25.868  27.226  1.00  0.00     0.039 A 
ATOM     51  C   UNL A   1      42.706  26.899  27.465  1.00  0.00     0.014 A 
ATOM     52  C   UNL A   1      40.696  25.699  28.079  1.00  0.00     0.014 A 
ATOM     53  C   UNL A   1      42.498  27.785  28.527  1.00  0.00     0.010 A 
ATOM     54  C   UNL A   1      40.456  26.621  29.097  1.00  0.00     0.010 A 
ATOM     55  C   UNL A   1      41.359  27.667  29.340  1.00  0.00    -0.014 A 
BRANCH  55  56
ATOM     56  C   UNL A   1      41.116  28.605  30.467  1.00  0.00     0.031 A 
ATOM     57  C   UNL A   1      41.941  28.501  31.723  1.00  0.00     0.074 A 
ATOM     58  C   UNL A   1      40.131  29.522  30.382  1.00  0.00     0.049 A 
ATOM     59  N   UNL A   1      41.836  29.177  32.839  1.00  0.00    -0.248 NA
ATOM     60  C   UNL A   1      43.012  27.489  31.735  1.00  0.00     0.031 C 
ATOM     61  C   UNL A   1      39.238  29.706  29.236  1.00  0.00     0.029 A 
ATOM     62  N   UNL A   1      39.710  30.468  31.283  1.00  0.00    -0.354 N 
ATOM     63  C   UNL A   1      42.816  28.669  33.685  1.00  0.00     0.074 A 
ATOM     64  C   UNL A   1      43.470  27.593  32.975  1.00  0.00     0.031 C 
ATOM     65  C   UNL A   1      38.386  30.712  29.498  1.00  0.00     0.029 A 
ATOM     66  C   UNL A   1      38.649  31.222  30.839  1.00  0.00     0.049 A 
ATOM     67  H   UNL A   1      40.129  30.595  32.165  1.00  0.00     0.167 HD
ATOM     68  C   UNL A   1      43.161  29.077  34.929  1.00  0.00     0.031 A 
ATOM     69  C   UNL A   1      37.960  32.209  31.446  1.00  0.00     0.031 A 
ATOM     70  C   UNL A   1      42.520  30.156  35.633  1.00  0.00     0.049 A 
ATOM     71  C   UNL A   1      38.366  32.645  32.829  1.00  0.00     0.074 A 
ATOM     72  C   UNL A   1      42.806  30.652  36.894  1.00  0.00     0.029 A 
ATOM     73  N   UNL A   1      41.477  30.917  35.132  1.00  0.00    -0.354 N 
ATOM     74  N   UNL A   1      39.315  32.170  33.599  1.00  0.00    -0.248 NA
ATOM     75  C   UNL A   1      37.620  33.768  33.416  1.00  0.00     0.031 C 
ATOM     76  C   UNL A   1      41.917  31.697  37.165  1.00  0.00     0.029 A 
ATOM     77  C   UNL A   1      41.111  31.883  36.053  1.00  0.00     0.049 A 
ATOM     78  H   UNL A   1      41.058  30.791  34.249  1.00  0.00     0.167 HD
ATOM     79  C   UNL A   1      39.305  32.960  34.744  1.00  0.00     0.074 A 
ATOM     80  C   UNL A   1      38.264  33.950  34.560  1.00  0.00     0.031 C 
ATOM     81  C   UNL A   1      40.087  32.875  35.847  1.00  0.00     0.031 A 
BRANCH  68  82
ATOM     82  C   UNL A   1      44.301  28.362  35.605  1.00  0.00    -0.014 A 
ATOM     83  C   UNL A   1      44.080  27.172  36.319  1.00  0.00     0.010 A 
ATOM     84  C   UNL A   1      45.614  28.853  35.482  1.00  0.00     0.010 A 
ATOM     85  C   UNL A   1      45.143  26.502  36.927  1.00  0.00     0.020 A 
ATOM     86  C   UNL A   1      46.685  28.170  36.066  1.00  0.00     0.020 A 
ATOM     87  C   UNL A   1      46.440  27.005  36.797  1.00  0.00     0.054 A 
BRANCH  87  88
ATOM     88  S   UNL A   1      47.806  26.093  37.566  1.00  0.00     0.124 S 
ATOM     89  O   UNL A   1      48.777  26.029  36.477  1.00  0.00    -0.237 OA
ATOM     90  O   UNL A   1      48.176  26.953  38.687  1.00  0.00    -0.237 OA
ATOM     91  O   UNL A   1      47.204  24.815  37.938  1.00  0.00    -0.744 OA
ENDBRANCH  87  88
ENDBRANCH  68  82
BRANCH  69  92
ATOM     92  C   UNL A   1      36.818  32.866  30.751  1.00  0.00    -0.014 A 
ATOM     93  C   UNL A   1      37.035  33.946  29.878  1.00  0.00     0.010 A 
ATOM     94  C   UNL A   1      35.502  32.430  30.985  1.00  0.00     0.010 A 
ATOM     95  C   UNL A   1      35.955  34.606  29.284  1.00  0.00     0.020 A 
ATOM     96  C   UNL A   1      34.421  33.069  30.370  1.00  0.00     0.020 A 
ATOM     97  C   UNL A   1      34.653  34.166  29.540  1.00  0.00     0.054 A 
BRANCH  97  98
ATOM     98  S   UNL A   1      33.265  35.028  28.753  1.00  0.00     0.124 S 
ATOM     99  O   UNL A   1      33.951  36.035  27.950  1.00  0.00    -0.237 OA
ATOM    100  O   UNL A   1      32.609  33.959  28.004  1.00  0.00    -0.237 OA
ATOM    101  O   UNL A   1      32.498  35.544  29.886  1.00  0.00    -0.744 OA
ENDBRANCH  97  98
ENDBRANCH  69  92
BRANCH  81 102
ATOM    102  C   UNL A   1      39.896  33.918  36.915  1.00  0.00    -0.014 A 
ATOM    103  C   UNL A   1      40.326  35.243  36.733  1.00  0.00     0.010 A 
ATOM    104  C   UNL A   1      39.237  33.567  38.108  1.00  0.00     0.010 A 
ATOM    105  C   UNL A   1      40.135  36.191  37.743  1.00  0.00     0.020 A 
ATOM    106  C   UNL A   1      39.020  34.517  39.108  1.00  0.00     0.020 A 
ATOM    107  C   UNL A   1      39.487  35.821  38.926  1.00  0.00     0.054 A 
BRANCH 107 108
ATOM    108  S   UNL A   1      39.225  37.075  40.210  1.00  0.00     0.124 S 
ATOM    109  O   UNL A   1      38.635  38.171  39.449  1.00  0.00    -0.237 OA
ATOM    110  O   UNL A   1      38.325  36.399  41.142  1.00  0.00    -0.237 OA
ATOM    111  O   UNL A   1      40.569  37.327  40.726  1.00  0.00    -0.744 OA
ENDBRANCH 107 108
ENDBRANCH  81 102
ENDBRANCH  55  56
ENDBRANCH  47  50
ENDBRANCH  45  46
ENDBRANCH  44  45
ENDBRANCH  43  44
ENDBRANCH  42  43
ENDBRANCH   1  42
TORSDOF 22
ENDMDL
MODEL 2
REMARK VINA RESULT:     -10.8      0.578      7.394
REMARK SMILES O=C(COc1cccc(NC(=O)c2ccc3c(c2)C(=O)N(c2ccccc2-c2ccccc2)C3=O)c1)NCCCCCCNC(=O)c1ccc(-c2c3nc(c(-c4ccc(S(=O)(=O)[O-])cc4)c4ccc([nH]4)c(-c4ccc(S(=O)(=O)[O-])cc4)c4nc(c(-c5ccc(S(=O)(=O)[O-])cc5)c5ccc2[nH]5)C=C4)C=C3)cc1
REMARK SMILES IDX 39 1 38 2 37 3 1 4 2 5 3 7 4 8 5 9 6 10 36 11 7 12 9 13 8 14
REMARK SMILES IDX 10 15 11 16 12 18 13 19 14 20 18 21 15 22 17 23 16 24 19 25
REMARK SMILES IDX 34 26 20 27 21 28 35 29 22 30 23 31 27 32 24 33 26 34 25 35
REMARK SMILES IDX 28 36 29 37 33 38 30 39 32 40 31 41 40 42 41 43 42 44 43 45
REMARK SMILES IDX 44 46 45 47 46 49 47 50 48 51 106 52 49 53 105 54 50 55
REMARK SMILES IDX 51 56 52 57 99 58 53 59 104 60 98 61 100 62 54 63 103 64
REMARK SMILES IDX 97 65 96 66 55 68 85 69 66 70 84 71 67 72 70 73 83 74 101 75
REMARK SMILES IDX 68 76 69 77 82 79 102 80 71 81 56 82 57 83 65 84 58 85 64 86
REMARK SMILES IDX 59 87 60 88 61 89 62 90 63 91 86 92 87 93 95 94 88 95 94 96
REMARK SMILES IDX 89 97 90 98 91 99 92 100 93 101 72 102 73 103 81 104 74 105
REMARK SMILES IDX 80 106 75 107 76 108 77 109 78 110 79 111
REMARK H PARENT 37 6 10 17 44 48 100 67 70 78
REMARK Flexibility Score: inf
ROOT
ATOM      1  C   UNL A   1      38.469  22.756  25.799  1.00  0.00     0.021 C 
ENDROOT
BRANCH   1   2
ATOM      2  C   UNL A   1      37.016  22.435  25.477  1.00  0.00     0.116 C 
BRANCH   2   3
ATOM      3  N   UNL A   1      36.259  23.614  25.120  1.00  0.00    -0.353 N 
ATOM      4  O   UNL A   1      34.805  23.543  26.901  1.00  0.00    -0.271 OA
ATOM      5  C   UNL A   1      35.253  24.119  25.914  1.00  0.00     0.257 C 
ATOM      6  H   UNL A   1      36.472  24.074  24.275  1.00  0.00     0.163 HD
BRANCH   5   7
ATOM      7  C   UNL A   1      34.742  25.494  25.484  1.00  0.00     0.329 C 
BRANCH   7   8
ATOM      8  O   UNL A   1      34.029  26.245  26.456  1.00  0.00    -0.484 OA
BRANCH   8   9
ATOM      9  C   UNL A   1      33.500  27.444  26.059  1.00  0.00     0.122 A 
ATOM     10  C   UNL A   1      33.979  28.545  26.762  1.00  0.00     0.046 A 
ATOM     11  C   UNL A   1      32.445  27.605  25.146  1.00  0.00     0.072 A 
ATOM     12  C   UNL A   1      33.397  29.789  26.572  1.00  0.00     0.006 A 
ATOM     13  C   UNL A   1      31.822  28.851  24.969  1.00  0.00     0.045 A 
ATOM     14  C   UNL A   1      32.315  29.929  25.701  1.00  0.00     0.026 A 
BRANCH  13  15
ATOM     15  N   UNL A   1      30.659  28.889  24.153  1.00  0.00    -0.322 N 
ATOM     16  C   UNL A   1      30.392  28.431  22.872  1.00  0.00     0.255 C 
ATOM     17  H   UNL A   1      29.890  29.329  24.583  1.00  0.00     0.170 HD
ATOM     18  O   UNL A   1      29.397  28.792  22.254  1.00  0.00    -0.269 OA
BRANCH  16  19
ATOM     19  C   UNL A   1      31.228  27.365  22.305  1.00  0.00     0.041 A 
ATOM     20  C   UNL A   1      32.568  27.617  21.931  1.00  0.00     0.015 A 
ATOM     21  C   UNL A   1      30.725  26.072  22.421  1.00  0.00     0.028 A 
ATOM     22  C   UNL A   1      33.486  26.551  21.892  1.00  0.00     0.015 A 
ATOM     23  C   UNL A   1      31.657  25.065  22.384  1.00  0.00     0.054 A 
ATOM     24  C   UNL A   1      33.002  25.291  22.208  1.00  0.00     0.053 A 
ATOM     25  C   UNL A   1      31.485  23.715  22.867  1.00  0.00     0.266 C 
ATOM     26  C   UNL A   1      33.685  24.077  22.674  1.00  0.00     0.266 C 
ATOM     27  O   UNL A   1      30.376  23.214  22.859  1.00  0.00    -0.268 OA
ATOM     28  N   UNL A   1      32.728  23.282  23.277  1.00  0.00    -0.242 N 
ATOM     29  O   UNL A   1      34.867  23.914  22.435  1.00  0.00    -0.268 OA
BRANCH  28  30
ATOM     30  C   UNL A   1      32.906  22.210  24.227  1.00  0.00     0.060 A 
ATOM     31  C   UNL A   1      33.752  21.130  23.865  1.00  0.00     0.027 A 
ATOM     32  C   UNL A   1      32.195  22.066  25.449  1.00  0.00     0.006 A 
ATOM     33  C   UNL A   1      33.906  19.975  24.636  1.00  0.00     0.002 A 
ATOM     34  C   UNL A   1      32.401  20.897  26.236  1.00  0.00     0.011 A 
ATOM     35  C   UNL A   1      33.236  19.862  25.835  1.00  0.00     0.001 A 
BRANCH  32  36
ATOM     36  C   UNL A   1      31.132  22.948  25.952  1.00  0.00    -0.016 A 
ATOM     37  C   UNL A   1      31.273  24.344  25.907  1.00  0.00     0.009 A 
ATOM     38  C   UNL A   1      30.005  22.410  26.595  1.00  0.00     0.009 A 
ATOM     39  C   UNL A   1      30.286  25.179  26.438  1.00  0.00     0.001 A 
ATOM     40  C   UNL A   1      29.021  23.244  27.132  1.00  0.00     0.001 A 
ATOM     41  C   UNL A   1      29.158  24.628  27.044  1.00  0.00     0.000 A 
ENDBRANCH  32  36
ENDBRANCH  28  30
ENDBRANCH  16  19
ENDBRANCH  13  15
ENDBRANCH   8   9
ENDBRANCH   7   8
ENDBRANCH   5   7
ENDBRANCH   2   3
ENDBRANCH   1   2
BRANCH   1  42
ATOM     42  C   UNL A   1      39.294  21.559  26.287  1.00  0.00     0.002 C 
BRANCH  42  43
ATOM     43  C   UNL A   1      40.809  21.666  26.080  1.00  0.00     0.002 C 
BRANCH  43  44
ATOM     44  C   UNL A   1      41.633  21.955  27.338  1.00  0.00     0.021 C 
BRANCH  44  45
ATOM     45  C   UNL A   1      42.188  23.372  27.442  1.00  0.00     0.116 C 
BRANCH  45  46
ATOM     46  N   UNL A   1      41.915  24.168  26.257  1.00  0.00    -0.352 N 
ATOM     47  C   UNL A   1      41.452  25.457  26.162  1.00  0.00     0.251 C 
ATOM     48  H   UNL A   1      42.089  23.718  25.398  1.00  0.00     0.163 HD
ATOM     49  O   UNL A   1      41.137  25.909  25.063  1.00  0.00    -0.269 OA
BRANCH  47  50
ATOM     50  C   UNL A   1      41.306  26.295  27.374  1.00  0.00     0.039 A 
ATOM     51  C   UNL A   1      42.224  27.327  27.593  1.00  0.00     0.014 A 
ATOM     52  C   UNL A   1      40.295  26.054  28.309  1.00  0.00     0.014 A 
ATOM     53  C   UNL A   1      42.101  28.143  28.722  1.00  0.00     0.010 A 
ATOM     54  C   UNL A   1      40.134  26.908  29.399  1.00  0.00     0.010 A 
ATOM     55  C   UNL A   1      41.042  27.955  29.624  1.00  0.00    -0.014 A 
BRANCH  55  56
ATOM     56  C   UNL A   1      40.888  28.819  30.824  1.00  0.00     0.031 A 
ATOM     57  C   UNL A   1      39.840  29.902  30.840  1.00  0.00     0.074 A 
ATOM     58  C   UNL A   1      41.711  28.663  31.879  1.00  0.00     0.049 A 
ATOM     59  N   UNL A   1      39.597  30.802  31.760  1.00  0.00    -0.248 NA
ATOM     60  C   UNL A   1      38.965  30.001  29.660  1.00  0.00     0.031 C 
ATOM     61  C   UNL A   1      42.788  27.675  31.977  1.00  0.00     0.029 A 
ATOM     62  N   UNL A   1      41.775  29.340  33.072  1.00  0.00    -0.354 N 
ATOM     63  C   UNL A   1      38.551  31.575  31.268  1.00  0.00     0.074 A 
ATOM     64  C   UNL A   1      38.242  31.074  29.947  1.00  0.00     0.031 C 
ATOM     65  C   UNL A   1      43.395  27.802  33.170  1.00  0.00     0.029 A 
ATOM     66  C   UNL A   1      42.775  28.897  33.907  1.00  0.00     0.049 A 
ATOM     67  H   UNL A   1      41.163  30.074  33.307  1.00  0.00     0.167 HD
ATOM     68  C   UNL A   1      37.888  32.592  31.868  1.00  0.00     0.031 A 
ATOM     69  C   UNL A   1      43.153  29.328  35.126  1.00  0.00     0.031 A 
ATOM     70  C   UNL A   1      38.185  33.083  33.188  1.00  0.00     0.049 A 
ATOM     71  C   UNL A   1      42.399  30.460  35.773  1.00  0.00     0.074 A 
ATOM     72  C   UNL A   1      37.562  34.102  33.887  1.00  0.00     0.029 A 
ATOM     73  N   UNL A   1      39.178  32.581  34.012  1.00  0.00    -0.354 N 
ATOM     74  N   UNL A   1      41.393  31.157  35.300  1.00  0.00    -0.248 NA
ATOM     75  C   UNL A   1      42.816  30.847  37.128  1.00  0.00     0.031 C 
ATOM     76  C   UNL A   1      38.197  34.234  35.127  1.00  0.00     0.029 A 
ATOM     77  C   UNL A   1      39.182  33.263  35.216  1.00  0.00     0.049 A 
ATOM     78  H   UNL A   1      39.791  31.846  33.777  1.00  0.00     0.167 HD
ATOM     79  C   UNL A   1      41.034  32.039  36.315  1.00  0.00     0.074 A 
ATOM     80  C   UNL A   1      41.921  31.778  37.429  1.00  0.00     0.031 C 
ATOM     81  C   UNL A   1      40.057  32.978  36.324  1.00  0.00     0.031 A 
BRANCH  68  82
ATOM     82  C   UNL A   1      36.756  33.230  31.107  1.00  0.00    -0.014 A 
ATOM     83  C   UNL A   1      37.006  33.976  29.941  1.00  0.00     0.010 A 
ATOM     84  C   UNL A   1      35.427  33.042  31.527  1.00  0.00     0.010 A 
ATOM     85  C   UNL A   1      35.953  34.550  29.228  1.00  0.00     0.020 A 
ATOM     86  C   UNL A   1      34.367  33.591  30.799  1.00  0.00     0.020 A 
ATOM     87  C   UNL A   1      34.639  34.354  29.661  1.00  0.00     0.054 A 
BRANCH  87  88
ATOM     88  S   UNL A   1      33.288  35.080  28.692  1.00  0.00     0.124 S 
ATOM     89  O   UNL A   1      32.712  33.903  28.048  1.00  0.00    -0.237 OA
ATOM     90  O   UNL A   1      32.456  35.705  29.718  1.00  0.00    -0.237 OA
ATOM     91  O   UNL A   1      33.967  36.012  27.794  1.00  0.00    -0.744 OA
ENDBRANCH  87  88
ENDBRANCH  68  82
BRANCH  69  92
ATOM     92  C   UNL A   1      44.300  28.687  35.828  1.00  0.00    -0.014 A 
ATOM     93  C   UNL A   1      45.611  29.159  35.639  1.00  0.00     0.010 A 
ATOM     94  C   UNL A   1      44.087  27.580  36.669  1.00  0.00     0.010 A 
ATOM     95  C   UNL A   1      46.692  28.510  36.243  1.00  0.00     0.020 A 
ATOM     96  C   UNL A   1      45.162  26.947  37.297  1.00  0.00     0.020 A 
ATOM     97  C   UNL A   1      46.460  27.402  37.063  1.00  0.00     0.054 A 
BRANCH  97  98
ATOM     98  S   UNL A   1      47.874  26.579  37.846  1.00  0.00     0.124 S 
ATOM     99  O   UNL A   1      47.961  25.338  37.084  1.00  0.00    -0.237 OA
ATOM    100  O   UNL A   1      48.959  27.532  37.629  1.00  0.00    -0.237 OA
ATOM    101  O   UNL A   1      47.455  26.432  39.238  1.00  0.00    -0.744 OA
ENDBRANCH  97  98
ENDBRANCH  69  92
BRANCH  81 102
ATOM    102  C   UNL A   1      39.849  33.750  37.599  1.00  0.00    -0.014 A 
ATOM    103  C   UNL A   1      40.430  35.014  37.796  1.00  0.00     0.010 A 
ATOM    104  C   UNL A   1      39.022  33.211  38.602  1.00  0.00     0.010 A 
ATOM    105  C   UNL A   1      40.219  35.709  38.991  1.00  0.00     0.020 A 
ATOM    106  C   UNL A   1      38.786  33.913  39.786  1.00  0.00     0.020 A 
ATOM    107  C   UNL A   1      39.402  35.151  39.981  1.00  0.00     0.054 A 
BRANCH 107 108
ATOM    108  S   UNL A   1      39.119  36.083  41.511  1.00  0.00     0.124 S 
ATOM    109  O   UNL A   1      39.105  37.461  41.030  1.00  0.00    -0.237 OA
ATOM    110  O   UNL A   1      37.834  35.564  41.972  1.00  0.00    -0.237 OA
ATOM    111  O   UNL A   1      40.263  35.727  42.348  1.00  0.00    -0.744 OA
ENDBRANCH 107 108
ENDBRANCH  81 102
ENDBRANCH  55  56
ENDBRANCH  47  50
ENDBRANCH  45  46
ENDBRANCH  44  45
ENDBRANCH  43  44
ENDBRANCH  42  43
ENDBRANCH   1  42
TORSDOF 22
ENDMDL
MODEL 3
REMARK VINA RESULT:     -10.2      5.106     13.686
REMARK SMILES O=C(COc1cccc(NC(=O)c2ccc3c(c2)C(=O)N(c2ccccc2-c2ccccc2)C3=O)c1)NCCCCCCNC(=O)c1ccc(-c2c3nc(c(-c4ccc(S(=O)(=O)[O-])cc4)c4ccc([nH]4)c(-c4ccc(S(=O)(=O)[O-])cc4)c4nc(c(-c5ccc(S(=O)(=O)[O-])cc5)c5ccc2[nH]5)C=C4)C=C3)cc1
REMARK SMILES IDX 39 1 38 2 37 3 1 4 2 5 3 7 4 8 5 9 6 10 36 11 7 12 9 13 8 14
REMARK SMILES IDX 10 15 11 16 12 18 13 19 14 20 18 21 15 22 17 23 16 24 19 25
REMARK SMILES IDX 34 26 20 27 21 28 35 29 22 30 23 31 27 32 24 33 26 34 25 35
REMARK SMILES IDX 28 36 29 37 33 38 30 39 32 40 31 41 40 42 41 43 42 44 43 45
REMARK SMILES IDX 44 46 45 47 46 49 47 50 48 51 106 52 49 53 105 54 50 55
REMARK SMILES IDX 51 56 52 57 99 58 53 59 104 60 98 61 100 62 54 63 103 64
REMARK SMILES IDX 97 65 96 66 55 68 85 69 66 70 84 71 67 72 70 73 83 74 101 75
REMARK SMILES IDX 68 76 69 77 82 79 102 80 71 81 56 82 57 83 65 84 58 85 64 86
REMARK SMILES IDX 59 87 60 88 61 89 62 90 63 91 86 92 87 93 95 94 88 95 94 96
REMARK SMILES IDX 89 97 90 98 91 99 92 100 93 101 72 102 73 103 81 104 74 105
REMARK SMILES IDX 80 106 75 107 76 108 77 109 78 110 79 111
REMARK H PARENT 37 6 10 17 44 48 100 67 70 78
REMARK Flexibility Score: inf
ROOT
ATOM      1  C   UNL A   1      37.754  32.024  31.763  1.00  0.00     0.021 C 
ENDROOT
BRANCH   1   2
ATOM      2  C   UNL A   1      37.708  30.946  32.836  1.00  0.00     0.116 C 
BRANCH   2   3
ATOM      3  N   UNL A   1      37.470  31.491  34.153  1.00  0.00    -0.353 N 
ATOM      4  O   UNL A   1      38.663  29.903  35.315  1.00  0.00    -0.271 OA
ATOM      5  C   UNL A   1      38.040  30.960  35.291  1.00  0.00     0.257 C 
ATOM      6  H   UNL A   1      36.878  32.274  34.242  1.00  0.00     0.163 HD
BRANCH   5   7
ATOM      7  C   UNL A   1      37.859  31.818  36.544  1.00  0.00     0.329 C 
BRANCH   7   8
ATOM      8  O   UNL A   1      37.803  33.225  36.354  1.00  0.00    -0.484 OA
BRANCH   8   9
ATOM      9  C   UNL A   1      38.995  33.890  36.242  1.00  0.00     0.122 A 
ATOM     10  C   UNL A   1      39.129  34.638  35.075  1.00  0.00     0.046 A 
ATOM     11  C   UNL A   1      40.093  33.745  37.105  1.00  0.00     0.072 A 
ATOM     12  C   UNL A   1      40.350  35.216  34.764  1.00  0.00     0.006 A 
ATOM     13  C   UNL A   1      41.345  34.294  36.787  1.00  0.00     0.045 A 
ATOM     14  C   UNL A   1      41.449  35.022  35.604  1.00  0.00     0.026 A 
BRANCH  13  15
ATOM     15  N   UNL A   1      42.438  33.960  37.631  1.00  0.00    -0.322 N 
ATOM     16  C   UNL A   1      43.076  32.763  37.917  1.00  0.00     0.255 C 
ATOM     17  H   UNL A   1      42.818  34.733  38.108  1.00  0.00     0.170 HD
ATOM     18  O   UNL A   1      43.837  32.652  38.871  1.00  0.00    -0.269 OA
BRANCH  16  19
ATOM     19  C   UNL A   1      42.969  31.650  36.964  1.00  0.00     0.041 A 
ATOM     20  C   UNL A   1      42.817  31.893  35.580  1.00  0.00     0.015 A 
ATOM     21  C   UNL A   1      43.300  30.392  37.461  1.00  0.00     0.028 A 
ATOM     22  C   UNL A   1      43.226  30.913  34.659  1.00  0.00     0.015 A 
ATOM     23  C   UNL A   1      43.700  29.470  36.526  1.00  0.00     0.054 A 
ATOM     24  C   UNL A   1      43.743  29.735  35.178  1.00  0.00     0.053 A 
ATOM     25  C   UNL A   1      44.460  28.267  36.774  1.00  0.00     0.266 C 
ATOM     26  C   UNL A   1      44.622  28.718  34.588  1.00  0.00     0.266 C 
ATOM     27  O   UNL A   1      44.357  27.707  37.849  1.00  0.00    -0.268 OA
ATOM     28  N   UNL A   1      45.202  28.029  35.637  1.00  0.00    -0.242 N 
ATOM     29  O   UNL A   1      44.670  28.580  33.380  1.00  0.00    -0.268 OA
BRANCH  28  30
ATOM     30  C   UNL A   1      46.404  27.230  35.644  1.00  0.00     0.060 A 
ATOM     31  C   UNL A   1      47.647  27.893  35.813  1.00  0.00     0.027 A 
ATOM     32  C   UNL A   1      46.471  25.840  35.354  1.00  0.00     0.006 A 
ATOM     33  C   UNL A   1      48.886  27.256  35.710  1.00  0.00     0.002 A 
ATOM     34  C   UNL A   1      47.745  25.206  35.294  1.00  0.00     0.011 A 
ATOM     35  C   UNL A   1      48.936  25.902  35.460  1.00  0.00     0.001 A 
BRANCH  32  36
ATOM     36  C   UNL A   1      45.351  24.974  34.961  1.00  0.00    -0.016 A 
ATOM     37  C   UNL A   1      45.275  24.438  33.665  1.00  0.00     0.009 A 
ATOM     38  C   UNL A   1      44.274  24.760  35.836  1.00  0.00     0.009 A 
ATOM     39  C   UNL A   1      44.180  23.662  33.277  1.00  0.00     0.001 A 
ATOM     40  C   UNL A   1      43.175  23.990  35.446  1.00  0.00     0.001 A 
ATOM     41  C   UNL A   1      43.135  23.433  34.169  1.00  0.00     0.000 A 
ENDBRANCH  32  36
ENDBRANCH  28  30
ENDBRANCH  16  19
ENDBRANCH  13  15
ENDBRANCH   8   9
ENDBRANCH   7   8
ENDBRANCH   5   7
ENDBRANCH   2   3
ENDBRANCH   1   2
BRANCH   1  42
ATOM     42  C   UNL A   1      36.880  33.250  32.051  1.00  0.00     0.002 C 
BRANCH  42  43
ATOM     43  C   UNL A   1      35.742  33.505  31.057  1.00  0.00     0.002 C 
BRANCH  43  44
ATOM     44  C   UNL A   1      35.365  32.323  30.160  1.00  0.00     0.021 C 
BRANCH  44  45
ATOM     45  C   UNL A   1      34.515  32.673  28.943  1.00  0.00     0.116 C 
BRANCH  45  46
ATOM     46  N   UNL A   1      33.851  31.513  28.372  1.00  0.00    -0.352 N 
ATOM     47  C   UNL A   1      34.387  30.318  27.959  1.00  0.00     0.251 C 
ATOM     48  H   UNL A   1      32.875  31.596  28.268  1.00  0.00     0.163 HD
ATOM     49  O   UNL A   1      33.680  29.512  27.359  1.00  0.00    -0.269 OA
BRANCH  47  50
ATOM     50  C   UNL A   1      35.813  30.008  28.211  1.00  0.00     0.039 A 
ATOM     51  C   UNL A   1      36.167  29.406  29.423  1.00  0.00     0.014 A 
ATOM     52  C   UNL A   1      36.804  30.330  27.280  1.00  0.00     0.014 A 
ATOM     53  C   UNL A   1      37.504  29.087  29.680  1.00  0.00     0.010 A 
ATOM     54  C   UNL A   1      38.127  29.953  27.509  1.00  0.00     0.010 A 
ATOM     55  C   UNL A   1      38.493  29.338  28.717  1.00  0.00    -0.014 A 
BRANCH  55  56
ATOM     56  C   UNL A   1      39.918  28.996  28.968  1.00  0.00     0.031 A 
ATOM     57  C   UNL A   1      40.856  30.042  29.514  1.00  0.00     0.074 A 
ATOM     58  C   UNL A   1      40.381  27.766  28.669  1.00  0.00     0.049 A 
ATOM     59  N   UNL A   1      42.144  29.961  29.734  1.00  0.00    -0.248 NA
ATOM     60  C   UNL A   1      40.275  31.356  29.835  1.00  0.00     0.031 C 
ATOM     61  C   UNL A   1      39.586  26.674  28.103  1.00  0.00     0.029 A 
ATOM     62  N   UNL A   1      41.638  27.230  28.791  1.00  0.00    -0.354 N 
ATOM     63  C   UNL A   1      42.527  31.210  30.209  1.00  0.00     0.074 A 
ATOM     64  C   UNL A   1      41.348  32.047  30.195  1.00  0.00     0.031 C 
ATOM     65  C   UNL A   1      40.370  25.595  27.942  1.00  0.00     0.029 A 
ATOM     66  C   UNL A   1      41.728  25.926  28.361  1.00  0.00     0.049 A 
ATOM     67  H   UNL A   1      42.405  27.731  29.153  1.00  0.00     0.167 HD
ATOM     68  C   UNL A   1      43.743  31.620  30.644  1.00  0.00     0.031 A 
ATOM     69  C   UNL A   1      42.786  25.093  28.303  1.00  0.00     0.031 A 
ATOM     70  C   UNL A   1      44.915  30.786  30.671  1.00  0.00     0.049 A 
ATOM     71  C   UNL A   1      44.127  25.573  28.795  1.00  0.00     0.074 A 
ATOM     72  C   UNL A   1      46.190  31.106  31.106  1.00  0.00     0.029 A 
ATOM     73  N   UNL A   1      44.952  29.462  30.263  1.00  0.00    -0.354 N 
ATOM     74  N   UNL A   1      44.459  26.750  29.268  1.00  0.00    -0.248 NA
ATOM     75  C   UNL A   1      45.230  24.602  28.766  1.00  0.00     0.031 C 
ATOM     76  C   UNL A   1      47.005  29.983  30.935  1.00  0.00     0.029 A 
ATOM     77  C   UNL A   1      46.225  28.949  30.441  1.00  0.00     0.049 A 
ATOM     78  H   UNL A   1      44.186  28.960  29.901  1.00  0.00     0.167 HD
ATOM     79  C   UNL A   1      45.799  26.648  29.628  1.00  0.00     0.074 A 
ATOM     80  C   UNL A   1      46.211  25.293  29.330  1.00  0.00     0.031 C 
ATOM     81  C   UNL A   1      46.614  27.591  30.159  1.00  0.00     0.031 A 
BRANCH  68  82
ATOM     82  C   UNL A   1      43.861  33.034  31.148  1.00  0.00    -0.014 A 
ATOM     83  C   UNL A   1      44.144  34.090  30.262  1.00  0.00     0.010 A 
ATOM     84  C   UNL A   1      43.638  33.321  32.506  1.00  0.00     0.010 A 
ATOM     85  C   UNL A   1      44.234  35.402  30.730  1.00  0.00     0.020 A 
ATOM     86  C   UNL A   1      43.699  34.638  32.974  1.00  0.00     0.020 A 
ATOM     87  C   UNL A   1      44.011  35.668  32.084  1.00  0.00     0.054 A 
BRANCH  87  88
ATOM     88  S   UNL A   1      44.097  37.388  32.656  1.00  0.00     0.124 S 
ATOM     89  O   UNL A   1      45.467  37.471  33.156  1.00  0.00    -0.237 OA
ATOM     90  O   UNL A   1      43.826  38.145  31.437  1.00  0.00    -0.237 OA
ATOM     91  O   UNL A   1      43.056  37.466  33.678  1.00  0.00    -0.744 OA
ENDBRANCH  87  88
ENDBRANCH  68  82
BRANCH  69  92
ATOM     92  C   UNL A   1      42.628  23.713  27.767  1.00  0.00    -0.014 A 
ATOM     93  C   UNL A   1      42.359  22.635  28.629  1.00  0.00     0.010 A 
ATOM     94  C   UNL A   1      42.776  23.466  26.390  1.00  0.00     0.010 A 
ATOM     95  C   UNL A   1      42.283  21.331  28.131  1.00  0.00     0.020 A 
ATOM     96  C   UNL A   1      42.671  22.167  25.885  1.00  0.00     0.020 A 
ATOM     97  C   UNL A   1      42.446  21.105  26.762  1.00  0.00     0.054 A 
BRANCH  97  98
ATOM     98  S   UNL A   1      42.334  19.407  26.133  1.00  0.00     0.124 S 
ATOM     99  O   UNL A   1      43.278  19.435  25.020  1.00  0.00    -0.237 OA
ATOM    100  O   UNL A   1      42.741  18.612  27.288  1.00  0.00    -0.237 OA
ATOM    101  O   UNL A   1      40.928  19.274  25.759  1.00  0.00    -0.744 OA
ENDBRANCH  97  98
ENDBRANCH  69  92
BRANCH  81 102
ATOM    102  C   UNL A   1      48.016  27.175  30.515  1.00  0.00    -0.014 A 
ATOM    103  C   UNL A   1      48.295  26.468  31.698  1.00  0.00     0.010 A 
ATOM    104  C   UNL A   1      49.067  27.467  29.626  1.00  0.00     0.010 A 
ATOM    105  C   UNL A   1      49.607  26.095  32.003  1.00  0.00     0.020 A 
ATOM    106  C   UNL A   1      50.375  27.072  29.914  1.00  0.00     0.020 A 
ATOM    107  C   UNL A   1      50.640  26.403  31.111  1.00  0.00     0.054 A 
BRANCH 107 108
ATOM    108  S   UNL A   1      52.330  25.883  31.514  1.00  0.00     0.124 S 
ATOM    109  O   UNL A   1      52.978  25.913  30.207  1.00  0.00    -0.237 OA
ATOM    110  O   UNL A   1      52.767  26.911  32.456  1.00  0.00    -0.237 OA
ATOM    111  O   UNL A   1      52.154  24.553  32.092  1.00  0.00    -0.744 OA
ENDBRANCH 107 108
ENDBRANCH  81 102
ENDBRANCH  55  56
ENDBRANCH  47  50
ENDBRANCH  45  46
ENDBRANCH  44  45
ENDBRANCH  43  44
ENDBRANCH  42  43
ENDBRANCH   1  42
TORSDOF 22
ENDMDL
