MODEL 1
REMARK VINA RESULT:     -13.8      0.000      0.000
REMARK SMILES O=C1C[C@H](c2cn[nH]c2C(=O)NCCCCCCNC(=O)c2ccc(-c3c4nc(c(-c5ccc(S(=O)(=O)[O-])cc5)c5ccc([nH]5)c(-c5ccc(S(=O)(=O)[O-])cc5)c5nc(c(-c6ccc(S(=O)(=O)[O-])cc6)c6ccc3[nH]6)C=C5)C=C4)cc2)c2c(-c3cccs3)n[nH]c2N1
REMARK SMILES IDX 16 1 15 2 14 3 13 4 12 5 10 6 11 7 9 9 5 10 6 11 7 12 8 13
REMARK SMILES IDX 4 15 1 16 2 17 3 18 92 19 91 20 82 22 90 23 83 24 89 25
REMARK SMILES IDX 84 27 85 28 88 29 86 30 87 31 17 32 18 33 19 34 20 35 21 37
REMARK SMILES IDX 22 38 23 39 81 40 24 41 80 42 25 43 26 44 27 45 74 46 28 47
REMARK SMILES IDX 79 48 73 49 75 50 29 51 78 52 72 53 71 54 30 56 60 57 41 58
REMARK SMILES IDX 59 59 42 60 45 61 58 62 76 63 43 64 44 65 57 67 77 68 46 69
REMARK SMILES IDX 31 70 32 71 40 72 33 73 39 74 34 75 35 76 36 77 37 78 38 79
REMARK SMILES IDX 61 80 62 81 70 82 63 83 69 84 64 85 65 86 66 87 67 88 68 89
REMARK SMILES IDX 47 90 48 91 56 92 49 93 55 94 50 95 51 96 52 97 53 98 54 99
REMARK H PARENT 12 8 8 14 92 21 90 26 19 36 75 55 45 66
REMARK Flexibility Score: inf
ROOT
ATOM      1  C   UNL A   1      39.840  21.495  26.456  1.00  0.00     0.002 C 
ENDROOT
BRANCH   1   2
ATOM      2  C   UNL A   1      39.136  22.851  26.590  1.00  0.00     0.002 C 
BRANCH   2   3
ATOM      3  C   UNL A   1      38.080  23.177  25.529  1.00  0.00     0.021 C 
BRANCH   3   4
ATOM      4  C   UNL A   1      36.584  23.816  26.176  1.00  0.00     0.116 C 
BRANCH   4   5
ATOM      5  N   UNL A   1      34.646  22.878  26.265  1.00  0.00    -0.351 N 
ATOM      6  C   UNL A   1      33.227  22.788  26.303  1.00  0.00     0.269 C 
ATOM      7  O   UNL A   1      32.768  21.642  26.304  1.00  0.00    -0.268 OA
ATOM      8  H   UNL A   1      34.898  21.926  26.304  1.00  0.00     0.163 HD
BRANCH   6   9
ATOM      9  C   UNL A   1      32.345  23.926  26.230  1.00  0.00     0.126 A 
ATOM     10  C   UNL A   1      32.390  25.095  25.489  1.00  0.00     0.011 A 
ATOM     11  C   UNL A   1      31.182  25.754  25.782  1.00  0.00     0.140 A 
ATOM     12  N   UNL A   1      30.422  25.066  26.637  1.00  0.00    -0.183 NA
ATOM     13  N   UNL A   1      31.167  23.982  26.920  1.00  0.00    -0.273 N 
ATOM     14  H   UNL A   1      30.889  23.292  27.564  1.00  0.00     0.190 HD
BRANCH  10  15
ATOM     15  C   UNL A   1      33.490  25.468  24.559  1.00  0.00     0.069 C 
ATOM     16  O   UNL A   1      33.425  23.306  21.409  1.00  0.00    -0.275 OA
ATOM     17  C   UNL A   1      33.066  24.184  22.200  1.00  0.00     0.226 C 
ATOM     18  C   UNL A   1      33.835  24.355  23.542  1.00  0.00     0.114 C 
ATOM     19  N   UNL A   1      32.063  25.031  21.797  1.00  0.00    -0.311 N 
ATOM     20  C   UNL A   1      31.972  26.239  22.416  1.00  0.00     0.132 A 
ATOM     21  H   UNL A   1      31.433  24.774  21.086  1.00  0.00     0.171 HD
ATOM     22  C   UNL A   1      32.964  26.621  23.823  1.00  0.00     0.031 A 
ATOM     23  N   UNL A   1      31.036  27.762  21.947  1.00  0.00    -0.262 N 
ATOM     24  C   UNL A   1      32.666  28.490  24.268  1.00  0.00     0.108 A 
ATOM     25  N   UNL A   1      31.512  29.169  23.110  1.00  0.00    -0.173 NA
ATOM     26  H   UNL A   1      30.391  27.828  21.205  1.00  0.00     0.192 HD
BRANCH  24  27
ATOM     27  C   UNL A   1      33.083  29.090  25.560  1.00  0.00     0.055 A 
ATOM     28  C   UNL A   1      34.266  28.783  26.188  1.00  0.00     0.022 A 
ATOM     29  S   UNL A   1      32.217  30.326  26.342  1.00  0.00    -0.142 S 
ATOM     30  C   UNL A   1      34.500  29.645  27.301  1.00  0.00     0.012 A 
ATOM     31  C   UNL A   1      33.434  30.491  27.534  1.00  0.00     0.065 A 
ENDBRANCH  24  27
ENDBRANCH  10  15
ENDBRANCH   6   9
ENDBRANCH   4   5
ENDBRANCH   3   4
ENDBRANCH   2   3
ENDBRANCH   1   2
BRANCH   1  32
ATOM     32  C   UNL A   1      40.805  21.115  27.591  1.00  0.00     0.021 C 
BRANCH  32  33
ATOM     33  C   UNL A   1      41.810  22.205  27.916  1.00  0.00     0.116 C 
BRANCH  33  34
ATOM     34  N   UNL A   1      42.775  22.394  26.829  1.00  0.00    -0.352 N 
ATOM     35  C   UNL A   1      42.952  23.467  25.980  1.00  0.00     0.251 C 
ATOM     36  H   UNL A   1      43.390  21.639  26.681  1.00  0.00     0.163 HD
ATOM     37  O   UNL A   1      43.544  23.341  24.916  1.00  0.00    -0.269 OA
BRANCH  35  38
ATOM     38  C   UNL A   1      42.489  24.786  26.423  1.00  0.00     0.039 A 
ATOM     39  C   UNL A   1      41.446  25.501  25.830  1.00  0.00     0.014 A 
ATOM     40  C   UNL A   1      43.187  25.332  27.479  1.00  0.00     0.014 A 
ATOM     41  C   UNL A   1      41.175  26.782  26.316  1.00  0.00     0.010 A 
ATOM     42  C   UNL A   1      42.550  26.278  28.196  1.00  0.00     0.010 A 
ATOM     43  C   UNL A   1      41.811  27.187  27.490  1.00  0.00    -0.014 A 
BRANCH  43  44
ATOM     44  C   UNL A   1      41.590  28.419  28.209  1.00  0.00     0.031 A 
ATOM     45  C   UNL A   1      42.646  29.414  27.913  1.00  0.00     0.074 A 
ATOM     46  C   UNL A   1      40.415  28.675  28.834  1.00  0.00     0.049 A 
ATOM     47  N   UNL A   1      43.696  29.626  28.632  1.00  0.00    -0.248 NA
ATOM     48  C   UNL A   1      42.731  30.006  26.562  1.00  0.00     0.031 C 
ATOM     49  C   UNL A   1      39.183  27.875  28.925  1.00  0.00     0.029 A 
ATOM     50  N   UNL A   1      40.059  29.797  29.507  1.00  0.00    -0.354 N 
ATOM     51  C   UNL A   1      44.406  30.611  27.963  1.00  0.00     0.074 A 
ATOM     52  C   UNL A   1      43.936  30.580  26.605  1.00  0.00     0.031 C 
ATOM     53  C   UNL A   1      38.170  28.634  29.418  1.00  0.00     0.029 A 
ATOM     54  C   UNL A   1      38.706  29.921  29.822  1.00  0.00     0.049 A 
ATOM     55  H   UNL A   1      40.717  30.484  29.760  1.00  0.00     0.167 HD
ATOM     56  C   UNL A   1      45.073  31.574  28.655  1.00  0.00     0.031 A 
ATOM     57  C   UNL A   1      38.109  31.026  30.359  1.00  0.00     0.031 A 
ATOM     58  C   UNL A   1      45.109  31.251  30.063  1.00  0.00     0.049 A 
ATOM     59  C   UNL A   1      39.209  31.809  30.999  1.00  0.00     0.074 A 
ATOM     60  C   UNL A   1      45.642  30.210  30.797  1.00  0.00     0.029 A 
ATOM     61  N   UNL A   1      44.108  31.798  30.838  1.00  0.00    -0.354 N 
ATOM     62  N   UNL A   1      39.891  31.344  32.013  1.00  0.00    -0.248 NA
ATOM     63  C   UNL A   1      39.913  32.779  30.167  1.00  0.00     0.031 C 
ATOM     64  C   UNL A   1      44.628  29.877  31.742  1.00  0.00     0.029 A 
ATOM     65  C   UNL A   1      43.589  30.806  31.635  1.00  0.00     0.049 A 
ATOM     66  H   UNL A   1      43.814  32.738  30.822  1.00  0.00     0.167 HD
ATOM     67  C   UNL A   1      41.222  31.608  31.706  1.00  0.00     0.074 A 
ATOM     68  C   UNL A   1      41.167  32.535  30.567  1.00  0.00     0.031 C 
ATOM     69  C   UNL A   1      42.234  30.804  32.155  1.00  0.00     0.031 A 
BRANCH  56  70
ATOM     70  C   UNL A   1      45.308  32.975  28.157  1.00  0.00    -0.014 A 
ATOM     71  C   UNL A   1      46.639  33.421  28.040  1.00  0.00     0.010 A 
ATOM     72  C   UNL A   1      44.293  33.947  28.033  1.00  0.00     0.010 A 
ATOM     73  C   UNL A   1      46.940  34.777  27.872  1.00  0.00     0.020 A 
ATOM     74  C   UNL A   1      44.581  35.298  27.829  1.00  0.00     0.020 A 
ATOM     75  C   UNL A   1      45.906  35.708  27.777  1.00  0.00     0.054 A 
BRANCH  75  76
ATOM     76  S   UNL A   1      46.317  37.463  27.627  1.00  0.00     0.124 S 
ATOM     77  O   UNL A   1      47.454  37.431  26.711  1.00  0.00    -0.237 OA
ATOM     78  O   UNL A   1      45.081  38.020  27.086  1.00  0.00    -0.237 OA
ATOM     79  O   UNL A   1      46.627  37.861  28.998  1.00  0.00    -0.744 OA
ENDBRANCH  75  76
ENDBRANCH  56  70
BRANCH  57  80
ATOM     80  C   UNL A   1      36.814  31.650  29.937  1.00  0.00    -0.014 A 
ATOM     81  C   UNL A   1      35.736  31.840  30.830  1.00  0.00     0.010 A 
ATOM     82  C   UNL A   1      36.749  32.338  28.708  1.00  0.00     0.010 A 
ATOM     83  C   UNL A   1      34.677  32.726  30.527  1.00  0.00     0.020 A 
ATOM     84  C   UNL A   1      35.704  33.222  28.400  1.00  0.00     0.020 A 
ATOM     85  C   UNL A   1      34.681  33.432  29.321  1.00  0.00     0.054 A 
BRANCH  85  86
ATOM     86  S   UNL A   1      33.428  34.719  29.007  1.00  0.00     0.124 S 
ATOM     87  O   UNL A   1      32.883  34.958  30.340  1.00  0.00    -0.237 OA
ATOM     88  O   UNL A   1      34.220  35.808  28.444  1.00  0.00    -0.237 OA
ATOM     89  O   UNL A   1      32.503  34.081  28.070  1.00  0.00    -0.744 OA
ENDBRANCH  85  86
ENDBRANCH  57  80
BRANCH  69  90
ATOM     90  C   UNL A   1      41.908  29.709  33.157  1.00  0.00    -0.014 A 
ATOM     91  C   UNL A   1      41.419  28.426  32.825  1.00  0.00     0.010 A 
ATOM     92  C   UNL A   1      42.290  29.943  34.488  1.00  0.00     0.010 A 
ATOM     93  C   UNL A   1      41.290  27.425  33.809  1.00  0.00     0.020 A 
ATOM     94  C   UNL A   1      42.182  28.952  35.463  1.00  0.00     0.020 A 
ATOM     95  C   UNL A   1      41.667  27.700  35.126  1.00  0.00     0.054 A 
BRANCH  95  96
ATOM     96  S   UNL A   1      41.511  26.418  36.404  1.00  0.00     0.124 S 
ATOM     97  O   UNL A   1      42.899  26.192  36.796  1.00  0.00    -0.237 OA
ATOM     98  O   UNL A   1      40.670  27.061  37.412  1.00  0.00    -0.237 OA
ATOM     99  O   UNL A   1      40.879  25.303  35.702  1.00  0.00    -0.744 OA
ENDBRANCH  95  96
ENDBRANCH  69  90
ENDBRANCH  43  44
ENDBRANCH  35  38
ENDBRANCH  33  34
ENDBRANCH  32  33
ENDBRANCH   1  32
TORSDOF 18
ENDMDL
MODEL 2
REMARK VINA RESULT:     -13.4      1.515      3.157
REMARK SMILES O=C1C[C@H](c2cn[nH]c2C(=O)NCCCCCCNC(=O)c2ccc(-c3c4nc(c(-c5ccc(S(=O)(=O)[O-])cc5)c5ccc([nH]5)c(-c5ccc(S(=O)(=O)[O-])cc5)c5nc(c(-c6ccc(S(=O)(=O)[O-])cc6)c6ccc3[nH]6)C=C5)C=C4)cc2)c2c(-c3cccs3)n[nH]c2N1
REMARK SMILES IDX 16 1 15 2 14 3 13 4 12 5 10 6 11 7 9 9 5 10 6 11 7 12 8 13
REMARK SMILES IDX 4 15 1 16 2 17 3 18 92 19 91 20 82 22 90 23 83 24 89 25
REMARK SMILES IDX 84 27 85 28 88 29 86 30 87 31 17 32 18 33 19 34 20 35 21 37
REMARK SMILES IDX 22 38 23 39 81 40 24 41 80 42 25 43 26 44 27 45 74 46 28 47
REMARK SMILES IDX 79 48 73 49 75 50 29 51 78 52 72 53 71 54 30 56 60 57 41 58
REMARK SMILES IDX 59 59 42 60 45 61 58 62 76 63 43 64 44 65 57 67 77 68 46 69
REMARK SMILES IDX 31 70 32 71 40 72 33 73 39 74 34 75 35 76 36 77 37 78 38 79
REMARK SMILES IDX 61 80 62 81 70 82 63 83 69 84 64 85 65 86 66 87 67 88 68 89
REMARK SMILES IDX 47 90 48 91 56 92 49 93 55 94 50 95 51 96 52 97 53 98 54 99
REMARK H PARENT 12 8 8 14 92 21 90 26 19 36 75 55 45 66
REMARK Flexibility Score: inf
ROOT
ATOM      1  C   UNL A   1      39.881  24.209  27.938  1.00  0.00     0.002 C 
ENDROOT
BRANCH   1   2
ATOM      2  C   UNL A   1      38.967  24.550  26.755  1.00  0.00     0.002 C 
BRANCH   2   3
ATOM      3  C   UNL A   1      37.970  23.467  26.331  1.00  0.00     0.021 C 
BRANCH   3   4
ATOM      4  C   UNL A   1      36.430  24.085  25.775  1.00  0.00     0.116 C 
BRANCH   4   5
ATOM      5  N   UNL A   1      35.365  23.616  23.961  1.00  0.00    -0.351 N 
ATOM      6  C   UNL A   1      34.367  23.725  22.954  1.00  0.00     0.269 C 
ATOM      7  O   UNL A   1      34.490  22.954  21.997  1.00  0.00    -0.268 OA
ATOM      8  H   UNL A   1      35.898  22.860  23.620  1.00  0.00     0.163 HD
BRANCH   6   9
ATOM      9  C   UNL A   1      33.330  24.728  22.952  1.00  0.00     0.126 A 
ATOM     10  C   UNL A   1      32.805  25.528  23.953  1.00  0.00     0.011 A 
ATOM     11  C   UNL A   1      31.895  26.376  23.295  1.00  0.00     0.140 A 
ATOM     12  N   UNL A   1      31.842  26.144  21.981  1.00  0.00    -0.183 NA
ATOM     13  N   UNL A   1      32.693  25.117  21.808  1.00  0.00    -0.273 N 
ATOM     14  H   UNL A   1      32.843  24.685  20.936  1.00  0.00     0.190 HD
BRANCH  10  15
ATOM     15  C   UNL A   1      33.215  25.477  25.383  1.00  0.00     0.069 C 
ATOM     16  O   UNL A   1      32.293  28.711  27.196  1.00  0.00    -0.275 OA
ATOM     17  C   UNL A   1      32.117  27.620  26.647  1.00  0.00     0.226 C 
ATOM     18  C   UNL A   1      33.338  26.875  26.033  1.00  0.00     0.114 C 
ATOM     19  N   UNL A   1      30.857  27.077  26.700  1.00  0.00    -0.311 N 
ATOM     20  C   UNL A   1      30.743  25.731  26.528  1.00  0.00     0.132 A 
ATOM     21  H   UNL A   1      30.065  27.639  26.858  1.00  0.00     0.171 HD
ATOM     22  C   UNL A   1      32.127  24.752  26.044  1.00  0.00     0.031 A 
ATOM     23  N   UNL A   1      29.330  24.592  26.876  1.00  0.00    -0.262 N 
ATOM     24  C   UNL A   1      31.582  22.886  26.103  1.00  0.00     0.108 A 
ATOM     25  N   UNL A   1      29.892  22.808  26.628  1.00  0.00    -0.173 NA
ATOM     26  H   UNL A   1      28.426  24.872  27.148  1.00  0.00     0.192 HD
BRANCH  24  27
ATOM     27  C   UNL A   1      32.367  21.795  25.476  1.00  0.00     0.055 A 
ATOM     28  C   UNL A   1      32.063  21.254  24.250  1.00  0.00     0.022 A 
ATOM     29  S   UNL A   1      33.813  21.186  26.130  1.00  0.00    -0.142 S 
ATOM     30  C   UNL A   1      33.091  20.369  23.805  1.00  0.00     0.012 A 
ATOM     31  C   UNL A   1      34.072  20.193  24.760  1.00  0.00     0.065 A 
ENDBRANCH  24  27
ENDBRANCH  10  15
ENDBRANCH   6   9
ENDBRANCH   4   5
ENDBRANCH   3   4
ENDBRANCH   2   3
ENDBRANCH   1   2
BRANCH   1  32
ATOM     32  C   UNL A   1      40.794  22.985  27.763  1.00  0.00     0.021 C 
BRANCH  32  33
ATOM     33  C   UNL A   1      41.153  22.705  26.314  1.00  0.00     0.116 C 
BRANCH  33  34
ATOM     34  N   UNL A   1      42.598  22.798  26.087  1.00  0.00    -0.352 N 
ATOM     35  C   UNL A   1      43.385  23.906  25.846  1.00  0.00     0.251 C 
ATOM     36  H   UNL A   1      43.080  21.940  26.110  1.00  0.00     0.163 HD
ATOM     37  O   UNL A   1      44.491  23.795  25.332  1.00  0.00    -0.269 OA
BRANCH  35  38
ATOM     38  C   UNL A   1      42.901  25.213  26.298  1.00  0.00     0.039 A 
ATOM     39  C   UNL A   1      42.041  26.037  25.568  1.00  0.00     0.014 A 
ATOM     40  C   UNL A   1      43.387  25.632  27.518  1.00  0.00     0.014 A 
ATOM     41  C   UNL A   1      41.733  27.292  26.099  1.00  0.00     0.010 A 
ATOM     42  C   UNL A   1      42.659  26.559  28.169  1.00  0.00     0.010 A 
ATOM     43  C   UNL A   1      42.128  27.565  27.409  1.00  0.00    -0.014 A 
BRANCH  43  44
ATOM     44  C   UNL A   1      41.818  28.751  28.173  1.00  0.00     0.031 A 
ATOM     45  C   UNL A   1      42.828  29.811  27.956  1.00  0.00     0.074 A 
ATOM     46  C   UNL A   1      40.612  28.916  28.768  1.00  0.00     0.049 A 
ATOM     47  N   UNL A   1      43.841  30.046  28.718  1.00  0.00    -0.248 NA
ATOM     48  C   UNL A   1      42.923  30.467  26.635  1.00  0.00     0.031 C 
ATOM     49  C   UNL A   1      39.422  28.049  28.783  1.00  0.00     0.029 A 
ATOM     50  N   UNL A   1      40.176  29.987  29.476  1.00  0.00    -0.354 N 
ATOM     51  C   UNL A   1      44.518  31.095  28.116  1.00  0.00     0.074 A 
ATOM     52  C   UNL A   1      44.094  31.100  26.743  1.00  0.00     0.031 C 
ATOM     53  C   UNL A   1      38.355  28.732  29.274  1.00  0.00     0.029 A 
ATOM     54  C   UNL A   1      38.808  30.026  29.752  1.00  0.00     0.049 A 
ATOM     55  H   UNL A   1      40.788  30.695  29.780  1.00  0.00     0.167 HD
ATOM     56  C   UNL A   1      45.111  32.060  28.871  1.00  0.00     0.031 A 
ATOM     57  C   UNL A   1      38.137  31.073  30.314  1.00  0.00     0.031 A 
ATOM     58  C   UNL A   1      45.120  31.677  30.264  1.00  0.00     0.049 A 
ATOM     59  C   UNL A   1      39.172  31.883  31.024  1.00  0.00     0.074 A 
ATOM     60  C   UNL A   1      45.685  30.633  30.970  1.00  0.00     0.029 A 
ATOM     61  N   UNL A   1      44.067  32.136  31.028  1.00  0.00    -0.354 N 
ATOM     62  N   UNL A   1      39.847  31.409  32.040  1.00  0.00    -0.248 NA
ATOM     63  C   UNL A   1      39.849  32.924  30.259  1.00  0.00     0.031 C 
ATOM     64  C   UNL A   1      44.661  30.205  31.865  1.00  0.00     0.029 A 
ATOM     65  C   UNL A   1      43.578  31.083  31.764  1.00  0.00     0.049 A 
ATOM     66  H   UNL A   1      43.724  33.059  31.043  1.00  0.00     0.167 HD
ATOM     67  C   UNL A   1      41.170  31.756  31.789  1.00  0.00     0.074 A 
ATOM     68  C   UNL A   1      41.101  32.729  30.690  1.00  0.00     0.031 C 
ATOM     69  C   UNL A   1      42.210  30.987  32.238  1.00  0.00     0.031 A 
BRANCH  56  70
ATOM     70  C   UNL A   1      45.285  33.492  28.441  1.00  0.00    -0.014 A 
ATOM     71  C   UNL A   1      46.582  34.042  28.483  1.00  0.00     0.010 A 
ATOM     72  C   UNL A   1      44.216  34.389  28.236  1.00  0.00     0.010 A 
ATOM     73  C   UNL A   1      46.790  35.422  28.388  1.00  0.00     0.020 A 
ATOM     74  C   UNL A   1      44.415  35.765  28.103  1.00  0.00     0.020 A 
ATOM     75  C   UNL A   1      45.702  36.275  28.208  1.00  0.00     0.054 A 
BRANCH  75  76
ATOM     76  S   UNL A   1      45.986  38.060  28.154  1.00  0.00     0.124 S 
ATOM     77  O   UNL A   1      45.229  38.452  26.969  1.00  0.00    -0.237 OA
ATOM     78  O   UNL A   1      45.434  38.496  29.433  1.00  0.00    -0.237 OA
ATOM     79  O   UNL A   1      47.439  38.173  28.036  1.00  0.00    -0.744 OA
ENDBRANCH  75  76
ENDBRANCH  56  70
BRANCH  57  80
ATOM     80  C   UNL A   1      36.824  31.646  29.877  1.00  0.00    -0.014 A 
ATOM     81  C   UNL A   1      35.791  31.961  30.788  1.00  0.00     0.010 A 
ATOM     82  C   UNL A   1      36.701  32.168  28.572  1.00  0.00     0.010 A 
ATOM     83  C   UNL A   1      34.719  32.807  30.422  1.00  0.00     0.020 A 
ATOM     84  C   UNL A   1      35.643  33.012  28.202  1.00  0.00     0.020 A 
ATOM     85  C   UNL A   1      34.667  33.349  29.135  1.00  0.00     0.054 A 
BRANCH  85  86
ATOM     86  S   UNL A   1      33.401  34.593  28.714  1.00  0.00     0.124 S 
ATOM     87  O   UNL A   1      32.531  33.859  27.800  1.00  0.00    -0.237 OA
ATOM     88  O   UNL A   1      32.822  34.914  30.015  1.00  0.00    -0.237 OA
ATOM     89  O   UNL A   1      34.169  35.675  28.098  1.00  0.00    -0.744 OA
ENDBRANCH  85  86
ENDBRANCH  57  80
BRANCH  69  90
ATOM     90  C   UNL A   1      41.911  29.832  33.180  1.00  0.00    -0.014 A 
ATOM     91  C   UNL A   1      41.647  28.504  32.776  1.00  0.00     0.010 A 
ATOM     92  C   UNL A   1      42.087  30.081  34.550  1.00  0.00     0.010 A 
ATOM     93  C   UNL A   1      41.532  27.470  33.727  1.00  0.00     0.020 A 
ATOM     94  C   UNL A   1      41.993  29.059  35.495  1.00  0.00     0.020 A 
ATOM     95  C   UNL A   1      41.700  27.759  35.084  1.00  0.00     0.054 A 
BRANCH  95  96
ATOM     96  S   UNL A   1      41.559  26.435  36.321  1.00  0.00     0.124 S 
ATOM     97  O   UNL A   1      40.778  27.072  37.377  1.00  0.00    -0.237 OA
ATOM     98  O   UNL A   1      40.876  25.373  35.587  1.00  0.00    -0.237 OA
ATOM     99  O   UNL A   1      42.947  26.140  36.674  1.00  0.00    -0.744 OA
ENDBRANCH  95  96
ENDBRANCH  69  90
ENDBRANCH  43  44
ENDBRANCH  35  38
ENDBRANCH  33  34
ENDBRANCH  32  33
ENDBRANCH   1  32
TORSDOF 18
ENDMDL
MODEL 3
REMARK VINA RESULT:     -13.1      1.405      2.417
REMARK SMILES O=C1C[C@H](c2cn[nH]c2C(=O)NCCCCCCNC(=O)c2ccc(-c3c4nc(c(-c5ccc(S(=O)(=O)[O-])cc5)c5ccc([nH]5)c(-c5ccc(S(=O)(=O)[O-])cc5)c5nc(c(-c6ccc(S(=O)(=O)[O-])cc6)c6ccc3[nH]6)C=C5)C=C4)cc2)c2c(-c3cccs3)n[nH]c2N1
REMARK SMILES IDX 16 1 15 2 14 3 13 4 12 5 10 6 11 7 9 9 5 10 6 11 7 12 8 13
REMARK SMILES IDX 4 15 1 16 2 17 3 18 92 19 91 20 82 22 90 23 83 24 89 25
REMARK SMILES IDX 84 27 85 28 88 29 86 30 87 31 17 32 18 33 19 34 20 35 21 37
REMARK SMILES IDX 22 38 23 39 81 40 24 41 80 42 25 43 26 44 27 45 74 46 28 47
REMARK SMILES IDX 79 48 73 49 75 50 29 51 78 52 72 53 71 54 30 56 60 57 41 58
REMARK SMILES IDX 59 59 42 60 45 61 58 62 76 63 43 64 44 65 57 67 77 68 46 69
REMARK SMILES IDX 31 70 32 71 40 72 33 73 39 74 34 75 35 76 36 77 37 78 38 79
REMARK SMILES IDX 61 80 62 81 70 82 63 83 69 84 64 85 65 86 66 87 67 88 68 89
REMARK SMILES IDX 47 90 48 91 56 92 49 93 55 94 50 95 51 96 52 97 53 98 54 99
REMARK H PARENT 12 8 8 14 92 21 90 26 19 36 75 55 45 66
REMARK Flexibility Score: inf
ROOT
ATOM      1  C   UNL A   1      38.810  23.681  26.374  1.00  0.00     0.002 C 
ENDROOT
BRANCH   1   2
ATOM      2  C   UNL A   1      37.369  23.684  25.850  1.00  0.00     0.002 C 
BRANCH   2   3
ATOM      3  C   UNL A   1      36.870  22.379  25.222  1.00  0.00     0.021 C 
BRANCH   3   4
ATOM      4  C   UNL A   1      36.090  22.580  23.668  1.00  0.00     0.116 C 
BRANCH   4   5
ATOM      5  N   UNL A   1      33.999  22.412  23.179  1.00  0.00    -0.351 N 
ATOM      6  C   UNL A   1      32.716  22.821  22.720  1.00  0.00     0.269 C 
ATOM      7  O   UNL A   1      31.851  21.940  22.703  1.00  0.00    -0.268 OA
ATOM      8  H   UNL A   1      33.821  21.475  23.427  1.00  0.00     0.163 HD
BRANCH   6   9
ATOM      9  C   UNL A   1      32.429  24.133  22.192  1.00  0.00     0.126 A 
ATOM     10  C   UNL A   1      31.895  25.273  22.769  1.00  0.00     0.011 A 
ATOM     11  C   UNL A   1      31.971  26.254  21.763  1.00  0.00     0.140 A 
ATOM     12  N   UNL A   1      32.512  25.785  20.635  1.00  0.00    -0.183 NA
ATOM     13  N   UNL A   1      32.745  24.490  20.912  1.00  0.00    -0.273 N 
ATOM     14  H   UNL A   1      33.111  23.857  20.253  1.00  0.00     0.190 HD
BRANCH  10  15
ATOM     15  C   UNL A   1      31.421  25.370  24.176  1.00  0.00     0.069 C 
ATOM     16  O   UNL A   1      33.924  23.781  26.585  1.00  0.00    -0.275 OA
ATOM     17  C   UNL A   1      33.466  24.619  25.803  1.00  0.00     0.226 C 
ATOM     18  C   UNL A   1      32.095  24.346  25.120  1.00  0.00     0.114 C 
ATOM     19  N   UNL A   1      34.155  25.798  25.659  1.00  0.00    -0.311 N 
ATOM     20  C   UNL A   1      33.468  26.876  25.193  1.00  0.00     0.132 A 
ATOM     21  H   UNL A   1      35.111  25.862  25.886  1.00  0.00     0.171 HD
ATOM     22  C   UNL A   1      31.816  26.717  24.596  1.00  0.00     0.031 A 
ATOM     23  N   UNL A   1      33.903  28.672  25.198  1.00  0.00    -0.262 N 
ATOM     24  C   UNL A   1      31.150  28.505  24.216  1.00  0.00     0.108 A 
ATOM     25  N   UNL A   1      32.420  29.675  24.606  1.00  0.00    -0.173 NA
ATOM     26  H   UNL A   1      34.774  29.046  25.468  1.00  0.00     0.192 HD
BRANCH  24  27
ATOM     27  C   UNL A   1      29.925  28.757  23.418  1.00  0.00     0.055 A 
ATOM     28  C   UNL A   1      28.763  28.039  23.569  1.00  0.00     0.022 A 
ATOM     29  S   UNL A   1      29.769  30.050  22.326  1.00  0.00    -0.142 S 
ATOM     30  C   UNL A   1      27.695  28.620  22.822  1.00  0.00     0.012 A 
ATOM     31  C   UNL A   1      28.119  29.683  22.052  1.00  0.00     0.065 A 
ENDBRANCH  24  27
ENDBRANCH  10  15
ENDBRANCH   6   9
ENDBRANCH   4   5
ENDBRANCH   3   4
ENDBRANCH   2   3
ENDBRANCH   1   2
BRANCH   1  32
ATOM     32  C   UNL A   1      39.500  22.310  26.459  1.00  0.00     0.021 C 
BRANCH  32  33
ATOM     33  C   UNL A   1      40.656  22.278  27.443  1.00  0.00     0.116 C 
BRANCH  33  34
ATOM     34  N   UNL A   1      41.951  22.336  26.758  1.00  0.00    -0.352 N 
ATOM     35  C   UNL A   1      42.581  23.401  26.147  1.00  0.00     0.251 C 
ATOM     36  H   UNL A   1      42.447  21.486  26.731  1.00  0.00     0.163 HD
ATOM     37  O   UNL A   1      43.471  23.222  25.326  1.00  0.00    -0.269 OA
BRANCH  35  38
ATOM     38  C   UNL A   1      42.217  24.757  26.567  1.00  0.00     0.039 A 
ATOM     39  C   UNL A   1      41.463  25.650  25.803  1.00  0.00     0.014 A 
ATOM     40  C   UNL A   1      42.708  25.145  27.795  1.00  0.00     0.014 A 
ATOM     41  C   UNL A   1      41.267  26.938  26.308  1.00  0.00     0.010 A 
ATOM     42  C   UNL A   1      42.058  26.150  28.413  1.00  0.00     0.010 A 
ATOM     43  C   UNL A   1      41.651  27.191  27.624  1.00  0.00    -0.014 A 
BRANCH  43  44
ATOM     44  C   UNL A   1      41.440  28.414  28.363  1.00  0.00     0.031 A 
ATOM     45  C   UNL A   1      42.489  29.414  28.063  1.00  0.00     0.074 A 
ATOM     46  C   UNL A   1      40.275  28.660  29.011  1.00  0.00     0.049 A 
ATOM     47  N   UNL A   1      43.551  29.618  28.766  1.00  0.00    -0.248 NA
ATOM     48  C   UNL A   1      42.551  30.024  26.718  1.00  0.00     0.031 C 
ATOM     49  C   UNL A   1      39.046  27.856  29.112  1.00  0.00     0.029 A 
ATOM     50  N   UNL A   1      39.929  29.772  29.704  1.00  0.00    -0.354 N 
ATOM     51  C   UNL A   1      44.248  30.613  28.098  1.00  0.00     0.074 A 
ATOM     52  C   UNL A   1      43.756  30.598  26.748  1.00  0.00     0.031 C 
ATOM     53  C   UNL A   1      38.040  28.608  29.632  1.00  0.00     0.029 A 
ATOM     54  C   UNL A   1      38.581  29.891  30.044  1.00  0.00     0.049 A 
ATOM     55  H   UNL A   1      40.591  30.457  29.955  1.00  0.00     0.167 HD
ATOM     56  C   UNL A   1      44.926  31.568  28.791  1.00  0.00     0.031 A 
ATOM     57  C   UNL A   1      37.992  30.988  30.604  1.00  0.00     0.031 A 
ATOM     58  C   UNL A   1      44.985  31.228  30.194  1.00  0.00     0.049 A 
ATOM     59  C   UNL A   1      39.102  31.764  31.236  1.00  0.00     0.074 A 
ATOM     60  C   UNL A   1      45.532  30.178  30.905  1.00  0.00     0.029 A 
ATOM     61  N   UNL A   1      43.997  31.763  30.993  1.00  0.00    -0.354 N 
ATOM     62  N   UNL A   1      39.802  31.287  32.233  1.00  0.00    -0.248 NA
ATOM     63  C   UNL A   1      39.790  32.745  30.405  1.00  0.00     0.031 C 
ATOM     64  C   UNL A   1      44.535  29.831  31.863  1.00  0.00     0.029 A 
ATOM     65  C   UNL A   1      43.493  30.760  31.786  1.00  0.00     0.049 A 
ATOM     66  H   UNL A   1      43.702  32.703  30.994  1.00  0.00     0.167 HD
ATOM     67  C   UNL A   1      41.126  31.557  31.906  1.00  0.00     0.074 A 
ATOM     68  C   UNL A   1      41.051  32.498  30.781  1.00  0.00     0.031 C 
ATOM     69  C   UNL A   1      42.147  30.749  32.329  1.00  0.00     0.031 A 
BRANCH  56  70
ATOM     70  C   UNL A   1      45.150  32.976  28.307  1.00  0.00    -0.014 A 
ATOM     71  C   UNL A   1      46.465  33.481  28.327  1.00  0.00     0.010 A 
ATOM     72  C   UNL A   1      44.112  33.901  28.068  1.00  0.00     0.010 A 
ATOM     73  C   UNL A   1      46.722  34.848  28.179  1.00  0.00     0.020 A 
ATOM     74  C   UNL A   1      44.361  35.263  27.883  1.00  0.00     0.020 A 
ATOM     75  C   UNL A   1      45.665  35.731  27.967  1.00  0.00     0.054 A 
BRANCH  75  76
ATOM     76  S   UNL A   1      46.012  37.502  27.844  1.00  0.00     0.124 S 
ATOM     77  O   UNL A   1      47.449  37.512  27.583  1.00  0.00    -0.237 OA
ATOM     78  O   UNL A   1      45.162  37.903  26.727  1.00  0.00    -0.237 OA
ATOM     79  O   UNL A   1      45.607  38.022  29.148  1.00  0.00    -0.744 OA
ENDBRANCH  75  76
ENDBRANCH  56  70
BRANCH  57  80
ATOM     80  C   UNL A   1      36.689  31.615  30.213  1.00  0.00    -0.014 A 
ATOM     81  C   UNL A   1      35.831  32.232  31.150  1.00  0.00     0.010 A 
ATOM     82  C   UNL A   1      36.430  31.869  28.850  1.00  0.00     0.010 A 
ATOM     83  C   UNL A   1      34.802  33.110  30.739  1.00  0.00     0.020 A 
ATOM     84  C   UNL A   1      35.414  32.741  28.433  1.00  0.00     0.020 A 
ATOM     85  C   UNL A   1      34.616  33.379  29.380  1.00  0.00     0.054 A 
BRANCH  85  86
ATOM     86  S   UNL A   1      33.425  34.655  28.852  1.00  0.00     0.124 S 
ATOM     87  O   UNL A   1      34.299  35.706  28.336  1.00  0.00    -0.237 OA
ATOM     88  O   UNL A   1      32.626  33.954  27.853  1.00  0.00    -0.237 OA
ATOM     89  O   UNL A   1      32.713  34.996  30.083  1.00  0.00    -0.744 OA
ENDBRANCH  85  86
ENDBRANCH  57  80
BRANCH  69  90
ATOM     90  C   UNL A   1      41.839  29.641  33.321  1.00  0.00    -0.014 A 
ATOM     91  C   UNL A   1      41.420  28.336  32.976  1.00  0.00     0.010 A 
ATOM     92  C   UNL A   1      42.167  29.893  34.663  1.00  0.00     0.010 A 
ATOM     93  C   UNL A   1      41.306  27.331  33.957  1.00  0.00     0.020 A 
ATOM     94  C   UNL A   1      42.073  28.898  35.637  1.00  0.00     0.020 A 
ATOM     95  C   UNL A   1      41.627  27.624  35.286  1.00  0.00     0.054 A 
BRANCH  95  96
ATOM     96  S   UNL A   1      41.489  26.337  36.561  1.00  0.00     0.124 S 
ATOM     97  O   UNL A   1      40.583  26.948  37.529  1.00  0.00    -0.237 OA
ATOM     98  O   UNL A   1      40.945  25.201  35.821  1.00  0.00    -0.237 OA
ATOM     99  O   UNL A   1      42.863  26.161  37.028  1.00  0.00    -0.744 OA
ENDBRANCH  95  96
ENDBRANCH  69  90
ENDBRANCH  43  44
ENDBRANCH  35  38
ENDBRANCH  33  34
ENDBRANCH  32  33
ENDBRANCH   1  32
TORSDOF 18
ENDMDL
