MODEL 1
REMARK VINA RESULT:     -10.8      0.000      0.000
REMARK SMILES O=C(NCCCCCCNC(=O)[C@H]1C[C@@H]1C(=O)Nc1ccc(Cl)c(Br)c1)c1ccc(-c2c3nc(c(-c4ccc(S(=O)(=O)[O-])cc4)c4ccc([nH]4)c(-c4ccc(S(=O)(=O)[O-])cc4)c4nc(c(-c5ccc(S(=O)(=O)[O-])cc5)c5ccc2[nH]5)C=C4)C=C3)cc1
REMARK SMILES IDX 6 1 5 2 4 3 3 4 1 5 2 6 27 8 28 9 86 10 29 11 85 12 30 13
REMARK SMILES IDX 31 14 32 15 79 16 33 17 84 18 78 19 80 20 34 21 83 22 77 23
REMARK SMILES IDX 76 24 35 26 65 27 46 28 64 29 47 30 50 31 63 32 81 33 48 34
REMARK SMILES IDX 49 35 62 37 82 38 51 39 36 40 37 41 45 42 38 43 44 44 39 45
REMARK SMILES IDX 40 46 41 47 42 48 43 49 66 50 67 51 75 52 68 53 74 54 69 55
REMARK SMILES IDX 70 56 71 57 72 58 73 59 52 60 53 61 61 62 54 63 60 64 55 65
REMARK SMILES IDX 56 66 57 67 58 68 59 69 7 70 8 71 9 72 10 73 11 74 12 76
REMARK SMILES IDX 13 77 14 78 15 79 16 80 17 81 18 82 19 84 20 85 26 86 21 87
REMARK SMILES IDX 24 88 22 89 25 90 23 91
REMARK H PARENT 3 7 80 25 50 36 10 75 18 83
REMARK Flexibility Score: inf
ROOT
ATOM      1  C   UNL A   1      31.639  27.817  26.860  1.00  0.00     0.002 C 
ENDROOT
BRANCH   1   2
ATOM      2  C   UNL A   1      33.163  27.647  26.836  1.00  0.00     0.021 C 
BRANCH   2   3
ATOM      3  C   UNL A   1      33.942  28.812  26.229  1.00  0.00     0.116 C 
BRANCH   3   4
ATOM      4  N   UNL A   1      33.693  30.066  26.914  1.00  0.00    -0.352 N 
ATOM      5  O   UNL A   1      34.013  31.718  28.401  1.00  0.00    -0.269 OA
ATOM      6  C   UNL A   1      34.467  30.726  27.835  1.00  0.00     0.251 C 
ATOM      7  H   UNL A   1      32.844  30.509  26.683  1.00  0.00     0.163 HD
BRANCH   6   8
ATOM      8  C   UNL A   1      35.828  30.245  28.169  1.00  0.00     0.039 A 
ATOM      9  C   UNL A   1      36.035  29.666  29.425  1.00  0.00     0.014 A 
ATOM     10  C   UNL A   1      36.905  30.408  27.292  1.00  0.00     0.014 A 
ATOM     11  C   UNL A   1      37.309  29.226  29.789  1.00  0.00     0.010 A 
ATOM     12  C   UNL A   1      38.168  29.921  27.636  1.00  0.00     0.010 A 
ATOM     13  C   UNL A   1      38.385  29.339  28.893  1.00  0.00    -0.014 A 
BRANCH  13  14
ATOM     14  C   UNL A   1      39.740  28.879  29.283  1.00  0.00     0.031 A 
ATOM     15  C   UNL A   1      40.612  29.738  30.158  1.00  0.00     0.074 A 
ATOM     16  C   UNL A   1      40.191  27.685  28.854  1.00  0.00     0.049 A 
ATOM     17  N   UNL A   1      41.812  29.490  30.619  1.00  0.00    -0.248 NA
ATOM     18  C   UNL A   1      40.074  31.049  30.552  1.00  0.00     0.031 C 
ATOM     19  C   UNL A   1      39.453  26.770  27.982  1.00  0.00     0.029 A 
ATOM     20  N   UNL A   1      41.369  27.029  29.106  1.00  0.00    -0.354 N 
ATOM     21  C   UNL A   1      42.170  30.610  31.359  1.00  0.00     0.074 A 
ATOM     22  C   UNL A   1      41.085  31.561  31.240  1.00  0.00     0.031 C 
ATOM     23  C   UNL A   1      40.177  25.653  27.807  1.00  0.00     0.029 A 
ATOM     24  C   UNL A   1      41.438  25.782  28.533  1.00  0.00     0.049 A 
ATOM     25  H   UNL A   1      42.096  27.416  29.646  1.00  0.00     0.167 HD
ATOM     26  C   UNL A   1      43.290  30.822  32.091  1.00  0.00     0.031 A 
ATOM     27  C   UNL A   1      42.398  24.838  28.596  1.00  0.00     0.031 A 
ATOM     28  C   UNL A   1      44.368  29.878  32.215  1.00  0.00     0.049 A 
ATOM     29  C   UNL A   1      43.629  25.087  29.416  1.00  0.00     0.074 A 
ATOM     30  C   UNL A   1      45.538  30.000  32.943  1.00  0.00     0.029 A 
ATOM     31  N   UNL A   1      44.405  28.634  31.604  1.00  0.00    -0.354 N 
ATOM     32  N   UNL A   1      43.946  26.150  30.117  1.00  0.00    -0.248 NA
ATOM     33  C   UNL A   1      44.628  24.011  29.464  1.00  0.00     0.031 C 
ATOM     34  C   UNL A   1      46.298  28.842  32.746  1.00  0.00     0.029 A 
ATOM     35  C   UNL A   1      45.581  27.981  31.930  1.00  0.00     0.049 A 
ATOM     36  H   UNL A   1      43.700  28.269  31.022  1.00  0.00     0.167 HD
ATOM     37  C   UNL A   1      45.181  25.871  30.690  1.00  0.00     0.074 A 
ATOM     38  C   UNL A   1      45.544  24.531  30.272  1.00  0.00     0.031 C 
ATOM     39  C   UNL A   1      45.944  26.658  31.487  1.00  0.00     0.031 A 
BRANCH  26  40
ATOM     40  C   UNL A   1      43.394  32.129  32.830  1.00  0.00    -0.014 A 
ATOM     41  C   UNL A   1      44.173  33.175  32.306  1.00  0.00     0.010 A 
ATOM     42  C   UNL A   1      42.744  32.308  34.064  1.00  0.00     0.010 A 
ATOM     43  C   UNL A   1      44.296  34.382  33.000  1.00  0.00     0.020 A 
ATOM     44  C   UNL A   1      42.845  33.522  34.749  1.00  0.00     0.020 A 
ATOM     45  C   UNL A   1      43.630  34.548  34.217  1.00  0.00     0.054 A 
BRANCH  45  46
ATOM     46  S   UNL A   1      43.748  36.137  35.086  1.00  0.00     0.124 S 
ATOM     47  O   UNL A   1      42.642  36.889  34.503  1.00  0.00    -0.237 OA
ATOM     48  O   UNL A   1      43.585  35.755  36.487  1.00  0.00    -0.237 OA
ATOM     49  O   UNL A   1      45.085  36.613  34.735  1.00  0.00    -0.744 OA
ENDBRANCH  45  46
ENDBRANCH  26  40
BRANCH  27  50
ATOM     50  C   UNL A   1      42.179  23.549  27.890  1.00  0.00    -0.014 A 
ATOM     51  C   UNL A   1      41.473  22.506  28.515  1.00  0.00     0.010 A 
ATOM     52  C   UNL A   1      42.772  23.324  26.635  1.00  0.00     0.010 A 
ATOM     53  C   UNL A   1      41.410  21.242  27.924  1.00  0.00     0.020 A 
ATOM     54  C   UNL A   1      42.695  22.065  26.032  1.00  0.00     0.020 A 
ATOM     55  C   UNL A   1      42.041  21.024  26.696  1.00  0.00     0.054 A 
BRANCH  55  56
ATOM     56  S   UNL A   1      42.017  19.358  25.980  1.00  0.00     0.124 S 
ATOM     57  O   UNL A   1      40.600  19.188  25.669  1.00  0.00    -0.237 OA
ATOM     58  O   UNL A   1      42.902  19.489  24.825  1.00  0.00    -0.237 OA
ATOM     59  O   UNL A   1      42.527  18.516  27.060  1.00  0.00    -0.744 OA
ENDBRANCH  55  56
ENDBRANCH  27  50
BRANCH  39  60
ATOM     60  C   UNL A   1      47.267  26.111  31.950  1.00  0.00    -0.014 A 
ATOM     61  C   UNL A   1      48.383  26.154  31.095  1.00  0.00     0.010 A 
ATOM     62  C   UNL A   1      47.379  25.472  33.197  1.00  0.00     0.010 A 
ATOM     63  C   UNL A   1      49.586  25.555  31.473  1.00  0.00     0.020 A 
ATOM     64  C   UNL A   1      48.588  24.888  33.586  1.00  0.00     0.020 A 
ATOM     65  C   UNL A   1      49.679  24.918  32.714  1.00  0.00     0.054 A 
BRANCH  65  66
ATOM     66  S   UNL A   1      51.247  24.144  33.198  1.00  0.00     0.124 S 
ATOM     67  O   UNL A   1      50.855  22.751  33.390  1.00  0.00    -0.237 OA
ATOM     68  O   UNL A   1      52.109  24.403  32.047  1.00  0.00    -0.237 OA
ATOM     69  O   UNL A   1      51.617  24.864  34.415  1.00  0.00    -0.744 OA
ENDBRANCH  65  66
ENDBRANCH  39  60
ENDBRANCH  13  14
ENDBRANCH   6   8
ENDBRANCH   3   4
ENDBRANCH   2   3
ENDBRANCH   1   2
BRANCH   1  70
ATOM     70  C   UNL A   1      30.830  26.681  26.219  1.00  0.00     0.002 C 
BRANCH  70  71
ATOM     71  C   UNL A   1      31.441  25.282  26.359  1.00  0.00     0.021 C 
BRANCH  71  72
ATOM     72  C   UNL A   1      31.790  24.628  25.023  1.00  0.00     0.116 C 
BRANCH  72  73
ATOM     73  N   UNL A   1      33.192  24.260  24.972  1.00  0.00    -0.356 N 
ATOM     74  C   UNL A   1      34.247  24.717  24.235  1.00  0.00     0.223 C 
ATOM     75  H   UNL A   1      33.430  23.536  25.594  1.00  0.00     0.163 HD
ATOM     76  O   UNL A   1      35.347  24.196  24.408  1.00  0.00    -0.275 OA
BRANCH  74  77
ATOM     77  C   UNL A   1      34.160  25.864  23.301  1.00  0.00     0.091 C 
ATOM     78  C   UNL A   1      33.254  25.749  22.101  1.00  0.00     0.028 C 
ATOM     79  C   UNL A   1      33.010  26.824  23.135  1.00  0.00     0.092 C 
BRANCH  79  80
ATOM     80  C   UNL A   1      33.222  28.259  22.785  1.00  0.00     0.228 C 
ATOM     81  O   UNL A   1      34.363  28.696  22.684  1.00  0.00    -0.274 OA
ATOM     82  N   UNL A   1      32.147  29.005  22.354  1.00  0.00    -0.326 N 
ATOM     83  H   UNL A   1      32.370  29.747  21.747  1.00  0.00     0.169 HD
BRANCH  82  84
ATOM     84  C   UNL A   1      30.784  28.866  22.651  1.00  0.00     0.042 A 
ATOM     85  C   UNL A   1      30.194  27.618  22.848  1.00  0.00     0.028 A 
ATOM     86  C   UNL A   1      30.018  30.018  22.841  1.00  0.00     0.043 A 
ATOM     87  C   UNL A   1      28.832  27.513  23.142  1.00  0.00     0.024 A 
ATOM     88  C   UNL A   1      28.646  29.918  23.114  1.00  0.00     0.038 A 
ATOM     89  C   UNL A   1      28.049  28.661  23.253  1.00  0.00     0.055 A 
ATOM     90  Br  UNL A   1      27.661  31.534  23.250  1.00  0.00    -0.049 Br
ATOM     91  Cl  UNL A   1      26.362  28.447  23.557  1.00  0.00    -0.083 Cl
ENDBRANCH  82  84
ENDBRANCH  79  80
ENDBRANCH  74  77
ENDBRANCH  72  73
ENDBRANCH  71  72
ENDBRANCH  70  71
ENDBRANCH   1  70
TORSDOF 18
ENDMDL
MODEL 2
REMARK VINA RESULT:     -10.4      4.097      9.916
REMARK SMILES O=C(NCCCCCCNC(=O)[C@H]1C[C@@H]1C(=O)Nc1ccc(Cl)c(Br)c1)c1ccc(-c2c3nc(c(-c4ccc(S(=O)(=O)[O-])cc4)c4ccc([nH]4)c(-c4ccc(S(=O)(=O)[O-])cc4)c4nc(c(-c5ccc(S(=O)(=O)[O-])cc5)c5ccc2[nH]5)C=C4)C=C3)cc1
REMARK SMILES IDX 6 1 5 2 4 3 3 4 1 5 2 6 27 8 28 9 86 10 29 11 85 12 30 13
REMARK SMILES IDX 31 14 32 15 79 16 33 17 84 18 78 19 80 20 34 21 83 22 77 23
REMARK SMILES IDX 76 24 35 26 65 27 46 28 64 29 47 30 50 31 63 32 81 33 48 34
REMARK SMILES IDX 49 35 62 37 82 38 51 39 36 40 37 41 45 42 38 43 44 44 39 45
REMARK SMILES IDX 40 46 41 47 42 48 43 49 66 50 67 51 75 52 68 53 74 54 69 55
REMARK SMILES IDX 70 56 71 57 72 58 73 59 52 60 53 61 61 62 54 63 60 64 55 65
REMARK SMILES IDX 56 66 57 67 58 68 59 69 7 70 8 71 9 72 10 73 11 74 12 76
REMARK SMILES IDX 13 77 14 78 15 79 16 80 17 81 18 82 19 84 20 85 26 86 21 87
REMARK SMILES IDX 24 88 22 89 25 90 23 91
REMARK H PARENT 3 7 80 25 50 36 10 75 18 83
REMARK Flexibility Score: inf
ROOT
ATOM      1  C   UNL A   1      38.321  23.777  26.113  1.00  0.00     0.002 C 
ENDROOT
BRANCH   1   2
ATOM      2  C   UNL A   1      39.214  22.623  26.583  1.00  0.00     0.021 C 
BRANCH   2   3
ATOM      3  C   UNL A   1      40.603  23.027  27.072  1.00  0.00     0.116 C 
BRANCH   3   4
ATOM      4  N   UNL A   1      41.374  23.716  26.054  1.00  0.00    -0.352 N 
ATOM      5  O   UNL A   1      42.338  25.447  24.996  1.00  0.00    -0.269 OA
ATOM      6  C   UNL A   1      41.808  25.017  26.019  1.00  0.00     0.251 C 
ATOM      7  H   UNL A   1      41.622  23.169  25.273  1.00  0.00     0.163 HD
BRANCH   6   8
ATOM      8  C   UNL A   1      41.626  25.911  27.186  1.00  0.00     0.039 A 
ATOM      9  C   UNL A   1      40.526  25.693  28.021  1.00  0.00     0.014 A 
ATOM     10  C   UNL A   1      42.485  26.987  27.433  1.00  0.00     0.014 A 
ATOM     11  C   UNL A   1      40.304  26.531  29.116  1.00  0.00     0.010 A 
ATOM     12  C   UNL A   1      42.291  27.794  28.557  1.00  0.00     0.010 A 
ATOM     13  C   UNL A   1      41.191  27.582  29.400  1.00  0.00    -0.014 A 
BRANCH  13  14
ATOM     14  C   UNL A   1      40.950  28.478  30.558  1.00  0.00     0.031 A 
ATOM     15  C   UNL A   1      41.825  28.397  31.778  1.00  0.00     0.074 A 
ATOM     16  C   UNL A   1      39.943  29.371  30.514  1.00  0.00     0.049 A 
ATOM     17  N   UNL A   1      41.780  29.113  32.872  1.00  0.00    -0.248 NA
ATOM     18  C   UNL A   1      42.877  27.368  31.775  1.00  0.00     0.031 C 
ATOM     19  C   UNL A   1      39.008  29.532  29.399  1.00  0.00     0.029 A 
ATOM     20  N   UNL A   1      39.548  30.321  31.422  1.00  0.00    -0.354 N 
ATOM     21  C   UNL A   1      42.795  28.626  33.685  1.00  0.00     0.074 A 
ATOM     22  C   UNL A   1      43.405  27.518  32.982  1.00  0.00     0.031 C 
ATOM     23  C   UNL A   1      38.175  30.550  29.671  1.00  0.00     0.029 A 
ATOM     24  C   UNL A   1      38.501  31.097  30.986  1.00  0.00     0.049 A 
ATOM     25  H   UNL A   1      39.974  30.435  32.302  1.00  0.00     0.167 HD
ATOM     26  C   UNL A   1      43.201  29.074  34.897  1.00  0.00     0.031 A 
ATOM     27  C   UNL A   1      37.881  32.143  31.567  1.00  0.00     0.031 A 
ATOM     28  C   UNL A   1      42.601  30.178  35.597  1.00  0.00     0.049 A 
ATOM     29  C   UNL A   1      38.348  32.629  32.907  1.00  0.00     0.074 A 
ATOM     30  C   UNL A   1      42.951  30.710  36.825  1.00  0.00     0.029 A 
ATOM     31  N   UNL A   1      41.532  30.925  35.127  1.00  0.00    -0.354 N 
ATOM     32  N   UNL A   1      39.317  32.161  33.657  1.00  0.00    -0.248 NA
ATOM     33  C   UNL A   1      37.648  33.788  33.477  1.00  0.00     0.031 C 
ATOM     34  C   UNL A   1      42.072  31.760  37.113  1.00  0.00     0.029 A 
ATOM     35  C   UNL A   1      41.203  31.909  36.044  1.00  0.00     0.049 A 
ATOM     36  H   UNL A   1      41.073  30.777  34.269  1.00  0.00     0.167 HD
ATOM     37  C   UNL A   1      39.344  32.967  34.789  1.00  0.00     0.074 A 
ATOM     38  C   UNL A   1      38.309  33.967  34.615  1.00  0.00     0.031 C 
ATOM     39  C   UNL A   1      40.153  32.882  35.872  1.00  0.00     0.031 A 
BRANCH  26  40
ATOM     40  C   UNL A   1      44.368  28.370  35.537  1.00  0.00    -0.014 A 
ATOM     41  C   UNL A   1      44.149  27.278  36.395  1.00  0.00     0.010 A 
ATOM     42  C   UNL A   1      45.683  28.814  35.313  1.00  0.00     0.010 A 
ATOM     43  C   UNL A   1      45.226  26.637  37.014  1.00  0.00     0.020 A 
ATOM     44  C   UNL A   1      46.764  28.160  35.910  1.00  0.00     0.020 A 
ATOM     45  C   UNL A   1      46.527  27.082  36.767  1.00  0.00     0.054 A 
BRANCH  45  46
ATOM     46  S   UNL A   1      47.925  26.210  37.529  1.00  0.00     0.124 S 
ATOM     47  O   UNL A   1      49.055  26.696  36.745  1.00  0.00    -0.237 OA
ATOM     48  O   UNL A   1      47.874  26.665  38.916  1.00  0.00    -0.237 OA
ATOM     49  O   UNL A   1      47.586  24.800  37.336  1.00  0.00    -0.744 OA
ENDBRANCH  45  46
ENDBRANCH  26  40
BRANCH  27  50
ATOM     50  C   UNL A   1      36.783  32.822  30.830  1.00  0.00    -0.014 A 
ATOM     51  C   UNL A   1      37.069  33.844  29.910  1.00  0.00     0.010 A 
ATOM     52  C   UNL A   1      35.443  32.521  31.132  1.00  0.00     0.010 A 
ATOM     53  C   UNL A   1      36.036  34.594  29.344  1.00  0.00     0.020 A 
ATOM     54  C   UNL A   1      34.406  33.257  30.552  1.00  0.00     0.020 A 
ATOM     55  C   UNL A   1      34.711  34.310  29.686  1.00  0.00     0.054 A 
BRANCH  55  56
ATOM     56  S   UNL A   1      33.386  35.343  29.003  1.00  0.00     0.124 S 
ATOM     57  O   UNL A   1      34.131  36.239  28.123  1.00  0.00    -0.237 OA
ATOM     58  O   UNL A   1      32.530  34.369  28.330  1.00  0.00    -0.237 OA
ATOM     59  O   UNL A   1      32.800  35.971  30.186  1.00  0.00    -0.744 OA
ENDBRANCH  55  56
ENDBRANCH  27  50
BRANCH  39  60
ATOM     60  C   UNL A   1      39.945  33.879  36.980  1.00  0.00    -0.014 A 
ATOM     61  C   UNL A   1      39.180  33.528  38.107  1.00  0.00     0.010 A 
ATOM     62  C   UNL A   1      40.433  35.192  36.860  1.00  0.00     0.010 A 
ATOM     63  C   UNL A   1      38.893  34.478  39.090  1.00  0.00     0.020 A 
ATOM     64  C   UNL A   1      40.163  36.139  37.852  1.00  0.00     0.020 A 
ATOM     65  C   UNL A   1      39.379  35.781  38.951  1.00  0.00     0.054 A 
BRANCH  65  66
ATOM     66  S   UNL A   1      39.003  37.008  40.234  1.00  0.00     0.124 S 
ATOM     67  O   UNL A   1      38.032  36.300  41.061  1.00  0.00    -0.237 OA
ATOM     68  O   UNL A   1      40.306  37.243  40.855  1.00  0.00    -0.237 OA
ATOM     69  O   UNL A   1      38.474  38.139  39.475  1.00  0.00    -0.744 OA
ENDBRANCH  65  66
ENDBRANCH  39  60
ENDBRANCH  13  14
ENDBRANCH   6   8
ENDBRANCH   3   4
ENDBRANCH   2   3
ENDBRANCH   1   2
BRANCH   1  70
ATOM     70  C   UNL A   1      37.131  23.382  25.227  1.00  0.00     0.002 C 
BRANCH  70  71
ATOM     71  C   UNL A   1      35.834  23.059  25.979  1.00  0.00     0.021 C 
BRANCH  71  72
ATOM     72  C   UNL A   1      35.068  21.871  25.399  1.00  0.00     0.116 C 
BRANCH  72  73
ATOM     73  N   UNL A   1      34.548  22.179  24.080  1.00  0.00    -0.356 N 
ATOM     74  C   UNL A   1      33.300  22.493  23.623  1.00  0.00     0.223 C 
ATOM     75  H   UNL A   1      35.232  22.157  23.374  1.00  0.00     0.163 HD
ATOM     76  O   UNL A   1      33.157  22.703  22.421  1.00  0.00    -0.275 OA
BRANCH  74  77
ATOM     77  C   UNL A   1      32.125  22.680  24.507  1.00  0.00     0.091 C 
ATOM     78  C   UNL A   1      31.638  21.505  25.315  1.00  0.00     0.028 C 
ATOM     79  C   UNL A   1      32.116  22.758  26.012  1.00  0.00     0.092 C 
BRANCH  79  80
ATOM     80  C   UNL A   1      31.146  23.617  26.753  1.00  0.00     0.228 C 
ATOM     81  O   UNL A   1      30.313  23.096  27.487  1.00  0.00    -0.274 OA
ATOM     82  N   UNL A   1      31.353  24.978  26.785  1.00  0.00    -0.326 N 
ATOM     83  H   UNL A   1      31.001  25.436  27.583  1.00  0.00     0.169 HD
BRANCH  82  84
ATOM     84  C   UNL A   1      31.986  25.810  25.852  1.00  0.00     0.042 A 
ATOM     85  C   UNL A   1      33.361  26.039  25.879  1.00  0.00     0.028 A 
ATOM     86  C   UNL A   1      31.227  26.353  24.813  1.00  0.00     0.043 A 
ATOM     87  C   UNL A   1      33.963  26.874  24.935  1.00  0.00     0.024 A 
ATOM     88  C   UNL A   1      31.823  27.210  23.876  1.00  0.00     0.038 A 
ATOM     89  C   UNL A   1      33.193  27.481  23.944  1.00  0.00     0.055 A 
ATOM     90  Br  UNL A   1      30.695  27.987  22.561  1.00  0.00    -0.049 Br
ATOM     91  Cl  UNL A   1      33.999  28.548  22.851  1.00  0.00    -0.083 Cl
ENDBRANCH  82  84
ENDBRANCH  79  80
ENDBRANCH  74  77
ENDBRANCH  72  73
ENDBRANCH  71  72
ENDBRANCH  70  71
ENDBRANCH   1  70
TORSDOF 18
ENDMDL
MODEL 3
REMARK VINA RESULT:     -10.2      4.402      5.597
REMARK SMILES O=C(NCCCCCCNC(=O)[C@H]1C[C@@H]1C(=O)Nc1ccc(Cl)c(Br)c1)c1ccc(-c2c3nc(c(-c4ccc(S(=O)(=O)[O-])cc4)c4ccc([nH]4)c(-c4ccc(S(=O)(=O)[O-])cc4)c4nc(c(-c5ccc(S(=O)(=O)[O-])cc5)c5ccc2[nH]5)C=C4)C=C3)cc1
REMARK SMILES IDX 6 1 5 2 4 3 3 4 1 5 2 6 27 8 28 9 86 10 29 11 85 12 30 13
REMARK SMILES IDX 31 14 32 15 79 16 33 17 84 18 78 19 80 20 34 21 83 22 77 23
REMARK SMILES IDX 76 24 35 26 65 27 46 28 64 29 47 30 50 31 63 32 81 33 48 34
REMARK SMILES IDX 49 35 62 37 82 38 51 39 36 40 37 41 45 42 38 43 44 44 39 45
REMARK SMILES IDX 40 46 41 47 42 48 43 49 66 50 67 51 75 52 68 53 74 54 69 55
REMARK SMILES IDX 70 56 71 57 72 58 73 59 52 60 53 61 61 62 54 63 60 64 55 65
REMARK SMILES IDX 56 66 57 67 58 68 59 69 7 70 8 71 9 72 10 73 11 74 12 76
REMARK SMILES IDX 13 77 14 78 15 79 16 80 17 81 18 82 19 84 20 85 26 86 21 87
REMARK SMILES IDX 24 88 22 89 25 90 23 91
REMARK H PARENT 3 7 80 25 50 36 10 75 18 83
REMARK Flexibility Score: inf
ROOT
ATOM      1  C   UNL A   1      35.081  29.505  27.354  1.00  0.00     0.002 C 
ENDROOT
BRANCH   1   2
ATOM      2  C   UNL A   1      34.694  30.872  27.932  1.00  0.00     0.021 C 
BRANCH   2   3
ATOM      3  C   UNL A   1      35.743  31.524  28.828  1.00  0.00     0.116 C 
BRANCH   3   4
ATOM      4  N   UNL A   1      35.692  31.035  30.193  1.00  0.00    -0.352 N 
ATOM      5  O   UNL A   1      36.306  29.846  31.997  1.00  0.00    -0.269 OA
ATOM      6  C   UNL A   1      36.599  30.269  30.881  1.00  0.00     0.251 C 
ATOM      7  H   UNL A   1      34.889  31.292  30.701  1.00  0.00     0.163 HD
BRANCH   6   8
ATOM      8  C   UNL A   1      37.913  29.929  30.286  1.00  0.00     0.039 A 
ATOM      9  C   UNL A   1      38.952  29.560  31.145  1.00  0.00     0.014 A 
ATOM     10  C   UNL A   1      38.147  30.023  28.910  1.00  0.00     0.014 A 
ATOM     11  C   UNL A   1      40.213  29.258  30.626  1.00  0.00     0.010 A 
ATOM     12  C   UNL A   1      39.394  29.672  28.387  1.00  0.00     0.010 A 
ATOM     13  C   UNL A   1      40.442  29.301  29.241  1.00  0.00    -0.014 A 
BRANCH  13  14
ATOM     14  C   UNL A   1      41.784  28.989  28.690  1.00  0.00     0.031 A 
ATOM     15  C   UNL A   1      42.844  30.054  28.622  1.00  0.00     0.074 A 
ATOM     16  C   UNL A   1      42.055  27.745  28.253  1.00  0.00     0.049 A 
ATOM     17  N   UNL A   1      44.078  29.960  28.197  1.00  0.00    -0.248 NA
ATOM     18  C   UNL A   1      42.465  31.401  29.076  1.00  0.00     0.031 C 
ATOM     19  C   UNL A   1      41.106  26.631  28.242  1.00  0.00     0.029 A 
ATOM     20  N   UNL A   1      43.211  27.205  27.748  1.00  0.00    -0.354 N 
ATOM     21  C   UNL A   1      44.623  31.230  28.333  1.00  0.00     0.074 A 
ATOM     22  C   UNL A   1      43.570  32.091  28.830  1.00  0.00     0.031 C 
ATOM     23  C   UNL A   1      41.731  25.529  27.796  1.00  0.00     0.029 A 
ATOM     24  C   UNL A   1      43.115  25.864  27.467  1.00  0.00     0.049 A 
ATOM     25  H   UNL A   1      44.031  27.729  27.601  1.00  0.00     0.167 HD
ATOM     26  C   UNL A   1      45.890  31.642  28.091  1.00  0.00     0.031 A 
ATOM     27  C   UNL A   1      44.037  24.992  27.012  1.00  0.00     0.031 A 
ATOM     28  C   UNL A   1      46.940  30.789  27.602  1.00  0.00     0.049 A 
ATOM     29  C   UNL A   1      45.438  25.464  26.755  1.00  0.00     0.074 A 
ATOM     30  C   UNL A   1      48.259  31.114  27.337  1.00  0.00     0.029 A 
ATOM     31  N   UNL A   1      46.795  29.441  27.314  1.00  0.00    -0.354 N 
ATOM     32  N   UNL A   1      45.937  26.669  26.899  1.00  0.00    -0.248 NA
ATOM     33  C   UNL A   1      46.403  24.462  26.283  1.00  0.00     0.031 C 
ATOM     34  C   UNL A   1      48.903  29.969  26.857  1.00  0.00     0.029 A 
ATOM     35  C   UNL A   1      47.996  28.921  26.865  1.00  0.00     0.049 A 
ATOM     36  H   UNL A   1      45.960  28.929  27.413  1.00  0.00     0.167 HD
ATOM     37  C   UNL A   1      47.274  26.571  26.536  1.00  0.00     0.074 A 
ATOM     38  C   UNL A   1      47.513  25.184  26.186  1.00  0.00     0.031 C 
ATOM     39  C   UNL A   1      48.216  27.544  26.494  1.00  0.00     0.031 A 
BRANCH  26  40
ATOM     40  C   UNL A   1      46.212  33.086  28.369  1.00  0.00    -0.014 A 
ATOM     41  C   UNL A   1      46.159  34.033  27.332  1.00  0.00     0.010 A 
ATOM     42  C   UNL A   1      46.600  33.499  29.656  1.00  0.00     0.010 A 
ATOM     43  C   UNL A   1      46.482  35.371  27.578  1.00  0.00     0.020 A 
ATOM     44  C   UNL A   1      46.901  34.839  29.911  1.00  0.00     0.020 A 
ATOM     45  C   UNL A   1      46.850  35.765  28.866  1.00  0.00     0.054 A 
BRANCH  45  46
ATOM     46  S   UNL A   1      47.215  37.513  29.190  1.00  0.00     0.124 S 
ATOM     47  O   UNL A   1      46.129  37.892  30.088  1.00  0.00    -0.237 OA
ATOM     48  O   UNL A   1      48.545  37.462  29.793  1.00  0.00    -0.237 OA
ATOM     49  O   UNL A   1      47.170  38.118  27.860  1.00  0.00    -0.744 OA
ENDBRANCH  45  46
ENDBRANCH  26  40
BRANCH  27  50
ATOM     50  C   UNL A   1      43.648  23.569  26.832  1.00  0.00    -0.014 A 
ATOM     51  C   UNL A   1      43.494  23.030  25.544  1.00  0.00     0.010 A 
ATOM     52  C   UNL A   1      43.322  22.783  27.952  1.00  0.00     0.010 A 
ATOM     53  C   UNL A   1      42.968  21.748  25.372  1.00  0.00     0.020 A 
ATOM     54  C   UNL A   1      42.813  21.492  27.784  1.00  0.00     0.020 A 
ATOM     55  C   UNL A   1      42.610  20.995  26.494  1.00  0.00     0.054 A 
BRANCH  55  56
ATOM     56  S   UNL A   1      41.856  19.363  26.253  1.00  0.00     0.124 S 
ATOM     57  O   UNL A   1      42.210  18.685  27.497  1.00  0.00    -0.237 OA
ATOM     58  O   UNL A   1      40.440  19.681  26.091  1.00  0.00    -0.237 OA
ATOM     59  O   UNL A   1      42.519  18.856  25.054  1.00  0.00    -0.744 OA
ENDBRANCH  55  56
ENDBRANCH  27  50
BRANCH  39  60
ATOM     60  C   UNL A   1      49.596  27.163  26.031  1.00  0.00    -0.014 A 
ATOM     61  C   UNL A   1      49.951  27.319  24.679  1.00  0.00     0.010 A 
ATOM     62  C   UNL A   1      50.508  26.567  26.919  1.00  0.00     0.010 A 
ATOM     63  C   UNL A   1      51.191  26.871  24.219  1.00  0.00     0.020 A 
ATOM     64  C   UNL A   1      51.757  26.134  26.465  1.00  0.00     0.020 A 
ATOM     65  C   UNL A   1      52.083  26.273  25.113  1.00  0.00     0.054 A 
BRANCH  65  66
ATOM     66  S   UNL A   1      53.693  25.695  24.507  1.00  0.00     0.124 S 
ATOM     67  O   UNL A   1      53.563  25.882  23.065  1.00  0.00    -0.237 OA
ATOM     68  O   UNL A   1      54.635  26.592  25.175  1.00  0.00    -0.237 OA
ATOM     69  O   UNL A   1      53.745  24.306  24.957  1.00  0.00    -0.744 OA
ENDBRANCH  65  66
ENDBRANCH  39  60
ENDBRANCH  13  14
ENDBRANCH   6   8
ENDBRANCH   3   4
ENDBRANCH   2   3
ENDBRANCH   1   2
BRANCH   1  70
ATOM     70  C   UNL A   1      33.981  28.775  26.571  1.00  0.00     0.002 C 
BRANCH  70  71
ATOM     71  C   UNL A   1      32.545  29.112  26.991  1.00  0.00     0.021 C 
BRANCH  71  72
ATOM     72  C   UNL A   1      31.775  29.921  25.948  1.00  0.00     0.116 C 
BRANCH  72  73
ATOM     73  N   UNL A   1      32.161  29.542  24.603  1.00  0.00    -0.356 N 
ATOM     74  C   UNL A   1      31.967  28.412  23.862  1.00  0.00     0.223 C 
ATOM     75  H   UNL A   1      32.665  30.242  24.128  1.00  0.00     0.163 HD
ATOM     76  O   UNL A   1      32.427  28.376  22.723  1.00  0.00    -0.275 OA
BRANCH  74  77
ATOM     77  C   UNL A   1      31.158  27.258  24.323  1.00  0.00     0.091 C 
ATOM     78  C   UNL A   1      31.259  25.959  23.565  1.00  0.00     0.028 C 
ATOM     79  C   UNL A   1      31.651  26.018  25.023  1.00  0.00     0.092 C 
BRANCH  79  80
ATOM     80  C   UNL A   1      30.829  25.308  26.047  1.00  0.00     0.228 C 
ATOM     81  O   UNL A   1      29.893  25.891  26.583  1.00  0.00    -0.274 OA
ATOM     82  N   UNL A   1      30.984  23.948  26.199  1.00  0.00    -0.326 N 
ATOM     83  H   UNL A   1      30.186  23.469  26.521  1.00  0.00     0.169 HD
BRANCH  82  84
ATOM     84  C   UNL A   1      32.108  23.144  25.966  1.00  0.00     0.042 A 
ATOM     85  C   UNL A   1      33.382  23.509  26.400  1.00  0.00     0.028 A 
ATOM     86  C   UNL A   1      31.928  21.900  25.358  1.00  0.00     0.043 A 
ATOM     87  C   UNL A   1      34.483  22.686  26.151  1.00  0.00     0.024 A 
ATOM     88  C   UNL A   1      33.034  21.080  25.086  1.00  0.00     0.038 A 
ATOM     89  C   UNL A   1      34.316  21.480  25.473  1.00  0.00     0.055 A 
ATOM     90  Br  UNL A   1      32.709  19.454  24.161  1.00  0.00    -0.049 Br
ATOM     91  Cl  UNL A   1      35.733  20.547  25.150  1.00  0.00    -0.083 Cl
ENDBRANCH  82  84
ENDBRANCH  79  80
ENDBRANCH  74  77
ENDBRANCH  72  73
ENDBRANCH  71  72
ENDBRANCH  70  71
ENDBRANCH   1  70
TORSDOF 18
ENDMDL
