MODEL 1
REMARK VINA RESULT:     -10.4      0.000      0.000
REMARK SMILES CCCc1nsc(Oc2csc(C(=O)NCCCCCCNC(=O)c3ccc(-c4c5nc(c(-c6ccc(S(=O)(=O)[O-])cc6)c6ccc([nH]6)c(-c6ccc(S(=O)(=O)[O-])cc6)c6nc(c(-c7ccc(S(=O)(=O)[O-])cc7)c7ccc4[nH]7)C=C6)C=C5)cc3)c2)n1
REMARK SMILES IDX 18 1 17 2 16 3 15 4 13 5 14 6 12 8 9 9 10 10 85 11 11 12
REMARK SMILES IDX 8 13 7 14 4 15 5 16 86 17 6 18 3 19 2 20 1 21 19 22 20 23
REMARK SMILES IDX 21 24 22 25 23 26 24 28 25 29 26 30 84 31 27 32 83 33 28 34
REMARK SMILES IDX 29 35 30 36 77 37 31 38 82 39 76 40 78 41 32 42 81 43 75 44
REMARK SMILES IDX 74 45 33 47 63 48 44 49 62 50 45 51 48 52 61 53 79 54 46 55
REMARK SMILES IDX 47 56 60 58 80 59 49 60 34 61 35 62 43 63 36 64 42 65 37 66
REMARK SMILES IDX 38 67 39 68 40 69 41 70 64 71 65 72 73 73 66 74 72 75 67 76
REMARK SMILES IDX 68 77 69 78 70 79 71 80 50 81 51 82 59 83 52 84 58 85 53 86
REMARK SMILES IDX 54 87 55 88 56 89 57 90
REMARK H PARENT 15 7 22 27 78 46 48 57
REMARK Flexibility Score: inf
ROOT
ATOM      1  C   UNL A   1      34.663  31.689  28.032  1.00  0.00     0.002 C 
ENDROOT
BRANCH   1   2
ATOM      2  C   UNL A   1      35.160  30.272  27.710  1.00  0.00     0.021 C 
BRANCH   2   3
ATOM      3  C   UNL A   1      34.178  29.475  26.851  1.00  0.00     0.116 C 
BRANCH   3   4
ATOM      4  N   UNL A   1      33.099  28.960  27.669  1.00  0.00    -0.351 N 
ATOM      5  C   UNL A   1      31.943  28.279  27.377  1.00  0.00     0.261 C 
ATOM      6  O   UNL A   1      31.250  27.999  28.360  1.00  0.00    -0.268 OA
ATOM      7  H   UNL A   1      33.218  29.135  28.630  1.00  0.00     0.163 HD
BRANCH   5   8
ATOM      8  C   UNL A   1      31.595  27.886  26.016  1.00  0.00     0.096 A 
ATOM      9  C   UNL A   1      31.138  27.785  23.727  1.00  0.00     0.141 A 
ATOM     10  C   UNL A   1      31.223  26.445  24.016  1.00  0.00     0.112 A 
ATOM     11  C   UNL A   1      31.276  28.606  24.878  1.00  0.00     0.072 A 
ATOM     12  S   UNL A   1      31.519  26.189  25.677  1.00  0.00    -0.135 S 
BRANCH   9  13
ATOM     13  O   UNL A   1      30.974  28.266  22.474  1.00  0.00    -0.429 OA
BRANCH  13  14
ATOM     14  C   UNL A   1      29.846  28.918  22.197  1.00  0.00     0.298 A 
ATOM     15  C   UNL A   1      28.470  30.438  21.441  1.00  0.00     0.146 A 
ATOM     16  N   UNL A   1      27.553  29.814  22.185  1.00  0.00    -0.172 NA
ATOM     17  N   UNL A   1      29.759  29.938  21.375  1.00  0.00    -0.186 NA
ATOM     18  S   UNL A   1      28.341  28.527  22.914  1.00  0.00     0.025 S 
BRANCH  15  19
ATOM     19  C   UNL A   1      28.161  31.711  20.734  1.00  0.00     0.078 C 
BRANCH  19  20
ATOM     20  C   UNL A   1      27.983  32.891  21.696  1.00  0.00     0.005 C 
ATOM     21  C   UNL A   1      28.843  32.801  22.954  1.00  0.00     0.004 C 
ENDBRANCH  19  20
ENDBRANCH  15  19
ENDBRANCH  13  14
ENDBRANCH   9  13
ENDBRANCH   5   8
ENDBRANCH   3   4
ENDBRANCH   2   3
ENDBRANCH   1   2
BRANCH   1  22
ATOM     22  C   UNL A   1      35.766  32.753  28.120  1.00  0.00     0.002 C 
BRANCH  22  23
ATOM     23  C   UNL A   1      35.867  33.466  29.472  1.00  0.00     0.021 C 
BRANCH  23  24
ATOM     24  C   UNL A   1      36.949  32.909  30.391  1.00  0.00     0.116 C 
BRANCH  24  25
ATOM     25  N   UNL A   1      36.495  31.716  31.088  1.00  0.00    -0.352 N 
ATOM     26  C   UNL A   1      37.015  30.445  31.063  1.00  0.00     0.251 C 
ATOM     27  H   UNL A   1      35.702  31.835  31.658  1.00  0.00     0.163 HD
ATOM     28  O   UNL A   1      36.366  29.508  31.514  1.00  0.00    -0.269 OA
BRANCH  26  29
ATOM     29  C   UNL A   1      38.355  30.215  30.482  1.00  0.00     0.039 A 
ATOM     30  C   UNL A   1      39.439  30.006  31.337  1.00  0.00     0.014 A 
ATOM     31  C   UNL A   1      38.541  30.217  29.097  1.00  0.00     0.014 A 
ATOM     32  C   UNL A   1      40.701  29.743  30.801  1.00  0.00     0.010 A 
ATOM     33  C   UNL A   1      39.783  29.883  28.564  1.00  0.00     0.010 A 
ATOM     34  C   UNL A   1      40.876  29.647  29.409  1.00  0.00    -0.014 A 
BRANCH  34  35
ATOM     35  C   UNL A   1      42.194  29.294  28.822  1.00  0.00     0.031 A 
ATOM     36  C   UNL A   1      42.450  27.898  28.323  1.00  0.00     0.074 A 
ATOM     37  C   UNL A   1      43.181  30.213  28.803  1.00  0.00     0.049 A 
ATOM     38  N   UNL A   1      43.553  27.388  27.838  1.00  0.00    -0.248 NA
ATOM     39  C   UNL A   1      41.331  26.944  28.400  1.00  0.00     0.031 C 
ATOM     40  C   UNL A   1      43.068  31.587  29.302  1.00  0.00     0.029 A 
ATOM     41  N   UNL A   1      44.477  30.128  28.360  1.00  0.00    -0.354 N 
ATOM     42  C   UNL A   1      43.269  26.052  27.575  1.00  0.00     0.074 A 
ATOM     43  C   UNL A   1      41.904  25.820  27.992  1.00  0.00     0.031 C 
ATOM     44  C   UNL A   1      44.239  32.218  29.118  1.00  0.00     0.029 A 
ATOM     45  C   UNL A   1      45.197  31.287  28.532  1.00  0.00     0.049 A 
ATOM     46  H   UNL A   1      44.855  29.313  27.958  1.00  0.00     0.167 HD
ATOM     47  C   UNL A   1      44.069  25.110  27.023  1.00  0.00     0.031 A 
ATOM     48  C   UNL A   1      46.488  31.566  28.264  1.00  0.00     0.031 A 
ATOM     49  C   UNL A   1      45.422  25.351  26.594  1.00  0.00     0.049 A 
ATOM     50  C   UNL A   1      47.355  30.500  27.651  1.00  0.00     0.074 A 
ATOM     51  C   UNL A   1      46.287  24.481  25.955  1.00  0.00     0.029 A 
ATOM     52  N   UNL A   1      46.107  26.544  26.767  1.00  0.00    -0.354 N 
ATOM     53  N   UNL A   1      47.042  29.267  27.331  1.00  0.00    -0.248 NA
ATOM     54  C   UNL A   1      48.746  30.867  27.351  1.00  0.00     0.031 C 
ATOM     55  C   UNL A   1      47.518  25.127  25.799  1.00  0.00     0.029 A 
ATOM     56  C   UNL A   1      47.396  26.421  26.277  1.00  0.00     0.049 A 
ATOM     57  H   UNL A   1      45.733  27.357  27.176  1.00  0.00     0.167 HD
ATOM     58  C   UNL A   1      48.189  28.719  26.768  1.00  0.00     0.074 A 
ATOM     59  C   UNL A   1      49.196  29.760  26.774  1.00  0.00     0.031 C 
ATOM     60  C   UNL A   1      48.389  27.467  26.289  1.00  0.00     0.031 A 
BRANCH  47  61
ATOM     61  C   UNL A   1      43.509  23.720  26.857  1.00  0.00    -0.014 A 
ATOM     62  C   UNL A   1      43.626  23.024  25.640  1.00  0.00     0.010 A 
ATOM     63  C   UNL A   1      42.911  23.077  27.956  1.00  0.00     0.010 A 
ATOM     64  C   UNL A   1      43.127  21.725  25.517  1.00  0.00     0.020 A 
ATOM     65  C   UNL A   1      42.438  21.766  27.846  1.00  0.00     0.020 A 
ATOM     66  C   UNL A   1      42.536  21.104  26.622  1.00  0.00     0.054 A 
BRANCH  66  67
ATOM     67  S   UNL A   1      41.933  19.402  26.442  1.00  0.00     0.124 S 
ATOM     68  O   UNL A   1      40.486  19.588  26.500  1.00  0.00    -0.237 OA
ATOM     69  O   UNL A   1      42.464  19.011  25.139  1.00  0.00    -0.237 OA
ATOM     70  O   UNL A   1      42.517  18.704  27.585  1.00  0.00    -0.744 OA
ENDBRANCH  66  67
ENDBRANCH  47  61
BRANCH  48  71
ATOM     71  C   UNL A   1      47.039  32.914  28.579  1.00  0.00    -0.014 A 
ATOM     72  C   UNL A   1      47.616  33.180  29.833  1.00  0.00     0.010 A 
ATOM     73  C   UNL A   1      46.992  33.940  27.617  1.00  0.00     0.010 A 
ATOM     74  C   UNL A   1      48.113  34.454  30.128  1.00  0.00     0.020 A 
ATOM     75  C   UNL A   1      47.517  35.205  27.897  1.00  0.00     0.020 A 
ATOM     76  C   UNL A   1      48.061  35.458  29.157  1.00  0.00     0.054 A 
BRANCH  76  77
ATOM     77  S   UNL A   1      48.750  37.090  29.546  1.00  0.00     0.124 S 
ATOM     78  O   UNL A   1      49.269  37.516  28.250  1.00  0.00    -0.237 OA
ATOM     79  O   UNL A   1      47.580  37.818  30.031  1.00  0.00    -0.237 OA
ATOM     80  O   UNL A   1      49.759  36.802  30.562  1.00  0.00    -0.744 OA
ENDBRANCH  76  77
ENDBRANCH  48  71
BRANCH  60  81
ATOM     81  C   UNL A   1      49.738  27.155  25.697  1.00  0.00    -0.014 A 
ATOM     82  C   UNL A   1      50.070  27.544  24.387  1.00  0.00     0.010 A 
ATOM     83  C   UNL A   1      50.710  26.517  26.489  1.00  0.00     0.010 A 
ATOM     84  C   UNL A   1      51.340  27.274  23.871  1.00  0.00     0.020 A 
ATOM     85  C   UNL A   1      51.991  26.273  25.987  1.00  0.00     0.020 A 
ATOM     86  C   UNL A   1      52.294  26.641  24.676  1.00  0.00     0.054 A 
BRANCH  86  87
ATOM     87  S   UNL A   1      53.950  26.346  23.999  1.00  0.00     0.124 S 
ATOM     88  O   UNL A   1      53.660  26.074  22.594  1.00  0.00    -0.237 OA
ATOM     89  O   UNL A   1      54.634  27.610  24.265  1.00  0.00    -0.237 OA
ATOM     90  O   UNL A   1      54.441  25.205  24.767  1.00  0.00    -0.744 OA
ENDBRANCH  86  87
ENDBRANCH  60  81
ENDBRANCH  34  35
ENDBRANCH  26  29
ENDBRANCH  24  25
ENDBRANCH  23  24
ENDBRANCH  22  23
ENDBRANCH   1  22
TORSDOF 20
ENDMDL
MODEL 2
REMARK VINA RESULT:      -9.9      6.327     10.602
REMARK SMILES CCCc1nsc(Oc2csc(C(=O)NCCCCCCNC(=O)c3ccc(-c4c5nc(c(-c6ccc(S(=O)(=O)[O-])cc6)c6ccc([nH]6)c(-c6ccc(S(=O)(=O)[O-])cc6)c6nc(c(-c7ccc(S(=O)(=O)[O-])cc7)c7ccc4[nH]7)C=C6)C=C5)cc3)c2)n1
REMARK SMILES IDX 18 1 17 2 16 3 15 4 13 5 14 6 12 8 9 9 10 10 85 11 11 12
REMARK SMILES IDX 8 13 7 14 4 15 5 16 86 17 6 18 3 19 2 20 1 21 19 22 20 23
REMARK SMILES IDX 21 24 22 25 23 26 24 28 25 29 26 30 84 31 27 32 83 33 28 34
REMARK SMILES IDX 29 35 30 36 77 37 31 38 82 39 76 40 78 41 32 42 81 43 75 44
REMARK SMILES IDX 74 45 33 47 63 48 44 49 62 50 45 51 48 52 61 53 79 54 46 55
REMARK SMILES IDX 47 56 60 58 80 59 49 60 34 61 35 62 43 63 36 64 42 65 37 66
REMARK SMILES IDX 38 67 39 68 40 69 41 70 64 71 65 72 73 73 66 74 72 75 67 76
REMARK SMILES IDX 68 77 69 78 70 79 71 80 50 81 51 82 59 83 52 84 58 85 53 86
REMARK SMILES IDX 54 87 55 88 56 89 57 90
REMARK H PARENT 15 7 22 27 78 46 48 57
REMARK Flexibility Score: inf
ROOT
ATOM      1  C   UNL A   1      34.114  31.508  27.990  1.00  0.00     0.002 C 
ENDROOT
BRANCH   1   2
ATOM      2  C   UNL A   1      35.139  30.411  27.671  1.00  0.00     0.021 C 
BRANCH   2   3
ATOM      3  C   UNL A   1      34.525  29.211  26.948  1.00  0.00     0.116 C 
BRANCH   3   4
ATOM      4  N   UNL A   1      33.370  28.725  27.673  1.00  0.00    -0.351 N 
ATOM      5  C   UNL A   1      32.206  28.111  27.282  1.00  0.00     0.261 C 
ATOM      6  O   UNL A   1      31.434  27.835  28.206  1.00  0.00    -0.268 OA
ATOM      7  H   UNL A   1      33.430  28.864  28.646  1.00  0.00     0.163 HD
BRANCH   5   8
ATOM      8  C   UNL A   1      31.934  27.778  25.888  1.00  0.00     0.096 A 
ATOM      9  C   UNL A   1      31.240  27.726  23.657  1.00  0.00     0.141 A 
ATOM     10  C   UNL A   1      32.165  26.712  23.646  1.00  0.00     0.112 A 
ATOM     11  C   UNL A   1      31.053  28.285  24.950  1.00  0.00     0.072 A 
ATOM     12  S   UNL A   1      32.841  26.473  25.195  1.00  0.00    -0.135 S 
BRANCH   9  13
ATOM     13  O   UNL A   1      30.603  28.164  22.547  1.00  0.00    -0.429 OA
BRANCH  13  14
ATOM     14  C   UNL A   1      29.459  28.828  22.703  1.00  0.00     0.298 A 
ATOM     15  C   UNL A   1      28.044  30.470  22.979  1.00  0.00     0.146 A 
ATOM     16  N   UNL A   1      27.149  29.507  23.215  1.00  0.00    -0.172 NA
ATOM     17  N   UNL A   1      29.342  30.134  22.635  1.00  0.00    -0.186 NA
ATOM     18  S   UNL A   1      27.972  28.056  23.053  1.00  0.00     0.025 S 
BRANCH  15  19
ATOM     19  C   UNL A   1      27.701  31.908  23.151  1.00  0.00     0.078 C 
BRANCH  19  20
ATOM     20  C   UNL A   1      28.686  32.838  22.433  1.00  0.00     0.005 C 
ATOM     21  C   UNL A   1      29.410  33.809  23.361  1.00  0.00     0.004 C 
ENDBRANCH  19  20
ENDBRANCH  15  19
ENDBRANCH  13  14
ENDBRANCH   9  13
ENDBRANCH   5   8
ENDBRANCH   3   4
ENDBRANCH   2   3
ENDBRANCH   1   2
BRANCH   1  22
ATOM     22  C   UNL A   1      34.710  32.911  28.171  1.00  0.00     0.002 C 
BRANCH  22  23
ATOM     23  C   UNL A   1      33.724  34.063  27.953  1.00  0.00     0.021 C 
BRANCH  23  24
ATOM     24  C   UNL A   1      34.009  35.296  28.803  1.00  0.00     0.116 C 
BRANCH  24  25
ATOM     25  N   UNL A   1      32.974  35.507  29.803  1.00  0.00    -0.352 N 
ATOM     26  C   UNL A   1      32.968  35.166  31.133  1.00  0.00     0.251 C 
ATOM     27  H   UNL A   1      32.160  35.957  29.480  1.00  0.00     0.163 HD
ATOM     28  O   UNL A   1      31.921  35.197  31.769  1.00  0.00    -0.269 OA
BRANCH  26  29
ATOM     29  C   UNL A   1      34.228  34.754  31.787  1.00  0.00     0.039 A 
ATOM     30  C   UNL A   1      34.636  33.422  31.696  1.00  0.00     0.014 A 
ATOM     31  C   UNL A   1      34.998  35.679  32.497  1.00  0.00     0.014 A 
ATOM     32  C   UNL A   1      35.847  33.029  32.271  1.00  0.00     0.010 A 
ATOM     33  C   UNL A   1      36.237  35.304  33.007  1.00  0.00     0.010 A 
ATOM     34  C   UNL A   1      36.673  33.974  32.903  1.00  0.00    -0.014 A 
BRANCH  34  35
ATOM     35  C   UNL A   1      37.997  33.592  33.455  1.00  0.00     0.031 A 
ATOM     36  C   UNL A   1      38.201  33.504  34.943  1.00  0.00     0.074 A 
ATOM     37  C   UNL A   1      39.034  33.392  32.616  1.00  0.00     0.049 A 
ATOM     38  N   UNL A   1      39.298  33.248  35.609  1.00  0.00    -0.248 NA
ATOM     39  C   UNL A   1      37.028  33.761  35.795  1.00  0.00     0.031 C 
ATOM     40  C   UNL A   1      38.973  33.495  31.155  1.00  0.00     0.029 A 
ATOM     41  N   UNL A   1      40.345  33.075  32.870  1.00  0.00    -0.354 N 
ATOM     42  C   UNL A   1      38.953  33.335  36.954  1.00  0.00     0.074 A 
ATOM     43  C   UNL A   1      37.557  33.709  37.010  1.00  0.00     0.031 C 
ATOM     44  C   UNL A   1      40.185  33.225  30.644  1.00  0.00     0.029 A 
ATOM     45  C   UNL A   1      41.119  32.976  31.737  1.00  0.00     0.049 A 
ATOM     46  H   UNL A   1      40.697  32.932  33.778  1.00  0.00     0.167 HD
ATOM     47  C   UNL A   1      39.727  33.111  38.042  1.00  0.00     0.031 A 
ATOM     48  C   UNL A   1      42.436  32.728  31.593  1.00  0.00     0.031 A 
ATOM     49  C   UNL A   1      41.112  32.724  37.980  1.00  0.00     0.049 A 
ATOM     50  C   UNL A   1      43.273  32.483  32.819  1.00  0.00     0.074 A 
ATOM     51  C   UNL A   1      41.960  32.401  39.025  1.00  0.00     0.029 A 
ATOM     52  N   UNL A   1      41.853  32.614  36.814  1.00  0.00    -0.354 N 
ATOM     53  N   UNL A   1      42.908  32.487  34.079  1.00  0.00    -0.248 NA
ATOM     54  C   UNL A   1      44.696  32.188  32.603  1.00  0.00     0.031 C 
ATOM     55  C   UNL A   1      43.231  32.159  38.496  1.00  0.00     0.029 A 
ATOM     56  C   UNL A   1      43.157  32.262  37.116  1.00  0.00     0.049 A 
ATOM     57  H   UNL A   1      41.504  32.764  35.906  1.00  0.00     0.167 HD
ATOM     58  C   UNL A   1      44.050  32.169  34.805  1.00  0.00     0.074 A 
ATOM     59  C   UNL A   1      45.113  31.962  33.842  1.00  0.00     0.031 C 
ATOM     60  C   UNL A   1      44.206  32.058  36.147  1.00  0.00     0.031 A 
BRANCH  47  61
ATOM     61  C   UNL A   1      39.099  33.288  39.401  1.00  0.00    -0.014 A 
ATOM     62  C   UNL A   1      39.188  34.507  40.096  1.00  0.00     0.010 A 
ATOM     63  C   UNL A   1      38.355  32.235  39.964  1.00  0.00     0.010 A 
ATOM     64  C   UNL A   1      38.573  34.660  41.341  1.00  0.00     0.020 A 
ATOM     65  C   UNL A   1      37.713  32.393  41.196  1.00  0.00     0.020 A 
ATOM     66  C   UNL A   1      37.838  33.601  41.883  1.00  0.00     0.054 A 
BRANCH  66  67
ATOM     67  S   UNL A   1      37.018  33.842  43.483  1.00  0.00     0.124 S 
ATOM     68  O   UNL A   1      37.101  35.291  43.649  1.00  0.00    -0.237 OA
ATOM     69  O   UNL A   1      35.678  33.315  43.237  1.00  0.00    -0.237 OA
ATOM     70  O   UNL A   1      37.831  33.062  44.412  1.00  0.00    -0.744 OA
ENDBRANCH  66  67
ENDBRANCH  47  61
BRANCH  48  71
ATOM     71  C   UNL A   1      43.044  32.705  30.234  1.00  0.00    -0.014 A 
ATOM     72  C   UNL A   1      43.526  33.885  29.641  1.00  0.00     0.010 A 
ATOM     73  C   UNL A   1      43.148  31.493  29.525  1.00  0.00     0.010 A 
ATOM     74  C   UNL A   1      44.078  33.859  28.356  1.00  0.00     0.020 A 
ATOM     75  C   UNL A   1      43.728  31.458  28.255  1.00  0.00     0.020 A 
ATOM     76  C   UNL A   1      44.177  32.644  27.671  1.00  0.00     0.054 A 
BRANCH  76  77
ATOM     77  S   UNL A   1      44.934  32.625  26.023  1.00  0.00     0.124 S 
ATOM     78  O   UNL A   1      45.543  31.299  25.985  1.00  0.00    -0.237 OA
ATOM     79  O   UNL A   1      43.783  32.819  25.145  1.00  0.00    -0.237 OA
ATOM     80  O   UNL A   1      45.871  33.745  26.065  1.00  0.00    -0.744 OA
ENDBRANCH  76  77
ENDBRANCH  48  71
BRANCH  60  81
ATOM     81  C   UNL A   1      45.564  31.662  36.661  1.00  0.00    -0.014 A 
ATOM     82  C   UNL A   1      46.547  32.624  36.950  1.00  0.00     0.010 A 
ATOM     83  C   UNL A   1      45.838  30.306  36.916  1.00  0.00     0.010 A 
ATOM     84  C   UNL A   1      47.789  32.236  37.458  1.00  0.00     0.020 A 
ATOM     85  C   UNL A   1      47.068  29.915  37.454  1.00  0.00     0.020 A 
ATOM     86  C   UNL A   1      48.040  30.883  37.709  1.00  0.00     0.054 A 
BRANCH  86  87
ATOM     87  S   UNL A   1      49.642  30.409  38.415  1.00  0.00     0.124 S 
ATOM     88  O   UNL A   1      49.499  28.962  38.551  1.00  0.00    -0.237 OA
ATOM     89  O   UNL A   1      50.587  30.854  37.391  1.00  0.00    -0.237 OA
ATOM     90  O   UNL A   1      49.701  31.151  39.672  1.00  0.00    -0.744 OA
ENDBRANCH  86  87
ENDBRANCH  60  81
ENDBRANCH  34  35
ENDBRANCH  26  29
ENDBRANCH  24  25
ENDBRANCH  23  24
ENDBRANCH  22  23
ENDBRANCH   1  22
TORSDOF 20
ENDMDL
MODEL 3
REMARK VINA RESULT:      -9.6      6.475      9.275
REMARK SMILES CCCc1nsc(Oc2csc(C(=O)NCCCCCCNC(=O)c3ccc(-c4c5nc(c(-c6ccc(S(=O)(=O)[O-])cc6)c6ccc([nH]6)c(-c6ccc(S(=O)(=O)[O-])cc6)c6nc(c(-c7ccc(S(=O)(=O)[O-])cc7)c7ccc4[nH]7)C=C6)C=C5)cc3)c2)n1
REMARK SMILES IDX 18 1 17 2 16 3 15 4 13 5 14 6 12 8 9 9 10 10 85 11 11 12
REMARK SMILES IDX 8 13 7 14 4 15 5 16 86 17 6 18 3 19 2 20 1 21 19 22 20 23
REMARK SMILES IDX 21 24 22 25 23 26 24 28 25 29 26 30 84 31 27 32 83 33 28 34
REMARK SMILES IDX 29 35 30 36 77 37 31 38 82 39 76 40 78 41 32 42 81 43 75 44
REMARK SMILES IDX 74 45 33 47 63 48 44 49 62 50 45 51 48 52 61 53 79 54 46 55
REMARK SMILES IDX 47 56 60 58 80 59 49 60 34 61 35 62 43 63 36 64 42 65 37 66
REMARK SMILES IDX 38 67 39 68 40 69 41 70 64 71 65 72 73 73 66 74 72 75 67 76
REMARK SMILES IDX 68 77 69 78 70 79 71 80 50 81 51 82 59 83 52 84 58 85 53 86
REMARK SMILES IDX 54 87 55 88 56 89 57 90
REMARK H PARENT 15 7 22 27 78 46 48 57
REMARK Flexibility Score: inf
ROOT
ATOM      1  C   UNL A   1      33.763  31.595  27.680  1.00  0.00     0.002 C 
ENDROOT
BRANCH   1   2
ATOM      2  C   UNL A   1      34.873  30.548  27.505  1.00  0.00     0.021 C 
BRANCH   2   3
ATOM      3  C   UNL A   1      34.370  29.241  26.892  1.00  0.00     0.116 C 
BRANCH   3   4
ATOM      4  N   UNL A   1      33.268  28.712  27.669  1.00  0.00    -0.351 N 
ATOM      5  C   UNL A   1      32.131  28.019  27.335  1.00  0.00     0.261 C 
ATOM      6  O   UNL A   1      31.406  27.730  28.292  1.00  0.00    -0.268 OA
ATOM      7  H   UNL A   1      33.351  28.887  28.635  1.00  0.00     0.163 HD
BRANCH   5   8
ATOM      8  C   UNL A   1      31.837  27.626  25.962  1.00  0.00     0.096 A 
ATOM      9  C   UNL A   1      31.112  27.481  23.745  1.00  0.00     0.141 A 
ATOM     10  C   UNL A   1      32.024  26.455  23.768  1.00  0.00     0.112 A 
ATOM     11  C   UNL A   1      30.949  28.101  25.013  1.00  0.00     0.072 A 
ATOM     12  S   UNL A   1      32.718  26.280  25.318  1.00  0.00    -0.135 S 
BRANCH   9  13
ATOM     13  O   UNL A   1      30.465  27.875  22.625  1.00  0.00    -0.429 OA
BRANCH  13  14
ATOM     14  C   UNL A   1      29.441  28.716  22.756  1.00  0.00     0.298 A 
ATOM     15  C   UNL A   1      28.304  30.568  22.985  1.00  0.00     0.146 A 
ATOM     16  N   UNL A   1      27.266  29.765  23.232  1.00  0.00    -0.172 NA
ATOM     17  N   UNL A   1      29.534  30.022  22.660  1.00  0.00    -0.186 NA
ATOM     18  S   UNL A   1      27.847  28.198  23.107  1.00  0.00     0.025 S 
BRANCH  15  19
ATOM     19  C   UNL A   1      28.194  32.046  23.124  1.00  0.00     0.078 C 
BRANCH  19  20
ATOM     20  C   UNL A   1      28.345  32.777  21.785  1.00  0.00     0.005 C 
ATOM     21  C   UNL A   1      28.033  31.912  20.568  1.00  0.00     0.004 C 
ENDBRANCH  19  20
ENDBRANCH  15  19
ENDBRANCH  13  14
ENDBRANCH   9  13
ENDBRANCH   5   8
ENDBRANCH   3   4
ENDBRANCH   2   3
ENDBRANCH   1   2
BRANCH   1  22
ATOM     22  C   UNL A   1      34.253  33.048  27.743  1.00  0.00     0.002 C 
BRANCH  22  23
ATOM     23  C   UNL A   1      33.259  34.038  28.357  1.00  0.00     0.021 C 
BRANCH  23  24
ATOM     24  C   UNL A   1      33.880  35.005  29.359  1.00  0.00     0.116 C 
BRANCH  24  25
ATOM     25  N   UNL A   1      32.945  35.350  30.419  1.00  0.00    -0.352 N 
ATOM     26  C   UNL A   1      33.001  35.052  31.758  1.00  0.00     0.251 C 
ATOM     27  H   UNL A   1      32.159  35.871  30.135  1.00  0.00     0.163 HD
ATOM     28  O   UNL A   1      32.011  35.208  32.463  1.00  0.00    -0.269 OA
BRANCH  26  29
ATOM     29  C   UNL A   1      34.258  34.534  32.339  1.00  0.00     0.039 A 
ATOM     30  C   UNL A   1      34.316  33.201  32.750  1.00  0.00     0.014 A 
ATOM     31  C   UNL A   1      35.370  35.366  32.488  1.00  0.00     0.014 A 
ATOM     32  C   UNL A   1      35.511  32.686  33.259  1.00  0.00     0.010 A 
ATOM     33  C   UNL A   1      36.580  34.834  32.927  1.00  0.00     0.010 A 
ATOM     34  C   UNL A   1      36.661  33.491  33.321  1.00  0.00    -0.014 A 
BRANCH  34  35
ATOM     35  C   UNL A   1      37.959  32.942  33.789  1.00  0.00     0.031 A 
ATOM     36  C   UNL A   1      38.761  32.032  32.899  1.00  0.00     0.074 A 
ATOM     37  C   UNL A   1      38.381  33.209  35.042  1.00  0.00     0.049 A 
ATOM     38  N   UNL A   1      39.883  31.408  33.156  1.00  0.00    -0.248 NA
ATOM     39  C   UNL A   1      38.223  31.768  31.554  1.00  0.00     0.031 C 
ATOM     40  C   UNL A   1      37.668  34.039  36.017  1.00  0.00     0.029 A 
ATOM     41  N   UNL A   1      39.504  32.798  35.717  1.00  0.00    -0.354 N 
ATOM     42  C   UNL A   1      40.171  30.663  32.018  1.00  0.00     0.074 A 
ATOM     43  C   UNL A   1      39.087  30.878  31.085  1.00  0.00     0.031 C 
ATOM     44  C   UNL A   1      38.380  34.093  37.153  1.00  0.00     0.029 A 
ATOM     45  C   UNL A   1      39.575  33.267  37.008  1.00  0.00     0.049 A 
ATOM     46  H   UNL A   1      40.192  32.223  35.313  1.00  0.00     0.167 HD
ATOM     47  C   UNL A   1      41.248  29.881  31.769  1.00  0.00     0.031 A 
ATOM     48  C   UNL A   1      40.488  33.045  37.973  1.00  0.00     0.031 A 
ATOM     49  C   UNL A   1      42.332  29.683  32.696  1.00  0.00     0.049 A 
ATOM     50  C   UNL A   1      41.676  32.172  37.670  1.00  0.00     0.074 A 
ATOM     51  C   UNL A   1      43.503  28.970  32.507  1.00  0.00     0.029 A 
ATOM     52  N   UNL A   1      42.376  30.192  33.985  1.00  0.00    -0.354 N 
ATOM     53  N   UNL A   1      41.973  31.543  36.558  1.00  0.00    -0.248 NA
ATOM     54  C   UNL A   1      42.657  31.988  38.748  1.00  0.00     0.031 C 
ATOM     55  C   UNL A   1      44.225  28.994  33.704  1.00  0.00     0.029 A 
ATOM     56  C   UNL A   1      43.537  29.780  34.614  1.00  0.00     0.049 A 
ATOM     57  H   UNL A   1      41.684  30.762  34.392  1.00  0.00     0.167 HD
ATOM     58  C   UNL A   1      43.188  30.911  36.793  1.00  0.00     0.074 A 
ATOM     59  C   UNL A   1      43.579  31.248  38.146  1.00  0.00     0.031 C 
ATOM     60  C   UNL A   1      43.915  30.123  35.963  1.00  0.00     0.031 A 
BRANCH  47  61
ATOM     61  C   UNL A   1      41.309  29.167  30.443  1.00  0.00    -0.014 A 
ATOM     62  C   UNL A   1      41.930  29.751  29.325  1.00  0.00     0.010 A 
ATOM     63  C   UNL A   1      40.789  27.864  30.332  1.00  0.00     0.010 A 
ATOM     64  C   UNL A   1      42.002  29.058  28.113  1.00  0.00     0.020 A 
ATOM     65  C   UNL A   1      40.886  27.156  29.130  1.00  0.00     0.020 A 
ATOM     66  C   UNL A   1      41.480  27.765  28.024  1.00  0.00     0.054 A 
BRANCH  66  67
ATOM     67  S   UNL A   1      41.624  26.876  26.449  1.00  0.00     0.124 S 
ATOM     68  O   UNL A   1      41.526  27.965  25.479  1.00  0.00    -0.237 OA
ATOM     69  O   UNL A   1      42.938  26.247  26.556  1.00  0.00    -0.237 OA
ATOM     70  O   UNL A   1      40.491  25.954  26.465  1.00  0.00    -0.744 OA
ENDBRANCH  66  67
ENDBRANCH  47  61
BRANCH  48  71
ATOM     71  C   UNL A   1      40.312  33.657  39.319  1.00  0.00    -0.014 A 
ATOM     72  C   UNL A   1      39.618  32.977  40.335  1.00  0.00     0.010 A 
ATOM     73  C   UNL A   1      40.847  34.931  39.594  1.00  0.00     0.010 A 
ATOM     74  C   UNL A   1      39.440  33.567  41.590  1.00  0.00     0.020 A 
ATOM     75  C   UNL A   1      40.699  35.509  40.856  1.00  0.00     0.020 A 
ATOM     76  C   UNL A   1      39.983  34.829  41.843  1.00  0.00     0.054 A 
BRANCH  76  77
ATOM     77  S   UNL A   1      39.776  35.559  43.491  1.00  0.00     0.124 S 
ATOM     78  O   UNL A   1      39.698  36.984  43.184  1.00  0.00    -0.237 OA
ATOM     79  O   UNL A   1      38.537  34.941  43.956  1.00  0.00    -0.237 OA
ATOM     80  O   UNL A   1      40.979  35.136  44.205  1.00  0.00    -0.744 OA
ENDBRANCH  76  77
ENDBRANCH  48  71
BRANCH  60  81
ATOM     81  C   UNL A   1      45.228  29.595  36.477  1.00  0.00    -0.014 A 
ATOM     82  C   UNL A   1      46.419  30.328  36.334  1.00  0.00     0.010 A 
ATOM     83  C   UNL A   1      45.257  28.370  37.169  1.00  0.00     0.010 A 
ATOM     84  C   UNL A   1      47.619  29.832  36.849  1.00  0.00     0.020 A 
ATOM     85  C   UNL A   1      46.449  27.885  37.713  1.00  0.00     0.020 A 
ATOM     86  C   UNL A   1      47.626  28.614  37.537  1.00  0.00     0.054 A 
BRANCH  86  87
ATOM     87  S   UNL A   1      49.188  28.017  38.238  1.00  0.00     0.124 S 
ATOM     88  O   UNL A   1      48.940  28.130  39.673  1.00  0.00    -0.237 OA
ATOM     89  O   UNL A   1      49.270  26.652  37.721  1.00  0.00    -0.237 OA
ATOM     90  O   UNL A   1      50.186  28.940  37.703  1.00  0.00    -0.744 OA
ENDBRANCH  86  87
ENDBRANCH  60  81
ENDBRANCH  34  35
ENDBRANCH  26  29
ENDBRANCH  24  25
ENDBRANCH  23  24
ENDBRANCH  22  23
ENDBRANCH   1  22
TORSDOF 20
ENDMDL
