MODEL 1
REMARK VINA RESULT:     -10.6      0.000      0.000
REMARK SMILES COCCNc1cc(C)nc2cc(C(=O)NCCCCCCNC(=O)c3ccc(-c4c5nc(c(-c6ccc(S(=O)(=O)[O-])cc6)c6ccc([nH]6)c(-c6ccc(S(=O)(=O)[O-])cc6)c6nc(c(-c7ccc(S(=O)(=O)[O-])cc7)c7ccc4[nH]7)C=C6)C=C5)cc3)ccc12
REMARK SMILES IDX 19 1 18 2 17 3 16 4 14 5 15 6 13 8 6 9 7 10 88 11 8 12 11 13
REMARK SMILES IDX 87 14 9 15 10 16 12 17 86 18 5 19 4 21 3 22 2 23 1 24 20 25
REMARK SMILES IDX 21 26 22 27 23 28 24 29 25 31 26 32 27 33 85 34 28 35 84 36
REMARK SMILES IDX 29 37 30 38 31 39 78 40 32 41 83 42 77 43 79 44 33 45 82 46
REMARK SMILES IDX 76 47 75 48 34 50 64 51 45 52 63 53 46 54 49 55 62 56 80 57
REMARK SMILES IDX 47 58 48 59 61 61 81 62 50 63 35 64 36 65 44 66 37 67 43 68
REMARK SMILES IDX 38 69 39 70 40 71 41 72 42 73 65 74 66 75 74 76 67 77 73 78
REMARK SMILES IDX 68 79 69 80 70 81 71 82 72 83 51 84 52 85 60 86 53 87 59 88
REMARK SMILES IDX 54 89 55 90 56 91 57 92 58 93
REMARK H PARENT 16 7 5 20 23 30 79 49 49 60
REMARK Flexibility Score: inf
ROOT
ATOM      1  C   UNL A   1      32.783  27.335  24.577  1.00  0.00     0.002 C 
ENDROOT
BRANCH   1   2
ATOM      2  C   UNL A   1      32.010  28.019  23.441  1.00  0.00     0.021 C 
BRANCH   2   3
ATOM      3  C   UNL A   1      31.141  27.045  22.643  1.00  0.00     0.116 C 
BRANCH   3   4
ATOM      4  N   UNL A   1      31.858  26.603  21.463  1.00  0.00    -0.352 N 
ATOM      5  C   UNL A   1      32.663  25.525  21.209  1.00  0.00     0.251 C 
ATOM      6  O   UNL A   1      33.178  25.465  20.089  1.00  0.00    -0.269 OA
ATOM      7  H   UNL A   1      31.744  27.198  20.688  1.00  0.00     0.163 HD
BRANCH   5   8
ATOM      8  C   UNL A   1      32.891  24.404  22.165  1.00  0.00     0.041 A 
ATOM      9  C   UNL A   1      33.985  21.264  24.790  1.00  0.00     0.045 A 
ATOM     10  C   UNL A   1      33.467  19.999  24.516  1.00  0.00     0.049 A 
ATOM     11  C   UNL A   1      33.601  22.344  23.963  1.00  0.00     0.023 A 
ATOM     12  C   UNL A   1      32.582  19.843  23.458  1.00  0.00     0.040 A 
ATOM     13  C   UNL A   1      32.679  22.097  22.930  1.00  0.00     0.073 A 
ATOM     14  C   UNL A   1      34.128  23.642  24.104  1.00  0.00     0.013 A 
ATOM     15  C   UNL A   1      32.062  18.487  23.081  1.00  0.00     0.067 C 
ATOM     16  N   UNL A   1      32.173  20.879  22.690  1.00  0.00    -0.253 NA
ATOM     17  C   UNL A   1      32.294  23.143  22.100  1.00  0.00     0.042 A 
ATOM     18  C   UNL A   1      33.796  24.650  23.201  1.00  0.00     0.014 A 
BRANCH   9  19
ATOM     19  N   UNL A   1      34.761  21.491  25.921  1.00  0.00    -0.382 N 
ATOM     20  H   UNL A   1      35.708  21.735  25.801  1.00  0.00     0.160 HD
BRANCH  19  21
ATOM     21  C   UNL A   1      34.238  21.385  27.275  1.00  0.00     0.141 C 
BRANCH  21  22
ATOM     22  C   UNL A   1      33.776  22.759  27.790  1.00  0.00     0.181 C 
BRANCH  22  23
ATOM     23  O   UNL A   1      32.369  22.818  28.058  1.00  0.00    -0.383 OA
ATOM     24  C   UNL A   1      31.575  22.998  26.894  1.00  0.00     0.194 C 
ENDBRANCH  22  23
ENDBRANCH  21  22
ENDBRANCH  19  21
ENDBRANCH   9  19
ENDBRANCH   5   8
ENDBRANCH   3   4
ENDBRANCH   2   3
ENDBRANCH   1   2
BRANCH   1  25
ATOM     25  C   UNL A   1      31.912  26.865  25.749  1.00  0.00     0.002 C 
BRANCH  25  26
ATOM     26  C   UNL A   1      32.041  27.703  27.025  1.00  0.00     0.021 C 
BRANCH  26  27
ATOM     27  C   UNL A   1      33.424  28.313  27.230  1.00  0.00     0.116 C 
BRANCH  27  28
ATOM     28  N   UNL A   1      33.356  29.763  27.319  1.00  0.00    -0.352 N 
ATOM     29  C   UNL A   1      34.259  30.638  27.866  1.00  0.00     0.251 C 
ATOM     30  H   UNL A   1      32.550  30.173  26.932  1.00  0.00     0.163 HD
ATOM     31  O   UNL A   1      33.930  31.804  28.087  1.00  0.00    -0.269 OA
BRANCH  29  32
ATOM     32  C   UNL A   1      35.622  30.175  28.196  1.00  0.00     0.039 A 
ATOM     33  C   UNL A   1      36.597  30.162  27.197  1.00  0.00     0.014 A 
ATOM     34  C   UNL A   1      35.929  29.737  29.488  1.00  0.00     0.014 A 
ATOM     35  C   UNL A   1      37.897  29.757  27.507  1.00  0.00     0.010 A 
ATOM     36  C   UNL A   1      37.239  29.399  29.811  1.00  0.00     0.010 A 
ATOM     37  C   UNL A   1      38.234  29.397  28.822  1.00  0.00    -0.014 A 
BRANCH  37  38
ATOM     38  C   UNL A   1      39.621  29.014  29.184  1.00  0.00     0.031 A 
ATOM     39  C   UNL A   1      40.528  30.006  29.859  1.00  0.00     0.074 A 
ATOM     40  C   UNL A   1      40.084  27.794  28.846  1.00  0.00     0.049 A 
ATOM     41  N   UNL A   1      41.783  29.874  30.205  1.00  0.00    -0.248 NA
ATOM     42  C   UNL A   1      39.959  31.330  30.160  1.00  0.00     0.031 C 
ATOM     43  C   UNL A   1      39.313  26.761  28.150  1.00  0.00     0.029 A 
ATOM     44  N   UNL A   1      41.315  27.221  29.035  1.00  0.00    -0.354 N 
ATOM     45  C   UNL A   1      42.158  31.098  30.746  1.00  0.00     0.074 A 
ATOM     46  C   UNL A   1      41.013  31.976  30.637  1.00  0.00     0.031 C 
ATOM     47  C   UNL A   1      40.083  25.671  27.994  1.00  0.00     0.029 A 
ATOM     48  C   UNL A   1      41.408  25.941  28.540  1.00  0.00     0.049 A 
ATOM     49  H   UNL A   1      42.062  27.681  29.483  1.00  0.00     0.167 HD
ATOM     50  C   UNL A   1      43.342  31.455  31.299  1.00  0.00     0.031 A 
ATOM     51  C   UNL A   1      42.446  25.082  28.524  1.00  0.00     0.031 A 
ATOM     52  C   UNL A   1      44.475  30.575  31.410  1.00  0.00     0.049 A 
ATOM     53  C   UNL A   1      43.752  25.498  29.142  1.00  0.00     0.074 A 
ATOM     54  C   UNL A   1      45.699  30.820  32.006  1.00  0.00     0.029 A 
ATOM     55  N   UNL A   1      44.525  29.282  30.910  1.00  0.00    -0.354 N 
ATOM     56  N   UNL A   1      44.065  26.638  29.712  1.00  0.00    -0.248 NA
ATOM     57  C   UNL A   1      44.838  24.509  29.128  1.00  0.00     0.031 C 
ATOM     58  C   UNL A   1      46.508  29.693  31.820  1.00  0.00     0.029 A 
ATOM     59  C   UNL A   1      45.768  28.724  31.161  1.00  0.00     0.049 A 
ATOM     60  H   UNL A   1      43.786  28.827  30.445  1.00  0.00     0.167 HD
ATOM     61  C   UNL A   1      45.378  26.494  30.146  1.00  0.00     0.074 A 
ATOM     62  C   UNL A   1      45.794  25.153  29.785  1.00  0.00     0.031 C 
ATOM     63  C   UNL A   1      46.167  27.390  30.790  1.00  0.00     0.031 A 
BRANCH  50  64
ATOM     64  C   UNL A   1      43.470  32.865  31.814  1.00  0.00    -0.014 A 
ATOM     65  C   UNL A   1      43.759  33.935  30.947  1.00  0.00     0.010 A 
ATOM     66  C   UNL A   1      43.280  33.130  33.183  1.00  0.00     0.010 A 
ATOM     67  C   UNL A   1      43.906  35.232  31.444  1.00  0.00     0.020 A 
ATOM     68  C   UNL A   1      43.397  34.431  33.681  1.00  0.00     0.020 A 
ATOM     69  C   UNL A   1      43.731  35.471  32.811  1.00  0.00     0.054 A 
BRANCH  69  70
ATOM     70  S   UNL A   1      43.925  37.164  33.431  1.00  0.00     0.124 S 
ATOM     71  O   UNL A   1      44.089  37.920  32.191  1.00  0.00    -0.237 OA
ATOM     72  O   UNL A   1      42.669  37.391  34.142  1.00  0.00    -0.237 OA
ATOM     73  O   UNL A   1      45.112  37.090  34.277  1.00  0.00    -0.744 OA
ENDBRANCH  69  70
ENDBRANCH  50  64
BRANCH  51  74
ATOM     74  C   UNL A   1      42.277  23.735  27.916  1.00  0.00    -0.014 A 
ATOM     75  C   UNL A   1      42.585  23.520  26.561  1.00  0.00     0.010 A 
ATOM     76  C   UNL A   1      41.846  22.648  28.699  1.00  0.00     0.010 A 
ATOM     77  C   UNL A   1      42.456  22.247  25.998  1.00  0.00     0.020 A 
ATOM     78  C   UNL A   1      41.741  21.369  28.147  1.00  0.00     0.020 A 
ATOM     79  C   UNL A   1      42.040  21.178  26.797  1.00  0.00     0.054 A 
BRANCH  79  80
ATOM     80  S   UNL A   1      41.947  19.521  26.062  1.00  0.00     0.124 S 
ATOM     81  O   UNL A   1      40.529  19.412  25.735  1.00  0.00    -0.237 OA
ATOM     82  O   UNL A   1      42.853  19.630  24.922  1.00  0.00    -0.237 OA
ATOM     83  O   UNL A   1      42.413  18.645  27.135  1.00  0.00    -0.744 OA
ENDBRANCH  79  80
ENDBRANCH  51  74
BRANCH  63  84
ATOM     84  C   UNL A   1      47.553  26.944  31.172  1.00  0.00    -0.014 A 
ATOM     85  C   UNL A   1      47.815  26.373  32.430  1.00  0.00     0.010 A 
ATOM     86  C   UNL A   1      48.597  27.047  30.234  1.00  0.00     0.010 A 
ATOM     87  C   UNL A   1      49.103  25.939  32.753  1.00  0.00     0.020 A 
ATOM     88  C   UNL A   1      49.880  26.588  30.543  1.00  0.00     0.020 A 
ATOM     89  C   UNL A   1      50.127  26.048  31.807  1.00  0.00     0.054 A 
BRANCH  89  90
ATOM     90  S   UNL A   1      51.779  25.433  32.234  1.00  0.00     0.124 S 
ATOM     91  O   UNL A   1      52.628  26.169  31.301  1.00  0.00    -0.237 OA
ATOM     92  O   UNL A   1      51.911  25.814  33.638  1.00  0.00    -0.237 OA
ATOM     93  O   UNL A   1      51.688  23.995  31.991  1.00  0.00    -0.744 OA
ENDBRANCH  89  90
ENDBRANCH  63  84
ENDBRANCH  37  38
ENDBRANCH  29  32
ENDBRANCH  27  28
ENDBRANCH  26  27
ENDBRANCH  25  26
ENDBRANCH   1  25
TORSDOF 20
ENDMDL
MODEL 2
REMARK VINA RESULT:     -10.6      2.691      9.506
REMARK SMILES COCCNc1cc(C)nc2cc(C(=O)NCCCCCCNC(=O)c3ccc(-c4c5nc(c(-c6ccc(S(=O)(=O)[O-])cc6)c6ccc([nH]6)c(-c6ccc(S(=O)(=O)[O-])cc6)c6nc(c(-c7ccc(S(=O)(=O)[O-])cc7)c7ccc4[nH]7)C=C6)C=C5)cc3)ccc12
REMARK SMILES IDX 19 1 18 2 17 3 16 4 14 5 15 6 13 8 6 9 7 10 88 11 8 12 11 13
REMARK SMILES IDX 87 14 9 15 10 16 12 17 86 18 5 19 4 21 3 22 2 23 1 24 20 25
REMARK SMILES IDX 21 26 22 27 23 28 24 29 25 31 26 32 27 33 85 34 28 35 84 36
REMARK SMILES IDX 29 37 30 38 31 39 78 40 32 41 83 42 77 43 79 44 33 45 82 46
REMARK SMILES IDX 76 47 75 48 34 50 64 51 45 52 63 53 46 54 49 55 62 56 80 57
REMARK SMILES IDX 47 58 48 59 61 61 81 62 50 63 35 64 36 65 44 66 37 67 43 68
REMARK SMILES IDX 38 69 39 70 40 71 41 72 42 73 65 74 66 75 74 76 67 77 73 78
REMARK SMILES IDX 68 79 69 80 70 81 71 82 72 83 51 84 52 85 60 86 53 87 59 88
REMARK SMILES IDX 54 89 55 90 56 91 57 92 58 93
REMARK H PARENT 16 7 5 20 23 30 79 49 49 60
REMARK Flexibility Score: inf
ROOT
ATOM      1  C   UNL A   1      33.846  24.421  24.504  1.00  0.00     0.002 C 
ENDROOT
BRANCH   1   2
ATOM      2  C   UNL A   1      32.864  23.246  24.605  1.00  0.00     0.021 C 
BRANCH   2   3
ATOM      3  C   UNL A   1      32.850  22.601  25.992  1.00  0.00     0.116 C 
BRANCH   3   4
ATOM      4  N   UNL A   1      31.509  22.649  26.542  1.00  0.00    -0.352 N 
ATOM      5  C   UNL A   1      30.620  23.669  26.745  1.00  0.00     0.251 C 
ATOM      6  O   UNL A   1      29.555  23.380  27.298  1.00  0.00    -0.269 OA
ATOM      7  H   UNL A   1      31.170  21.770  26.828  1.00  0.00     0.163 HD
BRANCH   5   8
ATOM      8  C   UNL A   1      30.829  25.070  26.278  1.00  0.00     0.041 A 
ATOM      9  C   UNL A   1      31.573  28.869  24.559  1.00  0.00     0.045 A 
ATOM     10  C   UNL A   1      32.498  29.688  25.207  1.00  0.00     0.049 A 
ATOM     11  C   UNL A   1      31.265  27.616  25.133  1.00  0.00     0.023 A 
ATOM     12  C   UNL A   1      33.070  29.257  26.395  1.00  0.00     0.040 A 
ATOM     13  C   UNL A   1      31.875  27.273  26.354  1.00  0.00     0.073 A 
ATOM     14  C   UNL A   1      30.407  26.682  24.519  1.00  0.00     0.013 A 
ATOM     15  C   UNL A   1      34.127  30.071  27.082  1.00  0.00     0.067 C 
ATOM     16  N   UNL A   1      32.747  28.079  26.976  1.00  0.00    -0.253 NA
ATOM     17  C   UNL A   1      31.591  26.041  26.931  1.00  0.00     0.042 A 
ATOM     18  C   UNL A   1      30.213  25.418  25.072  1.00  0.00     0.014 A 
BRANCH   9  19
ATOM     19  N   UNL A   1      30.873  29.320  23.446  1.00  0.00    -0.382 N 
ATOM     20  H   UNL A   1      31.157  29.012  22.555  1.00  0.00     0.160 HD
BRANCH  19  21
ATOM     21  C   UNL A   1      29.738  30.227  23.537  1.00  0.00     0.141 C 
BRANCH  21  22
ATOM     22  C   UNL A   1      28.500  29.620  22.856  1.00  0.00     0.181 C 
BRANCH  22  23
ATOM     23  O   UNL A   1      27.265  30.177  23.327  1.00  0.00    -0.383 OA
ATOM     24  C   UNL A   1      27.359  31.550  23.679  1.00  0.00     0.194 C 
ENDBRANCH  22  23
ENDBRANCH  21  22
ENDBRANCH  19  21
ENDBRANCH   9  19
ENDBRANCH   5   8
ENDBRANCH   3   4
ENDBRANCH   2   3
ENDBRANCH   1   2
BRANCH   1  25
ATOM     25  C   UNL A   1      35.047  24.171  23.583  1.00  0.00     0.002 C 
BRANCH  25  26
ATOM     26  C   UNL A   1      36.050  23.136  24.100  1.00  0.00     0.021 C 
BRANCH  26  27
ATOM     27  C   UNL A   1      36.965  23.653  25.205  1.00  0.00     0.116 C 
BRANCH  27  28
ATOM     28  N   UNL A   1      37.945  22.652  25.594  1.00  0.00    -0.352 N 
ATOM     29  C   UNL A   1      39.167  22.826  26.191  1.00  0.00     0.251 C 
ATOM     30  H   UNL A   1      37.697  21.719  25.401  1.00  0.00     0.163 HD
ATOM     31  O   UNL A   1      39.977  21.899  26.217  1.00  0.00    -0.269 OA
BRANCH  29  32
ATOM     32  C   UNL A   1      39.508  24.129  26.797  1.00  0.00     0.039 A 
ATOM     33  C   UNL A   1      39.034  24.432  28.074  1.00  0.00     0.014 A 
ATOM     34  C   UNL A   1      40.282  25.057  26.093  1.00  0.00     0.014 A 
ATOM     35  C   UNL A   1      39.378  25.648  28.668  1.00  0.00     0.010 A 
ATOM     36  C   UNL A   1      40.680  26.237  26.712  1.00  0.00     0.010 A 
ATOM     37  C   UNL A   1      40.225  26.548  28.002  1.00  0.00    -0.014 A 
BRANCH  37  38
ATOM     38  C   UNL A   1      40.646  27.822  28.636  1.00  0.00     0.031 A 
ATOM     39  C   UNL A   1      42.026  27.957  29.219  1.00  0.00     0.074 A 
ATOM     40  C   UNL A   1      39.763  28.834  28.745  1.00  0.00     0.049 A 
ATOM     41  N   UNL A   1      42.557  28.970  29.857  1.00  0.00    -0.248 NA
ATOM     42  C   UNL A   1      42.918  26.793  29.094  1.00  0.00     0.031 C 
ATOM     43  C   UNL A   1      38.381  28.807  28.257  1.00  0.00     0.029 A 
ATOM     44  N   UNL A   1      39.893  30.079  29.306  1.00  0.00    -0.354 N 
ATOM     45  C   UNL A   1      43.833  28.559  30.223  1.00  0.00     0.074 A 
ATOM     46  C   UNL A   1      43.979  27.189  29.780  1.00  0.00     0.031 C 
ATOM     47  C   UNL A   1      37.801  29.990  28.519  1.00  0.00     0.029 A 
ATOM     48  C   UNL A   1      38.752  30.842  29.226  1.00  0.00     0.049 A 
ATOM     49  H   UNL A   1      40.725  30.396  29.727  1.00  0.00     0.167 HD
ATOM     50  C   UNL A   1      44.803  29.263  30.855  1.00  0.00     0.031 A 
ATOM     51  C   UNL A   1      38.497  32.086  29.674  1.00  0.00     0.031 A 
ATOM     52  C   UNL A   1      44.653  30.628  31.287  1.00  0.00     0.049 A 
ATOM     53  C   UNL A   1      39.586  32.850  30.375  1.00  0.00     0.074 A 
ATOM     54  C   UNL A   1      45.593  31.450  31.883  1.00  0.00     0.029 A 
ATOM     55  N   UNL A   1      43.486  31.370  31.174  1.00  0.00    -0.354 N 
ATOM     56  N   UNL A   1      40.811  32.469  30.650  1.00  0.00    -0.248 NA
ATOM     57  C   UNL A   1      39.264  34.215  30.811  1.00  0.00     0.031 C 
ATOM     58  C   UNL A   1      44.979  32.672  32.178  1.00  0.00     0.029 A 
ATOM     59  C   UNL A   1      43.674  32.633  31.712  1.00  0.00     0.049 A 
ATOM     60  H   UNL A   1      42.648  31.048  30.772  1.00  0.00     0.167 HD
ATOM     61  C   UNL A   1      41.414  33.557  31.271  1.00  0.00     0.074 A 
ATOM     62  C   UNL A   1      40.424  34.614  31.318  1.00  0.00     0.031 C 
ATOM     63  C   UNL A   1      42.676  33.671  31.755  1.00  0.00     0.031 A 
BRANCH  50  64
ATOM     64  C   UNL A   1      46.106  28.559  31.127  1.00  0.00    -0.014 A 
ATOM     65  C   UNL A   1      46.324  27.867  32.332  1.00  0.00     0.010 A 
ATOM     66  C   UNL A   1      47.124  28.572  30.155  1.00  0.00     0.010 A 
ATOM     67  C   UNL A   1      47.550  27.246  32.583  1.00  0.00     0.020 A 
ATOM     68  C   UNL A   1      48.342  27.927  30.389  1.00  0.00     0.020 A 
ATOM     69  C   UNL A   1      48.555  27.286  31.611  1.00  0.00     0.054 A 
BRANCH  69  70
ATOM     70  S   UNL A   1      50.136  26.470  31.959  1.00  0.00     0.124 S 
ATOM     71  O   UNL A   1      51.064  27.252  31.145  1.00  0.00    -0.237 OA
ATOM     72  O   UNL A   1      50.273  26.639  33.404  1.00  0.00    -0.237 OA
ATOM     73  O   UNL A   1      49.924  25.096  31.514  1.00  0.00    -0.744 OA
ENDBRANCH  69  70
ENDBRANCH  50  64
BRANCH  51  74
ATOM     74  C   UNL A   1      37.155  32.688  29.452  1.00  0.00    -0.014 A 
ATOM     75  C   UNL A   1      36.200  32.702  30.484  1.00  0.00     0.010 A 
ATOM     76  C   UNL A   1      36.838  33.289  28.220  1.00  0.00     0.010 A 
ATOM     77  C   UNL A   1      34.950  33.296  30.285  1.00  0.00     0.020 A 
ATOM     78  C   UNL A   1      35.600  33.908  28.025  1.00  0.00     0.020 A 
ATOM     79  C   UNL A   1      34.660  33.900  29.058  1.00  0.00     0.054 A 
BRANCH  79  80
ATOM     80  S   UNL A   1      33.059  34.726  28.846  1.00  0.00     0.124 S 
ATOM     81  O   UNL A   1      33.455  36.027  28.315  1.00  0.00    -0.237 OA
ATOM     82  O   UNL A   1      32.369  33.843  27.908  1.00  0.00    -0.237 OA
ATOM     83  O   UNL A   1      32.501  34.744  30.196  1.00  0.00    -0.744 OA
ENDBRANCH  79  80
ENDBRANCH  51  74
BRANCH  63  84
ATOM     84  C   UNL A   1      43.071  34.995  32.354  1.00  0.00    -0.014 A 
ATOM     85  C   UNL A   1      43.794  35.945  31.613  1.00  0.00     0.010 A 
ATOM     86  C   UNL A   1      42.660  35.313  33.662  1.00  0.00     0.010 A 
ATOM     87  C   UNL A   1      44.124  37.179  32.178  1.00  0.00     0.020 A 
ATOM     88  C   UNL A   1      42.964  36.557  34.221  1.00  0.00     0.020 A 
ATOM     89  C   UNL A   1      43.707  37.477  33.479  1.00  0.00     0.054 A 
BRANCH  89  90
ATOM     90  S   UNL A   1      44.107  39.104  34.173  1.00  0.00     0.124 S 
ATOM     91  O   UNL A   1      45.289  39.481  33.402  1.00  0.00    -0.237 OA
ATOM     92  O   UNL A   1      42.901  39.879  33.893  1.00  0.00    -0.237 OA
ATOM     93  O   UNL A   1      44.348  38.829  35.588  1.00  0.00    -0.744 OA
ENDBRANCH  89  90
ENDBRANCH  63  84
ENDBRANCH  37  38
ENDBRANCH  29  32
ENDBRANCH  27  28
ENDBRANCH  26  27
ENDBRANCH  25  26
ENDBRANCH   1  25
TORSDOF 20
ENDMDL
MODEL 3
REMARK VINA RESULT:     -10.3      2.544      3.282
REMARK SMILES COCCNc1cc(C)nc2cc(C(=O)NCCCCCCNC(=O)c3ccc(-c4c5nc(c(-c6ccc(S(=O)(=O)[O-])cc6)c6ccc([nH]6)c(-c6ccc(S(=O)(=O)[O-])cc6)c6nc(c(-c7ccc(S(=O)(=O)[O-])cc7)c7ccc4[nH]7)C=C6)C=C5)cc3)ccc12
REMARK SMILES IDX 19 1 18 2 17 3 16 4 14 5 15 6 13 8 6 9 7 10 88 11 8 12 11 13
REMARK SMILES IDX 87 14 9 15 10 16 12 17 86 18 5 19 4 21 3 22 2 23 1 24 20 25
REMARK SMILES IDX 21 26 22 27 23 28 24 29 25 31 26 32 27 33 85 34 28 35 84 36
REMARK SMILES IDX 29 37 30 38 31 39 78 40 32 41 83 42 77 43 79 44 33 45 82 46
REMARK SMILES IDX 76 47 75 48 34 50 64 51 45 52 63 53 46 54 49 55 62 56 80 57
REMARK SMILES IDX 47 58 48 59 61 61 81 62 50 63 35 64 36 65 44 66 37 67 43 68
REMARK SMILES IDX 38 69 39 70 40 71 41 72 42 73 65 74 66 75 74 76 67 77 73 78
REMARK SMILES IDX 68 79 69 80 70 81 71 82 72 83 51 84 52 85 60 86 53 87 59 88
REMARK SMILES IDX 54 89 55 90 56 91 57 92 58 93
REMARK H PARENT 16 7 5 20 23 30 79 49 49 60
REMARK Flexibility Score: inf
ROOT
ATOM      1  C   UNL A   1      31.059  26.798  25.480  1.00  0.00     0.002 C 
ENDROOT
BRANCH   1   2
ATOM      2  C   UNL A   1      30.716  27.246  24.052  1.00  0.00     0.021 C 
BRANCH   2   3
ATOM      3  C   UNL A   1      30.448  26.072  23.109  1.00  0.00     0.116 C 
BRANCH   3   4
ATOM      4  N   UNL A   1      31.404  26.091  22.018  1.00  0.00    -0.352 N 
ATOM      5  C   UNL A   1      32.569  25.412  21.787  1.00  0.00     0.251 C 
ATOM      6  O   UNL A   1      33.192  25.704  20.763  1.00  0.00    -0.269 OA
ATOM      7  H   UNL A   1      31.167  26.720  21.299  1.00  0.00     0.163 HD
BRANCH   5   8
ATOM      8  C   UNL A   1      33.083  24.308  22.649  1.00  0.00     0.041 A 
ATOM      9  C   UNL A   1      34.931  21.200  24.855  1.00  0.00     0.045 A 
ATOM     10  C   UNL A   1      34.316  19.949  24.825  1.00  0.00     0.049 A 
ATOM     11  C   UNL A   1      34.314  22.271  24.170  1.00  0.00     0.023 A 
ATOM     12  C   UNL A   1      33.116  19.799  24.143  1.00  0.00     0.040 A 
ATOM     13  C   UNL A   1      33.086  22.032  23.528  1.00  0.00     0.073 A 
ATOM     14  C   UNL A   1      34.892  23.552  24.071  1.00  0.00     0.013 A 
ATOM     15  C   UNL A   1      32.462  18.455  24.020  1.00  0.00     0.067 C 
ATOM     16  N   UNL A   1      32.495  20.829  23.524  1.00  0.00    -0.253 NA
ATOM     17  C   UNL A   1      32.467  23.070  22.842  1.00  0.00     0.042 A 
ATOM     18  C   UNL A   1      34.296  24.547  23.300  1.00  0.00     0.014 A 
BRANCH   9  19
ATOM     19  N   UNL A   1      36.055  21.427  25.640  1.00  0.00    -0.382 N 
ATOM     20  H   UNL A   1      35.952  21.945  26.472  1.00  0.00     0.160 HD
BRANCH  19  21
ATOM     21  C   UNL A   1      37.380  20.935  25.290  1.00  0.00     0.141 C 
BRANCH  21  22
ATOM     22  C   UNL A   1      38.465  21.933  25.729  1.00  0.00     0.181 C 
BRANCH  22  23
ATOM     23  O   UNL A   1      37.990  23.282  25.822  1.00  0.00    -0.383 OA
ATOM     24  C   UNL A   1      38.686  24.064  26.782  1.00  0.00     0.194 C 
ENDBRANCH  22  23
ENDBRANCH  21  22
ENDBRANCH  19  21
ENDBRANCH   9  19
ENDBRANCH   5   8
ENDBRANCH   3   4
ENDBRANCH   2   3
ENDBRANCH   1   2
BRANCH   1  25
ATOM     25  C   UNL A   1      32.022  27.729  26.226  1.00  0.00     0.002 C 
BRANCH  25  26
ATOM     26  C   UNL A   1      33.307  28.070  25.466  1.00  0.00     0.021 C 
BRANCH  26  27
ATOM     27  C   UNL A   1      34.366  28.766  26.315  1.00  0.00     0.116 C 
BRANCH  27  28
ATOM     28  N   UNL A   1      34.019  30.156  26.562  1.00  0.00    -0.352 N 
ATOM     29  C   UNL A   1      34.500  31.010  27.521  1.00  0.00     0.251 C 
ATOM     30  H   UNL A   1      33.343  30.538  25.956  1.00  0.00     0.163 HD
ATOM     31  O   UNL A   1      33.916  32.068  27.753  1.00  0.00    -0.269 OA
BRANCH  29  32
ATOM     32  C   UNL A   1      35.717  30.651  28.278  1.00  0.00     0.039 A 
ATOM     33  C   UNL A   1      35.630  29.698  29.294  1.00  0.00     0.014 A 
ATOM     34  C   UNL A   1      36.937  31.270  27.993  1.00  0.00     0.014 A 
ATOM     35  C   UNL A   1      36.781  29.328  29.993  1.00  0.00     0.010 A 
ATOM     36  C   UNL A   1      38.094  30.852  28.643  1.00  0.00     0.010 A 
ATOM     37  C   UNL A   1      38.026  29.883  29.655  1.00  0.00    -0.014 A 
BRANCH  37  38
ATOM     38  C   UNL A   1      39.269  29.466  30.349  1.00  0.00     0.031 A 
ATOM     39  C   UNL A   1      39.714  30.178  31.597  1.00  0.00     0.074 A 
ATOM     40  C   UNL A   1      40.030  28.488  29.819  1.00  0.00     0.049 A 
ATOM     41  N   UNL A   1      40.794  29.991  32.313  1.00  0.00    -0.248 NA
ATOM     42  C   UNL A   1      38.847  31.259  32.091  1.00  0.00     0.031 C 
ATOM     43  C   UNL A   1      39.726  27.753  28.589  1.00  0.00     0.029 A 
ATOM     44  N   UNL A   1      41.219  27.951  30.243  1.00  0.00    -0.354 N 
ATOM     45  C   UNL A   1      40.746  30.940  33.327  1.00  0.00     0.074 A 
ATOM     46  C   UNL A   1      39.555  31.733  33.106  1.00  0.00     0.031 C 
ATOM     47  C   UNL A   1      40.691  26.844  28.372  1.00  0.00     0.029 A 
ATOM     48  C   UNL A   1      41.698  26.957  29.421  1.00  0.00     0.049 A 
ATOM     49  H   UNL A   1      41.685  28.247  31.057  1.00  0.00     0.167 HD
ATOM     50  C   UNL A   1      41.604  31.124  34.359  1.00  0.00     0.031 A 
ATOM     51  C   UNL A   1      42.825  26.223  29.501  1.00  0.00     0.031 A 
ATOM     52  C   UNL A   1      42.782  30.328  34.577  1.00  0.00     0.049 A 
ATOM     53  C   UNL A   1      43.764  26.444  30.653  1.00  0.00     0.074 A 
ATOM     54  C   UNL A   1      43.684  30.394  35.624  1.00  0.00     0.029 A 
ATOM     55  N   UNL A   1      43.224  29.322  33.731  1.00  0.00    -0.354 N 
ATOM     56  N   UNL A   1      43.665  27.301  31.642  1.00  0.00    -0.248 NA
ATOM     57  C   UNL A   1      44.959  25.591  30.709  1.00  0.00     0.031 C 
ATOM     58  C   UNL A   1      44.701  29.464  35.383  1.00  0.00     0.029 A 
ATOM     59  C   UNL A   1      44.401  28.776  34.218  1.00  0.00     0.049 A 
ATOM     60  H   UNL A   1      42.770  29.037  32.905  1.00  0.00     0.167 HD
ATOM     61  C   UNL A   1      44.772  27.073  32.452  1.00  0.00     0.074 A 
ATOM     62  C   UNL A   1      45.519  25.990  31.844  1.00  0.00     0.031 C 
ATOM     63  C   UNL A   1      45.135  27.702  33.597  1.00  0.00     0.031 A 
BRANCH  50  64
ATOM     64  C   UNL A   1      41.300  32.242  35.323  1.00  0.00    -0.014 A 
ATOM     65  C   UNL A   1      40.544  32.015  36.488  1.00  0.00     0.010 A 
ATOM     66  C   UNL A   1      41.793  33.536  35.071  1.00  0.00     0.010 A 
ATOM     67  C   UNL A   1      40.243  33.068  37.355  1.00  0.00     0.020 A 
ATOM     68  C   UNL A   1      41.520  34.587  35.952  1.00  0.00     0.020 A 
ATOM     69  C   UNL A   1      40.728  34.351  37.077  1.00  0.00     0.054 A 
BRANCH  69  70
ATOM     70  S   UNL A   1      40.326  35.699  38.220  1.00  0.00     0.124 S 
ATOM     71  O   UNL A   1      39.945  36.769  37.300  1.00  0.00    -0.237 OA
ATOM     72  O   UNL A   1      39.235  35.135  39.012  1.00  0.00    -0.237 OA
ATOM     73  O   UNL A   1      41.571  35.920  38.950  1.00  0.00    -0.744 OA
ENDBRANCH  69  70
ENDBRANCH  50  64
BRANCH  51  74
ATOM     74  C   UNL A   1      43.109  25.196  28.462  1.00  0.00    -0.014 A 
ATOM     75  C   UNL A   1      42.623  23.884  28.605  1.00  0.00     0.010 A 
ATOM     76  C   UNL A   1      43.832  25.535  27.304  1.00  0.00     0.010 A 
ATOM     77  C   UNL A   1      42.863  22.928  27.614  1.00  0.00     0.020 A 
ATOM     78  C   UNL A   1      44.051  24.589  26.298  1.00  0.00     0.020 A 
ATOM     79  C   UNL A   1      43.572  23.288  26.464  1.00  0.00     0.054 A 
BRANCH  79  80
ATOM     80  S   UNL A   1      43.811  22.050  25.160  1.00  0.00     0.124 S 
ATOM     81  O   UNL A   1      45.196  21.643  25.377  1.00  0.00    -0.237 OA
ATOM     82  O   UNL A   1      42.798  21.049  25.485  1.00  0.00    -0.237 OA
ATOM     83  O   UNL A   1      43.563  22.797  23.929  1.00  0.00    -0.744 OA
ENDBRANCH  79  80
ENDBRANCH  51  74
BRANCH  63  84
ATOM     84  C   UNL A   1      46.382  27.218  34.288  1.00  0.00    -0.014 A 
ATOM     85  C   UNL A   1      46.336  26.177  35.231  1.00  0.00     0.010 A 
ATOM     86  C   UNL A   1      47.626  27.778  33.943  1.00  0.00     0.010 A 
ATOM     87  C   UNL A   1      47.510  25.723  35.838  1.00  0.00     0.020 A 
ATOM     88  C   UNL A   1      48.805  27.308  34.527  1.00  0.00     0.020 A 
ATOM     89  C   UNL A   1      48.737  26.291  35.482  1.00  0.00     0.054 A 
BRANCH  89  90
ATOM     90  S   UNL A   1      50.251  25.652  36.249  1.00  0.00     0.124 S 
ATOM     91  O   UNL A   1      50.148  26.176  37.609  1.00  0.00    -0.237 OA
ATOM     92  O   UNL A   1      50.092  24.206  36.120  1.00  0.00    -0.237 OA
ATOM     93  O   UNL A   1      51.322  26.230  35.439  1.00  0.00    -0.744 OA
ENDBRANCH  89  90
ENDBRANCH  63  84
ENDBRANCH  37  38
ENDBRANCH  29  32
ENDBRANCH  27  28
ENDBRANCH  26  27
ENDBRANCH  25  26
ENDBRANCH   1  25
TORSDOF 20
ENDMDL
