MODEL 1
REMARK VINA RESULT:     -10.7      0.000      0.000
REMARK SMILES O=C(NCCCCCCNC(=O)c1cccc(Nc2ccc([N+](=O)[O-])cc2)c1)c1ccc(-c2c3nc(c(-c4ccc(S(=O)(=O)[O-])cc4)c4ccc([nH]4)c(-c4ccc(S(=O)(=O)[O-])cc4)c4nc(c(-c5ccc(S(=O)(=O)[O-])cc5)c5ccc2[nH]5)C=C4)C=C3)cc1
REMARK SMILES IDX 6 1 5 2 4 3 3 4 1 5 2 6 29 8 30 9 88 10 31 11 87 12 32 13
REMARK SMILES IDX 33 14 34 15 81 16 35 17 86 18 80 19 82 20 36 21 85 22 79 23
REMARK SMILES IDX 78 24 37 26 67 27 48 28 66 29 49 30 52 31 65 32 83 33 50 34
REMARK SMILES IDX 51 35 64 37 84 38 53 39 38 40 39 41 47 42 40 43 46 44 41 45
REMARK SMILES IDX 42 46 43 47 44 48 45 49 68 50 69 51 77 52 70 53 76 54 71 55
REMARK SMILES IDX 72 56 73 57 74 58 75 59 54 60 55 61 63 62 56 63 62 64 57 65
REMARK SMILES IDX 58 66 59 67 60 68 61 69 7 70 8 71 9 72 10 73 11 74 12 76
REMARK SMILES IDX 13 77 14 78 28 79 15 80 17 81 16 82 18 83 19 85 20 86 27 87
REMARK SMILES IDX 21 88 26 89 22 90 23 91 24 92 25 93
REMARK H PARENT 3 7 82 25 52 36 10 75 18 84
REMARK Flexibility Score: inf
ROOT
ATOM      1  C   UNL A   1      33.770  27.009  24.643  1.00  0.00     0.002 C 
ENDROOT
BRANCH   1   2
ATOM      2  C   UNL A   1      33.013  27.787  25.720  1.00  0.00     0.021 C 
BRANCH   2   3
ATOM      3  C   UNL A   1      33.849  28.214  26.920  1.00  0.00     0.116 C 
BRANCH   3   4
ATOM      4  N   UNL A   1      33.578  29.580  27.334  1.00  0.00    -0.352 N 
ATOM      5  O   UNL A   1      33.940  31.520  28.425  1.00  0.00    -0.269 OA
ATOM      6  C   UNL A   1      34.389  30.451  28.021  1.00  0.00     0.251 C 
ATOM      7  H   UNL A   1      32.690  29.929  27.090  1.00  0.00     0.163 HD
BRANCH   6   8
ATOM      8  C   UNL A   1      35.797  30.086  28.292  1.00  0.00     0.039 A 
ATOM      9  C   UNL A   1      36.181  29.613  29.550  1.00  0.00     0.014 A 
ATOM     10  C   UNL A   1      36.743  30.213  27.271  1.00  0.00     0.014 A 
ATOM     11  C   UNL A   1      37.526  29.391  29.823  1.00  0.00     0.010 A 
ATOM     12  C   UNL A   1      38.084  29.911  27.526  1.00  0.00     0.010 A 
ATOM     13  C   UNL A   1      38.492  29.521  28.811  1.00  0.00    -0.014 A 
BRANCH  13  14
ATOM     14  C   UNL A   1      39.905  29.171  29.102  1.00  0.00     0.031 A 
ATOM     15  C   UNL A   1      40.834  30.147  29.770  1.00  0.00     0.074 A 
ATOM     16  C   UNL A   1      40.342  27.941  28.767  1.00  0.00     0.049 A 
ATOM     17  N   UNL A   1      42.087  29.983  30.112  1.00  0.00    -0.248 NA
ATOM     18  C   UNL A   1      40.293  31.477  30.092  1.00  0.00     0.031 C 
ATOM     19  C   UNL A   1      39.536  26.913  28.101  1.00  0.00     0.029 A 
ATOM     20  N   UNL A   1      41.560  27.339  28.951  1.00  0.00    -0.354 N 
ATOM     21  C   UNL A   1      42.492  31.190  30.668  1.00  0.00     0.074 A 
ATOM     22  C   UNL A   1      41.356  32.085  30.603  1.00  0.00     0.031 C 
ATOM     23  C   UNL A   1      40.266  25.796  27.973  1.00  0.00     0.029 A 
ATOM     24  C   UNL A   1      41.607  26.044  28.491  1.00  0.00     0.049 A 
ATOM     25  H   UNL A   1      42.327  27.790  29.373  1.00  0.00     0.167 HD
ATOM     26  C   UNL A   1      43.701  31.519  31.187  1.00  0.00     0.031 A 
ATOM     27  C   UNL A   1      42.617  25.156  28.469  1.00  0.00     0.031 A 
ATOM     28  C   UNL A   1      44.827  30.624  31.250  1.00  0.00     0.049 A 
ATOM     29  C   UNL A   1      43.949  25.552  29.035  1.00  0.00     0.074 A 
ATOM     30  C   UNL A   1      46.080  30.854  31.791  1.00  0.00     0.029 A 
ATOM     31  N   UNL A   1      44.842  29.330  30.749  1.00  0.00    -0.354 N 
ATOM     32  N   UNL A   1      44.299  26.687  29.592  1.00  0.00    -0.248 NA
ATOM     33  C   UNL A   1      45.020  24.550  28.972  1.00  0.00     0.031 C 
ATOM     34  C   UNL A   1      46.868  29.718  31.573  1.00  0.00     0.029 A 
ATOM     35  C   UNL A   1      46.089  28.760  30.946  1.00  0.00     0.049 A 
ATOM     36  H   UNL A   1      44.078  28.883  30.318  1.00  0.00     0.167 HD
ATOM     37  C   UNL A   1      45.630  26.531  29.957  1.00  0.00     0.074 A 
ATOM     38  C   UNL A   1      46.014  25.185  29.578  1.00  0.00     0.031 C 
ATOM     39  C   UNL A   1      46.460  27.423  30.551  1.00  0.00     0.031 A 
BRANCH  26  40
ATOM     40  C   UNL A   1      43.880  32.922  31.710  1.00  0.00    -0.014 A 
ATOM     41  C   UNL A   1      43.603  33.242  33.051  1.00  0.00     0.010 A 
ATOM     42  C   UNL A   1      44.387  33.921  30.858  1.00  0.00     0.010 A 
ATOM     43  C   UNL A   1      43.795  34.545  33.520  1.00  0.00     0.020 A 
ATOM     44  C   UNL A   1      44.602  35.220  31.331  1.00  0.00     0.020 A 
ATOM     45  C   UNL A   1      44.289  35.527  32.656  1.00  0.00     0.054 A 
BRANCH  45  46
ATOM     46  S   UNL A   1      44.547  37.205  33.298  1.00  0.00     0.124 S 
ATOM     47  O   UNL A   1      43.223  37.531  33.822  1.00  0.00    -0.237 OA
ATOM     48  O   UNL A   1      45.588  37.008  34.304  1.00  0.00    -0.237 OA
ATOM     49  O   UNL A   1      44.957  37.967  32.123  1.00  0.00    -0.744 OA
ENDBRANCH  45  46
ENDBRANCH  26  40
BRANCH  27  50
ATOM     50  C   UNL A   1      42.397  23.811  27.874  1.00  0.00    -0.014 A 
ATOM     51  C   UNL A   1      42.618  23.588  26.505  1.00  0.00     0.010 A 
ATOM     52  C   UNL A   1      42.013  22.732  28.693  1.00  0.00     0.010 A 
ATOM     53  C   UNL A   1      42.451  22.311  25.963  1.00  0.00     0.020 A 
ATOM     54  C   UNL A   1      41.873  21.450  28.160  1.00  0.00     0.020 A 
ATOM     55  C   UNL A   1      42.085  21.248  26.795  1.00  0.00     0.054 A 
BRANCH  55  56
ATOM     56  S   UNL A   1      41.946  19.584  26.085  1.00  0.00     0.124 S 
ATOM     57  O   UNL A   1      42.451  18.749  27.170  1.00  0.00    -0.237 OA
ATOM     58  O   UNL A   1      40.515  19.474  25.814  1.00  0.00    -0.237 OA
ATOM     59  O   UNL A   1      42.794  19.650  24.896  1.00  0.00    -0.744 OA
ENDBRANCH  55  56
ENDBRANCH  27  50
BRANCH  39  60
ATOM     60  C   UNL A   1      47.862  26.965  30.845  1.00  0.00    -0.014 A 
ATOM     61  C   UNL A   1      48.940  27.366  30.036  1.00  0.00     0.010 A 
ATOM     62  C   UNL A   1      48.108  26.154  31.968  1.00  0.00     0.010 A 
ATOM     63  C   UNL A   1      50.238  26.936  30.327  1.00  0.00     0.020 A 
ATOM     64  C   UNL A   1      49.407  25.744  32.275  1.00  0.00     0.020 A 
ATOM     65  C   UNL A   1      50.462  26.125  31.443  1.00  0.00     0.054 A 
BRANCH  65  66
ATOM     66  S   UNL A   1      52.159  25.609  31.823  1.00  0.00     0.124 S 
ATOM     67  O   UNL A   1      52.555  26.588  32.832  1.00  0.00    -0.237 OA
ATOM     68  O   UNL A   1      51.979  24.242  32.308  1.00  0.00    -0.237 OA
ATOM     69  O   UNL A   1      52.850  25.721  30.541  1.00  0.00    -0.744 OA
ENDBRANCH  65  66
ENDBRANCH  39  60
ENDBRANCH  13  14
ENDBRANCH   6   8
ENDBRANCH   3   4
ENDBRANCH   2   3
ENDBRANCH   1   2
BRANCH   1  70
ATOM     70  C   UNL A   1      33.237  27.166  23.217  1.00  0.00     0.002 C 
BRANCH  70  71
ATOM     71  C   UNL A   1      33.570  26.022  22.253  1.00  0.00     0.021 C 
BRANCH  71  72
ATOM     72  C   UNL A   1      34.137  24.764  22.904  1.00  0.00     0.116 C 
BRANCH  72  73
ATOM     73  N   UNL A   1      33.358  23.583  22.574  1.00  0.00    -0.352 N 
ATOM     74  C   UNL A   1      32.177  23.146  23.113  1.00  0.00     0.251 C 
ATOM     75  H   UNL A   1      33.732  23.016  21.862  1.00  0.00     0.163 HD
ATOM     76  O   UNL A   1      31.748  22.027  22.844  1.00  0.00    -0.269 OA
BRANCH  74  77
ATOM     77  C   UNL A   1      31.415  24.019  24.027  1.00  0.00     0.041 A 
ATOM     78  C   UNL A   1      31.762  24.036  25.378  1.00  0.00     0.014 A 
ATOM     79  C   UNL A   1      30.330  24.773  23.560  1.00  0.00     0.039 A 
ATOM     80  C   UNL A   1      31.046  24.843  26.255  1.00  0.00     0.003 A 
ATOM     81  C   UNL A   1      29.598  25.586  24.433  1.00  0.00     0.039 A 
ATOM     82  C   UNL A   1      29.981  25.616  25.781  1.00  0.00     0.026 A 
BRANCH  81  83
ATOM     83  N   UNL A   1      28.534  26.351  23.921  1.00  0.00    -0.356 N 
ATOM     84  H   UNL A   1      27.658  25.903  23.936  1.00  0.00     0.167 HD
BRANCH  83  85
ATOM     85  C   UNL A   1      28.522  27.651  23.392  1.00  0.00     0.039 A 
ATOM     86  C   UNL A   1      27.309  28.355  23.351  1.00  0.00     0.033 A 
ATOM     87  C   UNL A   1      29.695  28.310  22.998  1.00  0.00     0.033 A 
ATOM     88  C   UNL A   1      27.269  29.698  22.967  1.00  0.00     0.088 A 
ATOM     89  C   UNL A   1      29.670  29.649  22.600  1.00  0.00     0.088 A 
ATOM     90  C   UNL A   1      28.456  30.345  22.606  1.00  0.00     0.269 A 
BRANCH  90  91
ATOM     91  N   UNL A   1      28.433  31.774  22.273  1.00  0.00     0.062 N 
ATOM     92  O   UNL A   1      28.665  32.097  21.099  1.00  0.00    -0.258 OA
ATOM     93  O   UNL A   1      28.155  32.574  23.178  1.00  0.00    -0.258 OA
ENDBRANCH  90  91
ENDBRANCH  83  85
ENDBRANCH  81  83
ENDBRANCH  74  77
ENDBRANCH  72  73
ENDBRANCH  71  72
ENDBRANCH  70  71
ENDBRANCH   1  70
TORSDOF 19
ENDMDL
MODEL 2
REMARK VINA RESULT:     -10.5      2.592      3.165
REMARK SMILES O=C(NCCCCCCNC(=O)c1cccc(Nc2ccc([N+](=O)[O-])cc2)c1)c1ccc(-c2c3nc(c(-c4ccc(S(=O)(=O)[O-])cc4)c4ccc([nH]4)c(-c4ccc(S(=O)(=O)[O-])cc4)c4nc(c(-c5ccc(S(=O)(=O)[O-])cc5)c5ccc2[nH]5)C=C4)C=C3)cc1
REMARK SMILES IDX 6 1 5 2 4 3 3 4 1 5 2 6 29 8 30 9 88 10 31 11 87 12 32 13
REMARK SMILES IDX 33 14 34 15 81 16 35 17 86 18 80 19 82 20 36 21 85 22 79 23
REMARK SMILES IDX 78 24 37 26 67 27 48 28 66 29 49 30 52 31 65 32 83 33 50 34
REMARK SMILES IDX 51 35 64 37 84 38 53 39 38 40 39 41 47 42 40 43 46 44 41 45
REMARK SMILES IDX 42 46 43 47 44 48 45 49 68 50 69 51 77 52 70 53 76 54 71 55
REMARK SMILES IDX 72 56 73 57 74 58 75 59 54 60 55 61 63 62 56 63 62 64 57 65
REMARK SMILES IDX 58 66 59 67 60 68 61 69 7 70 8 71 9 72 10 73 11 74 12 76
REMARK SMILES IDX 13 77 14 78 28 79 15 80 17 81 16 82 18 83 19 85 20 86 27 87
REMARK SMILES IDX 21 88 26 89 22 90 23 91 24 92 25 93
REMARK H PARENT 3 7 82 25 52 36 10 75 18 84
REMARK Flexibility Score: inf
ROOT
ATOM      1  C   UNL A   1      33.945  26.887  24.217  1.00  0.00     0.002 C 
ENDROOT
BRANCH   1   2
ATOM      2  C   UNL A   1      33.655  28.326  24.643  1.00  0.00     0.021 C 
BRANCH   2   3
ATOM      3  C   UNL A   1      34.110  28.689  26.051  1.00  0.00     0.116 C 
BRANCH   3   4
ATOM      4  N   UNL A   1      33.671  30.013  26.459  1.00  0.00    -0.352 N 
ATOM      5  O   UNL A   1      33.602  31.863  27.744  1.00  0.00    -0.269 OA
ATOM      6  C   UNL A   1      34.196  30.838  27.423  1.00  0.00     0.251 C 
ATOM      7  H   UNL A   1      32.888  30.367  25.977  1.00  0.00     0.163 HD
BRANCH   6   8
ATOM      8  C   UNL A   1      35.465  30.473  28.091  1.00  0.00     0.039 A 
ATOM      9  C   UNL A   1      35.479  29.553  29.143  1.00  0.00     0.014 A 
ATOM     10  C   UNL A   1      36.657  31.057  27.654  1.00  0.00     0.014 A 
ATOM     11  C   UNL A   1      36.660  29.314  29.837  1.00  0.00     0.010 A 
ATOM     12  C   UNL A   1      37.858  30.753  28.303  1.00  0.00     0.010 A 
ATOM     13  C   UNL A   1      37.866  29.898  29.416  1.00  0.00    -0.014 A 
BRANCH  13  14
ATOM     14  C   UNL A   1      39.130  29.540  30.107  1.00  0.00     0.031 A 
ATOM     15  C   UNL A   1      39.561  30.239  31.367  1.00  0.00     0.074 A 
ATOM     16  C   UNL A   1      39.887  28.553  29.588  1.00  0.00     0.049 A 
ATOM     17  N   UNL A   1      40.623  30.024  32.101  1.00  0.00    -0.248 NA
ATOM     18  C   UNL A   1      38.695  31.318  31.867  1.00  0.00     0.031 C 
ATOM     19  C   UNL A   1      39.578  27.812  28.361  1.00  0.00     0.029 A 
ATOM     20  N   UNL A   1      41.058  27.991  30.029  1.00  0.00    -0.354 N 
ATOM     21  C   UNL A   1      40.568  30.952  33.134  1.00  0.00     0.074 A 
ATOM     22  C   UNL A   1      39.374  31.743  32.925  1.00  0.00     0.031 C 
ATOM     23  C   UNL A   1      40.509  26.866  28.173  1.00  0.00     0.029 A 
ATOM     24  C   UNL A   1      41.512  26.971  29.227  1.00  0.00     0.049 A 
ATOM     25  H   UNL A   1      41.527  28.290  30.841  1.00  0.00     0.167 HD
ATOM     26  C   UNL A   1      41.433  31.124  34.164  1.00  0.00     0.031 A 
ATOM     27  C   UNL A   1      42.620  26.213  29.314  1.00  0.00     0.031 A 
ATOM     28  C   UNL A   1      42.619  30.333  34.368  1.00  0.00     0.049 A 
ATOM     29  C   UNL A   1      43.568  26.436  30.456  1.00  0.00     0.074 A 
ATOM     30  C   UNL A   1      43.536  30.407  35.402  1.00  0.00     0.029 A 
ATOM     31  N   UNL A   1      43.058  29.327  33.518  1.00  0.00    -0.354 N 
ATOM     32  N   UNL A   1      43.475  27.292  31.444  1.00  0.00    -0.248 NA
ATOM     33  C   UNL A   1      44.768  25.590  30.494  1.00  0.00     0.031 C 
ATOM     34  C   UNL A   1      44.556  29.482  35.153  1.00  0.00     0.029 A 
ATOM     35  C   UNL A   1      44.245  28.792  33.992  1.00  0.00     0.049 A 
ATOM     36  H   UNL A   1      42.594  29.036  32.701  1.00  0.00     0.167 HD
ATOM     37  C   UNL A   1      44.601  27.081  32.231  1.00  0.00     0.074 A 
ATOM     38  C   UNL A   1      45.346  26.001  31.615  1.00  0.00     0.031 C 
ATOM     39  C   UNL A   1      44.982  27.725  33.361  1.00  0.00     0.031 A 
BRANCH  26  40
ATOM     40  C   UNL A   1      41.144  32.232  35.144  1.00  0.00    -0.014 A 
ATOM     41  C   UNL A   1      41.517  33.561  34.873  1.00  0.00     0.010 A 
ATOM     42  C   UNL A   1      40.439  31.947  36.328  1.00  0.00     0.010 A 
ATOM     43  C   UNL A   1      41.222  34.578  35.787  1.00  0.00     0.020 A 
ATOM     44  C   UNL A   1      40.122  32.966  37.233  1.00  0.00     0.020 A 
ATOM     45  C   UNL A   1      40.530  34.274  36.963  1.00  0.00     0.054 A 
BRANCH  45  46
ATOM     46  S   UNL A   1      40.145  35.616  38.121  1.00  0.00     0.124 S 
ATOM     47  O   UNL A   1      41.385  35.717  38.886  1.00  0.00    -0.237 OA
ATOM     48  O   UNL A   1      39.866  36.740  37.229  1.00  0.00    -0.237 OA
ATOM     49  O   UNL A   1      38.993  35.114  38.864  1.00  0.00    -0.744 OA
ENDBRANCH  45  46
ENDBRANCH  26  40
BRANCH  27  50
ATOM     50  C   UNL A   1      42.886  25.183  28.275  1.00  0.00    -0.014 A 
ATOM     51  C   UNL A   1      43.628  25.499  27.126  1.00  0.00     0.010 A 
ATOM     52  C   UNL A   1      42.436  23.861  28.461  1.00  0.00     0.010 A 
ATOM     53  C   UNL A   1      43.911  24.514  26.176  1.00  0.00     0.020 A 
ATOM     54  C   UNL A   1      42.741  22.869  27.528  1.00  0.00     0.020 A 
ATOM     55  C   UNL A   1      43.470  23.203  26.385  1.00  0.00     0.054 A 
BRANCH  55  56
ATOM     56  S   UNL A   1      43.912  21.925  25.177  1.00  0.00     0.124 S 
ATOM     57  O   UNL A   1      45.271  21.580  25.583  1.00  0.00    -0.237 OA
ATOM     58  O   UNL A   1      42.900  20.899  25.416  1.00  0.00    -0.237 OA
ATOM     59  O   UNL A   1      43.796  22.615  23.893  1.00  0.00    -0.744 OA
ENDBRANCH  55  56
ENDBRANCH  27  50
BRANCH  39  60
ATOM     60  C   UNL A   1      46.256  27.266  34.015  1.00  0.00    -0.014 A 
ATOM     61  C   UNL A   1      46.249  26.231  34.967  1.00  0.00     0.010 A 
ATOM     62  C   UNL A   1      47.479  27.852  33.643  1.00  0.00     0.010 A 
ATOM     63  C   UNL A   1      47.443  25.812  35.561  1.00  0.00     0.020 A 
ATOM     64  C   UNL A   1      48.677  27.418  34.217  1.00  0.00     0.020 A 
ATOM     65  C   UNL A   1      48.649  26.411  35.184  1.00  0.00     0.054 A 
BRANCH  65  66
ATOM     66  S   UNL A   1      50.191  25.826  35.940  1.00  0.00     0.124 S 
ATOM     67  O   UNL A   1      50.174  26.510  37.231  1.00  0.00    -0.237 OA
ATOM     68  O   UNL A   1      49.994  24.379  35.993  1.00  0.00    -0.237 OA
ATOM     69  O   UNL A   1      51.224  26.274  35.010  1.00  0.00    -0.744 OA
ENDBRANCH  65  66
ENDBRANCH  39  60
ENDBRANCH  13  14
ENDBRANCH   6   8
ENDBRANCH   3   4
ENDBRANCH   2   3
ENDBRANCH   1   2
BRANCH   1  70
ATOM     70  C   UNL A   1      33.510  26.518  22.797  1.00  0.00     0.002 C 
BRANCH  70  71
ATOM     71  C   UNL A   1      33.781  25.070  22.372  1.00  0.00     0.021 C 
BRANCH  71  72
ATOM     72  C   UNL A   1      34.439  24.192  23.433  1.00  0.00     0.116 C 
BRANCH  72  73
ATOM     73  N   UNL A   1      33.681  22.977  23.678  1.00  0.00    -0.352 N 
ATOM     74  C   UNL A   1      32.542  22.802  24.418  1.00  0.00     0.251 C 
ATOM     75  H   UNL A   1      34.037  22.164  23.252  1.00  0.00     0.163 HD
ATOM     76  O   UNL A   1      32.134  21.671  24.673  1.00  0.00    -0.269 OA
BRANCH  74  77
ATOM     77  C   UNL A   1      31.800  23.974  24.920  1.00  0.00     0.041 A 
ATOM     78  C   UNL A   1      32.141  24.497  26.167  1.00  0.00     0.014 A 
ATOM     79  C   UNL A   1      30.736  24.518  24.186  1.00  0.00     0.039 A 
ATOM     80  C   UNL A   1      31.443  25.594  26.661  1.00  0.00     0.003 A 
ATOM     81  C   UNL A   1      30.022  25.619  24.673  1.00  0.00     0.039 A 
ATOM     82  C   UNL A   1      30.401  26.151  25.913  1.00  0.00     0.026 A 
BRANCH  81  83
ATOM     83  N   UNL A   1      28.981  26.154  23.893  1.00  0.00    -0.356 N 
ATOM     84  H   UNL A   1      28.317  25.497  23.583  1.00  0.00     0.167 HD
BRANCH  83  85
ATOM     85  C   UNL A   1      28.737  27.476  23.487  1.00  0.00     0.039 A 
ATOM     86  C   UNL A   1      29.790  28.222  22.940  1.00  0.00     0.033 A 
ATOM     87  C   UNL A   1      27.454  28.040  23.512  1.00  0.00     0.033 A 
ATOM     88  C   UNL A   1      29.566  29.489  22.393  1.00  0.00     0.088 A 
ATOM     89  C   UNL A   1      27.215  29.310  22.979  1.00  0.00     0.088 A 
ATOM     90  C   UNL A   1      28.272  30.022  22.402  1.00  0.00     0.269 A 
BRANCH  90  91
ATOM     91  N   UNL A   1      28.016  31.318  21.763  1.00  0.00     0.062 N 
ATOM     92  O   UNL A   1      27.992  31.356  20.524  1.00  0.00    -0.258 OA
ATOM     93  O   UNL A   1      27.810  32.294  22.499  1.00  0.00    -0.258 OA
ENDBRANCH  90  91
ENDBRANCH  83  85
ENDBRANCH  81  83
ENDBRANCH  74  77
ENDBRANCH  72  73
ENDBRANCH  71  72
ENDBRANCH  70  71
ENDBRANCH   1  70
TORSDOF 19
ENDMDL
MODEL 3
REMARK VINA RESULT:     -10.4      2.324      9.497
REMARK SMILES O=C(NCCCCCCNC(=O)c1cccc(Nc2ccc([N+](=O)[O-])cc2)c1)c1ccc(-c2c3nc(c(-c4ccc(S(=O)(=O)[O-])cc4)c4ccc([nH]4)c(-c4ccc(S(=O)(=O)[O-])cc4)c4nc(c(-c5ccc(S(=O)(=O)[O-])cc5)c5ccc2[nH]5)C=C4)C=C3)cc1
REMARK SMILES IDX 6 1 5 2 4 3 3 4 1 5 2 6 29 8 30 9 88 10 31 11 87 12 32 13
REMARK SMILES IDX 33 14 34 15 81 16 35 17 86 18 80 19 82 20 36 21 85 22 79 23
REMARK SMILES IDX 78 24 37 26 67 27 48 28 66 29 49 30 52 31 65 32 83 33 50 34
REMARK SMILES IDX 51 35 64 37 84 38 53 39 38 40 39 41 47 42 40 43 46 44 41 45
REMARK SMILES IDX 42 46 43 47 44 48 45 49 68 50 69 51 77 52 70 53 76 54 71 55
REMARK SMILES IDX 72 56 73 57 74 58 75 59 54 60 55 61 63 62 56 63 62 64 57 65
REMARK SMILES IDX 58 66 59 67 60 68 61 69 7 70 8 71 9 72 10 73 11 74 12 76
REMARK SMILES IDX 13 77 14 78 28 79 15 80 17 81 16 82 18 83 19 85 20 86 27 87
REMARK SMILES IDX 21 88 26 89 22 90 23 91 24 92 25 93
REMARK H PARENT 3 7 82 25 52 36 10 75 18 84
REMARK Flexibility Score: inf
ROOT
ATOM      1  C   UNL A   1      32.879  27.201  24.552  1.00  0.00     0.002 C 
ENDROOT
BRANCH   1   2
ATOM      2  C   UNL A   1      34.054  27.958  25.174  1.00  0.00     0.021 C 
BRANCH   2   3
ATOM      3  C   UNL A   1      33.999  28.107  26.689  1.00  0.00     0.116 C 
BRANCH   3   4
ATOM      4  N   UNL A   1      33.707  29.467  27.108  1.00  0.00    -0.352 N 
ATOM      5  O   UNL A   1      34.018  31.396  28.233  1.00  0.00    -0.269 OA
ATOM      6  C   UNL A   1      34.487  30.333  27.835  1.00  0.00     0.251 C 
ATOM      7  H   UNL A   1      32.827  29.816  26.833  1.00  0.00     0.163 HD
BRANCH   6   8
ATOM      8  C   UNL A   1      35.884  29.969  28.157  1.00  0.00     0.039 A 
ATOM      9  C   UNL A   1      36.219  29.467  29.417  1.00  0.00     0.014 A 
ATOM     10  C   UNL A   1      36.872  30.128  27.180  1.00  0.00     0.014 A 
ATOM     11  C   UNL A   1      37.553  29.246  29.741  1.00  0.00     0.010 A 
ATOM     12  C   UNL A   1      38.203  29.828  27.483  1.00  0.00     0.010 A 
ATOM     13  C   UNL A   1      38.559  29.408  28.775  1.00  0.00    -0.014 A 
BRANCH  13  14
ATOM     14  C   UNL A   1      39.961  29.059  29.116  1.00  0.00     0.031 A 
ATOM     15  C   UNL A   1      40.549  27.725  28.747  1.00  0.00     0.074 A 
ATOM     16  C   UNL A   1      40.713  29.976  29.755  1.00  0.00     0.049 A 
ATOM     17  N   UNL A   1      41.762  27.279  28.953  1.00  0.00    -0.248 NA
ATOM     18  C   UNL A   1      39.665  26.766  28.066  1.00  0.00     0.031 C 
ATOM     19  C   UNL A   1      40.247  31.301  30.178  1.00  0.00     0.029 A 
ATOM     20  N   UNL A   1      42.027  29.946  30.149  1.00  0.00    -0.354 N 
ATOM     21  C   UNL A   1      41.784  25.984  28.449  1.00  0.00     0.074 A 
ATOM     22  C   UNL A   1      40.457  25.709  27.941  1.00  0.00     0.031 C 
ATOM     23  C   UNL A   1      41.269  31.971  30.729  1.00  0.00     0.029 A 
ATOM     24  C   UNL A   1      42.443  31.107  30.756  1.00  0.00     0.049 A 
ATOM     25  H   UNL A   1      42.614  29.169  30.009  1.00  0.00     0.167 HD
ATOM     26  C   UNL A   1      42.818  25.108  28.412  1.00  0.00     0.031 A 
ATOM     27  C   UNL A   1      43.631  31.439  31.293  1.00  0.00     0.031 A 
ATOM     28  C   UNL A   1      44.137  25.388  28.919  1.00  0.00     0.049 A 
ATOM     29  C   UNL A   1      44.754  30.444  31.253  1.00  0.00     0.074 A 
ATOM     30  C   UNL A   1      45.259  24.578  28.892  1.00  0.00     0.029 A 
ATOM     31  N   UNL A   1      44.511  26.565  29.551  1.00  0.00    -0.354 N 
ATOM     32  N   UNL A   1      44.764  29.239  30.736  1.00  0.00    -0.248 NA
ATOM     33  C   UNL A   1      46.023  30.853  31.866  1.00  0.00     0.031 C 
ATOM     34  C   UNL A   1      46.298  25.244  29.551  1.00  0.00     0.029 A 
ATOM     35  C   UNL A   1      45.839  26.492  29.940  1.00  0.00     0.049 A 
ATOM     36  H   UNL A   1      43.920  27.338  29.699  1.00  0.00     0.167 HD
ATOM     37  C   UNL A   1      46.045  28.748  30.951  1.00  0.00     0.074 A 
ATOM     38  C   UNL A   1      46.787  29.796  31.624  1.00  0.00     0.031 C 
ATOM     39  C   UNL A   1      46.560  27.539  30.621  1.00  0.00     0.031 A 
BRANCH  26  40
ATOM     40  C   UNL A   1      42.560  23.744  27.823  1.00  0.00    -0.014 A 
ATOM     41  C   UNL A   1      43.058  23.390  26.556  1.00  0.00     0.010 A 
ATOM     42  C   UNL A   1      41.856  22.785  28.574  1.00  0.00     0.010 A 
ATOM     43  C   UNL A   1      42.823  22.113  26.036  1.00  0.00     0.020 A 
ATOM     44  C   UNL A   1      41.640  21.499  28.067  1.00  0.00     0.020 A 
ATOM     45  C   UNL A   1      42.113  21.177  26.793  1.00  0.00     0.054 A 
BRANCH  45  46
ATOM     46  S   UNL A   1      41.840  19.522  26.102  1.00  0.00     0.124 S 
ATOM     47  O   UNL A   1      42.672  19.558  24.901  1.00  0.00    -0.237 OA
ATOM     48  O   UNL A   1      42.318  18.645  27.168  1.00  0.00    -0.237 OA
ATOM     49  O   UNL A   1      40.401  19.478  25.861  1.00  0.00    -0.744 OA
ENDBRANCH  45  46
ENDBRANCH  26  40
BRANCH  27  50
ATOM     50  C   UNL A   1      43.802  32.775  31.924  1.00  0.00    -0.014 A 
ATOM     51  C   UNL A   1      43.562  32.955  33.296  1.00  0.00     0.010 A 
ATOM     52  C   UNL A   1      44.257  33.864  31.157  1.00  0.00     0.010 A 
ATOM     53  C   UNL A   1      43.768  34.204  33.890  1.00  0.00     0.020 A 
ATOM     54  C   UNL A   1      44.490  35.105  31.752  1.00  0.00     0.020 A 
ATOM     55  C   UNL A   1      44.235  35.270  33.115  1.00  0.00     0.054 A 
BRANCH  55  56
ATOM     56  S   UNL A   1      44.566  36.862  33.920  1.00  0.00     0.124 S 
ATOM     57  O   UNL A   1      45.991  37.042  33.659  1.00  0.00    -0.237 OA
ATOM     58  O   UNL A   1      43.671  37.769  33.206  1.00  0.00    -0.237 OA
ATOM     59  O   UNL A   1      44.209  36.618  35.316  1.00  0.00    -0.744 OA
ENDBRANCH  55  56
ENDBRANCH  27  50
BRANCH  39  60
ATOM     60  C   UNL A   1      48.002  27.289  30.969  1.00  0.00    -0.014 A 
ATOM     61  C   UNL A   1      49.035  27.683  30.101  1.00  0.00     0.010 A 
ATOM     62  C   UNL A   1      48.326  26.687  32.198  1.00  0.00     0.010 A 
ATOM     63  C   UNL A   1      50.370  27.449  30.442  1.00  0.00     0.020 A 
ATOM     64  C   UNL A   1      49.661  26.476  32.553  1.00  0.00     0.020 A 
ATOM     65  C   UNL A   1      50.674  26.844  31.666  1.00  0.00     0.054 A 
BRANCH  65  66
ATOM     66  S   UNL A   1      52.415  26.583  32.105  1.00  0.00     0.124 S 
ATOM     67  O   UNL A   1      52.319  25.532  33.115  1.00  0.00    -0.237 OA
ATOM     68  O   UNL A   1      53.011  26.182  30.833  1.00  0.00    -0.237 OA
ATOM     69  O   UNL A   1      52.844  27.888  32.602  1.00  0.00    -0.744 OA
ENDBRANCH  65  66
ENDBRANCH  39  60
ENDBRANCH  13  14
ENDBRANCH   6   8
ENDBRANCH   3   4
ENDBRANCH   2   3
ENDBRANCH   1   2
BRANCH   1  70
ATOM     70  C   UNL A   1      31.614  28.027  24.310  1.00  0.00     0.002 C 
BRANCH  70  71
ATOM     71  C   UNL A   1      30.295  27.247  24.335  1.00  0.00     0.021 C 
BRANCH  71  72
ATOM     72  C   UNL A   1      30.435  25.728  24.349  1.00  0.00     0.116 C 
BRANCH  72  73
ATOM     73  N   UNL A   1      29.931  25.147  25.581  1.00  0.00    -0.352 N 
ATOM     74  C   UNL A   1      30.462  24.143  26.346  1.00  0.00     0.251 C 
ATOM     75  H   UNL A   1      29.088  25.530  25.915  1.00  0.00     0.163 HD
ATOM     76  O   UNL A   1      29.810  23.647  27.261  1.00  0.00    -0.269 OA
BRANCH  74  77
ATOM     77  C   UNL A   1      31.823  23.645  26.069  1.00  0.00     0.041 A 
ATOM     78  C   UNL A   1      32.911  24.352  26.583  1.00  0.00     0.014 A 
ATOM     79  C   UNL A   1      32.024  22.518  25.260  1.00  0.00     0.039 A 
ATOM     80  C   UNL A   1      34.201  23.904  26.321  1.00  0.00     0.003 A 
ATOM     81  C   UNL A   1      33.318  22.059  24.985  1.00  0.00     0.039 A 
ATOM     82  C   UNL A   1      34.397  22.763  25.536  1.00  0.00     0.026 A 
BRANCH  81  83
ATOM     83  N   UNL A   1      33.477  20.907  24.193  1.00  0.00    -0.356 N 
ATOM     84  H   UNL A   1      33.534  21.076  23.224  1.00  0.00     0.167 HD
BRANCH  83  85
ATOM     85  C   UNL A   1      33.569  19.556  24.562  1.00  0.00     0.039 A 
ATOM     86  C   UNL A   1      32.425  18.906  25.045  1.00  0.00     0.033 A 
ATOM     87  C   UNL A   1      34.737  18.806  24.368  1.00  0.00     0.033 A 
ATOM     88  C   UNL A   1      32.429  17.530  25.292  1.00  0.00     0.088 A 
ATOM     89  C   UNL A   1      34.762  17.432  24.620  1.00  0.00     0.088 A 
ATOM     90  C   UNL A   1      33.597  16.794  25.063  1.00  0.00     0.269 A 
BRANCH  90  91
ATOM     91  N   UNL A   1      33.588  15.339  25.249  1.00  0.00     0.062 N 
ATOM     92  O   UNL A   1      32.489  14.766  25.265  1.00  0.00    -0.258 OA
ATOM     93  O   UNL A   1      34.680  14.763  25.351  1.00  0.00    -0.258 OA
ENDBRANCH  90  91
ENDBRANCH  83  85
ENDBRANCH  81  83
ENDBRANCH  74  77
ENDBRANCH  72  73
ENDBRANCH  71  72
ENDBRANCH  70  71
ENDBRANCH   1  70
TORSDOF 19
ENDMDL
