MODEL 1
REMARK VINA RESULT:      -9.8      0.000      0.000
REMARK SMILES O=C(NCCCCCCNC(=O)[C@H]1CC[C@@H](CNc2cccc(F)c2[N+](=O)[O-])O1)c1ccc(-c2c3nc(c(-c4ccc(S(=O)(=O)[O-])cc4)c4ccc([nH]4)c(-c4ccc(S(=O)(=O)[O-])cc4)c4nc(c(-c5ccc(S(=O)(=O)[O-])cc5)c5ccc2[nH]5)C=C4)C=C3)cc1
REMARK SMILES IDX 7 1 6 2 5 3 4 4 3 5 1 6 2 7 30 9 31 10 89 11 32 12 88 13
REMARK SMILES IDX 33 14 34 15 35 16 82 17 36 18 87 19 81 20 83 21 37 22 86 23
REMARK SMILES IDX 80 24 79 25 38 27 68 28 49 29 67 30 50 31 53 32 66 33 84 34
REMARK SMILES IDX 51 35 52 36 65 38 85 39 54 40 39 41 40 42 48 43 41 44 47 45
REMARK SMILES IDX 42 46 43 47 44 48 45 49 46 50 69 51 70 52 78 53 71 54 77 55
REMARK SMILES IDX 72 56 73 57 74 58 75 59 76 60 55 61 56 62 64 63 57 64 63 65
REMARK SMILES IDX 58 66 59 67 60 68 61 69 62 70 8 71 9 72 10 73 11 74 12 76
REMARK SMILES IDX 13 77 14 78 29 79 15 80 16 81 17 82 18 83 19 85 20 86 25 87
REMARK SMILES IDX 21 88 23 89 22 90 24 91 26 92 27 93 28 94
REMARK H PARENT 3 8 83 26 53 37 10 75 18 84
REMARK Flexibility Score: inf
ROOT
ATOM      1  C   UNL A   1      35.752  31.279  27.801  1.00  0.00     0.002 C 
ENDROOT
BRANCH   1   2
ATOM      2  C   UNL A   1      34.672  31.878  28.708  1.00  0.00     0.002 C 
BRANCH   2   3
ATOM      3  C   UNL A   1      33.685  32.822  28.021  1.00  0.00     0.021 C 
BRANCH   3   4
ATOM      4  C   UNL A   1      33.981  34.305  28.203  1.00  0.00     0.116 C 
BRANCH   4   5
ATOM      5  N   UNL A   1      33.129  34.929  29.201  1.00  0.00    -0.352 N 
ATOM      6  O   UNL A   1      32.335  35.344  31.271  1.00  0.00    -0.269 OA
ATOM      7  C   UNL A   1      33.234  34.893  30.574  1.00  0.00     0.251 C 
ATOM      8  H   UNL A   1      32.371  35.448  28.847  1.00  0.00     0.163 HD
BRANCH   7   9
ATOM      9  C   UNL A   1      34.430  34.282  31.200  1.00  0.00     0.039 A 
ATOM     10  C   UNL A   1      35.662  34.937  31.171  1.00  0.00     0.014 A 
ATOM     11  C   UNL A   1      34.314  33.038  31.830  1.00  0.00     0.014 A 
ATOM     12  C   UNL A   1      36.800  34.293  31.642  1.00  0.00     0.010 A 
ATOM     13  C   UNL A   1      35.447  32.426  32.379  1.00  0.00     0.010 A 
ATOM     14  C   UNL A   1      36.705  33.036  32.265  1.00  0.00    -0.014 A 
BRANCH  14  15
ATOM     15  C   UNL A   1      37.931  32.426  32.841  1.00  0.00     0.031 A 
ATOM     16  C   UNL A   1      38.842  31.560  32.015  1.00  0.00     0.074 A 
ATOM     17  C   UNL A   1      38.246  32.709  34.122  1.00  0.00     0.049 A 
ATOM     18  N   UNL A   1      39.982  31.012  32.354  1.00  0.00    -0.248 NA
ATOM     19  C   UNL A   1      38.426  31.267  30.635  1.00  0.00     0.031 C 
ATOM     20  C   UNL A   1      37.431  33.523  35.029  1.00  0.00     0.029 A 
ATOM     21  N   UNL A   1      39.343  32.375  34.873  1.00  0.00    -0.354 N 
ATOM     22  C   UNL A   1      40.416  30.305  31.238  1.00  0.00     0.074 A 
ATOM     23  C   UNL A   1      39.401  30.470  30.218  1.00  0.00     0.031 C 
ATOM     24  C   UNL A   1      38.081  33.670  36.192  1.00  0.00     0.029 A 
ATOM     25  C   UNL A   1      39.328  32.916  36.137  1.00  0.00     0.049 A 
ATOM     26  H   UNL A   1      40.072  31.802  34.540  1.00  0.00     0.167 HD
ATOM     27  C   UNL A   1      41.558  29.593  31.075  1.00  0.00     0.031 A 
ATOM     28  C   UNL A   1      40.212  32.813  37.146  1.00  0.00     0.031 A 
ATOM     29  C   UNL A   1      42.561  29.424  32.095  1.00  0.00     0.049 A 
ATOM     30  C   UNL A   1      41.463  32.010  36.941  1.00  0.00     0.074 A 
ATOM     31  C   UNL A   1      43.751  28.718  32.025  1.00  0.00     0.029 A 
ATOM     32  N   UNL A   1      42.496  29.966  33.370  1.00  0.00    -0.354 N 
ATOM     33  N   UNL A   1      41.858  31.365  35.870  1.00  0.00    -0.248 NA
ATOM     34  C   UNL A   1      42.388  31.925  38.079  1.00  0.00     0.031 C 
ATOM     35  C   UNL A   1      44.387  28.805  33.268  1.00  0.00     0.029 A 
ATOM     36  C   UNL A   1      43.618  29.605  34.098  1.00  0.00     0.049 A 
ATOM     37  H   UNL A   1      41.760  30.527  33.708  1.00  0.00     0.167 HD
ATOM     38  C   UNL A   1      43.082  30.800  36.203  1.00  0.00     0.074 A 
ATOM     39  C   UNL A   1      43.376  31.207  37.564  1.00  0.00     0.031 C 
ATOM     40  C   UNL A   1      43.889  30.008  35.453  1.00  0.00     0.031 A 
BRANCH  27  41
ATOM     41  C   UNL A   1      41.783  28.930  29.741  1.00  0.00    -0.014 A 
ATOM     42  C   UNL A   1      41.499  27.565  29.555  1.00  0.00     0.010 A 
ATOM     43  C   UNL A   1      42.230  29.691  28.646  1.00  0.00     0.010 A 
ATOM     44  C   UNL A   1      41.684  26.967  28.305  1.00  0.00     0.020 A 
ATOM     45  C   UNL A   1      42.396  29.101  27.388  1.00  0.00     0.020 A 
ATOM     46  C   UNL A   1      42.136  27.738  27.230  1.00  0.00     0.054 A 
BRANCH  46  47
ATOM     47  S   UNL A   1      42.341  26.941  25.613  1.00  0.00     0.124 S 
ATOM     48  O   UNL A   1      43.526  26.116  25.834  1.00  0.00    -0.237 OA
ATOM     49  O   UNL A   1      41.087  26.209  25.454  1.00  0.00    -0.237 OA
ATOM     50  O   UNL A   1      42.525  28.062  24.694  1.00  0.00    -0.744 OA
ENDBRANCH  46  47
ENDBRANCH  27  41
BRANCH  28  51
ATOM     51  C   UNL A   1      39.927  33.477  38.445  1.00  0.00    -0.014 A 
ATOM     52  C   UNL A   1      39.198  32.815  39.450  1.00  0.00     0.010 A 
ATOM     53  C   UNL A   1      40.404  34.778  38.689  1.00  0.00     0.010 A 
ATOM     54  C   UNL A   1      38.937  33.451  40.666  1.00  0.00     0.020 A 
ATOM     55  C   UNL A   1      40.170  35.405  39.915  1.00  0.00     0.020 A 
ATOM     56  C   UNL A   1      39.424  34.743  40.891  1.00  0.00     0.054 A 
BRANCH  56  57
ATOM     57  S   UNL A   1      39.117  35.535  42.493  1.00  0.00     0.124 S 
ATOM     58  O   UNL A   1      39.976  34.760  43.382  1.00  0.00    -0.237 OA
ATOM     59  O   UNL A   1      39.533  36.915  42.253  1.00  0.00    -0.237 OA
ATOM     60  O   UNL A   1      37.680  35.354  42.691  1.00  0.00    -0.744 OA
ENDBRANCH  56  57
ENDBRANCH  28  51
BRANCH  40  61
ATOM     61  C   UNL A   1      45.171  29.548  36.091  1.00  0.00    -0.014 A 
ATOM     62  C   UNL A   1      45.228  28.343  36.813  1.00  0.00     0.010 A 
ATOM     63  C   UNL A   1      46.335  30.324  35.951  1.00  0.00     0.010 A 
ATOM     64  C   UNL A   1      46.421  27.943  37.423  1.00  0.00     0.020 A 
ATOM     65  C   UNL A   1      47.534  29.914  36.539  1.00  0.00     0.020 A 
ATOM     66  C   UNL A   1      47.565  28.736  37.288  1.00  0.00     0.054 A 
BRANCH  66  67
ATOM     67  S   UNL A   1      49.106  28.190  38.073  1.00  0.00     0.124 S 
ATOM     68  O   UNL A   1      49.512  27.087  37.208  1.00  0.00    -0.237 OA
ATOM     69  O   UNL A   1      49.944  29.385  38.005  1.00  0.00    -0.237 OA
ATOM     70  O   UNL A   1      48.688  27.806  39.420  1.00  0.00    -0.744 OA
ENDBRANCH  66  67
ENDBRANCH  40  61
ENDBRANCH  14  15
ENDBRANCH   7   9
ENDBRANCH   4   5
ENDBRANCH   3   4
ENDBRANCH   2   3
ENDBRANCH   1   2
BRANCH   1  71
ATOM     71  C   UNL A   1      35.553  29.809  27.407  1.00  0.00     0.021 C 
BRANCH  71  72
ATOM     72  C   UNL A   1      34.092  29.369  27.308  1.00  0.00     0.116 C 
BRANCH  72  73
ATOM     73  N   UNL A   1      33.980  28.006  26.829  1.00  0.00    -0.354 N 
ATOM     74  C   UNL A   1      33.083  27.477  25.944  1.00  0.00     0.249 C 
ATOM     75  H   UNL A   1      34.642  27.374  27.191  1.00  0.00     0.163 HD
ATOM     76  O   UNL A   1      33.093  26.257  25.765  1.00  0.00    -0.272 OA
BRANCH  74  77
ATOM     77  C   UNL A   1      32.119  28.422  25.199  1.00  0.00     0.207 C 
ATOM     78  C   UNL A   1      32.537  28.595  23.745  1.00  0.00     0.045 C 
ATOM     79  O   UNL A   1      30.791  27.875  25.166  1.00  0.00    -0.363 OA
ATOM     80  C   UNL A   1      31.841  27.430  23.081  1.00  0.00     0.037 C 
ATOM     81  C   UNL A   1      30.525  27.362  23.843  1.00  0.00     0.138 C 
BRANCH  81  82
ATOM     82  C   UNL A   1      29.799  25.999  23.932  1.00  0.00     0.145 C 
BRANCH  82  83
ATOM     83  N   UNL A   1      30.354  25.087  24.930  1.00  0.00    -0.377 N 
ATOM     84  H   UNL A   1      30.247  25.312  25.882  1.00  0.00     0.160 HD
BRANCH  83  85
ATOM     85  C   UNL A   1      31.024  23.916  24.600  1.00  0.00     0.116 A 
ATOM     86  C   UNL A   1      31.291  23.605  23.256  1.00  0.00     0.033 A 
ATOM     87  C   UNL A   1      31.434  22.965  25.559  1.00  0.00     0.327 A 
ATOM     88  C   UNL A   1      31.957  22.427  22.889  1.00  0.00     0.006 A 
ATOM     89  C   UNL A   1      32.092  21.789  25.200  1.00  0.00     0.202 A 
ATOM     90  C   UNL A   1      32.357  21.519  23.863  1.00  0.00     0.047 A 
ATOM     91  F   UNL A   1      32.520  20.914  26.121  1.00  0.00    -0.199 F 
BRANCH  87  92
ATOM     92  N   UNL A   1      31.198  23.191  26.968  1.00  0.00     0.068 N 
ATOM     93  O   UNL A   1      32.197  23.291  27.702  1.00  0.00    -0.258 OA
ATOM     94  O   UNL A   1      30.026  23.276  27.362  1.00  0.00    -0.258 OA
ENDBRANCH  87  92
ENDBRANCH  83  85
ENDBRANCH  82  83
ENDBRANCH  81  82
ENDBRANCH  74  77
ENDBRANCH  72  73
ENDBRANCH  71  72
ENDBRANCH   1  71
TORSDOF 20
ENDMDL
MODEL 2
REMARK VINA RESULT:      -9.7      1.575      8.232
REMARK SMILES O=C(NCCCCCCNC(=O)[C@H]1CC[C@@H](CNc2cccc(F)c2[N+](=O)[O-])O1)c1ccc(-c2c3nc(c(-c4ccc(S(=O)(=O)[O-])cc4)c4ccc([nH]4)c(-c4ccc(S(=O)(=O)[O-])cc4)c4nc(c(-c5ccc(S(=O)(=O)[O-])cc5)c5ccc2[nH]5)C=C4)C=C3)cc1
REMARK SMILES IDX 7 1 6 2 5 3 4 4 3 5 1 6 2 7 30 9 31 10 89 11 32 12 88 13
REMARK SMILES IDX 33 14 34 15 35 16 82 17 36 18 87 19 81 20 83 21 37 22 86 23
REMARK SMILES IDX 80 24 79 25 38 27 68 28 49 29 67 30 50 31 53 32 66 33 84 34
REMARK SMILES IDX 51 35 52 36 65 38 85 39 54 40 39 41 40 42 48 43 41 44 47 45
REMARK SMILES IDX 42 46 43 47 44 48 45 49 46 50 69 51 70 52 78 53 71 54 77 55
REMARK SMILES IDX 72 56 73 57 74 58 75 59 76 60 55 61 56 62 64 63 57 64 63 65
REMARK SMILES IDX 58 66 59 67 60 68 61 69 62 70 8 71 9 72 10 73 11 74 12 76
REMARK SMILES IDX 13 77 14 78 29 79 15 80 16 81 17 82 18 83 19 85 20 86 25 87
REMARK SMILES IDX 21 88 23 89 22 90 24 91 26 92 27 93 28 94
REMARK H PARENT 3 8 83 26 53 37 10 75 18 84
REMARK Flexibility Score: inf
ROOT
ATOM      1  C   UNL A   1      35.402  32.236  27.987  1.00  0.00     0.002 C 
ENDROOT
BRANCH   1   2
ATOM      2  C   UNL A   1      34.108  32.627  28.708  1.00  0.00     0.002 C 
BRANCH   2   3
ATOM      3  C   UNL A   1      33.391  33.858  28.153  1.00  0.00     0.021 C 
BRANCH   3   4
ATOM      4  C   UNL A   1      33.787  35.179  28.800  1.00  0.00     0.116 C 
BRANCH   4   5
ATOM      5  N   UNL A   1      32.896  35.561  29.882  1.00  0.00    -0.352 N 
ATOM      6  O   UNL A   1      32.069  35.545  31.981  1.00  0.00    -0.269 OA
ATOM      7  C   UNL A   1      32.995  35.278  31.226  1.00  0.00     0.251 C 
ATOM      8  H   UNL A   1      32.113  36.096  29.619  1.00  0.00     0.163 HD
BRANCH   7   9
ATOM      9  C   UNL A   1      34.220  34.627  31.748  1.00  0.00     0.039 A 
ATOM     10  C   UNL A   1      35.456  35.271  31.673  1.00  0.00     0.014 A 
ATOM     11  C   UNL A   1      34.128  33.355  32.325  1.00  0.00     0.014 A 
ATOM     12  C   UNL A   1      36.613  34.593  32.043  1.00  0.00     0.010 A 
ATOM     13  C   UNL A   1      35.284  32.707  32.773  1.00  0.00     0.010 A 
ATOM     14  C   UNL A   1      36.540  33.310  32.610  1.00  0.00    -0.014 A 
BRANCH  14  15
ATOM     15  C   UNL A   1      37.791  32.660  33.080  1.00  0.00     0.031 A 
ATOM     16  C   UNL A   1      38.415  33.018  34.402  1.00  0.00     0.074 A 
ATOM     17  C   UNL A   1      38.336  31.692  32.316  1.00  0.00     0.049 A 
ATOM     18  N   UNL A   1      39.465  32.492  34.981  1.00  0.00    -0.248 NA
ATOM     19  C   UNL A   1      37.786  34.101  35.174  1.00  0.00     0.031 C 
ATOM     20  C   UNL A   1      37.831  31.270  31.006  1.00  0.00     0.029 A 
ATOM     21  N   UNL A   1      39.410  30.868  32.538  1.00  0.00    -0.354 N 
ATOM     22  C   UNL A   1      39.630  33.182  36.177  1.00  0.00     0.074 A 
ATOM     23  C   UNL A   1      38.587  34.185  36.228  1.00  0.00     0.031 C 
ATOM     24  C   UNL A   1      38.559  30.232  30.567  1.00  0.00     0.029 A 
ATOM     25  C   UNL A   1      39.615  29.953  31.533  1.00  0.00     0.049 A 
ATOM     26  H   UNL A   1      39.979  30.927  33.339  1.00  0.00     0.167 HD
ATOM     27  C   UNL A   1      40.559  32.992  37.146  1.00  0.00     0.031 A 
ATOM     28  C   UNL A   1      40.552  28.997  31.395  1.00  0.00     0.031 A 
ATOM     29  C   UNL A   1      41.600  31.998  37.087  1.00  0.00     0.049 A 
ATOM     30  C   UNL A   1      41.573  28.815  32.479  1.00  0.00     0.074 A 
ATOM     31  C   UNL A   1      42.589  31.730  38.020  1.00  0.00     0.029 A 
ATOM     32  N   UNL A   1      41.790  31.108  36.042  1.00  0.00    -0.354 N 
ATOM     33  N   UNL A   1      41.698  29.470  33.608  1.00  0.00    -0.248 NA
ATOM     34  C   UNL A   1      42.577  27.763  32.271  1.00  0.00     0.031 C 
ATOM     35  C   UNL A   1      43.397  30.702  37.521  1.00  0.00     0.029 A 
ATOM     36  C   UNL A   1      42.882  30.296  36.300  1.00  0.00     0.049 A 
ATOM     37  H   UNL A   1      41.229  31.059  35.233  1.00  0.00     0.167 HD
ATOM     38  C   UNL A   1      42.792  28.905  34.250  1.00  0.00     0.074 A 
ATOM     39  C   UNL A   1      43.273  27.835  33.397  1.00  0.00     0.031 C 
ATOM     40  C   UNL A   1      43.354  29.246  35.436  1.00  0.00     0.031 A 
BRANCH  27  41
ATOM     41  C   UNL A   1      40.497  33.885  38.358  1.00  0.00    -0.014 A 
ATOM     42  C   UNL A   1      41.150  35.130  38.371  1.00  0.00     0.010 A 
ATOM     43  C   UNL A   1      39.732  33.502  39.474  1.00  0.00     0.010 A 
ATOM     44  C   UNL A   1      41.062  35.964  39.489  1.00  0.00     0.020 A 
ATOM     45  C   UNL A   1      39.624  34.343  40.587  1.00  0.00     0.020 A 
ATOM     46  C   UNL A   1      40.303  35.564  40.592  1.00  0.00     0.054 A 
BRANCH  46  47
ATOM     47  S   UNL A   1      40.184  36.679  42.019  1.00  0.00     0.124 S 
ATOM     48  O   UNL A   1      38.921  36.261  42.622  1.00  0.00    -0.237 OA
ATOM     49  O   UNL A   1      41.383  36.350  42.785  1.00  0.00    -0.237 OA
ATOM     50  O   UNL A   1      40.177  38.011  41.418  1.00  0.00    -0.744 OA
ENDBRANCH  46  47
ENDBRANCH  27  41
BRANCH  28  51
ATOM     51  C   UNL A   1      40.571  28.156  30.168  1.00  0.00    -0.014 A 
ATOM     52  C   UNL A   1      41.541  28.358  29.170  1.00  0.00     0.010 A 
ATOM     53  C   UNL A   1      39.622  27.131  30.005  1.00  0.00     0.010 A 
ATOM     54  C   UNL A   1      41.547  27.560  28.023  1.00  0.00     0.020 A 
ATOM     55  C   UNL A   1      39.643  26.313  28.873  1.00  0.00     0.020 A 
ATOM     56  C   UNL A   1      40.597  26.544  27.881  1.00  0.00     0.054 A 
BRANCH  56  57
ATOM     57  S   UNL A   1      40.649  25.487  26.408  1.00  0.00     0.124 S 
ATOM     58  O   UNL A   1      39.252  25.089  26.274  1.00  0.00    -0.237 OA
ATOM     59  O   UNL A   1      41.151  26.395  25.380  1.00  0.00    -0.237 OA
ATOM     60  O   UNL A   1      41.574  24.420  26.788  1.00  0.00    -0.744 OA
ENDBRANCH  56  57
ENDBRANCH  28  51
BRANCH  40  61
ATOM     61  C   UNL A   1      44.543  28.438  35.881  1.00  0.00    -0.014 A 
ATOM     62  C   UNL A   1      45.852  28.922  35.708  1.00  0.00     0.010 A 
ATOM     63  C   UNL A   1      44.345  27.188  36.493  1.00  0.00     0.010 A 
ATOM     64  C   UNL A   1      46.947  28.146  36.101  1.00  0.00     0.020 A 
ATOM     65  C   UNL A   1      45.437  26.422  36.909  1.00  0.00     0.020 A 
ATOM     66  C   UNL A   1      46.732  26.898  36.692  1.00  0.00     0.054 A 
BRANCH  66  67
ATOM     67  S   UNL A   1      48.166  25.916  37.210  1.00  0.00     0.124 S 
ATOM     68  O   UNL A   1      48.417  26.432  38.552  1.00  0.00    -0.237 OA
ATOM     69  O   UNL A   1      47.660  24.546  37.148  1.00  0.00    -0.237 OA
ATOM     70  O   UNL A   1      49.185  26.243  36.214  1.00  0.00    -0.744 OA
ENDBRANCH  66  67
ENDBRANCH  40  61
ENDBRANCH  14  15
ENDBRANCH   7   9
ENDBRANCH   4   5
ENDBRANCH   3   4
ENDBRANCH   2   3
ENDBRANCH   1   2
BRANCH   1  71
ATOM     71  C   UNL A   1      35.551  30.746  27.644  1.00  0.00     0.021 C 
BRANCH  71  72
ATOM     72  C   UNL A   1      34.233  30.021  27.373  1.00  0.00     0.116 C 
BRANCH  72  73
ATOM     73  N   UNL A   1      34.455  28.734  26.745  1.00  0.00    -0.354 N 
ATOM     74  C   UNL A   1      33.552  27.750  26.457  1.00  0.00     0.249 C 
ATOM     75  H   UNL A   1      35.387  28.543  26.490  1.00  0.00     0.163 HD
ATOM     76  O   UNL A   1      33.978  26.677  26.024  1.00  0.00    -0.272 OA
BRANCH  74  77
ATOM     77  C   UNL A   1      32.049  28.029  26.665  1.00  0.00     0.207 C 
ATOM     78  C   UNL A   1      31.400  28.518  25.377  1.00  0.00     0.045 C 
ATOM     79  O   UNL A   1      31.352  26.827  27.028  1.00  0.00    -0.363 OA
ATOM     80  C   UNL A   1      31.023  27.218  24.706  1.00  0.00     0.037 C 
ATOM     81  C   UNL A   1      30.603  26.354  25.887  1.00  0.00     0.138 C 
BRANCH  81  82
ATOM     82  C   UNL A   1      30.735  24.818  25.756  1.00  0.00     0.145 C 
BRANCH  82  83
ATOM     83  N   UNL A   1      31.423  24.376  24.544  1.00  0.00    -0.377 N 
ATOM     84  H   UNL A   1      31.068  24.663  23.672  1.00  0.00     0.160 HD
BRANCH  83  85
ATOM     85  C   UNL A   1      32.555  23.572  24.564  1.00  0.00     0.116 A 
ATOM     86  C   UNL A   1      32.727  22.611  25.576  1.00  0.00     0.033 A 
ATOM     87  C   UNL A   1      33.600  23.687  23.623  1.00  0.00     0.327 A 
ATOM     88  C   UNL A   1      33.861  21.790  25.631  1.00  0.00     0.006 A 
ATOM     89  C   UNL A   1      34.734  22.877  23.675  1.00  0.00     0.202 A 
ATOM     90  C   UNL A   1      34.866  21.925  24.678  1.00  0.00     0.047 A 
ATOM     91  F   UNL A   1      35.700  22.961  22.749  1.00  0.00    -0.199 F 
BRANCH  87  92
ATOM     92  N   UNL A   1      33.521  24.650  22.547  1.00  0.00     0.068 N 
ATOM     93  O   UNL A   1      33.281  24.212  21.409  1.00  0.00    -0.258 OA
ATOM     94  O   UNL A   1      33.688  25.848  22.818  1.00  0.00    -0.258 OA
ENDBRANCH  87  92
ENDBRANCH  83  85
ENDBRANCH  82  83
ENDBRANCH  81  82
ENDBRANCH  74  77
ENDBRANCH  72  73
ENDBRANCH  71  72
ENDBRANCH   1  71
TORSDOF 20
ENDMDL
MODEL 3
REMARK VINA RESULT:      -9.7      2.843      8.971
REMARK SMILES O=C(NCCCCCCNC(=O)[C@H]1CC[C@@H](CNc2cccc(F)c2[N+](=O)[O-])O1)c1ccc(-c2c3nc(c(-c4ccc(S(=O)(=O)[O-])cc4)c4ccc([nH]4)c(-c4ccc(S(=O)(=O)[O-])cc4)c4nc(c(-c5ccc(S(=O)(=O)[O-])cc5)c5ccc2[nH]5)C=C4)C=C3)cc1
REMARK SMILES IDX 7 1 6 2 5 3 4 4 3 5 1 6 2 7 30 9 31 10 89 11 32 12 88 13
REMARK SMILES IDX 33 14 34 15 35 16 82 17 36 18 87 19 81 20 83 21 37 22 86 23
REMARK SMILES IDX 80 24 79 25 38 27 68 28 49 29 67 30 50 31 53 32 66 33 84 34
REMARK SMILES IDX 51 35 52 36 65 38 85 39 54 40 39 41 40 42 48 43 41 44 47 45
REMARK SMILES IDX 42 46 43 47 44 48 45 49 46 50 69 51 70 52 78 53 71 54 77 55
REMARK SMILES IDX 72 56 73 57 74 58 75 59 76 60 55 61 56 62 64 63 57 64 63 65
REMARK SMILES IDX 58 66 59 67 60 68 61 69 62 70 8 71 9 72 10 73 11 74 12 76
REMARK SMILES IDX 13 77 14 78 29 79 15 80 16 81 17 82 18 83 19 85 20 86 25 87
REMARK SMILES IDX 21 88 23 89 22 90 24 91 26 92 27 93 28 94
REMARK H PARENT 3 8 83 26 53 37 10 75 18 84
REMARK Flexibility Score: inf
ROOT
ATOM      1  C   UNL A   1      38.581  21.976  25.804  1.00  0.00     0.002 C 
ENDROOT
BRANCH   1   2
ATOM      2  C   UNL A   1      39.743  21.276  26.518  1.00  0.00     0.002 C 
BRANCH   2   3
ATOM      3  C   UNL A   1      41.053  22.063  26.573  1.00  0.00     0.021 C 
BRANCH   3   4
ATOM      4  C   UNL A   1      40.896  23.552  26.851  1.00  0.00     0.116 C 
BRANCH   4   5
ATOM      5  N   UNL A   1      41.476  24.380  25.806  1.00  0.00    -0.352 N 
ATOM      6  O   UNL A   1      42.071  26.301  24.784  1.00  0.00    -0.269 OA
ATOM      7  C   UNL A   1      41.723  25.735  25.812  1.00  0.00     0.251 C 
ATOM      8  H   UNL A   1      41.726  23.907  24.980  1.00  0.00     0.163 HD
BRANCH   7   9
ATOM      9  C   UNL A   1      41.541  26.506  27.064  1.00  0.00     0.039 A 
ATOM     10  C   UNL A   1      40.545  26.156  27.978  1.00  0.00     0.014 A 
ATOM     11  C   UNL A   1      42.382  27.593  27.329  1.00  0.00     0.014 A 
ATOM     12  C   UNL A   1      40.299  26.968  29.079  1.00  0.00     0.010 A 
ATOM     13  C   UNL A   1      42.186  28.361  28.482  1.00  0.00     0.010 A 
ATOM     14  C   UNL A   1      41.125  28.072  29.353  1.00  0.00    -0.014 A 
BRANCH  14  15
ATOM     15  C   UNL A   1      40.888  28.857  30.592  1.00  0.00     0.031 A 
ATOM     16  C   UNL A   1      41.771  28.705  31.801  1.00  0.00     0.074 A 
ATOM     17  C   UNL A   1      39.887  29.760  30.596  1.00  0.00     0.049 A 
ATOM     18  N   UNL A   1      41.734  29.367  32.930  1.00  0.00    -0.248 NA
ATOM     19  C   UNL A   1      42.827  27.683  31.741  1.00  0.00     0.031 C 
ATOM     20  C   UNL A   1      38.952  29.985  29.489  1.00  0.00     0.029 A 
ATOM     21  N   UNL A   1      39.504  30.676  31.542  1.00  0.00    -0.354 N 
ATOM     22  C   UNL A   1      42.752  28.839  33.718  1.00  0.00     0.074 A 
ATOM     23  C   UNL A   1      43.371  27.782  32.947  1.00  0.00     0.031 C 
ATOM     24  C   UNL A   1      38.143  31.009  29.797  1.00  0.00     0.029 A 
ATOM     25  C   UNL A   1      38.460  31.474  31.142  1.00  0.00     0.049 A 
ATOM     26  H   UNL A   1      39.936  30.753  32.425  1.00  0.00     0.167 HD
ATOM     27  C   UNL A   1      43.140  29.208  34.963  1.00  0.00     0.031 A 
ATOM     28  C   UNL A   1      37.818  32.468  31.785  1.00  0.00     0.031 A 
ATOM     29  C   UNL A   1      42.515  30.255  35.730  1.00  0.00     0.049 A 
ATOM     30  C   UNL A   1      38.263  32.848  33.166  1.00  0.00     0.074 A 
ATOM     31  C   UNL A   1      42.836  30.701  37.002  1.00  0.00     0.029 A 
ATOM     32  N   UNL A   1      41.444  31.024  35.300  1.00  0.00    -0.354 N 
ATOM     33  N   UNL A   1      39.240  32.345  33.883  1.00  0.00    -0.248 NA
ATOM     34  C   UNL A   1      37.522  33.933  33.824  1.00  0.00     0.031 C 
ATOM     35  C   UNL A   1      41.937  31.714  37.353  1.00  0.00     0.029 A 
ATOM     36  C   UNL A   1      41.086  31.933  36.282  1.00  0.00     0.049 A 
ATOM     37  H   UNL A   1      41.003  30.937  34.423  1.00  0.00     0.167 HD
ATOM     38  C   UNL A   1      39.234  33.056  35.076  1.00  0.00     0.074 A 
ATOM     39  C   UNL A   1      38.178  34.045  34.970  1.00  0.00     0.031 C 
ATOM     40  C   UNL A   1      40.026  32.901  36.166  1.00  0.00     0.031 A 
BRANCH  27  41
ATOM     41  C   UNL A   1      44.295  28.467  35.584  1.00  0.00    -0.014 A 
ATOM     42  C   UNL A   1      44.081  27.298  36.337  1.00  0.00     0.010 A 
ATOM     43  C   UNL A   1      45.612  28.907  35.364  1.00  0.00     0.010 A 
ATOM     44  C   UNL A   1      45.163  26.601  36.885  1.00  0.00     0.020 A 
ATOM     45  C   UNL A   1      46.698  28.201  35.891  1.00  0.00     0.020 A 
ATOM     46  C   UNL A   1      46.464  27.059  36.661  1.00  0.00     0.054 A 
BRANCH  46  47
ATOM     47  S   UNL A   1      47.850  26.118  37.360  1.00  0.00     0.124 S 
ATOM     48  O   UNL A   1      48.649  25.833  36.171  1.00  0.00    -0.237 OA
ATOM     49  O   UNL A   1      48.441  27.067  38.300  1.00  0.00    -0.237 OA
ATOM     50  O   UNL A   1      47.207  24.957  37.972  1.00  0.00    -0.744 OA
ENDBRANCH  46  47
ENDBRANCH  27  41
BRANCH  28  51
ATOM     51  C   UNL A   1      36.675  33.153  31.127  1.00  0.00    -0.014 A 
ATOM     52  C   UNL A   1      36.820  33.741  29.858  1.00  0.00     0.010 A 
ATOM     53  C   UNL A   1      35.423  33.202  31.766  1.00  0.00     0.010 A 
ATOM     54  C   UNL A   1      35.737  34.382  29.251  1.00  0.00     0.020 A 
ATOM     55  C   UNL A   1      34.331  33.816  31.149  1.00  0.00     0.020 A 
ATOM     56  C   UNL A   1      34.499  34.416  29.901  1.00  0.00     0.054 A 
BRANCH  56  57
ATOM     57  S   UNL A   1      33.092  35.210  29.077  1.00  0.00     0.124 S 
ATOM     58  O   UNL A   1      32.170  35.417  30.189  1.00  0.00    -0.237 OA
ATOM     59  O   UNL A   1      33.690  36.419  28.516  1.00  0.00    -0.237 OA
ATOM     60  O   UNL A   1      32.673  34.217  28.089  1.00  0.00    -0.744 OA
ENDBRANCH  56  57
ENDBRANCH  28  51
BRANCH  40  61
ATOM     61  C   UNL A   1      39.785  33.835  37.319  1.00  0.00    -0.014 A 
ATOM     62  C   UNL A   1      40.447  35.073  37.398  1.00  0.00     0.010 A 
ATOM     63  C   UNL A   1      38.872  33.476  38.327  1.00  0.00     0.010 A 
ATOM     64  C   UNL A   1      40.233  35.918  38.491  1.00  0.00     0.020 A 
ATOM     65  C   UNL A   1      38.638  34.329  39.407  1.00  0.00     0.020 A 
ATOM     66  C   UNL A   1      39.335  35.537  39.493  1.00  0.00     0.054 A 
BRANCH  66  67
ATOM     67  S   UNL A   1      39.059  36.656  40.893  1.00  0.00     0.124 S 
ATOM     68  O   UNL A   1      38.118  35.893  41.708  1.00  0.00    -0.237 OA
ATOM     69  O   UNL A   1      40.399  36.807  41.455  1.00  0.00    -0.237 OA
ATOM     70  O   UNL A   1      38.512  37.859  40.269  1.00  0.00    -0.744 OA
ENDBRANCH  66  67
ENDBRANCH  40  61
ENDBRANCH  14  15
ENDBRANCH   7   9
ENDBRANCH   4   5
ENDBRANCH   3   4
ENDBRANCH   2   3
ENDBRANCH   1   2
BRANCH   1  71
ATOM     71  C   UNL A   1      37.769  21.103  24.837  1.00  0.00     0.021 C 
BRANCH  71  72
ATOM     72  C   UNL A   1      36.338  20.814  25.290  1.00  0.00     0.116 C 
BRANCH  72  73
ATOM     73  N   UNL A   1      35.368  21.453  24.424  1.00  0.00    -0.354 N 
ATOM     74  C   UNL A   1      34.061  21.762  24.677  1.00  0.00     0.249 C 
ATOM     75  H   UNL A   1      35.696  21.699  23.530  1.00  0.00     0.163 HD
ATOM     76  O   UNL A   1      33.376  22.201  23.750  1.00  0.00    -0.272 OA
BRANCH  74  77
ATOM     77  C   UNL A   1      33.508  21.568  26.104  1.00  0.00     0.207 C 
ATOM     78  C   UNL A   1      34.187  22.512  27.087  1.00  0.00     0.045 C 
ATOM     79  O   UNL A   1      32.108  21.883  26.156  1.00  0.00    -0.363 OA
ATOM     80  C   UNL A   1      33.332  23.752  26.969  1.00  0.00     0.037 C 
ATOM     81  C   UNL A   1      31.937  23.167  26.795  1.00  0.00     0.138 C 
BRANCH  81  82
ATOM     82  C   UNL A   1      30.879  24.007  26.040  1.00  0.00     0.145 C 
BRANCH  82  83
ATOM     83  N   UNL A   1      30.849  25.418  26.421  1.00  0.00    -0.377 N 
ATOM     84  H   UNL A   1      30.979  25.651  27.369  1.00  0.00     0.160 HD
BRANCH  83  85
ATOM     85  C   UNL A   1      30.648  26.446  25.510  1.00  0.00     0.116 A 
ATOM     86  C   UNL A   1      29.772  26.273  24.425  1.00  0.00     0.033 A 
ATOM     87  C   UNL A   1      31.320  27.685  25.583  1.00  0.00     0.327 A 
ATOM     88  C   UNL A   1      29.554  27.286  23.482  1.00  0.00     0.006 A 
ATOM     89  C   UNL A   1      31.112  28.696  24.645  1.00  0.00     0.202 A 
ATOM     90  C   UNL A   1      30.226  28.500  23.594  1.00  0.00     0.047 A 
ATOM     91  F   UNL A   1      31.719  29.886  24.750  1.00  0.00    -0.199 F 
BRANCH  87  92
ATOM     92  N   UNL A   1      32.247  27.958  26.660  1.00  0.00     0.068 N 
ATOM     93  O   UNL A   1      31.896  28.790  27.514  1.00  0.00    -0.258 OA
ATOM     94  O   UNL A   1      33.327  27.349  26.674  1.00  0.00    -0.258 OA
ENDBRANCH  87  92
ENDBRANCH  83  85
ENDBRANCH  82  83
ENDBRANCH  81  82
ENDBRANCH  74  77
ENDBRANCH  72  73
ENDBRANCH  71  72
ENDBRANCH   1  71
TORSDOF 20
ENDMDL
