MODEL 1
REMARK VINA RESULT:     -10.7      0.000      0.000
REMARK SMILES O=C(NCCCCCCNC(=O)c1sccc1S(=O)(=O)NC[C@H](O)c1ccccc1)c1ccc(-c2c3nc(c(-c4ccc(S(=O)(=O)[O-])cc4)c4ccc([nH]4)c(-c4ccc(S(=O)(=O)[O-])cc4)c4nc(c(-c5ccc(S(=O)(=O)[O-])cc5)c5ccc2[nH]5)C=C4)C=C3)cc1
REMARK SMILES IDX 7 1 6 2 5 3 4 4 3 5 1 6 2 7 31 9 32 10 90 11 33 12 89 13
REMARK SMILES IDX 34 14 35 15 36 16 83 17 37 18 88 19 82 20 84 21 38 22 87 23
REMARK SMILES IDX 81 24 80 25 39 27 69 28 50 29 68 30 51 31 54 32 67 33 85 34
REMARK SMILES IDX 52 35 53 36 66 38 86 39 55 40 40 41 41 42 49 43 42 44 48 45
REMARK SMILES IDX 43 46 44 47 45 48 46 49 47 50 70 51 71 52 79 53 72 54 78 55
REMARK SMILES IDX 73 56 74 57 75 58 76 59 77 60 56 61 57 62 65 63 58 64 64 65
REMARK SMILES IDX 59 66 60 67 61 68 62 69 63 70 8 71 9 72 10 73 11 74 12 76
REMARK SMILES IDX 13 77 14 78 17 79 15 80 16 81 18 82 19 83 20 84 21 85 22 87
REMARK SMILES IDX 23 88 25 89 26 90 30 91 27 92 29 93 28 94 24 95
REMARK H PARENT 3 8 84 26 54 37 10 75 21 86 24 96
REMARK Flexibility Score: inf
ROOT
ATOM      1  C   UNL A   1      37.002  22.885  24.818  1.00  0.00     0.002 C 
ENDROOT
BRANCH   1   2
ATOM      2  C   UNL A   1      36.958  21.432  25.297  1.00  0.00     0.002 C 
BRANCH   2   3
ATOM      3  C   UNL A   1      38.214  20.602  25.035  1.00  0.00     0.021 C 
BRANCH   3   4
ATOM      4  C   UNL A   1      39.301  20.706  26.095  1.00  0.00     0.116 C 
BRANCH   4   5
ATOM      5  N   UNL A   1      40.255  19.611  26.054  1.00  0.00    -0.352 N 
ATOM      6  O   UNL A   1      42.297  18.647  26.013  1.00  0.00    -0.269 OA
ATOM      7  C   UNL A   1      41.625  19.662  26.169  1.00  0.00     0.251 C 
ATOM      8  H   UNL A   1      39.870  18.714  25.929  1.00  0.00     0.163 HD
BRANCH   7   9
ATOM      9  C   UNL A   1      42.283  20.960  26.442  1.00  0.00     0.039 A 
ATOM     10  C   UNL A   1      42.543  21.365  27.753  1.00  0.00     0.014 A 
ATOM     11  C   UNL A   1      42.612  21.797  25.372  1.00  0.00     0.014 A 
ATOM     12  C   UNL A   1      42.982  22.660  28.001  1.00  0.00     0.010 A 
ATOM     13  C   UNL A   1      43.144  23.066  25.620  1.00  0.00     0.010 A 
ATOM     14  C   UNL A   1      43.301  23.522  26.938  1.00  0.00    -0.014 A 
BRANCH  14  15
ATOM     15  C   UNL A   1      43.851  24.869  27.237  1.00  0.00     0.031 A 
ATOM     16  C   UNL A   1      45.299  25.198  26.989  1.00  0.00     0.074 A 
ATOM     17  C   UNL A   1      43.015  25.816  27.704  1.00  0.00     0.049 A 
ATOM     18  N   UNL A   1      45.923  26.336  27.158  1.00  0.00    -0.248 NA
ATOM     19  C   UNL A   1      46.161  24.111  26.499  1.00  0.00     0.031 C 
ATOM     20  C   UNL A   1      41.589  25.616  27.985  1.00  0.00     0.029 A 
ATOM     21  N   UNL A   1      43.226  27.138  28.001  1.00  0.00    -0.354 N 
ATOM     22  C   UNL A   1      47.251  26.102  26.818  1.00  0.00     0.074 A 
ATOM     23  C   UNL A   1      47.348  24.703  26.456  1.00  0.00     0.031 C 
ATOM     24  C   UNL A   1      41.044  26.784  28.351  1.00  0.00     0.029 A 
ATOM     25  C   UNL A   1      42.089  27.799  28.400  1.00  0.00     0.049 A 
ATOM     26  H   UNL A   1      44.107  27.571  27.935  1.00  0.00     0.167 HD
ATOM     27  C   UNL A   1      48.292  26.971  26.807  1.00  0.00     0.031 A 
ATOM     28  C   UNL A   1      41.904  29.078  28.778  1.00  0.00     0.031 A 
ATOM     29  C   UNL A   1      48.186  28.361  27.172  1.00  0.00     0.049 A 
ATOM     30  C   UNL A   1      43.079  30.009  28.788  1.00  0.00     0.074 A 
ATOM     31  C   UNL A   1      49.175  29.331  27.162  1.00  0.00     0.029 A 
ATOM     32  N   UNL A   1      47.027  28.980  27.617  1.00  0.00    -0.354 N 
ATOM     33  N   UNL A   1      44.320  29.774  28.431  1.00  0.00    -0.248 NA
ATOM     34  C   UNL A   1      42.830  31.380  29.250  1.00  0.00     0.031 C 
ATOM     35  C   UNL A   1      48.628  30.521  27.655  1.00  0.00     0.029 A 
ATOM     36  C   UNL A   1      47.282  30.311  27.912  1.00  0.00     0.049 A 
ATOM     37  H   UNL A   1      46.153  28.540  27.710  1.00  0.00     0.167 HD
ATOM     38  C   UNL A   1      44.996  30.974  28.608  1.00  0.00     0.074 A 
ATOM     39  C   UNL A   1      44.021  31.938  29.083  1.00  0.00     0.031 C 
ATOM     40  C   UNL A   1      46.305  31.254  28.394  1.00  0.00     0.031 A 
BRANCH  27  41
ATOM     41  C   UNL A   1      49.648  26.434  26.421  1.00  0.00    -0.014 A 
ATOM     42  C   UNL A   1      50.144  26.568  25.111  1.00  0.00     0.010 A 
ATOM     43  C   UNL A   1      50.455  25.819  27.395  1.00  0.00     0.010 A 
ATOM     44  C   UNL A   1      51.399  26.052  24.773  1.00  0.00     0.020 A 
ATOM     45  C   UNL A   1      51.722  25.327  27.068  1.00  0.00     0.020 A 
ATOM     46  C   UNL A   1      52.178  25.429  25.753  1.00  0.00     0.054 A 
BRANCH  46  47
ATOM     47  S   UNL A   1      53.803  24.770  25.287  1.00  0.00     0.124 S 
ATOM     48  O   UNL A   1      54.591  25.035  26.488  1.00  0.00    -0.237 OA
ATOM     49  O   UNL A   1      53.515  23.363  25.024  1.00  0.00    -0.237 OA
ATOM     50  O   UNL A   1      54.173  25.557  24.114  1.00  0.00    -0.744 OA
ENDBRANCH  46  47
ENDBRANCH  27  41
BRANCH  28  51
ATOM     51  C   UNL A   1      40.548  29.539  29.178  1.00  0.00    -0.014 A 
ATOM     52  C   UNL A   1      39.551  29.750  28.210  1.00  0.00     0.010 A 
ATOM     53  C   UNL A   1      40.237  29.740  30.536  1.00  0.00     0.010 A 
ATOM     54  C   UNL A   1      38.272  30.166  28.591  1.00  0.00     0.020 A 
ATOM     55  C   UNL A   1      38.952  30.124  30.923  1.00  0.00     0.020 A 
ATOM     56  C   UNL A   1      37.980  30.346  29.946  1.00  0.00     0.054 A 
BRANCH  56  57
ATOM     57  S   UNL A   1      36.298  30.830  30.421  1.00  0.00     0.124 S 
ATOM     58  O   UNL A   1      35.576  30.695  29.160  1.00  0.00    -0.237 OA
ATOM     59  O   UNL A   1      35.965  29.849  31.450  1.00  0.00    -0.237 OA
ATOM     60  O   UNL A   1      36.461  32.199  30.908  1.00  0.00    -0.744 OA
ENDBRANCH  56  57
ENDBRANCH  28  51
BRANCH  40  61
ATOM     61  C   UNL A   1      46.751  32.670  28.643  1.00  0.00    -0.014 A 
ATOM     62  C   UNL A   1      46.682  33.646  27.633  1.00  0.00     0.010 A 
ATOM     63  C   UNL A   1      47.224  33.033  29.917  1.00  0.00     0.010 A 
ATOM     64  C   UNL A   1      47.116  34.951  27.882  1.00  0.00     0.020 A 
ATOM     65  C   UNL A   1      47.631  34.343  30.178  1.00  0.00     0.020 A 
ATOM     66  C   UNL A   1      47.591  35.291  29.152  1.00  0.00     0.054 A 
BRANCH  66  67
ATOM     67  S   UNL A   1      48.124  36.997  29.460  1.00  0.00     0.124 S 
ATOM     68  O   UNL A   1      47.026  37.766  28.882  1.00  0.00    -0.237 OA
ATOM     69  O   UNL A   1      48.225  37.043  30.916  1.00  0.00    -0.237 OA
ATOM     70  O   UNL A   1      49.396  37.096  28.749  1.00  0.00    -0.744 OA
ENDBRANCH  66  67
ENDBRANCH  40  61
ENDBRANCH  14  15
ENDBRANCH   7   9
ENDBRANCH   4   5
ENDBRANCH   3   4
ENDBRANCH   2   3
ENDBRANCH   1   2
BRANCH   1  71
ATOM     71  C   UNL A   1      36.044  23.261  23.678  1.00  0.00     0.021 C 
BRANCH  71  72
ATOM     72  C   UNL A   1      35.064  24.385  23.993  1.00  0.00     0.116 C 
BRANCH  72  73
ATOM     73  N   UNL A   1      33.941  24.397  23.079  1.00  0.00    -0.351 N 
ATOM     74  C   UNL A   1      32.714  24.987  23.217  1.00  0.00     0.262 C 
ATOM     75  H   UNL A   1      34.081  23.909  22.235  1.00  0.00     0.163 HD
ATOM     76  O   UNL A   1      31.903  24.818  22.307  1.00  0.00    -0.268 OA
BRANCH  74  77
ATOM     77  C   UNL A   1      32.420  25.763  24.399  1.00  0.00     0.112 A 
ATOM     78  S   UNL A   1      32.489  27.475  24.243  1.00  0.00    -0.137 S 
ATOM     79  C   UNL A   1      32.153  25.391  25.702  1.00  0.00     0.106 A 
ATOM     80  C   UNL A   1      32.095  27.716  25.886  1.00  0.00     0.067 A 
ATOM     81  C   UNL A   1      31.937  26.524  26.554  1.00  0.00     0.034 A 
BRANCH  79  82
ATOM     82  S   UNL A   1      32.062  23.785  26.327  1.00  0.00     0.242 S 
ATOM     83  O   UNL A   1      33.394  23.516  26.823  1.00  0.00    -0.207 OA
ATOM     84  O   UNL A   1      30.920  23.827  27.209  1.00  0.00    -0.207 OA
BRANCH  82  85
ATOM     85  N   UNL A   1      31.721  22.636  25.168  1.00  0.00    -0.208 NA
ATOM     86  H   UNL A   1      31.451  23.143  24.325  1.00  0.00     0.141 HD
BRANCH  85  87
ATOM     87  C   UNL A   1      32.747  21.647  24.760  1.00  0.00     0.135 C 
BRANCH  87  88
ATOM     88  C   UNL A   1      32.639  20.302  25.507  1.00  0.00     0.159 C 
BRANCH  88  89
ATOM     89  C   UNL A   1      33.111  19.173  24.607  1.00  0.00    -0.018 A 
ATOM     90  C   UNL A   1      32.331  18.691  23.546  1.00  0.00     0.006 A 
ATOM     91  C   UNL A   1      34.348  18.558  24.862  1.00  0.00     0.006 A 
ATOM     92  C   UNL A   1      32.775  17.624  22.762  1.00  0.00     0.000 A 
ATOM     93  C   UNL A   1      34.787  17.485  24.086  1.00  0.00     0.000 A 
ATOM     94  C   UNL A   1      34.000  17.020  23.034  1.00  0.00     0.000 A 
ENDBRANCH  88  89
BRANCH  88  95
ATOM     95  O   UNL A   1      33.428  20.338  26.696  1.00  0.00    -0.387 OA
ATOM     96  H   UNL A   1      34.116  21.017  26.609  1.00  0.00     0.211 HD
ENDBRANCH  88  95
ENDBRANCH  87  88
ENDBRANCH  85  87
ENDBRANCH  82  85
ENDBRANCH  79  82
ENDBRANCH  74  77
ENDBRANCH  72  73
ENDBRANCH  71  72
ENDBRANCH   1  71
TORSDOF 22
ENDMDL
MODEL 2
REMARK VINA RESULT:     -10.5      5.279     10.643
REMARK SMILES O=C(NCCCCCCNC(=O)c1sccc1S(=O)(=O)NC[C@H](O)c1ccccc1)c1ccc(-c2c3nc(c(-c4ccc(S(=O)(=O)[O-])cc4)c4ccc([nH]4)c(-c4ccc(S(=O)(=O)[O-])cc4)c4nc(c(-c5ccc(S(=O)(=O)[O-])cc5)c5ccc2[nH]5)C=C4)C=C3)cc1
REMARK SMILES IDX 7 1 6 2 5 3 4 4 3 5 1 6 2 7 31 9 32 10 90 11 33 12 89 13
REMARK SMILES IDX 34 14 35 15 36 16 83 17 37 18 88 19 82 20 84 21 38 22 87 23
REMARK SMILES IDX 81 24 80 25 39 27 69 28 50 29 68 30 51 31 54 32 67 33 85 34
REMARK SMILES IDX 52 35 53 36 66 38 86 39 55 40 40 41 41 42 49 43 42 44 48 45
REMARK SMILES IDX 43 46 44 47 45 48 46 49 47 50 70 51 71 52 79 53 72 54 78 55
REMARK SMILES IDX 73 56 74 57 75 58 76 59 77 60 56 61 57 62 65 63 58 64 64 65
REMARK SMILES IDX 59 66 60 67 61 68 62 69 63 70 8 71 9 72 10 73 11 74 12 76
REMARK SMILES IDX 13 77 14 78 17 79 15 80 16 81 18 82 19 83 20 84 21 85 22 87
REMARK SMILES IDX 23 88 25 89 26 90 30 91 27 92 29 93 28 94 24 95
REMARK H PARENT 3 8 84 26 54 37 10 75 21 86 24 96
REMARK Flexibility Score: inf
ROOT
ATOM      1  C   UNL A   1      36.125  32.751  32.170  1.00  0.00     0.002 C 
ENDROOT
BRANCH   1   2
ATOM      2  C   UNL A   1      34.879  32.315  31.394  1.00  0.00     0.002 C 
BRANCH   2   3
ATOM      3  C   UNL A   1      34.537  33.143  30.156  1.00  0.00     0.021 C 
BRANCH   3   4
ATOM      4  C   UNL A   1      35.022  32.572  28.831  1.00  0.00     0.116 C 
BRANCH   4   5
ATOM      5  N   UNL A   1      34.215  31.465  28.349  1.00  0.00    -0.352 N 
ATOM      6  O   UNL A   1      33.815  29.388  27.558  1.00  0.00    -0.269 OA
ATOM      7  C   UNL A   1      34.610  30.180  28.053  1.00  0.00     0.251 C 
ATOM      8  H   UNL A   1      33.259  31.658  28.216  1.00  0.00     0.163 HD
BRANCH   7   9
ATOM      9  C   UNL A   1      36.013  29.778  28.302  1.00  0.00     0.039 A 
ATOM     10  C   UNL A   1      36.405  29.295  29.553  1.00  0.00     0.014 A 
ATOM     11  C   UNL A   1      36.954  29.917  27.278  1.00  0.00     0.014 A 
ATOM     12  C   UNL A   1      37.754  29.105  29.826  1.00  0.00     0.010 A 
ATOM     13  C   UNL A   1      38.300  29.633  27.528  1.00  0.00     0.010 A 
ATOM     14  C   UNL A   1      38.718  29.258  28.815  1.00  0.00    -0.014 A 
BRANCH  14  15
ATOM     15  C   UNL A   1      40.141  28.961  29.117  1.00  0.00     0.031 A 
ATOM     16  C   UNL A   1      40.767  27.646  28.734  1.00  0.00     0.074 A 
ATOM     17  C   UNL A   1      40.883  29.913  29.715  1.00  0.00     0.049 A 
ATOM     18  N   UNL A   1      42.005  27.250  28.890  1.00  0.00    -0.248 NA
ATOM     19  C   UNL A   1      39.894  26.643  28.105  1.00  0.00     0.031 C 
ATOM     20  C   UNL A   1      40.387  31.228  30.134  1.00  0.00     0.029 A 
ATOM     21  N   UNL A   1      42.212  29.940  30.050  1.00  0.00    -0.354 N 
ATOM     22  C   UNL A   1      42.057  25.949  28.401  1.00  0.00     0.074 A 
ATOM     23  C   UNL A   1      40.718  25.613  27.965  1.00  0.00     0.031 C 
ATOM     24  C   UNL A   1      41.408  31.952  30.611  1.00  0.00     0.029 A 
ATOM     25  C   UNL A   1      42.615  31.135  30.598  1.00  0.00     0.049 A 
ATOM     26  H   UNL A   1      42.819  29.179  29.912  1.00  0.00     0.167 HD
ATOM     27  C   UNL A   1      43.122  25.114  28.321  1.00  0.00     0.031 A 
ATOM     28  C   UNL A   1      43.818  31.530  31.054  1.00  0.00     0.031 A 
ATOM     29  C   UNL A   1      44.452  25.456  28.761  1.00  0.00     0.049 A 
ATOM     30  C   UNL A   1      44.972  30.574  30.984  1.00  0.00     0.074 A 
ATOM     31  C   UNL A   1      45.604  24.691  28.693  1.00  0.00     0.029 A 
ATOM     32  N   UNL A   1      44.807  26.658  29.355  1.00  0.00    -0.354 N 
ATOM     33  N   UNL A   1      45.005  29.360  30.488  1.00  0.00    -0.248 NA
ATOM     34  C   UNL A   1      46.250  31.041  31.534  1.00  0.00     0.031 C 
ATOM     35  C   UNL A   1      46.643  25.407  29.297  1.00  0.00     0.029 A 
ATOM     36  C   UNL A   1      46.154  26.645  29.685  1.00  0.00     0.049 A 
ATOM     37  H   UNL A   1      44.194  27.409  29.519  1.00  0.00     0.167 HD
ATOM     38  C   UNL A   1      46.315  28.925  30.648  1.00  0.00     0.074 A 
ATOM     39  C   UNL A   1      47.045  30.014  31.269  1.00  0.00     0.031 C 
ATOM     40  C   UNL A   1      46.863  27.732  30.311  1.00  0.00     0.031 A 
BRANCH  27  41
ATOM     41  C   UNL A   1      42.887  23.730  27.769  1.00  0.00    -0.014 A 
ATOM     42  C   UNL A   1      43.248  23.394  26.452  1.00  0.00     0.010 A 
ATOM     43  C   UNL A   1      42.327  22.738  28.596  1.00  0.00     0.010 A 
ATOM     44  C   UNL A   1      43.010  22.108  25.957  1.00  0.00     0.020 A 
ATOM     45  C   UNL A   1      42.112  21.443  28.114  1.00  0.00     0.020 A 
ATOM     46  C   UNL A   1      42.437  21.142  26.791  1.00  0.00     0.054 A 
BRANCH  46  47
ATOM     47  S   UNL A   1      42.139  19.481  26.123  1.00  0.00     0.124 S 
ATOM     48  O   UNL A   1      42.926  19.505  24.893  1.00  0.00    -0.237 OA
ATOM     49  O   UNL A   1      42.652  18.613  27.179  1.00  0.00    -0.237 OA
ATOM     50  O   UNL A   1      40.691  19.437  25.934  1.00  0.00    -0.744 OA
ENDBRANCH  46  47
ENDBRANCH  27  41
BRANCH  28  51
ATOM     51  C   UNL A   1      43.980  32.898  31.616  1.00  0.00    -0.014 A 
ATOM     52  C   UNL A   1      44.269  33.987  30.775  1.00  0.00     0.010 A 
ATOM     53  C   UNL A   1      43.815  33.123  32.996  1.00  0.00     0.010 A 
ATOM     54  C   UNL A   1      44.402  35.273  31.305  1.00  0.00     0.020 A 
ATOM     55  C   UNL A   1      43.915  34.412  33.524  1.00  0.00     0.020 A 
ATOM     56  C   UNL A   1      44.220  35.478  32.676  1.00  0.00     0.054 A 
BRANCH  56  57
ATOM     57  S   UNL A   1      44.341  37.165  33.331  1.00  0.00     0.124 S 
ATOM     58  O   UNL A   1      45.464  37.051  34.256  1.00  0.00    -0.237 OA
ATOM     59  O   UNL A   1      44.587  37.955  32.128  1.00  0.00    -0.237 OA
ATOM     60  O   UNL A   1      43.035  37.383  33.953  1.00  0.00    -0.744 OA
ENDBRANCH  56  57
ENDBRANCH  28  51
BRANCH  40  61
ATOM     61  C   UNL A   1      48.334  27.556  30.579  1.00  0.00    -0.014 A 
ATOM     62  C   UNL A   1      48.794  26.915  31.743  1.00  0.00     0.010 A 
ATOM     63  C   UNL A   1      49.270  28.020  29.636  1.00  0.00     0.010 A 
ATOM     64  C   UNL A   1      50.165  26.776  31.978  1.00  0.00     0.020 A 
ATOM     65  C   UNL A   1      50.640  27.857  29.853  1.00  0.00     0.020 A 
ATOM     66  C   UNL A   1      51.079  27.251  31.033  1.00  0.00     0.054 A 
BRANCH  66  67
ATOM     67  S   UNL A   1      52.853  27.035  31.347  1.00  0.00     0.124 S 
ATOM     68  O   UNL A   1      53.181  25.912  30.474  1.00  0.00    -0.237 OA
ATOM     69  O   UNL A   1      53.407  28.326  30.947  1.00  0.00    -0.237 OA
ATOM     70  O   UNL A   1      52.918  26.752  32.779  1.00  0.00    -0.744 OA
ENDBRANCH  66  67
ENDBRANCH  40  61
ENDBRANCH  14  15
ENDBRANCH   7   9
ENDBRANCH   4   5
ENDBRANCH   3   4
ENDBRANCH   2   3
ENDBRANCH   1   2
BRANCH   1  71
ATOM     71  C   UNL A   1      37.173  31.664  32.450  1.00  0.00     0.021 C 
BRANCH  71  72
ATOM     72  C   UNL A   1      38.113  31.948  33.616  1.00  0.00     0.116 C 
BRANCH  72  73
ATOM     73  N   UNL A   1      37.778  31.162  34.785  1.00  0.00    -0.351 N 
ATOM     74  C   UNL A   1      38.558  30.827  35.858  1.00  0.00     0.262 C 
ATOM     75  H   UNL A   1      36.856  30.818  34.811  1.00  0.00     0.163 HD
ATOM     76  O   UNL A   1      38.052  30.105  36.718  1.00  0.00    -0.268 OA
BRANCH  74  77
ATOM     77  C   UNL A   1      39.915  31.315  35.941  1.00  0.00     0.112 A 
ATOM     78  S   UNL A   1      40.158  32.802  36.769  1.00  0.00    -0.137 S 
ATOM     79  C   UNL A   1      41.097  30.843  35.404  1.00  0.00     0.106 A 
ATOM     80  C   UNL A   1      41.839  32.779  36.473  1.00  0.00     0.067 A 
ATOM     81  C   UNL A   1      42.214  31.679  35.739  1.00  0.00     0.034 A 
BRANCH  79  82
ATOM     82  S   UNL A   1      41.310  29.428  34.439  1.00  0.00     0.242 S 
ATOM     83  O   UNL A   1      40.930  28.338  35.310  1.00  0.00    -0.207 OA
ATOM     84  O   UNL A   1      40.574  29.725  33.233  1.00  0.00    -0.207 OA
BRANCH  82  85
ATOM     85  N   UNL A   1      42.890  29.168  33.975  1.00  0.00    -0.208 NA
ATOM     86  H   UNL A   1      43.445  29.912  34.397  1.00  0.00     0.141 HD
BRANCH  85  87
ATOM     87  C   UNL A   1      43.572  27.893  34.300  1.00  0.00     0.135 C 
BRANCH  87  88
ATOM     88  C   UNL A   1      44.054  27.116  33.057  1.00  0.00     0.159 C 
BRANCH  88  89
ATOM     89  C   UNL A   1      43.963  25.622  33.316  1.00  0.00    -0.018 A 
ATOM     90  C   UNL A   1      43.600  25.105  34.568  1.00  0.00     0.006 A 
ATOM     91  C   UNL A   1      44.291  24.722  32.288  1.00  0.00     0.006 A 
ATOM     92  C   UNL A   1      43.566  23.726  34.786  1.00  0.00     0.000 A 
ATOM     93  C   UNL A   1      44.267  23.345  32.509  1.00  0.00     0.000 A 
ATOM     94  C   UNL A   1      43.903  22.847  33.758  1.00  0.00     0.000 A 
ENDBRANCH  88  89
BRANCH  88  95
ATOM     95  O   UNL A   1      43.256  27.463  31.924  1.00  0.00    -0.387 OA
ATOM     96  H   UNL A   1      42.487  27.978  32.215  1.00  0.00     0.211 HD
ENDBRANCH  88  95
ENDBRANCH  87  88
ENDBRANCH  85  87
ENDBRANCH  82  85
ENDBRANCH  79  82
ENDBRANCH  74  77
ENDBRANCH  72  73
ENDBRANCH  71  72
ENDBRANCH   1  71
TORSDOF 22
ENDMDL
MODEL 3
REMARK VINA RESULT:     -10.4      2.709      9.521
REMARK SMILES O=C(NCCCCCCNC(=O)c1sccc1S(=O)(=O)NC[C@H](O)c1ccccc1)c1ccc(-c2c3nc(c(-c4ccc(S(=O)(=O)[O-])cc4)c4ccc([nH]4)c(-c4ccc(S(=O)(=O)[O-])cc4)c4nc(c(-c5ccc(S(=O)(=O)[O-])cc5)c5ccc2[nH]5)C=C4)C=C3)cc1
REMARK SMILES IDX 7 1 6 2 5 3 4 4 3 5 1 6 2 7 31 9 32 10 90 11 33 12 89 13
REMARK SMILES IDX 34 14 35 15 36 16 83 17 37 18 88 19 82 20 84 21 38 22 87 23
REMARK SMILES IDX 81 24 80 25 39 27 69 28 50 29 68 30 51 31 54 32 67 33 85 34
REMARK SMILES IDX 52 35 53 36 66 38 86 39 55 40 40 41 41 42 49 43 42 44 48 45
REMARK SMILES IDX 43 46 44 47 45 48 46 49 47 50 70 51 71 52 79 53 72 54 78 55
REMARK SMILES IDX 73 56 74 57 75 58 76 59 77 60 56 61 57 62 65 63 58 64 64 65
REMARK SMILES IDX 59 66 60 67 61 68 62 69 63 70 8 71 9 72 10 73 11 74 12 76
REMARK SMILES IDX 13 77 14 78 17 79 15 80 16 81 18 82 19 83 20 84 21 85 22 87
REMARK SMILES IDX 23 88 25 89 26 90 30 91 27 92 29 93 28 94 24 95
REMARK H PARENT 3 8 84 26 54 37 10 75 21 86 24 96
REMARK Flexibility Score: inf
ROOT
ATOM      1  C   UNL A   1      33.975  22.293  23.512  1.00  0.00     0.002 C 
ENDROOT
BRANCH   1   2
ATOM      2  C   UNL A   1      35.202  22.164  24.419  1.00  0.00     0.002 C 
BRANCH   2   3
ATOM      3  C   UNL A   1      35.853  23.475  24.856  1.00  0.00     0.021 C 
BRANCH   3   4
ATOM      4  C   UNL A   1      36.719  23.393  26.105  1.00  0.00     0.116 C 
BRANCH   4   5
ATOM      5  N   UNL A   1      37.722  22.344  26.044  1.00  0.00    -0.352 N 
ATOM      6  O   UNL A   1      39.803  21.467  26.097  1.00  0.00    -0.269 OA
ATOM      7  C   UNL A   1      39.073  22.434  26.291  1.00  0.00     0.251 C 
ATOM      8  H   UNL A   1      37.393  21.451  25.793  1.00  0.00     0.163 HD
BRANCH   7   9
ATOM      9  C   UNL A   1      39.642  23.719  26.754  1.00  0.00     0.039 A 
ATOM     10  C   UNL A   1      39.784  24.795  25.874  1.00  0.00     0.014 A 
ATOM     11  C   UNL A   1      40.070  23.838  28.080  1.00  0.00     0.014 A 
ATOM     12  C   UNL A   1      40.492  25.923  26.272  1.00  0.00     0.010 A 
ATOM     13  C   UNL A   1      40.698  25.013  28.505  1.00  0.00     0.010 A 
ATOM     14  C   UNL A   1      40.946  26.052  27.595  1.00  0.00    -0.014 A 
BRANCH  14  15
ATOM     15  C   UNL A   1      41.621  27.308  28.011  1.00  0.00     0.031 A 
ATOM     16  C   UNL A   1      40.852  28.445  28.629  1.00  0.00     0.074 A 
ATOM     17  C   UNL A   1      42.957  27.401  27.859  1.00  0.00     0.049 A 
ATOM     18  N   UNL A   1      41.301  29.589  29.083  1.00  0.00    -0.248 NA
ATOM     19  C   UNL A   1      39.395  28.287  28.746  1.00  0.00     0.031 C 
ATOM     20  C   UNL A   1      43.811  26.363  27.271  1.00  0.00     0.029 A 
ATOM     21  N   UNL A   1      43.836  28.394  28.205  1.00  0.00    -0.354 N 
ATOM     22  C   UNL A   1      40.184  30.294  29.518  1.00  0.00     0.074 A 
ATOM     23  C   UNL A   1      39.032  29.459  29.250  1.00  0.00     0.031 C 
ATOM     24  C   UNL A   1      45.092  26.747  27.355  1.00  0.00     0.029 A 
ATOM     25  C   UNL A   1      45.148  28.083  27.936  1.00  0.00     0.049 A 
ATOM     26  H   UNL A   1      43.555  29.246  28.607  1.00  0.00     0.167 HD
ATOM     27  C   UNL A   1      40.125  31.523  30.088  1.00  0.00     0.031 A 
ATOM     28  C   UNL A   1      46.274  28.796  28.121  1.00  0.00     0.031 A 
ATOM     29  C   UNL A   1      41.277  32.349  30.348  1.00  0.00     0.049 A 
ATOM     30  C   UNL A   1      46.176  30.166  28.724  1.00  0.00     0.074 A 
ATOM     31  C   UNL A   1      41.324  33.595  30.951  1.00  0.00     0.029 A 
ATOM     32  N   UNL A   1      42.583  32.019  30.016  1.00  0.00    -0.354 N 
ATOM     33  N   UNL A   1      45.113  30.800  29.158  1.00  0.00    -0.248 NA
ATOM     34  C   UNL A   1      47.431  30.916  28.864  1.00  0.00     0.031 C 
ATOM     35  C   UNL A   1      42.650  34.042  30.933  1.00  0.00     0.029 A 
ATOM     36  C   UNL A   1      43.440  33.048  30.375  1.00  0.00     0.049 A 
ATOM     37  H   UNL A   1      42.860  31.178  29.588  1.00  0.00     0.167 HD
ATOM     38  C   UNL A   1      45.573  32.019  29.641  1.00  0.00     0.074 A 
ATOM     39  C   UNL A   1      47.013  32.022  29.464  1.00  0.00     0.031 C 
ATOM     40  C   UNL A   1      44.868  33.041  30.183  1.00  0.00     0.031 A 
BRANCH  27  41
ATOM     41  C   UNL A   1      38.762  32.067  30.438  1.00  0.00    -0.014 A 
ATOM     42  C   UNL A   1      38.216  31.905  31.725  1.00  0.00     0.010 A 
ATOM     43  C   UNL A   1      38.032  32.786  29.474  1.00  0.00     0.010 A 
ATOM     44  C   UNL A   1      36.945  32.408  32.023  1.00  0.00     0.020 A 
ATOM     45  C   UNL A   1      36.773  33.315  29.777  1.00  0.00     0.020 A 
ATOM     46  C   UNL A   1      36.229  33.104  31.045  1.00  0.00     0.054 A 
BRANCH  46  47
ATOM     47  S   UNL A   1      34.583  33.746  31.460  1.00  0.00     0.124 S 
ATOM     48  O   UNL A   1      34.005  33.969  30.137  1.00  0.00    -0.237 OA
ATOM     49  O   UNL A   1      33.995  32.651  32.225  1.00  0.00    -0.237 OA
ATOM     50  O   UNL A   1      34.867  34.957  32.227  1.00  0.00    -0.744 OA
ENDBRANCH  46  47
ENDBRANCH  27  41
BRANCH  28  51
ATOM     51  C   UNL A   1      47.586  28.216  27.727  1.00  0.00    -0.014 A 
ATOM     52  C   UNL A   1      48.355  27.491  28.653  1.00  0.00     0.010 A 
ATOM     53  C   UNL A   1      48.059  28.361  26.408  1.00  0.00     0.010 A 
ATOM     54  C   UNL A   1      49.579  26.933  28.273  1.00  0.00     0.020 A 
ATOM     55  C   UNL A   1      49.266  27.777  26.017  1.00  0.00     0.020 A 
ATOM     56  C   UNL A   1      50.024  27.076  26.956  1.00  0.00     0.054 A 
BRANCH  56  57
ATOM     57  S   UNL A   1      51.586  26.293  26.471  1.00  0.00     0.124 S 
ATOM     58  O   UNL A   1      52.545  26.969  27.339  1.00  0.00    -0.237 OA
ATOM     59  O   UNL A   1      51.342  24.885  26.772  1.00  0.00    -0.237 OA
ATOM     60  O   UNL A   1      51.698  26.607  25.047  1.00  0.00    -0.744 OA
ENDBRANCH  56  57
ENDBRANCH  28  51
BRANCH  40  61
ATOM     61  C   UNL A   1      45.651  34.237  30.655  1.00  0.00    -0.014 A 
ATOM     62  C   UNL A   1      46.169  34.304  31.960  1.00  0.00     0.010 A 
ATOM     63  C   UNL A   1      45.891  35.301  29.766  1.00  0.00     0.010 A 
ATOM     64  C   UNL A   1      46.880  35.431  32.381  1.00  0.00     0.020 A 
ATOM     65  C   UNL A   1      46.626  36.417  30.174  1.00  0.00     0.020 A 
ATOM     66  C   UNL A   1      47.102  36.482  31.486  1.00  0.00     0.054 A 
BRANCH  66  67
ATOM     67  S   UNL A   1      48.050  37.923  32.046  1.00  0.00     0.124 S 
ATOM     68  O   UNL A   1      49.421  37.425  31.988  1.00  0.00    -0.237 OA
ATOM     69  O   UNL A   1      47.707  38.938  31.053  1.00  0.00    -0.237 OA
ATOM     70  O   UNL A   1      47.535  38.175  33.390  1.00  0.00    -0.744 OA
ENDBRANCH  66  67
ENDBRANCH  40  61
ENDBRANCH  14  15
ENDBRANCH   7   9
ENDBRANCH   4   5
ENDBRANCH   3   4
ENDBRANCH   2   3
ENDBRANCH   1   2
BRANCH   1  71
ATOM     71  C   UNL A   1      32.716  21.530  23.950  1.00  0.00     0.021 C 
BRANCH  71  72
ATOM     72  C   UNL A   1      31.835  22.250  24.964  1.00  0.00     0.116 C 
BRANCH  72  73
ATOM     73  N   UNL A   1      30.837  23.079  24.322  1.00  0.00    -0.351 N 
ATOM     74  C   UNL A   1      30.851  24.426  24.080  1.00  0.00     0.262 C 
ATOM     75  H   UNL A   1      30.030  22.605  24.016  1.00  0.00     0.163 HD
ATOM     76  O   UNL A   1      29.853  24.913  23.548  1.00  0.00    -0.268 OA
BRANCH  74  77
ATOM     77  C   UNL A   1      32.006  25.210  24.449  1.00  0.00     0.112 A 
ATOM     78  S   UNL A   1      32.367  25.321  26.127  1.00  0.00    -0.137 S 
ATOM     79  C   UNL A   1      32.874  25.980  23.700  1.00  0.00     0.106 A 
ATOM     80  C   UNL A   1      33.714  26.331  25.847  1.00  0.00     0.067 A 
ATOM     81  C   UNL A   1      33.879  26.605  24.510  1.00  0.00     0.034 A 
BRANCH  79  82
ATOM     82  S   UNL A   1      32.840  26.221  21.992  1.00  0.00     0.242 S 
ATOM     83  O   UNL A   1      33.848  27.230  21.750  1.00  0.00    -0.207 OA
ATOM     84  O   UNL A   1      32.963  24.885  21.457  1.00  0.00    -0.207 OA
BRANCH  82  85
ATOM     85  N   UNL A   1      31.389  26.822  21.430  1.00  0.00    -0.208 NA
ATOM     86  H   UNL A   1      30.797  26.016  21.231  1.00  0.00     0.141 HD
BRANCH  85  87
ATOM     87  C   UNL A   1      30.583  27.747  22.261  1.00  0.00     0.135 C 
BRANCH  87  88
ATOM     88  C   UNL A   1      31.046  29.216  22.177  1.00  0.00     0.159 C 
BRANCH  88  89
ATOM     89  C   UNL A   1      29.865  30.143  22.399  1.00  0.00    -0.018 A 
ATOM     90  C   UNL A   1      29.485  30.572  23.680  1.00  0.00     0.006 A 
ATOM     91  C   UNL A   1      29.094  30.555  21.299  1.00  0.00     0.006 A 
ATOM     92  C   UNL A   1      28.368  31.391  23.855  1.00  0.00     0.000 A 
ATOM     93  C   UNL A   1      27.972  31.365  21.475  1.00  0.00     0.000 A 
ATOM     94  C   UNL A   1      27.610  31.784  22.753  1.00  0.00     0.000 A 
ENDBRANCH  88  89
BRANCH  88  95
ATOM     95  O   UNL A   1      32.053  29.468  23.159  1.00  0.00    -0.387 OA
ATOM     96  H   UNL A   1      31.857  28.961  23.963  1.00  0.00     0.211 HD
ENDBRANCH  88  95
ENDBRANCH  87  88
ENDBRANCH  85  87
ENDBRANCH  82  85
ENDBRANCH  79  82
ENDBRANCH  74  77
ENDBRANCH  72  73
ENDBRANCH  71  72
ENDBRANCH   1  71
TORSDOF 22
ENDMDL
