MODEL 1
REMARK VINA RESULT:     -11.5      0.000      0.000
REMARK SMILES O=C(NCCCCCCNC(=O)c1ccc(-n2cc(CSc3nc4ccccc4c(=O)n3-c3ccc(Br)cc3)nn2)cc1)c1ccc(-c2c3nc(c(-c4ccc(S(=O)(=O)[O-])cc4)c4ccc([nH]4)c(-c4ccc(S(=O)(=O)[O-])cc4)c4nc(c(-c5ccc(S(=O)(=O)[O-])cc5)c5ccc2[nH]5)C=C4)C=C3)cc1
REMARK SMILES IDX 7 1 6 2 5 3 4 4 3 5 1 6 2 7 44 9 45 10 103 11 46 12 102 13
REMARK SMILES IDX 47 14 48 15 49 16 96 17 50 18 101 19 95 20 97 21 51 22
REMARK SMILES IDX 100 23 94 24 93 25 52 27 82 28 63 29 81 30 64 31 67 32 80 33
REMARK SMILES IDX 98 34 65 35 66 36 79 38 99 39 68 40 53 41 54 42 62 43 55 44
REMARK SMILES IDX 61 45 56 46 57 47 58 48 59 49 60 50 83 51 84 52 92 53 85 54
REMARK SMILES IDX 91 55 86 56 87 57 88 58 89 59 90 60 69 61 70 62 78 63 71 64
REMARK SMILES IDX 77 65 72 66 73 67 74 68 75 69 76 70 8 71 9 72 10 73 11 74
REMARK SMILES IDX 12 76 13 77 14 78 43 79 15 80 42 81 16 82 17 83 18 84 41 85
REMARK SMILES IDX 19 86 40 87 20 88 21 89 22 90 23 91 32 92 24 93 30 94 25 95
REMARK SMILES IDX 29 96 31 97 26 98 28 99 27 100 33 101 34 102 39 103 35 104
REMARK SMILES IDX 38 105 36 106 37 107
REMARK H PARENT 3 8 97 26 67 37 10 75
REMARK Flexibility Score: inf
ROOT
ATOM      1  C   UNL A   1      40.162  32.312  32.815  1.00  0.00     0.002 C 
ENDROOT
BRANCH   1   2
ATOM      2  C   UNL A   1      40.551  30.889  33.236  1.00  0.00     0.002 C 
BRANCH   2   3
ATOM      3  C   UNL A   1      39.804  30.301  34.441  1.00  0.00     0.021 C 
BRANCH   3   4
ATOM      4  C   UNL A   1      40.610  30.221  35.736  1.00  0.00     0.116 C 
BRANCH   4   5
ATOM      5  N   UNL A   1      40.675  28.897  36.316  1.00  0.00    -0.352 N 
ATOM      6  O   UNL A   1      41.309  26.906  36.999  1.00  0.00    -0.269 OA
ATOM      7  C   UNL A   1      41.486  27.806  36.171  1.00  0.00     0.251 C 
ATOM      8  H   UNL A   1      39.960  28.744  36.976  1.00  0.00     0.163 HD
BRANCH   7   9
ATOM      9  C   UNL A   1      42.494  27.592  35.092  1.00  0.00     0.039 A 
ATOM     10  C   UNL A   1      43.217  28.578  34.422  1.00  0.00     0.014 A 
ATOM     11  C   UNL A   1      42.696  26.247  34.708  1.00  0.00     0.014 A 
ATOM     12  C   UNL A   1      44.064  28.232  33.361  1.00  0.00     0.010 A 
ATOM     13  C   UNL A   1      43.533  25.899  33.651  1.00  0.00     0.010 A 
ATOM     14  C   UNL A   1      44.201  26.897  32.954  1.00  0.00    -0.014 A 
BRANCH  14  15
ATOM     15  C   UNL A   1      45.202  26.565  31.934  1.00  0.00     0.031 A 
ATOM     16  C   UNL A   1      46.559  26.315  32.491  1.00  0.00     0.074 A 
ATOM     17  C   UNL A   1      44.972  26.364  30.617  1.00  0.00     0.049 A 
ATOM     18  N   UNL A   1      47.593  27.085  32.405  1.00  0.00    -0.248 NA
ATOM     19  C   UNL A   1      46.757  25.143  33.357  1.00  0.00     0.031 C 
ATOM     20  C   UNL A   1      43.691  26.280  29.917  1.00  0.00     0.029 A 
ATOM     21  N   UNL A   1      45.876  26.111  29.621  1.00  0.00    -0.354 N 
ATOM     22  C   UNL A   1      48.636  26.401  33.021  1.00  0.00     0.074 A 
ATOM     23  C   UNL A   1      48.032  25.297  33.725  1.00  0.00     0.031 C 
ATOM     24  C   UNL A   1      43.888  25.786  28.670  1.00  0.00     0.029 A 
ATOM     25  C   UNL A   1      45.318  25.658  28.426  1.00  0.00     0.049 A 
ATOM     26  H   UNL A   1      46.845  26.238  29.738  1.00  0.00     0.167 HD
ATOM     27  C   UNL A   1      49.939  26.668  32.724  1.00  0.00     0.031 A 
ATOM     28  C   UNL A   1      45.980  25.191  27.333  1.00  0.00     0.031 A 
ATOM     29  C   UNL A   1      50.076  27.896  31.985  1.00  0.00     0.049 A 
ATOM     30  C   UNL A   1      47.362  25.720  27.393  1.00  0.00     0.074 A 
ATOM     31  C   UNL A   1      49.750  29.218  32.216  1.00  0.00     0.029 A 
ATOM     32  N   UNL A   1      50.277  27.787  30.629  1.00  0.00    -0.354 N 
ATOM     33  N   UNL A   1      47.653  26.980  27.247  1.00  0.00    -0.248 NA
ATOM     34  C   UNL A   1      48.378  24.913  28.048  1.00  0.00     0.031 C 
ATOM     35  C   UNL A   1      49.289  29.704  30.957  1.00  0.00     0.029 A 
ATOM     36  C   UNL A   1      49.437  28.681  30.019  1.00  0.00     0.049 A 
ATOM     37  H   UNL A   1      50.909  27.179  30.180  1.00  0.00     0.167 HD
ATOM     38  C   UNL A   1      48.654  27.217  28.176  1.00  0.00     0.074 A 
ATOM     39  C   UNL A   1      49.121  25.890  28.574  1.00  0.00     0.031 C 
ATOM     40  C   UNL A   1      48.819  28.453  28.733  1.00  0.00     0.031 A 
BRANCH  27  41
ATOM     41  C   UNL A   1      51.041  25.635  32.740  1.00  0.00    -0.014 A 
ATOM     42  C   UNL A   1      50.937  24.522  31.881  1.00  0.00     0.010 A 
ATOM     43  C   UNL A   1      52.012  25.568  33.759  1.00  0.00     0.010 A 
ATOM     44  C   UNL A   1      51.711  23.372  32.079  1.00  0.00     0.020 A 
ATOM     45  C   UNL A   1      52.820  24.443  33.939  1.00  0.00     0.020 A 
ATOM     46  C   UNL A   1      52.640  23.338  33.118  1.00  0.00     0.054 A 
BRANCH  46  47
ATOM     47  S   UNL A   1      53.572  21.817  33.419  1.00  0.00     0.124 S 
ATOM     48  O   UNL A   1      52.999  21.357  34.681  1.00  0.00    -0.237 OA
ATOM     49  O   UNL A   1      53.239  21.015  32.244  1.00  0.00    -0.237 OA
ATOM     50  O   UNL A   1      54.957  22.272  33.486  1.00  0.00    -0.744 OA
ENDBRANCH  46  47
ENDBRANCH  27  41
BRANCH  28  51
ATOM     51  C   UNL A   1      45.610  24.100  26.389  1.00  0.00    -0.014 A 
ATOM     52  C   UNL A   1      46.461  23.732  25.326  1.00  0.00     0.010 A 
ATOM     53  C   UNL A   1      44.572  23.209  26.728  1.00  0.00     0.010 A 
ATOM     54  C   UNL A   1      46.327  22.486  24.680  1.00  0.00     0.020 A 
ATOM     55  C   UNL A   1      44.431  21.970  26.087  1.00  0.00     0.020 A 
ATOM     56  C   UNL A   1      45.326  21.602  25.083  1.00  0.00     0.054 A 
BRANCH  56  57
ATOM     57  S   UNL A   1      45.279  19.918  24.391  1.00  0.00     0.124 S 
ATOM     58  O   UNL A   1      44.462  20.094  23.195  1.00  0.00    -0.237 OA
ATOM     59  O   UNL A   1      46.691  19.630  24.156  1.00  0.00    -0.237 OA
ATOM     60  O   UNL A   1      44.659  19.128  25.454  1.00  0.00    -0.744 OA
ENDBRANCH  56  57
ENDBRANCH  28  51
BRANCH  40  61
ATOM     61  C   UNL A   1      48.145  29.639  28.086  1.00  0.00    -0.014 A 
ATOM     62  C   UNL A   1      46.756  29.872  28.086  1.00  0.00     0.010 A 
ATOM     63  C   UNL A   1      48.988  30.627  27.547  1.00  0.00     0.010 A 
ATOM     64  C   UNL A   1      46.227  31.043  27.519  1.00  0.00     0.020 A 
ATOM     65  C   UNL A   1      48.471  31.803  27.003  1.00  0.00     0.020 A 
ATOM     66  C   UNL A   1      47.091  31.999  26.976  1.00  0.00     0.054 A 
BRANCH  66  67
ATOM     67  S   UNL A   1      46.411  33.515  26.250  1.00  0.00     0.124 S 
ATOM     68  O   UNL A   1      47.587  34.129  25.639  1.00  0.00    -0.237 OA
ATOM     69  O   UNL A   1      45.409  33.007  25.316  1.00  0.00    -0.237 OA
ATOM     70  O   UNL A   1      45.864  34.237  27.397  1.00  0.00    -0.744 OA
ENDBRANCH  66  67
ENDBRANCH  40  61
ENDBRANCH  14  15
ENDBRANCH   7   9
ENDBRANCH   4   5
ENDBRANCH   3   4
ENDBRANCH   2   3
ENDBRANCH   1   2
BRANCH   1  71
ATOM     71  C   UNL A   1      40.166  33.365  33.927  1.00  0.00     0.021 C 
BRANCH  71  72
ATOM     72  C   UNL A   1      39.062  34.416  33.831  1.00  0.00     0.116 C 
BRANCH  72  73
ATOM     73  N   UNL A   1      38.002  34.201  34.804  1.00  0.00    -0.352 N 
ATOM     74  C   UNL A   1      36.763  33.641  34.626  1.00  0.00     0.251 C 
ATOM     75  H   UNL A   1      38.202  34.500  35.720  1.00  0.00     0.163 HD
ATOM     76  O   UNL A   1      35.927  33.659  35.531  1.00  0.00    -0.269 OA
BRANCH  74  77
ATOM     77  C   UNL A   1      36.410  33.042  33.325  1.00  0.00     0.039 A 
ATOM     78  C   UNL A   1      35.856  33.863  32.339  1.00  0.00     0.016 A 
ATOM     79  C   UNL A   1      36.620  31.681  33.080  1.00  0.00     0.016 A 
ATOM     80  C   UNL A   1      35.578  33.341  31.074  1.00  0.00     0.029 A 
ATOM     81  C   UNL A   1      36.327  31.151  31.823  1.00  0.00     0.029 A 
ATOM     82  C   UNL A   1      35.805  31.982  30.817  1.00  0.00     0.066 A 
BRANCH  82  83
ATOM     83  N   UNL A   1      35.442  31.448  29.559  1.00  0.00    -0.220 N 
ATOM     84  C   UNL A   1      35.672  30.179  29.096  1.00  0.00     0.141 A 
ATOM     85  N   UNL A   1      34.752  32.143  28.622  1.00  0.00    -0.062 NA
ATOM     86  C   UNL A   1      34.994  30.094  27.901  1.00  0.00     0.093 A 
ATOM     87  N   UNL A   1      34.495  31.331  27.600  1.00  0.00    -0.134 NA
BRANCH  86  88
ATOM     88  C   UNL A   1      34.946  28.964  26.952  1.00  0.00     0.138 C 
BRANCH  88  89
ATOM     89  S   UNL A   1      33.731  28.875  25.632  1.00  0.00    -0.081 SA
BRANCH  89  90
ATOM     90  C   UNL A   1      33.626  27.294  24.898  1.00  0.00     0.176 A 
ATOM     91  N   UNL A   1      34.303  26.409  25.573  1.00  0.00    -0.223 NA
ATOM     92  N   UNL A   1      32.904  26.943  23.765  1.00  0.00    -0.255 N 
ATOM     93  C   UNL A   1      34.399  25.108  25.072  1.00  0.00     0.079 A 
ATOM     94  C   UNL A   1      33.503  25.942  22.984  1.00  0.00     0.266 A 
ATOM     95  C   UNL A   1      34.821  24.053  25.883  1.00  0.00     0.029 A 
ATOM     96  C   UNL A   1      34.180  24.867  23.725  1.00  0.00     0.066 A 
ATOM     97  O   UNL A   1      33.512  25.887  21.755  1.00  0.00    -0.268 OA
ATOM     98  C   UNL A   1      35.090  22.798  25.325  1.00  0.00     0.002 A 
ATOM     99  C   UNL A   1      34.500  23.637  23.140  1.00  0.00     0.016 A 
ATOM    100  C   UNL A   1      34.969  22.601  23.949  1.00  0.00     0.001 A 
BRANCH  92 101
ATOM    101  C   UNL A   1      31.633  27.487  23.321  1.00  0.00     0.051 A 
ATOM    102  C   UNL A   1      31.596  28.697  22.594  1.00  0.00     0.028 A 
ATOM    103  C   UNL A   1      30.391  26.872  23.517  1.00  0.00     0.028 A 
ATOM    104  C   UNL A   1      30.401  29.364  22.302  1.00  0.00     0.018 A 
ATOM    105  C   UNL A   1      29.186  27.561  23.300  1.00  0.00     0.018 A 
ATOM    106  C   UNL A   1      29.202  28.826  22.733  1.00  0.00     0.018 A 
ATOM    107  Br  UNL A   1      27.606  29.815  22.569  1.00  0.00    -0.051 Br
ENDBRANCH  92 101
ENDBRANCH  89  90
ENDBRANCH  88  89
ENDBRANCH  86  88
ENDBRANCH  82  83
ENDBRANCH  74  77
ENDBRANCH  72  73
ENDBRANCH  71  72
ENDBRANCH   1  71
TORSDOF 21
ENDMDL
MODEL 2
REMARK VINA RESULT:     -10.9      6.302     12.968
REMARK SMILES O=C(NCCCCCCNC(=O)c1ccc(-n2cc(CSc3nc4ccccc4c(=O)n3-c3ccc(Br)cc3)nn2)cc1)c1ccc(-c2c3nc(c(-c4ccc(S(=O)(=O)[O-])cc4)c4ccc([nH]4)c(-c4ccc(S(=O)(=O)[O-])cc4)c4nc(c(-c5ccc(S(=O)(=O)[O-])cc5)c5ccc2[nH]5)C=C4)C=C3)cc1
REMARK SMILES IDX 7 1 6 2 5 3 4 4 3 5 1 6 2 7 44 9 45 10 103 11 46 12 102 13
REMARK SMILES IDX 47 14 48 15 49 16 96 17 50 18 101 19 95 20 97 21 51 22
REMARK SMILES IDX 100 23 94 24 93 25 52 27 82 28 63 29 81 30 64 31 67 32 80 33
REMARK SMILES IDX 98 34 65 35 66 36 79 38 99 39 68 40 53 41 54 42 62 43 55 44
REMARK SMILES IDX 61 45 56 46 57 47 58 48 59 49 60 50 83 51 84 52 92 53 85 54
REMARK SMILES IDX 91 55 86 56 87 57 88 58 89 59 90 60 69 61 70 62 78 63 71 64
REMARK SMILES IDX 77 65 72 66 73 67 74 68 75 69 76 70 8 71 9 72 10 73 11 74
REMARK SMILES IDX 12 76 13 77 14 78 43 79 15 80 42 81 16 82 17 83 18 84 41 85
REMARK SMILES IDX 19 86 40 87 20 88 21 89 22 90 23 91 32 92 24 93 30 94 25 95
REMARK SMILES IDX 29 96 31 97 26 98 28 99 27 100 33 101 34 102 39 103 35 104
REMARK SMILES IDX 38 105 36 106 37 107
REMARK H PARENT 3 8 97 26 67 37 10 75
REMARK Flexibility Score: inf
ROOT
ATOM      1  C   UNL A   1      44.715  41.863  29.678  1.00  0.00     0.002 C 
ENDROOT
BRANCH   1   2
ATOM      2  C   UNL A   1      43.700  42.517  30.624  1.00  0.00     0.002 C 
BRANCH   2   3
ATOM      3  C   UNL A   1      42.742  41.572  31.363  1.00  0.00     0.021 C 
BRANCH   3   4
ATOM      4  C   UNL A   1      43.052  41.351  32.842  1.00  0.00     0.116 C 
BRANCH   4   5
ATOM      5  N   UNL A   1      44.351  40.768  33.098  1.00  0.00    -0.352 N 
ATOM      6  O   UNL A   1      46.068  39.409  33.296  1.00  0.00    -0.269 OA
ATOM      7  C   UNL A   1      44.836  39.502  33.274  1.00  0.00     0.251 C 
ATOM      8  H   UNL A   1      45.059  41.450  33.161  1.00  0.00     0.163 HD
BRANCH   7   9
ATOM      9  C   UNL A   1      44.025  38.270  33.499  1.00  0.00     0.039 A 
ATOM     10  C   UNL A   1      43.784  37.253  32.576  1.00  0.00     0.014 A 
ATOM     11  C   UNL A   1      43.429  38.160  34.775  1.00  0.00     0.014 A 
ATOM     12  C   UNL A   1      42.922  36.198  32.900  1.00  0.00     0.010 A 
ATOM     13  C   UNL A   1      42.567  37.114  35.100  1.00  0.00     0.010 A 
ATOM     14  C   UNL A   1      42.289  36.141  34.150  1.00  0.00    -0.014 A 
BRANCH  14  15
ATOM     15  C   UNL A   1      41.508  34.949  34.497  1.00  0.00     0.031 A 
ATOM     16  C   UNL A   1      41.998  33.705  33.843  1.00  0.00     0.074 A 
ATOM     17  C   UNL A   1      40.510  34.878  35.405  1.00  0.00     0.049 A 
ATOM     18  N   UNL A   1      41.441  33.060  32.873  1.00  0.00    -0.248 NA
ATOM     19  C   UNL A   1      43.326  33.192  34.216  1.00  0.00     0.031 C 
ATOM     20  C   UNL A   1      40.063  35.899  36.353  1.00  0.00     0.029 A 
ATOM     21  N   UNL A   1      39.716  33.808  35.721  1.00  0.00    -0.354 N 
ATOM     22  C   UNL A   1      42.232  31.938  32.649  1.00  0.00     0.074 A 
ATOM     23  C   UNL A   1      43.453  32.155  33.385  1.00  0.00     0.031 C 
ATOM     24  C   UNL A   1      39.240  35.335  37.271  1.00  0.00     0.029 A 
ATOM     25  C   UNL A   1      38.980  33.953  36.896  1.00  0.00     0.049 A 
ATOM     26  H   UNL A   1      39.669  32.999  35.163  1.00  0.00     0.167 HD
ATOM     27  C   UNL A   1      41.732  30.819  32.054  1.00  0.00     0.031 A 
ATOM     28  C   UNL A   1      38.234  33.003  37.524  1.00  0.00     0.031 A 
ATOM     29  C   UNL A   1      40.456  31.069  31.435  1.00  0.00     0.049 A 
ATOM     30  C   UNL A   1      37.896  31.970  36.517  1.00  0.00     0.074 A 
ATOM     31  C   UNL A   1      39.996  31.923  30.452  1.00  0.00     0.029 A 
ATOM     32  N   UNL A   1      39.341  30.638  32.114  1.00  0.00    -0.354 N 
ATOM     33  N   UNL A   1      37.096  32.183  35.513  1.00  0.00    -0.248 NA
ATOM     34  C   UNL A   1      38.786  30.829  36.379  1.00  0.00     0.031 C 
ATOM     35  C   UNL A   1      38.711  32.342  30.906  1.00  0.00     0.029 A 
ATOM     36  C   UNL A   1      38.429  31.661  32.091  1.00  0.00     0.049 A 
ATOM     37  H   UNL A   1      39.220  29.758  32.539  1.00  0.00     0.167 HD
ATOM     38  C   UNL A   1      37.681  31.511  34.452  1.00  0.00     0.074 A 
ATOM     39  C   UNL A   1      38.667  30.623  35.065  1.00  0.00     0.031 C 
ATOM     40  C   UNL A   1      37.503  31.936  33.166  1.00  0.00     0.031 A 
BRANCH  27  41
ATOM     41  C   UNL A   1      42.187  29.415  32.371  1.00  0.00    -0.014 A 
ATOM     42  C   UNL A   1      41.745  28.814  33.568  1.00  0.00     0.010 A 
ATOM     43  C   UNL A   1      43.250  28.783  31.694  1.00  0.00     0.010 A 
ATOM     44  C   UNL A   1      42.382  27.686  34.098  1.00  0.00     0.020 A 
ATOM     45  C   UNL A   1      43.864  27.632  32.191  1.00  0.00     0.020 A 
ATOM     46  C   UNL A   1      43.448  27.110  33.408  1.00  0.00     0.054 A 
BRANCH  46  47
ATOM     47  S   UNL A   1      44.320  25.706  34.145  1.00  0.00     0.124 S 
ATOM     48  O   UNL A   1      45.514  25.621  33.310  1.00  0.00    -0.237 OA
ATOM     49  O   UNL A   1      44.538  26.164  35.514  1.00  0.00    -0.237 OA
ATOM     50  O   UNL A   1      43.373  24.604  34.004  1.00  0.00    -0.744 OA
ENDBRANCH  46  47
ENDBRANCH  27  41
BRANCH  28  51
ATOM     51  C   UNL A   1      38.025  32.763  38.978  1.00  0.00    -0.014 A 
ATOM     52  C   UNL A   1      37.272  31.662  39.438  1.00  0.00     0.010 A 
ATOM     53  C   UNL A   1      38.835  33.432  39.917  1.00  0.00     0.010 A 
ATOM     54  C   UNL A   1      37.385  31.202  40.765  1.00  0.00     0.020 A 
ATOM     55  C   UNL A   1      38.949  32.983  41.240  1.00  0.00     0.020 A 
ATOM     56  C   UNL A   1      38.244  31.853  41.652  1.00  0.00     0.054 A 
BRANCH  56  57
ATOM     57  S   UNL A   1      38.543  31.141  43.301  1.00  0.00     0.124 S 
ATOM     58  O   UNL A   1      37.981  32.155  44.187  1.00  0.00    -0.237 OA
ATOM     59  O   UNL A   1      37.812  29.878  43.242  1.00  0.00    -0.237 OA
ATOM     60  O   UNL A   1      39.999  31.007  43.358  1.00  0.00    -0.744 OA
ENDBRANCH  56  57
ENDBRANCH  28  51
BRANCH  40  61
ATOM     61  C   UNL A   1      36.395  32.918  32.870  1.00  0.00    -0.014 A 
ATOM     62  C   UNL A   1      35.055  32.566  32.616  1.00  0.00     0.010 A 
ATOM     63  C   UNL A   1      36.720  34.283  32.969  1.00  0.00     0.010 A 
ATOM     64  C   UNL A   1      34.079  33.556  32.421  1.00  0.00     0.020 A 
ATOM     65  C   UNL A   1      35.751  35.272  32.799  1.00  0.00     0.020 A 
ATOM     66  C   UNL A   1      34.438  34.906  32.509  1.00  0.00     0.054 A 
BRANCH  66  67
ATOM     67  S   UNL A   1      33.178  36.187  32.265  1.00  0.00     0.124 S 
ATOM     68  O   UNL A   1      33.606  36.819  31.020  1.00  0.00    -0.237 OA
ATOM     69  O   UNL A   1      31.940  35.415  32.186  1.00  0.00    -0.237 OA
ATOM     70  O   UNL A   1      33.298  37.026  33.456  1.00  0.00    -0.744 OA
ENDBRANCH  66  67
ENDBRANCH  40  61
ENDBRANCH  14  15
ENDBRANCH   7   9
ENDBRANCH   4   5
ENDBRANCH   3   4
ENDBRANCH   2   3
ENDBRANCH   1   2
BRANCH   1  71
ATOM     71  C   UNL A   1      44.778  42.437  28.261  1.00  0.00     0.021 C 
BRANCH  71  72
ATOM     72  C   UNL A   1      44.382  41.468  27.148  1.00  0.00     0.116 C 
BRANCH  72  73
ATOM     73  N   UNL A   1      42.943  41.424  26.935  1.00  0.00    -0.352 N 
ATOM     74  C   UNL A   1      42.085  40.359  27.037  1.00  0.00     0.251 C 
ATOM     75  H   UNL A   1      42.527  42.279  26.681  1.00  0.00     0.163 HD
ATOM     76  O   UNL A   1      40.908  40.462  26.686  1.00  0.00    -0.269 OA
BRANCH  74  77
ATOM     77  C   UNL A   1      42.581  39.063  27.536  1.00  0.00     0.039 A 
ATOM     78  C   UNL A   1      42.777  38.905  28.911  1.00  0.00     0.016 A 
ATOM     79  C   UNL A   1      42.857  38.012  26.655  1.00  0.00     0.016 A 
ATOM     80  C   UNL A   1      43.178  37.668  29.420  1.00  0.00     0.029 A 
ATOM     81  C   UNL A   1      43.275  36.780  27.157  1.00  0.00     0.029 A 
ATOM     82  C   UNL A   1      43.435  36.606  28.542  1.00  0.00     0.066 A 
BRANCH  82  83
ATOM     83  N   UNL A   1      43.921  35.383  29.063  1.00  0.00    -0.220 N 
ATOM     84  C   UNL A   1      43.432  34.126  28.826  1.00  0.00     0.141 A 
ATOM     85  N   UNL A   1      45.007  35.292  29.867  1.00  0.00    -0.062 NA
ATOM     86  C   UNL A   1      44.329  33.265  29.415  1.00  0.00     0.093 A 
ATOM     87  N   UNL A   1      45.248  34.006  30.104  1.00  0.00    -0.134 NA
BRANCH  86  88
ATOM     88  C   UNL A   1      44.261  31.793  29.510  1.00  0.00     0.138 C 
BRANCH  88  89
ATOM     89  S   UNL A   1      44.510  30.730  28.083  1.00  0.00    -0.081 SA
BRANCH  89  90
ATOM     90  C   UNL A   1      43.407  29.378  28.030  1.00  0.00     0.176 A 
ATOM     91  N   UNL A   1      42.170  29.766  28.162  1.00  0.00    -0.223 NA
ATOM     92  N   UNL A   1      43.730  28.041  27.839  1.00  0.00    -0.255 N 
ATOM     93  C   UNL A   1      41.164  28.799  28.233  1.00  0.00     0.079 A 
ATOM     94  C   UNL A   1      42.903  27.141  28.531  1.00  0.00     0.266 A 
ATOM     95  C   UNL A   1      39.823  29.139  28.049  1.00  0.00     0.029 A 
ATOM     96  C   UNL A   1      41.478  27.499  28.597  1.00  0.00     0.066 A 
ATOM     97  O   UNL A   1      43.260  26.098  29.076  1.00  0.00    -0.268 OA
ATOM     98  C   UNL A   1      38.815  28.202  28.305  1.00  0.00     0.002 A 
ATOM     99  C   UNL A   1      40.483  26.567  28.915  1.00  0.00     0.016 A 
ATOM    100  C   UNL A   1      39.143  26.930  28.777  1.00  0.00     0.001 A 
BRANCH  92 101
ATOM    101  C   UNL A   1      44.800  27.496  27.022  1.00  0.00     0.051 A 
ATOM    102  C   UNL A   1      46.056  27.211  27.600  1.00  0.00     0.028 A 
ATOM    103  C   UNL A   1      44.681  27.172  25.666  1.00  0.00     0.028 A 
ATOM    104  C   UNL A   1      47.175  26.864  26.836  1.00  0.00     0.018 A 
ATOM    105  C   UNL A   1      45.807  26.899  24.873  1.00  0.00     0.018 A 
ATOM    106  C   UNL A   1      47.059  26.789  25.459  1.00  0.00     0.018 A 
ATOM    107  Br  UNL A   1      48.594  26.564  24.390  1.00  0.00    -0.051 Br
ENDBRANCH  92 101
ENDBRANCH  89  90
ENDBRANCH  88  89
ENDBRANCH  86  88
ENDBRANCH  82  83
ENDBRANCH  74  77
ENDBRANCH  72  73
ENDBRANCH  71  72
ENDBRANCH   1  71
TORSDOF 21
ENDMDL
MODEL 3
REMARK VINA RESULT:     -10.8      6.977     13.553
REMARK SMILES O=C(NCCCCCCNC(=O)c1ccc(-n2cc(CSc3nc4ccccc4c(=O)n3-c3ccc(Br)cc3)nn2)cc1)c1ccc(-c2c3nc(c(-c4ccc(S(=O)(=O)[O-])cc4)c4ccc([nH]4)c(-c4ccc(S(=O)(=O)[O-])cc4)c4nc(c(-c5ccc(S(=O)(=O)[O-])cc5)c5ccc2[nH]5)C=C4)C=C3)cc1
REMARK SMILES IDX 7 1 6 2 5 3 4 4 3 5 1 6 2 7 44 9 45 10 103 11 46 12 102 13
REMARK SMILES IDX 47 14 48 15 49 16 96 17 50 18 101 19 95 20 97 21 51 22
REMARK SMILES IDX 100 23 94 24 93 25 52 27 82 28 63 29 81 30 64 31 67 32 80 33
REMARK SMILES IDX 98 34 65 35 66 36 79 38 99 39 68 40 53 41 54 42 62 43 55 44
REMARK SMILES IDX 61 45 56 46 57 47 58 48 59 49 60 50 83 51 84 52 92 53 85 54
REMARK SMILES IDX 91 55 86 56 87 57 88 58 89 59 90 60 69 61 70 62 78 63 71 64
REMARK SMILES IDX 77 65 72 66 73 67 74 68 75 69 76 70 8 71 9 72 10 73 11 74
REMARK SMILES IDX 12 76 13 77 14 78 43 79 15 80 42 81 16 82 17 83 18 84 41 85
REMARK SMILES IDX 19 86 40 87 20 88 21 89 22 90 23 91 32 92 24 93 30 94 25 95
REMARK SMILES IDX 29 96 31 97 26 98 28 99 27 100 33 101 34 102 39 103 35 104
REMARK SMILES IDX 38 105 36 106 37 107
REMARK H PARENT 3 8 97 26 67 37 10 75
REMARK Flexibility Score: inf
ROOT
ATOM      1  C   UNL A   1      43.808  42.413  31.368  1.00  0.00     0.002 C 
ENDROOT
BRANCH   1   2
ATOM      2  C   UNL A   1      43.923  42.993  32.783  1.00  0.00     0.002 C 
BRANCH   2   3
ATOM      3  C   UNL A   1      42.995  42.394  33.848  1.00  0.00     0.021 C 
BRANCH   3   4
ATOM      4  C   UNL A   1      43.625  41.326  34.740  1.00  0.00     0.116 C 
BRANCH   4   5
ATOM      5  N   UNL A   1      44.756  40.646  34.146  1.00  0.00    -0.352 N 
ATOM      6  O   UNL A   1      46.068  39.256  33.059  1.00  0.00    -0.269 OA
ATOM      7  C   UNL A   1      44.994  39.392  33.656  1.00  0.00     0.251 C 
ATOM      8  H   UNL A   1      45.547  41.228  34.079  1.00  0.00     0.163 HD
BRANCH   7   9
ATOM      9  C   UNL A   1      44.121  38.195  33.832  1.00  0.00     0.039 A 
ATOM     10  C   UNL A   1      43.569  37.412  32.819  1.00  0.00     0.014 A 
ATOM     11  C   UNL A   1      43.815  37.858  35.170  1.00  0.00     0.014 A 
ATOM     12  C   UNL A   1      42.689  36.370  33.135  1.00  0.00     0.010 A 
ATOM     13  C   UNL A   1      42.936  36.825  35.489  1.00  0.00     0.010 A 
ATOM     14  C   UNL A   1      42.347  36.092  34.467  1.00  0.00    -0.014 A 
BRANCH  14  15
ATOM     15  C   UNL A   1      41.535  34.907  34.760  1.00  0.00     0.031 A 
ATOM     16  C   UNL A   1      42.003  33.678  34.064  1.00  0.00     0.074 A 
ATOM     17  C   UNL A   1      40.525  34.825  35.655  1.00  0.00     0.049 A 
ATOM     18  N   UNL A   1      41.441  33.084  33.063  1.00  0.00    -0.248 NA
ATOM     19  C   UNL A   1      43.314  33.120  34.429  1.00  0.00     0.031 C 
ATOM     20  C   UNL A   1      40.093  35.819  36.637  1.00  0.00     0.029 A 
ATOM     21  N   UNL A   1      39.704  33.763  35.921  1.00  0.00    -0.354 N 
ATOM     22  C   UNL A   1      42.208  31.953  32.804  1.00  0.00     0.074 A 
ATOM     23  C   UNL A   1      43.425  32.112  33.560  1.00  0.00     0.031 C 
ATOM     24  C   UNL A   1      39.246  35.241  37.524  1.00  0.00     0.029 A 
ATOM     25  C   UNL A   1      38.958  33.881  37.093  1.00  0.00     0.049 A 
ATOM     26  H   UNL A   1      39.643  32.977  35.332  1.00  0.00     0.167 HD
ATOM     27  C   UNL A   1      41.688  30.870  32.161  1.00  0.00     0.031 A 
ATOM     28  C   UNL A   1      38.183  32.925  37.676  1.00  0.00     0.031 A 
ATOM     29  C   UNL A   1      40.425  31.174  31.540  1.00  0.00     0.049 A 
ATOM     30  C   UNL A   1      37.832  31.939  36.627  1.00  0.00     0.074 A 
ATOM     31  C   UNL A   1      39.996  32.076  30.586  1.00  0.00     0.029 A 
ATOM     32  N   UNL A   1      39.293  30.744  32.191  1.00  0.00    -0.354 N 
ATOM     33  N   UNL A   1      37.048  32.210  35.624  1.00  0.00    -0.248 NA
ATOM     34  C   UNL A   1      38.696  30.785  36.454  1.00  0.00     0.031 C 
ATOM     35  C   UNL A   1      38.717  32.508  31.043  1.00  0.00     0.029 A 
ATOM     36  C   UNL A   1      38.406  31.788  32.198  1.00  0.00     0.049 A 
ATOM     37  H   UNL A   1      39.146  29.851  32.579  1.00  0.00     0.167 HD
ATOM     38  C   UNL A   1      37.629  31.566  34.543  1.00  0.00     0.074 A 
ATOM     39  C   UNL A   1      38.587  30.631  35.131  1.00  0.00     0.031 C 
ATOM     40  C   UNL A   1      37.474  32.044  33.274  1.00  0.00     0.031 A 
BRANCH  27  41
ATOM     41  C   UNL A   1      42.107  29.444  32.428  1.00  0.00    -0.014 A 
ATOM     42  C   UNL A   1      41.528  28.762  33.518  1.00  0.00     0.010 A 
ATOM     43  C   UNL A   1      43.244  28.857  31.837  1.00  0.00     0.010 A 
ATOM     44  C   UNL A   1      42.102  27.595  34.037  1.00  0.00     0.020 A 
ATOM     45  C   UNL A   1      43.799  27.669  32.320  1.00  0.00     0.020 A 
ATOM     46  C   UNL A   1      43.244  27.064  33.438  1.00  0.00     0.054 A 
BRANCH  46  47
ATOM     47  S   UNL A   1      44.027  25.606  34.170  1.00  0.00     0.124 S 
ATOM     48  O   UNL A   1      44.676  25.000  33.012  1.00  0.00    -0.237 OA
ATOM     49  O   UNL A   1      44.922  26.202  35.158  1.00  0.00    -0.237 OA
ATOM     50  O   UNL A   1      42.903  24.858  34.725  1.00  0.00    -0.744 OA
ENDBRANCH  46  47
ENDBRANCH  27  41
BRANCH  28  51
ATOM     51  C   UNL A   1      37.953  32.634  39.118  1.00  0.00    -0.014 A 
ATOM     52  C   UNL A   1      37.069  31.614  39.527  1.00  0.00     0.010 A 
ATOM     53  C   UNL A   1      38.845  33.144  40.082  1.00  0.00     0.010 A 
ATOM     54  C   UNL A   1      37.129  31.071  40.826  1.00  0.00     0.020 A 
ATOM     55  C   UNL A   1      38.908  32.612  41.377  1.00  0.00     0.020 A 
ATOM     56  C   UNL A   1      38.068  31.559  41.736  1.00  0.00     0.054 A 
BRANCH  56  57
ATOM     57  S   UNL A   1      38.284  30.727  43.342  1.00  0.00     0.124 S 
ATOM     58  O   UNL A   1      38.051  29.327  43.002  1.00  0.00    -0.237 OA
ATOM     59  O   UNL A   1      39.658  31.071  43.698  1.00  0.00    -0.237 OA
ATOM     60  O   UNL A   1      37.258  31.338  44.186  1.00  0.00    -0.744 OA
ENDBRANCH  56  57
ENDBRANCH  28  51
BRANCH  40  61
ATOM     61  C   UNL A   1      36.393  33.063  33.005  1.00  0.00    -0.014 A 
ATOM     62  C   UNL A   1      35.041  32.755  32.761  1.00  0.00     0.010 A 
ATOM     63  C   UNL A   1      36.760  34.416  33.119  1.00  0.00     0.010 A 
ATOM     64  C   UNL A   1      34.093  33.776  32.593  1.00  0.00     0.020 A 
ATOM     65  C   UNL A   1      35.819  35.436  32.974  1.00  0.00     0.020 A 
ATOM     66  C   UNL A   1      34.493  35.113  32.695  1.00  0.00     0.054 A 
BRANCH  66  67
ATOM     67  S   UNL A   1      33.269  36.435  32.484  1.00  0.00     0.124 S 
ATOM     68  O   UNL A   1      32.003  35.715  32.592  1.00  0.00    -0.237 OA
ATOM     69  O   UNL A   1      33.576  37.341  33.589  1.00  0.00    -0.237 OA
ATOM     70  O   UNL A   1      33.562  36.973  31.156  1.00  0.00    -0.744 OA
ENDBRANCH  66  67
ENDBRANCH  40  61
ENDBRANCH  14  15
ENDBRANCH   7   9
ENDBRANCH   4   5
ENDBRANCH   3   4
ENDBRANCH   2   3
ENDBRANCH   1   2
BRANCH   1  71
ATOM     71  C   UNL A   1      42.650  41.439  31.136  1.00  0.00     0.021 C 
BRANCH  71  72
ATOM     72  C   UNL A   1      42.819  40.500  29.942  1.00  0.00     0.116 C 
BRANCH  72  73
ATOM     73  N   UNL A   1      41.943  40.846  28.833  1.00  0.00    -0.352 N 
ATOM     74  C   UNL A   1      41.845  40.267  27.594  1.00  0.00     0.251 C 
ATOM     75  H   UNL A   1      41.334  41.602  28.995  1.00  0.00     0.163 HD
ATOM     76  O   UNL A   1      41.142  40.772  26.716  1.00  0.00    -0.269 OA
BRANCH  74  77
ATOM     77  C   UNL A   1      42.617  39.048  27.292  1.00  0.00     0.039 A 
ATOM     78  C   UNL A   1      43.979  39.171  27.002  1.00  0.00     0.016 A 
ATOM     79  C   UNL A   1      42.003  37.791  27.289  1.00  0.00     0.016 A 
ATOM     80  C   UNL A   1      44.751  38.029  26.782  1.00  0.00     0.029 A 
ATOM     81  C   UNL A   1      42.767  36.648  27.053  1.00  0.00     0.029 A 
ATOM     82  C   UNL A   1      44.144  36.766  26.799  1.00  0.00     0.066 A 
BRANCH  82  83
ATOM     83  N   UNL A   1      44.921  35.624  26.494  1.00  0.00    -0.220 N 
ATOM     84  C   UNL A   1      46.188  35.339  26.927  1.00  0.00     0.141 A 
ATOM     85  N   UNL A   1      44.472  34.598  25.730  1.00  0.00    -0.062 NA
ATOM     86  C   UNL A   1      46.444  34.055  26.500  1.00  0.00     0.093 A 
ATOM     87  N   UNL A   1      45.404  33.649  25.711  1.00  0.00    -0.134 NA
BRANCH  86  88
ATOM     88  C   UNL A   1      47.685  33.270  26.648  1.00  0.00     0.138 C 
BRANCH  88  89
ATOM     89  S   UNL A   1      47.761  31.781  27.651  1.00  0.00    -0.081 SA
BRANCH  89  90
ATOM     90  C   UNL A   1      46.204  31.284  28.264  1.00  0.00     0.176 A 
ATOM     91  N   UNL A   1      45.855  30.121  27.793  1.00  0.00    -0.223 NA
ATOM     92  N   UNL A   1      45.403  31.969  29.168  1.00  0.00    -0.255 N 
ATOM     93  C   UNL A   1      44.592  29.616  28.112  1.00  0.00     0.079 A 
ATOM     94  C   UNL A   1      44.024  31.813  28.952  1.00  0.00     0.266 A 
ATOM     95  C   UNL A   1      44.285  28.268  27.918  1.00  0.00     0.029 A 
ATOM     96  C   UNL A   1      43.587  30.475  28.527  1.00  0.00     0.066 A 
ATOM     97  O   UNL A   1      43.165  32.683  29.086  1.00  0.00    -0.268 OA
ATOM     98  C   UNL A   1      42.969  27.814  28.066  1.00  0.00     0.002 A 
ATOM     99  C   UNL A   1      42.256  30.053  28.622  1.00  0.00     0.016 A 
ATOM    100  C   UNL A   1      41.948  28.714  28.377  1.00  0.00     0.001 A 
BRANCH  92 101
ATOM    101  C   UNL A   1      45.831  32.803  30.277  1.00  0.00     0.051 A 
ATOM    102  C   UNL A   1      46.528  32.232  31.364  1.00  0.00     0.028 A 
ATOM    103  C   UNL A   1      45.647  34.189  30.349  1.00  0.00     0.028 A 
ATOM    104  C   UNL A   1      46.801  32.941  32.538  1.00  0.00     0.018 A 
ATOM    105  C   UNL A   1      45.844  34.896  31.546  1.00  0.00     0.018 A 
ATOM    106  C   UNL A   1      46.381  34.254  32.652  1.00  0.00     0.018 A 
ATOM    107  Br  UNL A   1      46.518  35.154  34.302  1.00  0.00    -0.051 Br
ENDBRANCH  92 101
ENDBRANCH  89  90
ENDBRANCH  88  89
ENDBRANCH  86  88
ENDBRANCH  82  83
ENDBRANCH  74  77
ENDBRANCH  72  73
ENDBRANCH  71  72
ENDBRANCH   1  71
TORSDOF 21
ENDMDL
