MODEL 1
REMARK VINA RESULT:     -10.2      0.000      0.000
REMARK SMILES CCOc1ccccc1NS(=O)(=O)c1ccc(C(=O)NCCCCCCNC(=O)c2ccc(-c3c4nc(c(-c5ccc(S(=O)(=O)[O-])cc5)c5ccc([nH]5)c(-c5ccc(S(=O)(=O)[O-])cc5)c5nc(c(-c6ccc(S(=O)(=O)[O-])cc6)c6ccc3[nH]6)C=C5)C=C4)cc2)cc1
REMARK SMILES IDX 22 1 21 2 20 3 18 4 19 5 17 7 14 8 15 9 91 10 16 11 90 12
REMARK SMILES IDX 11 13 12 14 13 15 10 16 9 18 4 19 5 20 6 21 8 22 7 23 3 24
REMARK SMILES IDX 2 25 1 26 23 27 24 28 25 29 26 30 27 31 28 32 29 34 30 35
REMARK SMILES IDX 31 36 89 37 32 38 88 39 33 40 34 41 35 42 82 43 36 44 87 45
REMARK SMILES IDX 81 46 83 47 37 48 86 49 80 50 79 51 38 53 68 54 49 55 67 56
REMARK SMILES IDX 50 57 53 58 66 59 84 60 51 61 52 62 65 64 85 65 54 66 39 67
REMARK SMILES IDX 40 68 48 69 41 70 47 71 42 72 43 73 44 74 45 75 46 76 69 77
REMARK SMILES IDX 70 78 78 79 71 80 77 81 72 82 73 83 74 84 75 85 76 86 55 87
REMARK SMILES IDX 56 88 64 89 57 90 63 91 58 92 59 93 60 94 61 95 62 96
REMARK H PARENT 20 6 10 17 27 33 83 52 53 63
REMARK Flexibility Score: inf
ROOT
ATOM      1  C   UNL A   1      33.575  27.372  25.563  1.00  0.00     0.021 C 
ENDROOT
BRANCH   1   2
ATOM      2  C   UNL A   1      32.183  27.861  25.968  1.00  0.00     0.116 C 
BRANCH   2   3
ATOM      3  N   UNL A   1      31.532  28.508  24.841  1.00  0.00    -0.352 N 
ATOM      4  C   UNL A   1      31.250  28.088  23.566  1.00  0.00     0.251 C 
ATOM      5  O   UNL A   1      30.677  28.871  22.809  1.00  0.00    -0.269 OA
ATOM      6  H   UNL A   1      31.235  29.428  25.030  1.00  0.00     0.163 HD
BRANCH   4   7
ATOM      7  C   UNL A   1      31.514  26.701  23.101  1.00  0.00     0.039 A 
ATOM      8  C   UNL A   1      32.097  24.018  22.643  1.00  0.00     0.087 A 
ATOM      9  C   UNL A   1      30.946  24.349  23.361  1.00  0.00     0.023 A 
ATOM     10  C   UNL A   1      32.878  25.005  22.039  1.00  0.00     0.023 A 
ATOM     11  C   UNL A   1      30.666  25.695  23.597  1.00  0.00     0.015 A 
ATOM     12  C   UNL A   1      32.563  26.350  22.246  1.00  0.00     0.015 A 
BRANCH   8  13
ATOM     13  S   UNL A   1      32.700  22.352  22.690  1.00  0.00     0.262 S 
ATOM     14  O   UNL A   1      34.119  22.392  22.959  1.00  0.00    -0.201 OA
ATOM     15  O   UNL A   1      32.173  21.683  21.518  1.00  0.00    -0.201 OA
BRANCH  13  16
ATOM     16  N   UNL A   1      31.906  21.686  24.025  1.00  0.00    -0.276 N 
ATOM     17  H   UNL A   1      31.084  21.159  23.895  1.00  0.00     0.180 HD
BRANCH  16  18
ATOM     18  C   UNL A   1      32.425  21.884  25.349  1.00  0.00     0.091 A 
ATOM     19  C   UNL A   1      33.378  20.985  25.844  1.00  0.00     0.143 A 
ATOM     20  C   UNL A   1      33.804  21.058  27.173  1.00  0.00     0.049 A 
ATOM     21  C   UNL A   1      33.311  22.064  28.003  1.00  0.00     0.004 A 
ATOM     22  C   UNL A   1      31.946  22.893  26.186  1.00  0.00     0.031 A 
ATOM     23  C   UNL A   1      32.391  22.987  27.507  1.00  0.00     0.002 A 
BRANCH  19  24
ATOM     24  O   UNL A   1      33.801  19.971  25.024  1.00  0.00    -0.492 OA
BRANCH  24  25
ATOM     25  C   UNL A   1      33.115  18.739  25.286  1.00  0.00     0.226 C 
ATOM     26  C   UNL A   1      32.563  18.210  23.975  1.00  0.00     0.049 C 
ENDBRANCH  24  25
ENDBRANCH  19  24
ENDBRANCH  16  18
ENDBRANCH  13  16
ENDBRANCH   8  13
ENDBRANCH   4   7
ENDBRANCH   2   3
ENDBRANCH   1   2
BRANCH   1  27
ATOM     27  C   UNL A   1      33.870  25.931  26.004  1.00  0.00     0.002 C 
BRANCH  27  28
ATOM     28  C   UNL A   1      34.734  25.120  25.032  1.00  0.00     0.002 C 
BRANCH  28  29
ATOM     29  C   UNL A   1      35.688  24.118  25.690  1.00  0.00     0.021 C 
BRANCH  29  30
ATOM     30  C   UNL A   1      36.926  23.777  24.865  1.00  0.00     0.116 C 
BRANCH  30  31
ATOM     31  N   UNL A   1      37.722  22.729  25.483  1.00  0.00    -0.352 N 
ATOM     32  C   UNL A   1      38.818  22.837  26.303  1.00  0.00     0.251 C 
ATOM     33  H   UNL A   1      37.434  21.808  25.285  1.00  0.00     0.163 HD
ATOM     34  O   UNL A   1      39.488  21.842  26.563  1.00  0.00    -0.269 OA
BRANCH  32  35
ATOM     35  C   UNL A   1      39.200  24.154  26.860  1.00  0.00     0.039 A 
ATOM     36  C   UNL A   1      38.773  24.493  28.146  1.00  0.00     0.014 A 
ATOM     37  C   UNL A   1      39.960  25.058  26.111  1.00  0.00     0.014 A 
ATOM     38  C   UNL A   1      39.153  25.717  28.703  1.00  0.00     0.010 A 
ATOM     39  C   UNL A   1      40.387  26.252  26.690  1.00  0.00     0.010 A 
ATOM     40  C   UNL A   1      39.987  26.594  27.990  1.00  0.00    -0.014 A 
BRANCH  40  41
ATOM     41  C   UNL A   1      40.457  27.866  28.596  1.00  0.00     0.031 A 
ATOM     42  C   UNL A   1      41.862  27.984  29.123  1.00  0.00     0.074 A 
ATOM     43  C   UNL A   1      39.599  28.896  28.728  1.00  0.00     0.049 A 
ATOM     44  N   UNL A   1      42.435  28.998  29.720  1.00  0.00    -0.248 NA
ATOM     45  C   UNL A   1      42.729  26.803  28.978  1.00  0.00     0.031 C 
ATOM     46  C   UNL A   1      38.198  28.891  28.298  1.00  0.00     0.029 A 
ATOM     47  N   UNL A   1      39.776  30.145  29.267  1.00  0.00    -0.354 N 
ATOM     48  C   UNL A   1      43.720  28.574  30.038  1.00  0.00     0.074 A 
ATOM     49  C   UNL A   1      43.828  27.198  29.606  1.00  0.00     0.031 C 
ATOM     50  C   UNL A   1      37.651  30.087  28.570  1.00  0.00     0.029 A 
ATOM     51  C   UNL A   1      38.648  30.931  29.221  1.00  0.00     0.049 A 
ATOM     52  H   UNL A   1      40.629  30.451  29.650  1.00  0.00     0.167 HD
ATOM     53  C   UNL A   1      44.724  29.272  30.621  1.00  0.00     0.031 A 
ATOM     54  C   UNL A   1      38.437  32.187  29.657  1.00  0.00     0.031 A 
ATOM     55  C   UNL A   1      44.618  30.644  31.041  1.00  0.00     0.049 A 
ATOM     56  C   UNL A   1      39.567  32.944  30.297  1.00  0.00     0.074 A 
ATOM     57  C   UNL A   1      45.597  31.456  31.589  1.00  0.00     0.029 A 
ATOM     58  N   UNL A   1      43.463  31.408  30.963  1.00  0.00    -0.354 N 
ATOM     59  N   UNL A   1      40.795  32.547  30.528  1.00  0.00    -0.248 NA
ATOM     60  C   UNL A   1      39.286  34.322  30.722  1.00  0.00     0.031 C 
ATOM     61  C   UNL A   1      45.022  32.697  31.881  1.00  0.00     0.029 A 
ATOM     62  C   UNL A   1      43.699  32.675  31.471  1.00  0.00     0.049 A 
ATOM     63  H   UNL A   1      42.603  31.096  30.600  1.00  0.00     0.167 HD
ATOM     64  C   UNL A   1      41.440  33.633  31.107  1.00  0.00     0.074 A 
ATOM     65  C   UNL A   1      40.471  34.708  31.177  1.00  0.00     0.031 C 
ATOM     66  C   UNL A   1      42.722  33.733  31.540  1.00  0.00     0.031 A 
BRANCH  53  67
ATOM     67  C   UNL A   1      46.028  28.553  30.846  1.00  0.00    -0.014 A 
ATOM     68  C   UNL A   1      46.259  27.820  32.025  1.00  0.00     0.010 A 
ATOM     69  C   UNL A   1      47.024  28.581  29.853  1.00  0.00     0.010 A 
ATOM     70  C   UNL A   1      47.480  27.172  32.228  1.00  0.00     0.020 A 
ATOM     71  C   UNL A   1      48.236  27.911  30.041  1.00  0.00     0.020 A 
ATOM     72  C   UNL A   1      48.464  27.227  31.238  1.00  0.00     0.054 A 
BRANCH  72  73
ATOM     73  S   UNL A   1      50.036  26.368  31.522  1.00  0.00     0.124 S 
ATOM     74  O   UNL A   1      49.768  25.053  30.945  1.00  0.00    -0.237 OA
ATOM     75  O   UNL A   1      50.992  27.194  30.788  1.00  0.00    -0.237 OA
ATOM     76  O   UNL A   1      50.185  26.392  32.976  1.00  0.00    -0.744 OA
ENDBRANCH  72  73
ENDBRANCH  53  67
BRANCH  54  77
ATOM     77  C   UNL A   1      37.099  32.814  29.480  1.00  0.00    -0.014 A 
ATOM     78  C   UNL A   1      36.203  32.895  30.560  1.00  0.00     0.010 A 
ATOM     79  C   UNL A   1      36.728  33.359  28.239  1.00  0.00     0.010 A 
ATOM     80  C   UNL A   1      34.953  33.501  30.399  1.00  0.00     0.020 A 
ATOM     81  C   UNL A   1      35.489  33.988  28.080  1.00  0.00     0.020 A 
ATOM     82  C   UNL A   1      34.607  34.048  29.160  1.00  0.00     0.054 A 
BRANCH  82  83
ATOM     83  S   UNL A   1      33.008  34.891  28.990  1.00  0.00     0.124 S 
ATOM     84  O   UNL A   1      33.411  36.216  28.529  1.00  0.00    -0.237 OA
ATOM     85  O   UNL A   1      32.314  34.062  28.009  1.00  0.00    -0.237 OA
ATOM     86  O   UNL A   1      32.453  34.838  30.341  1.00  0.00    -0.744 OA
ENDBRANCH  82  83
ENDBRANCH  54  77
BRANCH  66  87
ATOM     87  C   UNL A   1      43.158  35.056  32.107  1.00  0.00    -0.014 A 
ATOM     88  C   UNL A   1      43.751  36.036  31.292  1.00  0.00     0.010 A 
ATOM     89  C   UNL A   1      42.926  35.340  33.466  1.00  0.00     0.010 A 
ATOM     90  C   UNL A   1      44.133  37.266  31.833  1.00  0.00     0.020 A 
ATOM     91  C   UNL A   1      43.284  36.579  34.004  1.00  0.00     0.020 A 
ATOM     92  C   UNL A   1      43.900  37.529  33.186  1.00  0.00     0.054 A 
BRANCH  92  93
ATOM     93  S   UNL A   1      44.367  39.149  33.857  1.00  0.00     0.124 S 
ATOM     94  O   UNL A   1      43.085  39.849  33.876  1.00  0.00    -0.237 OA
ATOM     95  O   UNL A   1      44.916  38.809  35.167  1.00  0.00    -0.237 OA
ATOM     96  O   UNL A   1      45.340  39.655  32.892  1.00  0.00    -0.744 OA
ENDBRANCH  92  93
ENDBRANCH  66  87
ENDBRANCH  40  41
ENDBRANCH  32  35
ENDBRANCH  30  31
ENDBRANCH  29  30
ENDBRANCH  28  29
ENDBRANCH  27  28
ENDBRANCH   1  27
TORSDOF 21
ENDMDL
MODEL 2
REMARK VINA RESULT:      -9.9      4.158      6.418
REMARK SMILES CCOc1ccccc1NS(=O)(=O)c1ccc(C(=O)NCCCCCCNC(=O)c2ccc(-c3c4nc(c(-c5ccc(S(=O)(=O)[O-])cc5)c5ccc([nH]5)c(-c5ccc(S(=O)(=O)[O-])cc5)c5nc(c(-c6ccc(S(=O)(=O)[O-])cc6)c6ccc3[nH]6)C=C5)C=C4)cc2)cc1
REMARK SMILES IDX 22 1 21 2 20 3 18 4 19 5 17 7 14 8 15 9 91 10 16 11 90 12
REMARK SMILES IDX 11 13 12 14 13 15 10 16 9 18 4 19 5 20 6 21 8 22 7 23 3 24
REMARK SMILES IDX 2 25 1 26 23 27 24 28 25 29 26 30 27 31 28 32 29 34 30 35
REMARK SMILES IDX 31 36 89 37 32 38 88 39 33 40 34 41 35 42 82 43 36 44 87 45
REMARK SMILES IDX 81 46 83 47 37 48 86 49 80 50 79 51 38 53 68 54 49 55 67 56
REMARK SMILES IDX 50 57 53 58 66 59 84 60 51 61 52 62 65 64 85 65 54 66 39 67
REMARK SMILES IDX 40 68 48 69 41 70 47 71 42 72 43 73 44 74 45 75 46 76 69 77
REMARK SMILES IDX 70 78 78 79 71 80 77 81 72 82 73 83 74 84 75 85 76 86 55 87
REMARK SMILES IDX 56 88 64 89 57 90 63 91 58 92 59 93 60 94 61 95 62 96
REMARK H PARENT 20 6 10 17 27 33 83 52 53 63
REMARK Flexibility Score: inf
ROOT
ATOM      1  C   UNL A   1      39.709  23.572  27.458  1.00  0.00     0.021 C 
ENDROOT
BRANCH   1   2
ATOM      2  C   UNL A   1      38.704  23.920  26.357  1.00  0.00     0.116 C 
BRANCH   2   3
ATOM      3  N   UNL A   1      38.344  22.724  25.612  1.00  0.00    -0.352 N 
ATOM      4  C   UNL A   1      37.138  22.142  25.318  1.00  0.00     0.251 C 
ATOM      5  O   UNL A   1      37.138  21.106  24.654  1.00  0.00    -0.269 OA
ATOM      6  H   UNL A   1      39.119  22.238  25.247  1.00  0.00     0.163 HD
BRANCH   4   7
ATOM      7  C   UNL A   1      35.838  22.765  25.680  1.00  0.00     0.039 A 
ATOM      8  C   UNL A   1      33.225  23.627  26.107  1.00  0.00     0.087 A 
ATOM      9  C   UNL A   1      33.632  22.403  26.643  1.00  0.00     0.023 A 
ATOM     10  C   UNL A   1      34.139  24.480  25.485  1.00  0.00     0.023 A 
ATOM     11  C   UNL A   1      34.939  21.971  26.416  1.00  0.00     0.015 A 
ATOM     12  C   UNL A   1      35.456  24.055  25.301  1.00  0.00     0.015 A 
BRANCH   8  13
ATOM     13  S   UNL A   1      31.495  24.001  26.013  1.00  0.00     0.262 S 
ATOM     14  O   UNL A   1      30.876  23.592  27.252  1.00  0.00    -0.201 OA
ATOM     15  O   UNL A   1      31.029  23.502  24.735  1.00  0.00    -0.201 OA
BRANCH  13  16
ATOM     16  N   UNL A   1      31.464  25.688  25.915  1.00  0.00    -0.276 N 
ATOM     17  H   UNL A   1      32.002  26.225  26.541  1.00  0.00     0.180 HD
BRANCH  16  18
ATOM     18  C   UNL A   1      30.657  26.342  24.924  1.00  0.00     0.091 A 
ATOM     19  C   UNL A   1      31.230  27.356  24.146  1.00  0.00     0.143 A 
ATOM     20  C   UNL A   1      30.446  28.112  23.271  1.00  0.00     0.049 A 
ATOM     21  C   UNL A   1      29.088  27.824  23.134  1.00  0.00     0.004 A 
ATOM     22  C   UNL A   1      29.300  26.056  24.771  1.00  0.00     0.031 A 
ATOM     23  C   UNL A   1      28.518  26.790  23.875  1.00  0.00     0.002 A 
BRANCH  19  24
ATOM     24  O   UNL A   1      32.553  27.656  24.344  1.00  0.00    -0.492 OA
BRANCH  24  25
ATOM     25  C   UNL A   1      33.361  27.325  23.206  1.00  0.00     0.226 C 
ATOM     26  C   UNL A   1      34.048  28.589  22.721  1.00  0.00     0.049 C 
ENDBRANCH  24  25
ENDBRANCH  19  24
ENDBRANCH  16  18
ENDBRANCH  13  16
ENDBRANCH   8  13
ENDBRANCH   4   7
ENDBRANCH   2   3
ENDBRANCH   1   2
BRANCH   1  27
ATOM     27  C   UNL A   1      40.872  22.697  26.970  1.00  0.00     0.002 C 
BRANCH  27  28
ATOM     28  C   UNL A   1      41.400  21.689  27.997  1.00  0.00     0.002 C 
BRANCH  28  29
ATOM     29  C   UNL A   1      41.620  20.270  27.463  1.00  0.00     0.021 C 
BRANCH  29  30
ATOM     30  C   UNL A   1      41.503  20.131  25.947  1.00  0.00     0.116 C 
BRANCH  30  31
ATOM     31  N   UNL A   1      42.647  19.443  25.373  1.00  0.00    -0.352 N 
ATOM     32  C   UNL A   1      43.854  19.953  24.965  1.00  0.00     0.251 C 
ATOM     33  H   UNL A   1      42.540  18.470  25.260  1.00  0.00     0.163 HD
ATOM     34  O   UNL A   1      44.624  19.254  24.311  1.00  0.00    -0.269 OA
BRANCH  32  35
ATOM     35  C   UNL A   1      44.222  21.347  25.298  1.00  0.00     0.039 A 
ATOM     36  C   UNL A   1      43.925  22.361  24.384  1.00  0.00     0.014 A 
ATOM     37  C   UNL A   1      44.873  21.652  26.498  1.00  0.00     0.014 A 
ATOM     38  C   UNL A   1      44.231  23.688  24.696  1.00  0.00     0.010 A 
ATOM     39  C   UNL A   1      45.124  22.981  26.833  1.00  0.00     0.010 A 
ATOM     40  C   UNL A   1      44.807  24.012  25.935  1.00  0.00    -0.014 A 
BRANCH  40  41
ATOM     41  C   UNL A   1      45.074  25.424  26.310  1.00  0.00     0.031 A 
ATOM     42  C   UNL A   1      46.459  25.998  26.183  1.00  0.00     0.074 A 
ATOM     43  C   UNL A   1      44.078  26.173  26.824  1.00  0.00     0.049 A 
ATOM     44  N   UNL A   1      46.888  27.193  26.500  1.00  0.00    -0.248 NA
ATOM     45  C   UNL A   1      47.502  25.106  25.650  1.00  0.00     0.031 C 
ATOM     46  C   UNL A   1      42.702  25.719  27.040  1.00  0.00     0.029 A 
ATOM     47  N   UNL A   1      44.072  27.472  27.265  1.00  0.00    -0.354 N 
ATOM     48  C   UNL A   1      48.250  27.193  26.223  1.00  0.00     0.074 A 
ATOM     49  C   UNL A   1      48.584  25.866  25.752  1.00  0.00     0.031 C 
ATOM     50  C   UNL A   1      41.981  26.731  27.550  1.00  0.00     0.029 A 
ATOM     51  C   UNL A   1      42.847  27.892  27.729  1.00  0.00     0.049 A 
ATOM     52  H   UNL A   1      44.869  28.050  27.251  1.00  0.00     0.167 HD
ATOM     53  C   UNL A   1      49.139  28.209  26.334  1.00  0.00     0.031 A 
ATOM     54  C   UNL A   1      42.464  29.075  28.244  1.00  0.00     0.031 A 
ATOM     55  C   UNL A   1      48.803  29.531  26.792  1.00  0.00     0.049 A 
ATOM     56  C   UNL A   1      43.466  30.191  28.353  1.00  0.00     0.074 A 
ATOM     57  C   UNL A   1      49.620  30.644  26.884  1.00  0.00     0.029 A 
ATOM     58  N   UNL A   1      47.549  29.919  27.238  1.00  0.00    -0.354 N 
ATOM     59  N   UNL A   1      44.735  30.190  28.023  1.00  0.00    -0.248 NA
ATOM     60  C   UNL A   1      42.981  31.468  28.891  1.00  0.00     0.031 C 
ATOM     61  C   UNL A   1      48.871  31.694  27.426  1.00  0.00     0.029 A 
ATOM     62  C   UNL A   1      47.574  31.248  27.626  1.00  0.00     0.049 A 
ATOM     63  H   UNL A   1      46.756  29.335  27.274  1.00  0.00     0.167 HD
ATOM     64  C   UNL A   1      45.196  31.473  28.294  1.00  0.00     0.074 A 
ATOM     65  C   UNL A   1      44.066  32.225  28.801  1.00  0.00     0.031 C 
ATOM     66  C   UNL A   1      46.443  31.982  28.135  1.00  0.00     0.031 A 
BRANCH  53  67
ATOM     67  C   UNL A   1      50.569  27.923  25.957  1.00  0.00    -0.014 A 
ATOM     68  C   UNL A   1      51.028  28.130  24.643  1.00  0.00     0.010 A 
ATOM     69  C   UNL A   1      51.474  27.469  26.934  1.00  0.00     0.010 A 
ATOM     70  C   UNL A   1      52.352  27.843  24.303  1.00  0.00     0.020 A 
ATOM     71  C   UNL A   1      52.806  27.207  26.603  1.00  0.00     0.020 A 
ATOM     72  C   UNL A   1      53.232  27.377  25.283  1.00  0.00     0.054 A 
BRANCH  72  73
ATOM     73  S   UNL A   1      54.948  27.022  24.817  1.00  0.00     0.124 S 
ATOM     74  O   UNL A   1      54.911  25.575  24.619  1.00  0.00    -0.237 OA
ATOM     75  O   UNL A   1      55.124  27.817  23.604  1.00  0.00    -0.237 OA
ATOM     76  O   UNL A   1      55.722  27.473  25.971  1.00  0.00    -0.744 OA
ENDBRANCH  72  73
ENDBRANCH  53  67
BRANCH  54  77
ATOM     77  C   UNL A   1      41.053  29.269  28.677  1.00  0.00    -0.014 A 
ATOM     78  C   UNL A   1      40.723  29.286  30.043  1.00  0.00     0.010 A 
ATOM     79  C   UNL A   1      40.039  29.468  27.724  1.00  0.00     0.010 A 
ATOM     80  C   UNL A   1      39.401  29.487  30.449  1.00  0.00     0.020 A 
ATOM     81  C   UNL A   1      38.719  29.694  28.127  1.00  0.00     0.020 A 
ATOM     82  C   UNL A   1      38.408  29.694  29.488  1.00  0.00     0.054 A 
BRANCH  82  83
ATOM     83  S   UNL A   1      36.709  30.022  30.038  1.00  0.00     0.124 S 
ATOM     84  O   UNL A   1      35.922  29.433  28.960  1.00  0.00    -0.237 OA
ATOM     85  O   UNL A   1      36.651  29.325  31.320  1.00  0.00    -0.237 OA
ATOM     86  O   UNL A   1      36.659  31.480  30.130  1.00  0.00    -0.744 OA
ENDBRANCH  82  83
ENDBRANCH  54  77
BRANCH  66  87
ATOM     87  C   UNL A   1      46.647  33.429  28.491  1.00  0.00    -0.014 A 
ATOM     88  C   UNL A   1      47.065  33.809  29.779  1.00  0.00     0.010 A 
ATOM     89  C   UNL A   1      46.464  34.420  27.509  1.00  0.00     0.010 A 
ATOM     90  C   UNL A   1      47.268  35.156  30.086  1.00  0.00     0.020 A 
ATOM     91  C   UNL A   1      46.690  35.766  27.806  1.00  0.00     0.020 A 
ATOM     92  C   UNL A   1      47.076  36.127  29.098  1.00  0.00     0.054 A 
BRANCH  92  93
ATOM     93  S   UNL A   1      47.385  37.867  29.509  1.00  0.00     0.124 S 
ATOM     94  O   UNL A   1      46.143  38.505  29.078  1.00  0.00    -0.237 OA
ATOM     95  O   UNL A   1      47.600  37.824  30.953  1.00  0.00    -0.237 OA
ATOM     96  O   UNL A   1      48.566  38.205  28.718  1.00  0.00    -0.744 OA
ENDBRANCH  92  93
ENDBRANCH  66  87
ENDBRANCH  40  41
ENDBRANCH  32  35
ENDBRANCH  30  31
ENDBRANCH  29  30
ENDBRANCH  28  29
ENDBRANCH  27  28
ENDBRANCH   1  27
TORSDOF 21
ENDMDL
MODEL 3
REMARK VINA RESULT:      -9.6      1.949      2.709
REMARK SMILES CCOc1ccccc1NS(=O)(=O)c1ccc(C(=O)NCCCCCCNC(=O)c2ccc(-c3c4nc(c(-c5ccc(S(=O)(=O)[O-])cc5)c5ccc([nH]5)c(-c5ccc(S(=O)(=O)[O-])cc5)c5nc(c(-c6ccc(S(=O)(=O)[O-])cc6)c6ccc3[nH]6)C=C5)C=C4)cc2)cc1
REMARK SMILES IDX 22 1 21 2 20 3 18 4 19 5 17 7 14 8 15 9 91 10 16 11 90 12
REMARK SMILES IDX 11 13 12 14 13 15 10 16 9 18 4 19 5 20 6 21 8 22 7 23 3 24
REMARK SMILES IDX 2 25 1 26 23 27 24 28 25 29 26 30 27 31 28 32 29 34 30 35
REMARK SMILES IDX 31 36 89 37 32 38 88 39 33 40 34 41 35 42 82 43 36 44 87 45
REMARK SMILES IDX 81 46 83 47 37 48 86 49 80 50 79 51 38 53 68 54 49 55 67 56
REMARK SMILES IDX 50 57 53 58 66 59 84 60 51 61 52 62 65 64 85 65 54 66 39 67
REMARK SMILES IDX 40 68 48 69 41 70 47 71 42 72 43 73 44 74 45 75 46 76 69 77
REMARK SMILES IDX 70 78 78 79 71 80 77 81 72 82 73 83 74 84 75 85 76 86 55 87
REMARK SMILES IDX 56 88 64 89 57 90 63 91 58 92 59 93 60 94 61 95 62 96
REMARK H PARENT 20 6 10 17 27 33 83 52 53 63
REMARK Flexibility Score: inf
ROOT
ATOM      1  C   UNL A   1      33.514  27.835  25.679  1.00  0.00     0.021 C 
ENDROOT
BRANCH   1   2
ATOM      2  C   UNL A   1      32.043  28.046  26.046  1.00  0.00     0.116 C 
BRANCH   2   3
ATOM      3  N   UNL A   1      31.379  28.834  25.019  1.00  0.00    -0.352 N 
ATOM      4  C   UNL A   1      31.181  28.632  23.678  1.00  0.00     0.251 C 
ATOM      5  O   UNL A   1      30.571  29.491  23.043  1.00  0.00    -0.269 OA
ATOM      6  H   UNL A   1      30.997  29.678  25.354  1.00  0.00     0.163 HD
BRANCH   4   7
ATOM      7  C   UNL A   1      31.581  27.377  22.988  1.00  0.00     0.039 A 
ATOM      8  C   UNL A   1      32.379  24.865  22.091  1.00  0.00     0.087 A 
ATOM      9  C   UNL A   1      31.139  24.999  22.718  1.00  0.00     0.023 A 
ATOM     10  C   UNL A   1      33.156  25.984  21.786  1.00  0.00     0.023 A 
ATOM     11  C   UNL A   1      30.750  26.258  23.175  1.00  0.00     0.015 A 
ATOM     12  C   UNL A   1      32.736  27.246  22.211  1.00  0.00     0.015 A 
BRANCH   8  13
ATOM     13  S   UNL A   1      33.077  23.249  21.885  1.00  0.00     0.262 S 
ATOM     14  O   UNL A   1      34.172  23.108  22.817  1.00  0.00    -0.201 OA
ATOM     15  O   UNL A   1      33.267  23.053  20.463  1.00  0.00    -0.201 OA
BRANCH  13  16
ATOM     16  N   UNL A   1      31.822  22.218  22.353  1.00  0.00    -0.276 N 
ATOM     17  H   UNL A   1      30.899  22.409  22.070  1.00  0.00     0.180 HD
BRANCH  16  18
ATOM     18  C   UNL A   1      32.096  21.064  23.163  1.00  0.00     0.091 A 
ATOM     19  C   UNL A   1      32.192  21.220  24.552  1.00  0.00     0.143 A 
ATOM     20  C   UNL A   1      32.596  20.156  25.362  1.00  0.00     0.049 A 
ATOM     21  C   UNL A   1      32.859  18.911  24.789  1.00  0.00     0.004 A 
ATOM     22  C   UNL A   1      32.352  19.813  22.603  1.00  0.00     0.031 A 
ATOM     23  C   UNL A   1      32.727  18.738  23.412  1.00  0.00     0.002 A 
BRANCH  19  24
ATOM     24  O   UNL A   1      31.985  22.468  25.081  1.00  0.00    -0.492 OA
BRANCH  24  25
ATOM     25  C   UNL A   1      30.840  22.509  25.944  1.00  0.00     0.226 C 
ATOM     26  C   UNL A   1      30.608  23.948  26.366  1.00  0.00     0.049 C 
ENDBRANCH  24  25
ENDBRANCH  19  24
ENDBRANCH  16  18
ENDBRANCH  13  16
ENDBRANCH   8  13
ENDBRANCH   4   7
ENDBRANCH   2   3
ENDBRANCH   1   2
BRANCH   1  27
ATOM     27  C   UNL A   1      34.119  26.562  26.288  1.00  0.00     0.002 C 
BRANCH  27  28
ATOM     28  C   UNL A   1      34.011  25.310  25.410  1.00  0.00     0.002 C 
BRANCH  28  29
ATOM     29  C   UNL A   1      34.885  24.130  25.849  1.00  0.00     0.021 C 
BRANCH  29  30
ATOM     30  C   UNL A   1      36.352  24.234  25.439  1.00  0.00     0.116 C 
BRANCH  30  31
ATOM     31  N   UNL A   1      37.090  23.018  25.742  1.00  0.00    -0.352 N 
ATOM     32  C   UNL A   1      38.372  22.872  26.211  1.00  0.00     0.251 C 
ATOM     33  H   UNL A   1      36.599  22.179  25.587  1.00  0.00     0.163 HD
ATOM     34  O   UNL A   1      38.900  21.764  26.211  1.00  0.00    -0.269 OA
BRANCH  32  35
ATOM     35  C   UNL A   1      39.121  24.050  26.702  1.00  0.00     0.039 A 
ATOM     36  C   UNL A   1      39.878  24.795  25.795  1.00  0.00     0.014 A 
ATOM     37  C   UNL A   1      39.093  24.408  28.054  1.00  0.00     0.014 A 
ATOM     38  C   UNL A   1      40.564  25.931  26.232  1.00  0.00     0.010 A 
ATOM     39  C   UNL A   1      39.729  25.574  28.476  1.00  0.00     0.010 A 
ATOM     40  C   UNL A   1      40.471  26.345  27.571  1.00  0.00    -0.014 A 
BRANCH  40  41
ATOM     41  C   UNL A   1      41.136  27.590  28.035  1.00  0.00     0.031 A 
ATOM     42  C   UNL A   1      42.633  27.728  27.958  1.00  0.00     0.074 A 
ATOM     43  C   UNL A   1      40.396  28.573  28.584  1.00  0.00     0.049 A 
ATOM     44  N   UNL A   1      43.390  28.721  28.352  1.00  0.00    -0.248 NA
ATOM     45  C   UNL A   1      43.377  26.596  27.382  1.00  0.00     0.031 C 
ATOM     46  C   UNL A   1      38.942  28.541  28.757  1.00  0.00     0.029 A 
ATOM     47  N   UNL A   1      40.766  29.788  29.104  1.00  0.00    -0.354 N 
ATOM     48  C   UNL A   1      44.697  28.328  28.089  1.00  0.00     0.074 A 
ATOM     49  C   UNL A   1      44.633  26.990  27.541  1.00  0.00     0.031 C 
ATOM     50  C   UNL A   1      38.541  29.693  29.321  1.00  0.00     0.029 A 
ATOM     51  C   UNL A   1      39.709  30.529  29.580  1.00  0.00     0.049 A 
ATOM     52  H   UNL A   1      41.698  30.100  29.133  1.00  0.00     0.167 HD
ATOM     53  C   UNL A   1      45.845  29.024  28.271  1.00  0.00     0.031 A 
ATOM     54  C   UNL A   1      39.682  31.742  30.163  1.00  0.00     0.031 A 
ATOM     55  C   UNL A   1      45.906  30.358  28.806  1.00  0.00     0.049 A 
ATOM     56  C   UNL A   1      40.968  32.498  30.351  1.00  0.00     0.074 A 
ATOM     57  C   UNL A   1      47.016  31.168  28.975  1.00  0.00     0.029 A 
ATOM     58  N   UNL A   1      44.813  31.078  29.263  1.00  0.00    -0.354 N 
ATOM     59  N   UNL A   1      42.188  32.135  30.034  1.00  0.00    -0.248 NA
ATOM     60  C   UNL A   1      40.871  33.830  30.961  1.00  0.00     0.031 C 
ATOM     61  C   UNL A   1      46.599  32.362  29.573  1.00  0.00     0.029 A 
ATOM     62  C   UNL A   1      45.223  32.315  29.732  1.00  0.00     0.049 A 
ATOM     63  H   UNL A   1      43.882  30.758  29.254  1.00  0.00     0.167 HD
ATOM     64  C   UNL A   1      43.002  33.204  30.388  1.00  0.00     0.074 A 
ATOM     65  C   UNL A   1      42.135  34.231  30.929  1.00  0.00     0.031 C 
ATOM     66  C   UNL A   1      44.349  33.325  30.274  1.00  0.00     0.031 A 
BRANCH  53  67
ATOM     67  C   UNL A   1      47.134  28.343  27.892  1.00  0.00    -0.014 A 
ATOM     68  C   UNL A   1      47.828  27.537  28.813  1.00  0.00     0.010 A 
ATOM     69  C   UNL A   1      47.644  28.485  26.588  1.00  0.00     0.010 A 
ATOM     70  C   UNL A   1      49.032  26.926  28.454  1.00  0.00     0.020 A 
ATOM     71  C   UNL A   1      48.835  27.853  26.218  1.00  0.00     0.020 A 
ATOM     72  C   UNL A   1      49.532  27.093  27.160  1.00  0.00     0.054 A 
BRANCH  72  73
ATOM     73  S   UNL A   1      51.091  26.281  26.716  1.00  0.00     0.124 S 
ATOM     74  O   UNL A   1      51.006  25.035  27.474  1.00  0.00    -0.237 OA
ATOM     75  O   UNL A   1      50.982  26.142  25.266  1.00  0.00    -0.237 OA
ATOM     76  O   UNL A   1      52.113  27.220  27.173  1.00  0.00    -0.744 OA
ENDBRANCH  72  73
ENDBRANCH  53  67
BRANCH  54  77
ATOM     77  C   UNL A   1      38.382  32.325  30.592  1.00  0.00    -0.014 A 
ATOM     78  C   UNL A   1      37.899  32.107  31.894  1.00  0.00     0.010 A 
ATOM     79  C   UNL A   1      37.636  33.127  29.710  1.00  0.00     0.010 A 
ATOM     80  C   UNL A   1      36.687  32.670  32.303  1.00  0.00     0.020 A 
ATOM     81  C   UNL A   1      36.436  33.713  30.123  1.00  0.00     0.020 A 
ATOM     82  C   UNL A   1      35.965  33.474  31.415  1.00  0.00     0.054 A 
BRANCH  82  83
ATOM     83  S   UNL A   1      34.429  34.252  31.988  1.00  0.00     0.124 S 
ATOM     84  O   UNL A   1      33.751  34.548  30.730  1.00  0.00    -0.237 OA
ATOM     85  O   UNL A   1      33.824  33.201  32.802  1.00  0.00    -0.237 OA
ATOM     86  O   UNL A   1      34.898  35.416  32.737  1.00  0.00    -0.744 OA
ENDBRANCH  82  83
ENDBRANCH  54  77
BRANCH  66  87
ATOM     87  C   UNL A   1      44.966  34.622  30.720  1.00  0.00    -0.014 A 
ATOM     88  C   UNL A   1      45.101  35.705  29.835  1.00  0.00     0.010 A 
ATOM     89  C   UNL A   1      45.372  34.774  32.059  1.00  0.00     0.010 A 
ATOM     90  C   UNL A   1      45.659  36.909  30.273  1.00  0.00     0.020 A 
ATOM     91  C   UNL A   1      45.909  35.983  32.506  1.00  0.00     0.020 A 
ATOM     92  C   UNL A   1      46.063  37.039  31.605  1.00  0.00     0.054 A 
BRANCH  92  93
ATOM     93  S   UNL A   1      46.748  38.625  32.161  1.00  0.00     0.124 S 
ATOM     94  O   UNL A   1      47.576  38.216  33.293  1.00  0.00    -0.237 OA
ATOM     95  O   UNL A   1      47.477  39.091  30.985  1.00  0.00    -0.237 OA
ATOM     96  O   UNL A   1      45.565  39.411  32.505  1.00  0.00    -0.744 OA
ENDBRANCH  92  93
ENDBRANCH  66  87
ENDBRANCH  40  41
ENDBRANCH  32  35
ENDBRANCH  30  31
ENDBRANCH  29  30
ENDBRANCH  28  29
ENDBRANCH  27  28
ENDBRANCH   1  27
TORSDOF 21
ENDMDL
