MODEL 1
REMARK VINA RESULT:     -10.9      0.000      0.000
REMARK SMILES CCOC(=O)c1ccc(NC(=O)[C@H]2CC(C)=C(C)C[C@@H]2C(=O)NCCCCCCNC(=O)c2ccc(-c3c4nc(c(-c5ccc(S(=O)(=O)[O-])cc5)c5ccc([nH]5)c(-c5ccc(S(=O)(=O)[O-])cc5)c5nc(c(-c6ccc(S(=O)(=O)[O-])cc6)c6ccc3[nH]6)C=C5)C=C4)cc2)cc1
REMARK SMILES IDX 25 1 24 2 23 3 21 4 22 5 20 7 13 8 14 9 15 10 19 11 16 12
REMARK SMILES IDX 17 13 18 14 11 15 10 16 12 18 9 19 6 20 7 21 94 22 8 23
REMARK SMILES IDX 93 24 4 25 5 26 3 27 2 28 1 29 26 30 27 31 28 32 29 33 30 34
REMARK SMILES IDX 31 35 32 37 33 38 34 39 92 40 35 41 91 42 36 43 37 44 38 45
REMARK SMILES IDX 85 46 39 47 90 48 84 49 86 50 40 51 89 52 83 53 82 54 41 56
REMARK SMILES IDX 71 57 52 58 70 59 53 60 56 61 69 62 87 63 54 64 55 65 68 67
REMARK SMILES IDX 88 68 57 69 42 70 43 71 51 72 44 73 50 74 45 75 46 76 47 77
REMARK SMILES IDX 48 78 49 79 72 80 73 81 81 82 74 83 80 84 75 85 76 86 77 87
REMARK SMILES IDX 78 88 79 89 58 90 59 91 67 92 60 93 66 94 61 95 62 96 63 97
REMARK SMILES IDX 64 98 65 99
REMARK H PARENT 23 6 10 17 30 36 86 55 56 66
REMARK Flexibility Score: inf
ROOT
ATOM      1  C   UNL A   1      31.878  25.440  26.113  1.00  0.00     0.021 C 
ENDROOT
BRANCH   1   2
ATOM      2  C   UNL A   1      31.134  24.160  26.488  1.00  0.00     0.116 C 
BRANCH   2   3
ATOM      3  N   UNL A   1      31.886  23.397  27.463  1.00  0.00    -0.356 N 
ATOM      4  C   UNL A   1      32.936  22.556  27.299  1.00  0.00     0.224 C 
ATOM      5  O   UNL A   1      33.320  21.920  28.285  1.00  0.00    -0.275 OA
ATOM      6  H   UNL A   1      31.586  23.506  28.394  1.00  0.00     0.163 HD
BRANCH   4   7
ATOM      7  C   UNL A   1      33.628  22.423  25.949  1.00  0.00     0.095 C 
ATOM      8  C   UNL A   1      33.831  20.908  25.684  1.00  0.00     0.095 C 
ATOM      9  C   UNL A   1      35.156  20.560  24.989  1.00  0.00     0.045 C 
ATOM     10  C   UNL A   1      36.316  21.512  25.118  1.00  0.00    -0.074 C 
ATOM     11  C   UNL A   1      34.862  23.334  26.003  1.00  0.00     0.045 C 
ATOM     12  C   UNL A   1      37.644  20.902  24.740  1.00  0.00     0.039 C 
ATOM     13  C   UNL A   1      36.175  22.779  25.544  1.00  0.00    -0.074 C 
ATOM     14  C   UNL A   1      37.312  23.767  25.607  1.00  0.00     0.039 C 
BRANCH   8  15
ATOM     15  C   UNL A   1      32.639  20.378  24.862  1.00  0.00     0.228 C 
ATOM     16  N   UNL A   1      32.004  21.065  23.875  1.00  0.00    -0.326 N 
ATOM     17  H   UNL A   1      31.245  20.560  23.503  1.00  0.00     0.169 HD
ATOM     18  O   UNL A   1      32.145  19.266  25.090  1.00  0.00    -0.274 OA
BRANCH  16  19
ATOM     19  C   UNL A   1      32.160  22.309  23.256  1.00  0.00     0.041 A 
ATOM     20  C   UNL A   1      32.326  24.954  22.327  1.00  0.00     0.060 A 
ATOM     21  C   UNL A   1      33.421  24.094  22.218  1.00  0.00     0.018 A 
ATOM     22  C   UNL A   1      31.111  24.466  22.811  1.00  0.00     0.018 A 
ATOM     23  C   UNL A   1      33.328  22.772  22.665  1.00  0.00     0.027 A 
ATOM     24  C   UNL A   1      31.030  23.145  23.260  1.00  0.00     0.027 A 
BRANCH  20  25
ATOM     25  C   UNL A   1      32.497  26.364  21.922  1.00  0.00     0.338 C 
ATOM     26  O   UNL A   1      33.579  26.931  21.886  1.00  0.00    -0.246 OA
BRANCH  25  27
ATOM     27  O   UNL A   1      31.281  26.925  21.714  1.00  0.00    -0.462 OA
BRANCH  27  28
ATOM     28  C   UNL A   1      31.004  28.101  22.487  1.00  0.00     0.230 C 
ATOM     29  C   UNL A   1      29.707  27.955  23.263  1.00  0.00     0.049 C 
ENDBRANCH  27  28
ENDBRANCH  25  27
ENDBRANCH  20  25
ENDBRANCH  16  19
ENDBRANCH   8  15
ENDBRANCH   4   7
ENDBRANCH   2   3
ENDBRANCH   1   2
BRANCH   1  30
ATOM     30  C   UNL A   1      31.056  26.721  26.296  1.00  0.00     0.002 C 
BRANCH  30  31
ATOM     31  C   UNL A   1      31.881  28.005  26.435  1.00  0.00     0.002 C 
BRANCH  31  32
ATOM     32  C   UNL A   1      33.215  27.999  25.686  1.00  0.00     0.021 C 
BRANCH  32  33
ATOM     33  C   UNL A   1      34.311  28.830  26.341  1.00  0.00     0.116 C 
BRANCH  33  34
ATOM     34  N   UNL A   1      33.867  30.186  26.618  1.00  0.00    -0.352 N 
ATOM     35  C   UNL A   1      34.318  31.067  27.567  1.00  0.00     0.251 C 
ATOM     36  H   UNL A   1      33.139  30.518  26.044  1.00  0.00     0.163 HD
ATOM     37  O   UNL A   1      33.681  32.089  27.804  1.00  0.00    -0.269 OA
BRANCH  35  38
ATOM     38  C   UNL A   1      35.562  30.774  28.310  1.00  0.00     0.039 A 
ATOM     39  C   UNL A   1      35.568  29.722  29.229  1.00  0.00     0.014 A 
ATOM     40  C   UNL A   1      36.712  31.546  28.119  1.00  0.00     0.014 A 
ATOM     41  C   UNL A   1      36.739  29.420  29.926  1.00  0.00     0.010 A 
ATOM     42  C   UNL A   1      37.899  31.194  28.755  1.00  0.00     0.010 A 
ATOM     43  C   UNL A   1      37.920  30.140  29.680  1.00  0.00    -0.014 A 
BRANCH  43  44
ATOM     44  C   UNL A   1      39.176  29.815  30.402  1.00  0.00     0.031 A 
ATOM     45  C   UNL A   1      40.082  28.726  29.892  1.00  0.00     0.074 A 
ATOM     46  C   UNL A   1      39.485  30.476  31.535  1.00  0.00     0.049 A 
ATOM     47  N   UNL A   1      41.215  28.297  30.386  1.00  0.00    -0.248 NA
ATOM     48  C   UNL A   1      39.646  28.008  28.683  1.00  0.00     0.031 C 
ATOM     49  C   UNL A   1      38.669  31.524  32.153  1.00  0.00     0.029 A 
ATOM     50  N   UNL A   1      40.572  30.367  32.366  1.00  0.00    -0.354 N 
ATOM     51  C   UNL A   1      41.620  27.256  29.558  1.00  0.00     0.074 A 
ATOM     52  C   UNL A   1      40.582  27.079  28.566  1.00  0.00     0.031 C 
ATOM     53  C   UNL A   1      39.302  31.986  33.244  1.00  0.00     0.029 A 
ATOM     54  C   UNL A   1      40.547  31.246  33.424  1.00  0.00     0.049 A 
ATOM     55  H   UNL A   1      41.299  29.721  32.219  1.00  0.00     0.167 HD
ATOM     56  C   UNL A   1      42.761  26.527  29.603  1.00  0.00     0.031 A 
ATOM     57  C   UNL A   1      41.428  31.436  34.424  1.00  0.00     0.031 A 
ATOM     58  C   UNL A   1      43.793  26.711  30.588  1.00  0.00     0.049 A 
ATOM     59  C   UNL A   1      42.685  30.612  34.459  1.00  0.00     0.074 A 
ATOM     60  C   UNL A   1      45.009  26.058  30.694  1.00  0.00     0.029 A 
ATOM     61  N   UNL A   1      43.730  27.611  31.643  1.00  0.00    -0.354 N 
ATOM     62  N   UNL A   1      43.081  29.676  33.629  1.00  0.00    -0.248 NA
ATOM     63  C   UNL A   1      43.624  30.882  35.556  1.00  0.00     0.031 C 
ATOM     64  C   UNL A   1      45.658  26.527  31.841  1.00  0.00     0.029 A 
ATOM     65  C   UNL A   1      44.874  27.515  32.416  1.00  0.00     0.049 A 
ATOM     66  H   UNL A   1      42.981  28.226  31.816  1.00  0.00     0.167 HD
ATOM     67  C   UNL A   1      44.328  29.266  34.087  1.00  0.00     0.074 A 
ATOM     68  C   UNL A   1      44.626  30.066  35.258  1.00  0.00     0.031 C 
ATOM     69  C   UNL A   1      45.154  28.316  33.582  1.00  0.00     0.031 A 
BRANCH  56  70
ATOM     70  C   UNL A   1      42.943  25.459  28.555  1.00  0.00    -0.014 A 
ATOM     71  C   UNL A   1      43.617  25.728  27.350  1.00  0.00     0.010 A 
ATOM     72  C   UNL A   1      42.450  24.162  28.785  1.00  0.00     0.010 A 
ATOM     73  C   UNL A   1      43.748  24.737  26.373  1.00  0.00     0.020 A 
ATOM     74  C   UNL A   1      42.607  23.158  27.825  1.00  0.00     0.020 A 
ATOM     75  C   UNL A   1      43.236  23.460  26.615  1.00  0.00     0.054 A 
BRANCH  75  76
ATOM     76  S   UNL A   1      43.423  22.191  25.332  1.00  0.00     0.124 S 
ATOM     77  O   UNL A   1      42.281  21.321  25.602  1.00  0.00    -0.237 OA
ATOM     78  O   UNL A   1      43.341  22.967  24.098  1.00  0.00    -0.237 OA
ATOM     79  O   UNL A   1      44.731  21.605  25.611  1.00  0.00    -0.744 OA
ENDBRANCH  75  76
ENDBRANCH  56  70
BRANCH  57  80
ATOM     80  C   UNL A   1      41.163  32.476  35.456  1.00  0.00    -0.014 A 
ATOM     81  C   UNL A   1      41.558  33.809  35.243  1.00  0.00     0.010 A 
ATOM     82  C   UNL A   1      40.495  32.143  36.648  1.00  0.00     0.010 A 
ATOM     83  C   UNL A   1      41.302  34.786  36.209  1.00  0.00     0.020 A 
ATOM     84  C   UNL A   1      40.213  33.124  37.604  1.00  0.00     0.020 A 
ATOM     85  C   UNL A   1      40.627  34.439  37.383  1.00  0.00     0.054 A 
BRANCH  85  86
ATOM     86  S   UNL A   1      40.255  35.735  38.595  1.00  0.00     0.124 S 
ATOM     87  O   UNL A   1      41.332  35.564  39.564  1.00  0.00    -0.237 OA
ATOM     88  O   UNL A   1      40.316  36.950  37.786  1.00  0.00    -0.237 OA
ATOM     89  O   UNL A   1      38.919  35.382  39.073  1.00  0.00    -0.744 OA
ENDBRANCH  85  86
ENDBRANCH  57  80
BRANCH  69  90
ATOM     90  C   UNL A   1      46.479  28.114  34.271  1.00  0.00    -0.014 A 
ATOM     91  C   UNL A   1      46.633  27.167  35.299  1.00  0.00     0.010 A 
ATOM     92  C   UNL A   1      47.596  28.859  33.852  1.00  0.00     0.010 A 
ATOM     93  C   UNL A   1      47.873  26.998  35.922  1.00  0.00     0.020 A 
ATOM     94  C   UNL A   1      48.844  28.670  34.451  1.00  0.00     0.020 A 
ATOM     95  C   UNL A   1      48.971  27.752  35.495  1.00  0.00     0.054 A 
BRANCH  95  96
ATOM     96  S   UNL A   1      50.575  27.493  36.299  1.00  0.00     0.124 S 
ATOM     97  O   UNL A   1      51.275  28.737  35.990  1.00  0.00    -0.237 OA
ATOM     98  O   UNL A   1      50.206  27.311  37.701  1.00  0.00    -0.237 OA
ATOM     99  O   UNL A   1      51.104  26.300  35.641  1.00  0.00    -0.744 OA
ENDBRANCH  95  96
ENDBRANCH  69  90
ENDBRANCH  43  44
ENDBRANCH  35  38
ENDBRANCH  33  34
ENDBRANCH  32  33
ENDBRANCH  31  32
ENDBRANCH  30  31
ENDBRANCH   1  30
TORSDOF 21
ENDMDL
MODEL 2
REMARK VINA RESULT:     -10.9      1.311      8.454
REMARK SMILES CCOC(=O)c1ccc(NC(=O)[C@H]2CC(C)=C(C)C[C@@H]2C(=O)NCCCCCCNC(=O)c2ccc(-c3c4nc(c(-c5ccc(S(=O)(=O)[O-])cc5)c5ccc([nH]5)c(-c5ccc(S(=O)(=O)[O-])cc5)c5nc(c(-c6ccc(S(=O)(=O)[O-])cc6)c6ccc3[nH]6)C=C5)C=C4)cc2)cc1
REMARK SMILES IDX 25 1 24 2 23 3 21 4 22 5 20 7 13 8 14 9 15 10 19 11 16 12
REMARK SMILES IDX 17 13 18 14 11 15 10 16 12 18 9 19 6 20 7 21 94 22 8 23
REMARK SMILES IDX 93 24 4 25 5 26 3 27 2 28 1 29 26 30 27 31 28 32 29 33 30 34
REMARK SMILES IDX 31 35 32 37 33 38 34 39 92 40 35 41 91 42 36 43 37 44 38 45
REMARK SMILES IDX 85 46 39 47 90 48 84 49 86 50 40 51 89 52 83 53 82 54 41 56
REMARK SMILES IDX 71 57 52 58 70 59 53 60 56 61 69 62 87 63 54 64 55 65 68 67
REMARK SMILES IDX 88 68 57 69 42 70 43 71 51 72 44 73 50 74 45 75 46 76 47 77
REMARK SMILES IDX 48 78 49 79 72 80 73 81 81 82 74 83 80 84 75 85 76 86 77 87
REMARK SMILES IDX 78 88 79 89 58 90 59 91 67 92 60 93 66 94 61 95 62 96 63 97
REMARK SMILES IDX 64 98 65 99
REMARK H PARENT 23 6 10 17 30 36 86 55 56 66
REMARK Flexibility Score: inf
ROOT
ATOM      1  C   UNL A   1      30.902  26.735  26.394  1.00  0.00     0.021 C 
ENDROOT
BRANCH   1   2
ATOM      2  C   UNL A   1      31.680  25.421  26.382  1.00  0.00     0.116 C 
BRANCH   2   3
ATOM      3  N   UNL A   1      30.796  24.298  26.622  1.00  0.00    -0.356 N 
ATOM      4  C   UNL A   1      30.805  23.047  26.103  1.00  0.00     0.224 C 
ATOM      5  O   UNL A   1      29.855  22.307  26.373  1.00  0.00    -0.275 OA
ATOM      6  H   UNL A   1      30.073  24.473  27.266  1.00  0.00     0.163 HD
BRANCH   4   7
ATOM      7  C   UNL A   1      31.962  22.569  25.235  1.00  0.00     0.095 C 
ATOM      8  C   UNL A   1      31.520  22.718  23.756  1.00  0.00     0.095 C 
ATOM      9  C   UNL A   1      32.006  21.590  22.834  1.00  0.00     0.045 C 
ATOM     10  C   UNL A   1      32.339  20.251  23.438  1.00  0.00    -0.074 C 
ATOM     11  C   UNL A   1      32.345  21.176  25.754  1.00  0.00     0.045 C 
ATOM     12  C   UNL A   1      32.425  19.135  22.426  1.00  0.00     0.039 C 
ATOM     13  C   UNL A   1      32.527  20.073  24.757  1.00  0.00    -0.074 C 
ATOM     14  C   UNL A   1      32.935  18.757  25.369  1.00  0.00     0.039 C 
BRANCH   8  15
ATOM     15  C   UNL A   1      31.996  24.086  23.226  1.00  0.00     0.228 C 
ATOM     16  N   UNL A   1      33.272  24.550  23.295  1.00  0.00    -0.326 N 
ATOM     17  H   UNL A   1      33.353  25.462  22.932  1.00  0.00     0.169 HD
ATOM     18  O   UNL A   1      31.200  24.891  22.722  1.00  0.00    -0.274 OA
BRANCH  16  19
ATOM     19  C   UNL A   1      34.497  24.055  23.752  1.00  0.00     0.041 A 
ATOM     20  C   UNL A   1      36.777  22.976  24.986  1.00  0.00     0.060 A 
ATOM     21  C   UNL A   1      36.437  22.610  23.682  1.00  0.00     0.018 A 
ATOM     22  C   UNL A   1      36.034  23.958  25.643  1.00  0.00     0.018 A 
ATOM     23  C   UNL A   1      35.312  23.164  23.064  1.00  0.00     0.027 A 
ATOM     24  C   UNL A   1      34.907  24.502  25.019  1.00  0.00     0.027 A 
BRANCH  20  25
ATOM     25  C   UNL A   1      37.923  22.301  25.629  1.00  0.00     0.338 C 
ATOM     26  O   UNL A   1      38.299  21.177  25.332  1.00  0.00    -0.246 OA
BRANCH  25  27
ATOM     27  O   UNL A   1      38.392  23.072  26.640  1.00  0.00    -0.462 OA
BRANCH  27  28
ATOM     28  C   UNL A   1      39.815  23.254  26.667  1.00  0.00     0.230 C 
ATOM     29  C   UNL A   1      40.198  24.654  26.220  1.00  0.00     0.049 C 
ENDBRANCH  27  28
ENDBRANCH  25  27
ENDBRANCH  20  25
ENDBRANCH  16  19
ENDBRANCH   8  15
ENDBRANCH   4   7
ENDBRANCH   2   3
ENDBRANCH   1   2
BRANCH   1  30
ATOM     30  C   UNL A   1      31.525  27.842  25.536  1.00  0.00     0.002 C 
BRANCH  30  31
ATOM     31  C   UNL A   1      32.905  27.514  24.957  1.00  0.00     0.002 C 
BRANCH  31  32
ATOM     32  C   UNL A   1      34.048  28.387  25.477  1.00  0.00     0.021 C 
BRANCH  32  33
ATOM     33  C   UNL A   1      33.886  28.844  26.921  1.00  0.00     0.116 C 
BRANCH  33  34
ATOM     34  N   UNL A   1      33.737  30.286  27.018  1.00  0.00    -0.352 N 
ATOM     35  C   UNL A   1      34.460  31.183  27.761  1.00  0.00     0.251 C 
ATOM     36  H   UNL A   1      33.015  30.674  26.472  1.00  0.00     0.163 HD
ATOM     37  O   UNL A   1      34.057  32.335  27.891  1.00  0.00    -0.269 OA
BRANCH  35  38
ATOM     38  C   UNL A   1      35.715  30.754  28.415  1.00  0.00     0.039 A 
ATOM     39  C   UNL A   1      36.897  31.439  28.121  1.00  0.00     0.014 A 
ATOM     40  C   UNL A   1      35.731  29.670  29.298  1.00  0.00     0.014 A 
ATOM     41  C   UNL A   1      38.087  31.059  28.743  1.00  0.00     0.010 A 
ATOM     42  C   UNL A   1      36.903  29.344  29.976  1.00  0.00     0.010 A 
ATOM     43  C   UNL A   1      38.097  30.023  29.692  1.00  0.00    -0.014 A 
BRANCH  43  44
ATOM     44  C   UNL A   1      39.354  29.624  30.374  1.00  0.00     0.031 A 
ATOM     45  C   UNL A   1      39.781  30.318  31.639  1.00  0.00     0.074 A 
ATOM     46  C   UNL A   1      40.128  28.661  29.836  1.00  0.00     0.049 A 
ATOM     47  N   UNL A   1      40.845  30.113  32.374  1.00  0.00    -0.248 NA
ATOM     48  C   UNL A   1      38.914  31.402  32.131  1.00  0.00     0.031 C 
ATOM     49  C   UNL A   1      39.843  27.941  28.592  1.00  0.00     0.029 A 
ATOM     50  N   UNL A   1      41.311  28.118  30.271  1.00  0.00    -0.354 N 
ATOM     51  C   UNL A   1      40.780  31.045  33.403  1.00  0.00     0.074 A 
ATOM     52  C   UNL A   1      39.606  31.855  33.165  1.00  0.00     0.031 C 
ATOM     53  C   UNL A   1      40.805  27.027  28.385  1.00  0.00     0.029 A 
ATOM     54  C   UNL A   1      41.791  27.119  29.457  1.00  0.00     0.049 A 
ATOM     55  H   UNL A   1      41.772  28.416  31.088  1.00  0.00     0.167 HD
ATOM     56  C   UNL A   1      41.608  31.200  34.464  1.00  0.00     0.031 A 
ATOM     57  C   UNL A   1      42.899  26.361  29.562  1.00  0.00     0.031 A 
ATOM     58  C   UNL A   1      42.772  30.388  34.700  1.00  0.00     0.049 A 
ATOM     59  C   UNL A   1      43.809  26.554  30.744  1.00  0.00     0.074 A 
ATOM     60  C   UNL A   1      43.650  30.432  35.769  1.00  0.00     0.029 A 
ATOM     61  N   UNL A   1      43.224  29.387  33.852  1.00  0.00    -0.354 N 
ATOM     62  N   UNL A   1      43.695  27.398  31.742  1.00  0.00    -0.248 NA
ATOM     63  C   UNL A   1      44.987  25.680  30.823  1.00  0.00     0.031 C 
ATOM     64  C   UNL A   1      44.662  29.493  35.541  1.00  0.00     0.029 A 
ATOM     65  C   UNL A   1      44.381  28.822  34.361  1.00  0.00     0.049 A 
ATOM     66  H   UNL A   1      42.788  29.120  33.011  1.00  0.00     0.167 HD
ATOM     67  C   UNL A   1      44.772  27.136  32.583  1.00  0.00     0.074 A 
ATOM     68  C   UNL A   1      45.514  26.046  31.983  1.00  0.00     0.031 C 
ATOM     69  C   UNL A   1      45.112  27.740  33.749  1.00  0.00     0.031 A 
BRANCH  56  70
ATOM     70  C   UNL A   1      41.282  32.298  35.444  1.00  0.00    -0.014 A 
ATOM     71  C   UNL A   1      40.520  32.042  36.599  1.00  0.00     0.010 A 
ATOM     72  C   UNL A   1      41.758  33.603  35.218  1.00  0.00     0.010 A 
ATOM     73  C   UNL A   1      40.195  33.076  37.480  1.00  0.00     0.020 A 
ATOM     74  C   UNL A   1      41.464  34.634  36.114  1.00  0.00     0.020 A 
ATOM     75  C   UNL A   1      40.665  34.368  37.228  1.00  0.00     0.054 A 
BRANCH  75  76
ATOM     76  S   UNL A   1      40.233  35.692  38.390  1.00  0.00     0.124 S 
ATOM     77  O   UNL A   1      41.415  35.736  39.248  1.00  0.00    -0.237 OA
ATOM     78  O   UNL A   1      40.054  36.845  37.512  1.00  0.00    -0.237 OA
ATOM     79  O   UNL A   1      39.016  35.207  39.034  1.00  0.00    -0.744 OA
ENDBRANCH  75  76
ENDBRANCH  56  70
BRANCH  57  80
ATOM     80  C   UNL A   1      43.189  25.326  28.531  1.00  0.00    -0.014 A 
ATOM     81  C   UNL A   1      42.897  23.972  28.778  1.00  0.00     0.010 A 
ATOM     82  C   UNL A   1      43.738  25.691  27.289  1.00  0.00     0.010 A 
ATOM     83  C   UNL A   1      43.162  23.003  27.807  1.00  0.00     0.020 A 
ATOM     84  C   UNL A   1      43.978  24.728  26.306  1.00  0.00     0.020 A 
ATOM     85  C   UNL A   1      43.698  23.386  26.575  1.00  0.00     0.054 A 
BRANCH  85  86
ATOM     86  S   UNL A   1      43.978  22.118  25.309  1.00  0.00     0.124 S 
ATOM     87  O   UNL A   1      43.914  22.897  24.077  1.00  0.00    -0.237 OA
ATOM     88  O   UNL A   1      45.298  21.603  25.666  1.00  0.00    -0.237 OA
ATOM     89  O   UNL A   1      42.876  21.180  25.516  1.00  0.00    -0.744 OA
ENDBRANCH  85  86
ENDBRANCH  57  80
BRANCH  69  90
ATOM     90  C   UNL A   1      46.322  27.212  34.474  1.00  0.00    -0.014 A 
ATOM     91  C   UNL A   1      47.593  27.785  34.294  1.00  0.00     0.010 A 
ATOM     92  C   UNL A   1      46.173  26.147  35.382  1.00  0.00     0.010 A 
ATOM     93  C   UNL A   1      48.700  27.277  34.979  1.00  0.00     0.020 A 
ATOM     94  C   UNL A   1      47.272  25.657  36.092  1.00  0.00     0.020 A 
ATOM     95  C   UNL A   1      48.533  26.214  35.873  1.00  0.00     0.054 A 
BRANCH  95  96
ATOM     96  S   UNL A   1      49.979  25.593  36.773  1.00  0.00     0.124 S 
ATOM     97  O   UNL A   1      49.360  24.833  37.856  1.00  0.00    -0.237 OA
ATOM     98  O   UNL A   1      50.668  24.796  35.761  1.00  0.00    -0.237 OA
ATOM     99  O   UNL A   1      50.681  26.807  37.184  1.00  0.00    -0.744 OA
ENDBRANCH  95  96
ENDBRANCH  69  90
ENDBRANCH  43  44
ENDBRANCH  35  38
ENDBRANCH  33  34
ENDBRANCH  32  33
ENDBRANCH  31  32
ENDBRANCH  30  31
ENDBRANCH   1  30
TORSDOF 21
ENDMDL
MODEL 3
REMARK VINA RESULT:     -10.4      0.881      7.906
REMARK SMILES CCOC(=O)c1ccc(NC(=O)[C@H]2CC(C)=C(C)C[C@@H]2C(=O)NCCCCCCNC(=O)c2ccc(-c3c4nc(c(-c5ccc(S(=O)(=O)[O-])cc5)c5ccc([nH]5)c(-c5ccc(S(=O)(=O)[O-])cc5)c5nc(c(-c6ccc(S(=O)(=O)[O-])cc6)c6ccc3[nH]6)C=C5)C=C4)cc2)cc1
REMARK SMILES IDX 25 1 24 2 23 3 21 4 22 5 20 7 13 8 14 9 15 10 19 11 16 12
REMARK SMILES IDX 17 13 18 14 11 15 10 16 12 18 9 19 6 20 7 21 94 22 8 23
REMARK SMILES IDX 93 24 4 25 5 26 3 27 2 28 1 29 26 30 27 31 28 32 29 33 30 34
REMARK SMILES IDX 31 35 32 37 33 38 34 39 92 40 35 41 91 42 36 43 37 44 38 45
REMARK SMILES IDX 85 46 39 47 90 48 84 49 86 50 40 51 89 52 83 53 82 54 41 56
REMARK SMILES IDX 71 57 52 58 70 59 53 60 56 61 69 62 87 63 54 64 55 65 68 67
REMARK SMILES IDX 88 68 57 69 42 70 43 71 51 72 44 73 50 74 45 75 46 76 47 77
REMARK SMILES IDX 48 78 49 79 72 80 73 81 81 82 74 83 80 84 75 85 76 86 77 87
REMARK SMILES IDX 78 88 79 89 58 90 59 91 67 92 60 93 66 94 61 95 62 96 63 97
REMARK SMILES IDX 64 98 65 99
REMARK H PARENT 23 6 10 17 30 36 86 55 56 66
REMARK Flexibility Score: inf
ROOT
ATOM      1  C   UNL A   1      32.039  25.658  26.281  1.00  0.00     0.021 C 
ENDROOT
BRANCH   1   2
ATOM      2  C   UNL A   1      31.271  24.354  26.479  1.00  0.00     0.116 C 
BRANCH   2   3
ATOM      3  N   UNL A   1      31.920  23.521  27.471  1.00  0.00    -0.356 N 
ATOM      4  C   UNL A   1      32.896  22.592  27.334  1.00  0.00     0.224 C 
ATOM      5  O   UNL A   1      33.190  21.919  28.326  1.00  0.00    -0.275 OA
ATOM      6  H   UNL A   1      31.600  23.652  28.393  1.00  0.00     0.163 HD
BRANCH   4   7
ATOM      7  C   UNL A   1      33.618  22.406  26.006  1.00  0.00     0.095 C 
ATOM      8  C   UNL A   1      33.772  20.880  25.776  1.00  0.00     0.095 C 
ATOM      9  C   UNL A   1      35.100  20.470  25.124  1.00  0.00     0.045 C 
ATOM     10  C   UNL A   1      36.292  21.381  25.266  1.00  0.00    -0.074 C 
ATOM     11  C   UNL A   1      34.884  23.273  26.076  1.00  0.00     0.045 C 
ATOM     12  C   UNL A   1      37.605  20.715  24.935  1.00  0.00     0.039 C 
ATOM     13  C   UNL A   1      36.187  22.661  25.663  1.00  0.00    -0.074 C 
ATOM     14  C   UNL A   1      37.358  23.607  25.738  1.00  0.00     0.039 C 
BRANCH   8  15
ATOM     15  C   UNL A   1      32.582  20.378  24.932  1.00  0.00     0.228 C 
ATOM     16  N   UNL A   1      31.960  21.092  23.957  1.00  0.00    -0.326 N 
ATOM     17  H   UNL A   1      31.201  20.601  23.567  1.00  0.00     0.169 HD
ATOM     18  O   UNL A   1      32.079  19.264  25.131  1.00  0.00    -0.274 OA
BRANCH  16  19
ATOM     19  C   UNL A   1      32.129  22.349  23.368  1.00  0.00     0.041 A 
ATOM     20  C   UNL A   1      32.566  24.687  21.875  1.00  0.00     0.060 A 
ATOM     21  C   UNL A   1      31.404  24.538  22.634  1.00  0.00     0.018 A 
ATOM     22  C   UNL A   1      33.560  23.709  21.936  1.00  0.00     0.018 A 
ATOM     23  C   UNL A   1      31.199  23.381  23.392  1.00  0.00     0.027 A 
ATOM     24  C   UNL A   1      33.344  22.553  22.691  1.00  0.00     0.027 A 
BRANCH  20  25
ATOM     25  C   UNL A   1      32.699  25.887  21.023  1.00  0.00     0.338 C 
ATOM     26  O   UNL A   1      33.011  25.848  19.842  1.00  0.00    -0.246 OA
BRANCH  25  27
ATOM     27  O   UNL A   1      32.531  26.998  21.781  1.00  0.00    -0.462 OA
BRANCH  27  28
ATOM     28  C   UNL A   1      33.726  27.522  22.379  1.00  0.00     0.230 C 
ATOM     29  C   UNL A   1      33.508  28.935  22.893  1.00  0.00     0.049 C 
ENDBRANCH  27  28
ENDBRANCH  25  27
ENDBRANCH  20  25
ENDBRANCH  16  19
ENDBRANCH   8  15
ENDBRANCH   4   7
ENDBRANCH   2   3
ENDBRANCH   1   2
BRANCH   1  30
ATOM     30  C   UNL A   1      31.265  26.914  26.699  1.00  0.00     0.002 C 
BRANCH  30  31
ATOM     31  C   UNL A   1      31.867  28.237  26.215  1.00  0.00     0.002 C 
BRANCH  31  32
ATOM     32  C   UNL A   1      32.361  29.166  27.326  1.00  0.00     0.021 C 
BRANCH  32  33
ATOM     33  C   UNL A   1      33.674  29.874  27.019  1.00  0.00     0.116 C 
BRANCH  33  34
ATOM     34  N   UNL A   1      33.577  31.308  27.234  1.00  0.00    -0.352 N 
ATOM     35  C   UNL A   1      34.331  32.113  28.048  1.00  0.00     0.251 C 
ATOM     36  H   UNL A   1      32.871  31.765  26.723  1.00  0.00     0.163 HD
ATOM     37  O   UNL A   1      33.970  33.265  28.273  1.00  0.00    -0.269 OA
BRANCH  35  38
ATOM     38  C   UNL A   1      35.568  31.587  28.664  1.00  0.00     0.039 A 
ATOM     39  C   UNL A   1      36.785  32.208  28.371  1.00  0.00     0.014 A 
ATOM     40  C   UNL A   1      35.532  30.475  29.510  1.00  0.00     0.014 A 
ATOM     41  C   UNL A   1      37.960  31.735  28.957  1.00  0.00     0.010 A 
ATOM     42  C   UNL A   1      36.693  30.055  30.155  1.00  0.00     0.010 A 
ATOM     43  C   UNL A   1      37.921  30.668  29.871  1.00  0.00    -0.014 A 
BRANCH  43  44
ATOM     44  C   UNL A   1      39.163  30.170  30.515  1.00  0.00     0.031 A 
ATOM     45  C   UNL A   1      39.678  30.823  31.770  1.00  0.00     0.074 A 
ATOM     46  C   UNL A   1      39.845  29.153  29.953  1.00  0.00     0.049 A 
ATOM     47  N   UNL A   1      40.743  30.534  32.473  1.00  0.00    -0.248 NA
ATOM     48  C   UNL A   1      38.912  31.968  32.289  1.00  0.00     0.031 C 
ATOM     49  C   UNL A   1      39.470  28.463  28.716  1.00  0.00     0.029 A 
ATOM     50  N   UNL A   1      40.994  28.518  30.352  1.00  0.00    -0.354 N 
ATOM     51  C   UNL A   1      40.780  31.463  33.506  1.00  0.00     0.074 A 
ATOM     52  C   UNL A   1      39.665  32.362  33.304  1.00  0.00     0.031 C 
ATOM     53  C   UNL A   1      40.352  27.479  28.479  1.00  0.00     0.029 A 
ATOM     54  C   UNL A   1      41.372  27.490  29.522  1.00  0.00     0.049 A 
ATOM     55  H   UNL A   1      41.500  28.776  31.156  1.00  0.00     0.167 HD
ATOM     56  C   UNL A   1      41.647  31.549  34.543  1.00  0.00     0.031 A 
ATOM     57  C   UNL A   1      42.421  26.647  29.594  1.00  0.00     0.031 A 
ATOM     58  C   UNL A   1      42.751  30.648  34.743  1.00  0.00     0.049 A 
ATOM     59  C   UNL A   1      43.376  26.765  30.749  1.00  0.00     0.074 A 
ATOM     60  C   UNL A   1      43.660  30.619  35.787  1.00  0.00     0.029 A 
ATOM     61  N   UNL A   1      43.101  29.619  33.880  1.00  0.00    -0.354 N 
ATOM     62  N   UNL A   1      43.357  27.610  31.753  1.00  0.00    -0.248 NA
ATOM     63  C   UNL A   1      44.485  25.802  30.792  1.00  0.00     0.031 C 
ATOM     64  C   UNL A   1      44.590  29.606  35.528  1.00  0.00     0.029 A 
ATOM     65  C   UNL A   1      44.224  28.964  34.355  1.00  0.00     0.049 A 
ATOM     66  H   UNL A   1      42.621  29.391  33.052  1.00  0.00     0.167 HD
ATOM     67  C   UNL A   1      44.433  27.261  32.562  1.00  0.00     0.074 A 
ATOM     68  C   UNL A   1      45.072  26.121  31.938  1.00  0.00     0.031 C 
ATOM     69  C   UNL A   1      44.852  27.832  33.719  1.00  0.00     0.031 A 
BRANCH  56  70
ATOM     70  C   UNL A   1      41.434  32.663  35.535  1.00  0.00    -0.014 A 
ATOM     71  C   UNL A   1      42.075  33.907  35.384  1.00  0.00     0.010 A 
ATOM     72  C   UNL A   1      40.566  32.473  36.626  1.00  0.00     0.010 A 
ATOM     73  C   UNL A   1      41.895  34.919  36.330  1.00  0.00     0.020 A 
ATOM     74  C   UNL A   1      40.358  33.494  37.558  1.00  0.00     0.020 A 
ATOM     75  C   UNL A   1      41.042  34.702  37.416  1.00  0.00     0.054 A 
BRANCH  75  76
ATOM     76  S   UNL A   1      40.823  36.034  38.628  1.00  0.00     0.124 S 
ATOM     77  O   UNL A   1      39.414  36.375  38.447  1.00  0.00    -0.237 OA
ATOM     78  O   UNL A   1      41.151  35.377  39.890  1.00  0.00    -0.237 OA
ATOM     79  O   UNL A   1      41.771  37.057  38.195  1.00  0.00    -0.744 OA
ENDBRANCH  75  76
ENDBRANCH  56  70
BRANCH  57  80
ATOM     80  C   UNL A   1      42.600  25.599  28.552  1.00  0.00    -0.014 A 
ATOM     81  C   UNL A   1      43.383  25.853  27.412  1.00  0.00     0.010 A 
ATOM     82  C   UNL A   1      42.008  24.332  28.706  1.00  0.00     0.010 A 
ATOM     83  C   UNL A   1      43.558  24.866  26.439  1.00  0.00     0.020 A 
ATOM     84  C   UNL A   1      42.203  23.334  27.747  1.00  0.00     0.020 A 
ATOM     85  C   UNL A   1      42.970  23.610  26.614  1.00  0.00     0.054 A 
BRANCH  85  86
ATOM     86  S   UNL A   1      43.258  22.326  25.365  1.00  0.00     0.124 S 
ATOM     87  O   UNL A   1      44.505  21.725  25.830  1.00  0.00    -0.237 OA
ATOM     88  O   UNL A   1      42.066  21.491  25.491  1.00  0.00    -0.237 OA
ATOM     89  O   UNL A   1      43.353  23.080  24.116  1.00  0.00    -0.744 OA
ENDBRANCH  85  86
ENDBRANCH  57  80
BRANCH  69  90
ATOM     90  C   UNL A   1      46.037  27.208  34.408  1.00  0.00    -0.014 A 
ATOM     91  C   UNL A   1      45.880  26.163  35.335  1.00  0.00     0.010 A 
ATOM     92  C   UNL A   1      47.334  27.652  34.089  1.00  0.00     0.010 A 
ATOM     93  C   UNL A   1      46.996  25.600  35.960  1.00  0.00     0.020 A 
ATOM     94  C   UNL A   1      48.454  27.071  34.689  1.00  0.00     0.020 A 
ATOM     95  C   UNL A   1      48.277  26.060  35.635  1.00  0.00     0.054 A 
BRANCH  95  96
ATOM     96  S   UNL A   1      49.711  25.293  36.438  1.00  0.00     0.124 S 
ATOM     97  O   UNL A   1      50.102  24.282  35.459  1.00  0.00    -0.237 OA
ATOM     98  O   UNL A   1      50.634  26.416  36.584  1.00  0.00    -0.237 OA
ATOM     99  O   UNL A   1      49.170  24.773  37.691  1.00  0.00    -0.744 OA
ENDBRANCH  95  96
ENDBRANCH  69  90
ENDBRANCH  43  44
ENDBRANCH  35  38
ENDBRANCH  33  34
ENDBRANCH  32  33
ENDBRANCH  31  32
ENDBRANCH  30  31
ENDBRANCH   1  30
TORSDOF 21
ENDMDL
