MODEL 1
REMARK VINA RESULT:     -11.4      0.000      0.000
REMARK SMILES CSCC[C@H](C(=O)NCCCCCCNC(=O)c1ccc(-c2c3nc(c(-c4ccc(S(=O)(=O)[O-])cc4)c4ccc([nH]4)c(-c4ccc(S(=O)(=O)[O-])cc4)c4nc(c(-c5ccc(S(=O)(=O)[O-])cc5)c5ccc2[nH]5)C=C4)C=C3)cc1)N1C(=O)/C(=C/c2ccc3ncccc3c2)SC1=S
REMARK SMILES IDX 11 1 10 2 9 3 8 4 6 5 7 6 5 8 4 9 3 10 2 11 1 12 78 13 79 14
REMARK SMILES IDX 94 15 80 16 81 17 93 18 95 19 82 20 83 21 84 22 92 23 85 24
REMARK SMILES IDX 91 25 86 26 90 27 87 28 89 29 88 30 12 31 13 32 14 33 15 34
REMARK SMILES IDX 16 35 17 37 18 38 19 39 77 40 20 41 76 42 21 43 22 44 23 45
REMARK SMILES IDX 70 46 24 47 75 48 69 49 71 50 25 51 74 52 68 53 67 54 26 56
REMARK SMILES IDX 56 57 37 58 55 59 38 60 41 61 54 62 72 63 39 64 40 65 53 67
REMARK SMILES IDX 73 68 42 69 27 70 28 71 36 72 29 73 35 74 30 75 31 76 32 77
REMARK SMILES IDX 33 78 34 79 57 80 58 81 66 82 59 83 65 84 60 85 61 86 62 87
REMARK SMILES IDX 63 88 64 89 43 90 44 91 52 92 45 93 51 94 46 95 47 96 48 97
REMARK SMILES IDX 49 98 50 99
REMARK H PARENT 8 7 15 36 71 55 41 66
REMARK Flexibility Score: inf
ROOT
ATOM      1  C   UNL A   1      39.030  20.963  25.798  1.00  0.00     0.002 C 
ENDROOT
BRANCH   1   2
ATOM      2  C   UNL A   1      37.661  21.094  25.116  1.00  0.00     0.021 C 
BRANCH   2   3
ATOM      3  C   UNL A   1      36.911  22.375  25.468  1.00  0.00     0.116 C 
BRANCH   3   4
ATOM      4  N   UNL A   1      35.906  22.126  26.478  1.00  0.00    -0.354 N 
ATOM      5  C   UNL A   1      34.547  22.109  26.383  1.00  0.00     0.243 C 
ATOM      6  O   UNL A   1      33.915  21.847  27.408  1.00  0.00    -0.273 OA
ATOM      7  H   UNL A   1      36.261  21.940  27.377  1.00  0.00     0.163 HD
BRANCH   5   8
ATOM      8  C   UNL A   1      33.876  22.303  25.004  1.00  0.00     0.182 C 
BRANCH   8   9
ATOM      9  C   UNL A   1      33.178  21.017  24.516  1.00  0.00     0.046 C 
BRANCH   9  10
ATOM     10  C   UNL A   1      34.006  19.738  24.728  1.00  0.00     0.072 C 
BRANCH  10  11
ATOM     11  S   UNL A   1      33.063  18.179  24.899  1.00  0.00    -0.165 SA
ATOM     12  C   UNL A   1      32.927  17.635  23.172  1.00  0.00     0.085 C 
ENDBRANCH  10  11
ENDBRANCH   9  10
ENDBRANCH   8   9
BRANCH   8  13
ATOM     13  N   UNL A   1      33.037  23.519  24.871  1.00  0.00    -0.280 N 
ATOM     14  C   UNL A   1      33.563  24.687  24.338  1.00  0.00     0.266 C 
ATOM     15  C   UNL A   1      31.750  23.611  25.377  1.00  0.00     0.149 C 
ATOM     16  O   UNL A   1      34.694  24.856  23.920  1.00  0.00    -0.268 OA
ATOM     17  C   UNL A   1      32.535  25.764  24.339  1.00  0.00     0.081 C 
ATOM     18  S   UNL A   1      31.139  25.240  25.190  1.00  0.00    -0.054 SA
ATOM     19  S   UNL A   1      30.807  22.433  26.087  1.00  0.00    -0.052 S 
ATOM     20  C   UNL A   1      32.713  26.960  23.757  1.00  0.00     0.029 C 
BRANCH  20  21
ATOM     21  C   UNL A   1      31.771  28.072  23.927  1.00  0.00    -0.024 A 
ATOM     22  C   UNL A   1      31.928  29.044  24.913  1.00  0.00     0.010 A 
ATOM     23  C   UNL A   1      30.716  28.190  23.016  1.00  0.00     0.018 A 
ATOM     24  C   UNL A   1      31.047  30.136  24.956  1.00  0.00     0.029 A 
ATOM     25  C   UNL A   1      29.862  29.299  23.045  1.00  0.00     0.001 A 
ATOM     26  C   UNL A   1      30.020  30.294  24.029  1.00  0.00     0.070 A 
ATOM     27  C   UNL A   1      28.856  29.456  22.085  1.00  0.00     0.012 A 
ATOM     28  N   UNL A   1      29.222  31.376  24.073  1.00  0.00    -0.256 NA
ATOM     29  C   UNL A   1      28.047  30.581  22.118  1.00  0.00     0.021 A 
ATOM     30  C   UNL A   1      28.266  31.503  23.125  1.00  0.00     0.112 A 
ENDBRANCH  20  21
ENDBRANCH   8  13
ENDBRANCH   5   8
ENDBRANCH   3   4
ENDBRANCH   2   3
ENDBRANCH   1   2
BRANCH   1  31
ATOM     31  C   UNL A   1      39.723  22.291  26.120  1.00  0.00     0.002 C 
BRANCH  31  32
ATOM     32  C   UNL A   1      40.402  22.345  27.490  1.00  0.00     0.021 C 
BRANCH  32  33
ATOM     33  C   UNL A   1      41.780  22.994  27.486  1.00  0.00     0.116 C 
BRANCH  33  34
ATOM     34  N   UNL A   1      42.019  23.764  26.278  1.00  0.00    -0.352 N 
ATOM     35  C   UNL A   1      41.892  25.116  26.076  1.00  0.00     0.251 C 
ATOM     36  H   UNL A   1      42.313  23.245  25.495  1.00  0.00     0.163 HD
ATOM     37  O   UNL A   1      41.944  25.574  24.939  1.00  0.00    -0.269 OA
BRANCH  35  38
ATOM     38  C   UNL A   1      41.674  26.014  27.232  1.00  0.00     0.039 A 
ATOM     39  C   UNL A   1      42.589  27.041  27.475  1.00  0.00     0.014 A 
ATOM     40  C   UNL A   1      40.577  25.837  28.082  1.00  0.00     0.014 A 
ATOM     41  C   UNL A   1      42.381  27.913  28.546  1.00  0.00     0.010 A 
ATOM     42  C   UNL A   1      40.326  26.758  29.095  1.00  0.00     0.010 A 
ATOM     43  C   UNL A   1      41.236  27.795  29.351  1.00  0.00    -0.014 A 
BRANCH  43  44
ATOM     44  C   UNL A   1      40.998  28.718  30.491  1.00  0.00     0.031 A 
ATOM     45  C   UNL A   1      41.842  28.606  31.735  1.00  0.00     0.074 A 
ATOM     46  C   UNL A   1      40.007  29.630  30.426  1.00  0.00     0.049 A 
ATOM     47  N   UNL A   1      41.752  29.278  32.855  1.00  0.00    -0.248 NA
ATOM     48  C   UNL A   1      42.910  27.592  31.731  1.00  0.00     0.031 C 
ATOM     49  C   UNL A   1      39.098  29.817  29.291  1.00  0.00     0.029 A 
ATOM     50  N   UNL A   1      39.595  30.572  31.336  1.00  0.00    -0.354 N 
ATOM     51  C   UNL A   1      42.747  28.768  33.682  1.00  0.00     0.074 A 
ATOM     52  C   UNL A   1      43.381  27.685  32.965  1.00  0.00     0.031 C 
ATOM     53  C   UNL A   1      38.254  30.825  29.566  1.00  0.00     0.029 A 
ATOM     54  C   UNL A   1      38.530  31.329  30.907  1.00  0.00     0.049 A 
ATOM     55  H   UNL A   1      40.023  30.694  32.214  1.00  0.00     0.167 HD
ATOM     56  C   UNL A   1      43.125  29.184  34.914  1.00  0.00     0.031 A 
ATOM     57  C   UNL A   1      37.847  32.311  31.527  1.00  0.00     0.031 A 
ATOM     58  C   UNL A   1      42.500  30.267  35.625  1.00  0.00     0.049 A 
ATOM     59  C   UNL A   1      38.269  32.736  32.910  1.00  0.00     0.074 A 
ATOM     60  C   UNL A   1      42.820  30.776  36.872  1.00  0.00     0.029 A 
ATOM     61  N   UNL A   1      41.435  31.017  35.149  1.00  0.00    -0.354 N 
ATOM     62  N   UNL A   1      39.239  32.265  33.658  1.00  0.00    -0.248 NA
ATOM     63  C   UNL A   1      37.518  33.839  33.524  1.00  0.00     0.031 C 
ATOM     64  C   UNL A   1      41.920  31.803  37.170  1.00  0.00     0.029 A 
ATOM     65  C   UNL A   1      41.084  31.980  36.079  1.00  0.00     0.049 A 
ATOM     66  H   UNL A   1      40.995  30.883  34.279  1.00  0.00     0.167 HD
ATOM     67  C   UNL A   1      39.241  33.046  34.810  1.00  0.00     0.074 A 
ATOM     68  C   UNL A   1      38.187  34.026  34.653  1.00  0.00     0.031 C 
ATOM     69  C   UNL A   1      40.044  32.962  35.899  1.00  0.00     0.031 A 
BRANCH  56  70
ATOM     70  C   UNL A   1      44.285  28.478  35.565  1.00  0.00    -0.014 A 
ATOM     71  C   UNL A   1      44.077  27.344  36.372  1.00  0.00     0.010 A 
ATOM     72  C   UNL A   1      45.603  28.907  35.318  1.00  0.00     0.010 A 
ATOM     73  C   UNL A   1      45.159  26.669  36.941  1.00  0.00     0.020 A 
ATOM     74  C   UNL A   1      46.690  28.216  35.860  1.00  0.00     0.020 A 
ATOM     75  C   UNL A   1      46.459  27.107  36.677  1.00  0.00     0.054 A 
BRANCH  75  76
ATOM     76  S   UNL A   1      47.846  26.176  37.387  1.00  0.00     0.124 S 
ATOM     77  O   UNL A   1      47.213  24.903  37.723  1.00  0.00    -0.237 OA
ATOM     78  O   UNL A   1      48.798  26.132  36.281  1.00  0.00    -0.237 OA
ATOM     79  O   UNL A   1      48.260  26.986  38.530  1.00  0.00    -0.744 OA
ENDBRANCH  75  76
ENDBRANCH  56  70
BRANCH  57  80
ATOM     80  C   UNL A   1      36.686  32.964  30.855  1.00  0.00    -0.014 A 
ATOM     81  C   UNL A   1      36.873  33.803  29.742  1.00  0.00     0.010 A 
ATOM     82  C   UNL A   1      35.385  32.779  31.358  1.00  0.00     0.010 A 
ATOM     83  C   UNL A   1      35.790  34.483  29.177  1.00  0.00     0.020 A 
ATOM     84  C   UNL A   1      34.295  33.428  30.773  1.00  0.00     0.020 A 
ATOM     85  C   UNL A   1      34.507  34.295  29.700  1.00  0.00     0.054 A 
BRANCH  85  86
ATOM     86  S   UNL A   1      33.115  35.187  28.954  1.00  0.00     0.124 S 
ATOM     87  O   UNL A   1      32.622  34.219  27.980  1.00  0.00    -0.237 OA
ATOM     88  O   UNL A   1      32.246  35.433  30.101  1.00  0.00    -0.237 OA
ATOM     89  O   UNL A   1      33.740  36.381  28.388  1.00  0.00    -0.744 OA
ENDBRANCH  85  86
ENDBRANCH  57  80
BRANCH  69  90
ATOM     90  C   UNL A   1      39.869  34.001  36.976  1.00  0.00    -0.014 A 
ATOM     91  C   UNL A   1      39.010  33.797  38.070  1.00  0.00     0.010 A 
ATOM     92  C   UNL A   1      40.615  35.193  36.905  1.00  0.00     0.010 A 
ATOM     93  C   UNL A   1      38.865  34.785  39.048  1.00  0.00     0.020 A 
ATOM     94  C   UNL A   1      40.499  36.168  37.898  1.00  0.00     0.020 A 
ATOM     95  C   UNL A   1      39.609  35.966  38.953  1.00  0.00     0.054 A 
BRANCH  95  96
ATOM     96  S   UNL A   1      39.421  37.222  40.248  1.00  0.00     0.124 S 
ATOM     97  O   UNL A   1      40.810  37.524  40.581  1.00  0.00    -0.237 OA
ATOM     98  O   UNL A   1      38.696  38.286  39.559  1.00  0.00    -0.237 OA
ATOM     99  O   UNL A   1      38.665  36.535  41.292  1.00  0.00    -0.744 OA
ENDBRANCH  95  96
ENDBRANCH  69  90
ENDBRANCH  43  44
ENDBRANCH  35  38
ENDBRANCH  33  34
ENDBRANCH  32  33
ENDBRANCH  31  32
ENDBRANCH   1  31
TORSDOF 21
ENDMDL
MODEL 2
REMARK VINA RESULT:     -10.9      0.740      7.847
REMARK SMILES CSCC[C@H](C(=O)NCCCCCCNC(=O)c1ccc(-c2c3nc(c(-c4ccc(S(=O)(=O)[O-])cc4)c4ccc([nH]4)c(-c4ccc(S(=O)(=O)[O-])cc4)c4nc(c(-c5ccc(S(=O)(=O)[O-])cc5)c5ccc2[nH]5)C=C4)C=C3)cc1)N1C(=O)/C(=C/c2ccc3ncccc3c2)SC1=S
REMARK SMILES IDX 11 1 10 2 9 3 8 4 6 5 7 6 5 8 4 9 3 10 2 11 1 12 78 13 79 14
REMARK SMILES IDX 94 15 80 16 81 17 93 18 95 19 82 20 83 21 84 22 92 23 85 24
REMARK SMILES IDX 91 25 86 26 90 27 87 28 89 29 88 30 12 31 13 32 14 33 15 34
REMARK SMILES IDX 16 35 17 37 18 38 19 39 77 40 20 41 76 42 21 43 22 44 23 45
REMARK SMILES IDX 70 46 24 47 75 48 69 49 71 50 25 51 74 52 68 53 67 54 26 56
REMARK SMILES IDX 56 57 37 58 55 59 38 60 41 61 54 62 72 63 39 64 40 65 53 67
REMARK SMILES IDX 73 68 42 69 27 70 28 71 36 72 29 73 35 74 30 75 31 76 32 77
REMARK SMILES IDX 33 78 34 79 57 80 58 81 66 82 59 83 65 84 60 85 61 86 62 87
REMARK SMILES IDX 63 88 64 89 43 90 44 91 52 92 45 93 51 94 46 95 47 96 48 97
REMARK SMILES IDX 49 98 50 99
REMARK H PARENT 8 7 15 36 71 55 41 66
REMARK Flexibility Score: inf
ROOT
ATOM      1  C   UNL A   1      38.763  22.321  26.239  1.00  0.00     0.002 C 
ENDROOT
BRANCH   1   2
ATOM      2  C   UNL A   1      37.662  23.274  25.753  1.00  0.00     0.021 C 
BRANCH   2   3
ATOM      3  C   UNL A   1      36.392  22.571  25.285  1.00  0.00     0.116 C 
BRANCH   3   4
ATOM      4  N   UNL A   1      35.531  22.257  26.405  1.00  0.00    -0.354 N 
ATOM      5  C   UNL A   1      34.177  22.132  26.467  1.00  0.00     0.243 C 
ATOM      6  O   UNL A   1      33.688  21.834  27.558  1.00  0.00    -0.273 OA
ATOM      7  H   UNL A   1      36.000  22.110  27.257  1.00  0.00     0.163 HD
BRANCH   5   8
ATOM      8  C   UNL A   1      33.339  22.257  25.173  1.00  0.00     0.182 C 
BRANCH   8   9
ATOM      9  C   UNL A   1      32.510  20.985  24.897  1.00  0.00     0.046 C 
BRANCH   9  10
ATOM     10  C   UNL A   1      33.301  19.862  24.203  1.00  0.00     0.072 C 
BRANCH  10  11
ATOM     11  S   UNL A   1      33.109  18.182  24.903  1.00  0.00    -0.165 SA
ATOM     12  C   UNL A   1      34.654  17.383  24.381  1.00  0.00     0.085 C 
ENDBRANCH  10  11
ENDBRANCH   9  10
ENDBRANCH   8   9
BRANCH   8  13
ATOM     13  N   UNL A   1      32.560  23.511  25.038  1.00  0.00    -0.280 N 
ATOM     14  C   UNL A   1      33.043  24.565  24.276  1.00  0.00     0.266 C 
ATOM     15  C   UNL A   1      31.398  23.762  25.749  1.00  0.00     0.149 C 
ATOM     16  O   UNL A   1      34.084  24.596  23.645  1.00  0.00    -0.268 OA
ATOM     17  C   UNL A   1      32.095  25.713  24.323  1.00  0.00     0.081 C 
ATOM     18  S   UNL A   1      30.855  25.401  25.468  1.00  0.00    -0.054 SA
ATOM     19  S   UNL A   1      30.539  22.751  26.760  1.00  0.00    -0.052 S 
ATOM     20  C   UNL A   1      32.229  26.817  23.571  1.00  0.00     0.029 C 
BRANCH  20  21
ATOM     21  C   UNL A   1      31.400  28.012  23.763  1.00  0.00    -0.024 A 
ATOM     22  C   UNL A   1      31.683  28.975  24.730  1.00  0.00     0.010 A 
ATOM     23  C   UNL A   1      30.324  28.217  22.892  1.00  0.00     0.018 A 
ATOM     24  C   UNL A   1      30.908  30.143  24.794  1.00  0.00     0.029 A 
ATOM     25  C   UNL A   1      29.577  29.400  22.941  1.00  0.00     0.001 A 
ATOM     26  C   UNL A   1      29.863  30.386  23.905  1.00  0.00     0.070 A 
ATOM     27  C   UNL A   1      28.552  29.639  22.018  1.00  0.00     0.012 A 
ATOM     28  N   UNL A   1      29.169  31.536  23.967  1.00  0.00    -0.256 NA
ATOM     29  C   UNL A   1      27.850  30.834  22.069  1.00  0.00     0.021 A 
ATOM     30  C   UNL A   1      28.192  31.742  23.054  1.00  0.00     0.112 A 
ENDBRANCH  20  21
ENDBRANCH   8  13
ENDBRANCH   5   8
ENDBRANCH   3   4
ENDBRANCH   2   3
ENDBRANCH   1   2
BRANCH   1  31
ATOM     31  C   UNL A   1      39.754  22.932  27.235  1.00  0.00     0.002 C 
BRANCH  31  32
ATOM     32  C   UNL A   1      41.177  22.379  27.145  1.00  0.00     0.021 C 
BRANCH  32  33
ATOM     33  C   UNL A   1      42.272  23.426  27.308  1.00  0.00     0.116 C 
BRANCH  33  34
ATOM     34  N   UNL A   1      42.440  24.234  26.113  1.00  0.00    -0.352 N 
ATOM     35  C   UNL A   1      42.229  25.580  25.945  1.00  0.00     0.251 C 
ATOM     36  H   UNL A   1      42.748  23.750  25.314  1.00  0.00     0.163 HD
ATOM     37  O   UNL A   1      42.230  26.064  24.817  1.00  0.00    -0.269 OA
BRANCH  35  38
ATOM     38  C   UNL A   1      41.982  26.439  27.124  1.00  0.00     0.039 A 
ATOM     39  C   UNL A   1      40.849  26.204  27.907  1.00  0.00     0.014 A 
ATOM     40  C   UNL A   1      42.857  27.481  27.451  1.00  0.00     0.014 A 
ATOM     41  C   UNL A   1      40.617  26.988  29.039  1.00  0.00     0.010 A 
ATOM     42  C   UNL A   1      42.669  28.203  28.626  1.00  0.00     0.010 A 
ATOM     43  C   UNL A   1      41.536  27.978  29.423  1.00  0.00    -0.014 A 
BRANCH  43  44
ATOM     44  C   UNL A   1      41.306  28.818  30.627  1.00  0.00     0.031 A 
ATOM     45  C   UNL A   1      40.206  29.848  30.624  1.00  0.00     0.074 A 
ATOM     46  C   UNL A   1      42.101  28.681  31.707  1.00  0.00     0.049 A 
ATOM     47  N   UNL A   1      39.884  30.714  31.551  1.00  0.00    -0.248 NA
ATOM     48  C   UNL A   1      39.373  29.934  29.412  1.00  0.00     0.031 C 
ATOM     49  C   UNL A   1      43.222  27.744  31.824  1.00  0.00     0.029 A 
ATOM     50  N   UNL A   1      42.092  29.334  32.915  1.00  0.00    -0.354 N 
ATOM     51  C   UNL A   1      38.818  31.443  31.035  1.00  0.00     0.074 A 
ATOM     52  C   UNL A   1      38.592  30.968  29.689  1.00  0.00     0.031 C 
ATOM     53  C   UNL A   1      43.774  27.868  33.043  1.00  0.00     0.029 A 
ATOM     54  C   UNL A   1      43.078  28.919  33.778  1.00  0.00     0.049 A 
ATOM     55  H   UNL A   1      41.438  30.035  33.142  1.00  0.00     0.167 HD
ATOM     56  C   UNL A   1      38.070  32.397  31.637  1.00  0.00     0.031 A 
ATOM     57  C   UNL A   1      43.393  29.342  35.018  1.00  0.00     0.031 A 
ATOM     58  C   UNL A   1      38.288  32.864  32.980  1.00  0.00     0.049 A 
ATOM     59  C   UNL A   1      42.562  30.426  35.655  1.00  0.00     0.074 A 
ATOM     60  C   UNL A   1      37.574  33.817  33.687  1.00  0.00     0.029 A 
ATOM     61  N   UNL A   1      39.288  32.407  33.825  1.00  0.00    -0.354 N 
ATOM     62  N   UNL A   1      41.533  31.074  35.162  1.00  0.00    -0.248 NA
ATOM     63  C   UNL A   1      42.922  30.821  37.023  1.00  0.00     0.031 C 
ATOM     64  C   UNL A   1      38.170  33.967  34.942  1.00  0.00     0.029 A 
ATOM     65  C   UNL A   1      39.212  33.059  35.043  1.00  0.00     0.049 A 
ATOM     66  H   UNL A   1      39.952  31.719  33.592  1.00  0.00     0.167 HD
ATOM     67  C   UNL A   1      41.097  31.920  36.178  1.00  0.00     0.074 A 
ATOM     68  C   UNL A   1      41.964  31.690  37.314  1.00  0.00     0.031 C 
ATOM     69  C   UNL A   1      40.071  32.805  36.172  1.00  0.00     0.031 A 
BRANCH  56  70
ATOM     70  C   UNL A   1      36.926  32.987  30.854  1.00  0.00    -0.014 A 
ATOM     71  C   UNL A   1      37.166  33.880  29.793  1.00  0.00     0.010 A 
ATOM     72  C   UNL A   1      35.603  32.596  31.131  1.00  0.00     0.010 A 
ATOM     73  C   UNL A   1      36.105  34.393  29.044  1.00  0.00     0.020 A 
ATOM     74  C   UNL A   1      34.541  33.084  30.363  1.00  0.00     0.020 A 
ATOM     75  C   UNL A   1      34.800  33.988  29.330  1.00  0.00     0.054 A 
BRANCH  75  76
ATOM     76  S   UNL A   1      33.449  34.631  28.304  1.00  0.00     0.124 S 
ATOM     77  O   UNL A   1      32.899  33.406  27.728  1.00  0.00    -0.237 OA
ATOM     78  O   UNL A   1      32.597  35.301  29.283  1.00  0.00    -0.237 OA
ATOM     79  O   UNL A   1      34.122  35.516  27.357  1.00  0.00    -0.744 OA
ENDBRANCH  75  76
ENDBRANCH  56  70
BRANCH  57  80
ATOM     80  C   UNL A   1      44.551  28.748  35.748  1.00  0.00    -0.014 A 
ATOM     81  C   UNL A   1      45.854  29.243  35.562  1.00  0.00     0.010 A 
ATOM     82  C   UNL A   1      44.356  27.650  36.606  1.00  0.00     0.010 A 
ATOM     83  C   UNL A   1      46.944  28.621  36.179  1.00  0.00     0.020 A 
ATOM     84  C   UNL A   1      45.437  27.049  37.253  1.00  0.00     0.020 A 
ATOM     85  C   UNL A   1      46.728  27.524  37.018  1.00  0.00     0.054 A 
BRANCH  85  86
ATOM     86  S   UNL A   1      48.155  26.730  37.808  1.00  0.00     0.124 S 
ATOM     87  O   UNL A   1      48.289  25.503  37.029  1.00  0.00    -0.237 OA
ATOM     88  O   UNL A   1      49.212  27.720  37.619  1.00  0.00    -0.237 OA
ATOM     89  O   UNL A   1      47.721  26.548  39.191  1.00  0.00    -0.744 OA
ENDBRANCH  85  86
ENDBRANCH  57  80
BRANCH  69  90
ATOM     90  C   UNL A   1      39.776  33.538  37.455  1.00  0.00    -0.014 A 
ATOM     91  C   UNL A   1      40.211  34.857  37.671  1.00  0.00     0.010 A 
ATOM     92  C   UNL A   1      39.011  32.899  38.449  1.00  0.00     0.010 A 
ATOM     93  C   UNL A   1      39.927  35.507  38.875  1.00  0.00     0.020 A 
ATOM     94  C   UNL A   1      38.695  33.557  39.639  1.00  0.00     0.020 A 
ATOM     95  C   UNL A   1      39.173  34.850  39.853  1.00  0.00     0.054 A 
BRANCH  95  96
ATOM     96  S   UNL A   1      38.796  35.723  41.398  1.00  0.00     0.124 S 
ATOM     97  O   UNL A   1      38.835  37.119  40.975  1.00  0.00    -0.237 OA
ATOM     98  O   UNL A   1      37.473  35.207  41.742  1.00  0.00    -0.237 OA
ATOM     99  O   UNL A   1      39.871  35.315  42.299  1.00  0.00    -0.744 OA
ENDBRANCH  95  96
ENDBRANCH  69  90
ENDBRANCH  43  44
ENDBRANCH  35  38
ENDBRANCH  33  34
ENDBRANCH  32  33
ENDBRANCH  31  32
ENDBRANCH   1  31
TORSDOF 21
ENDMDL
MODEL 3
REMARK VINA RESULT:     -10.6      5.888      7.840
REMARK SMILES CSCC[C@H](C(=O)NCCCCCCNC(=O)c1ccc(-c2c3nc(c(-c4ccc(S(=O)(=O)[O-])cc4)c4ccc([nH]4)c(-c4ccc(S(=O)(=O)[O-])cc4)c4nc(c(-c5ccc(S(=O)(=O)[O-])cc5)c5ccc2[nH]5)C=C4)C=C3)cc1)N1C(=O)/C(=C/c2ccc3ncccc3c2)SC1=S
REMARK SMILES IDX 11 1 10 2 9 3 8 4 6 5 7 6 5 8 4 9 3 10 2 11 1 12 78 13 79 14
REMARK SMILES IDX 94 15 80 16 81 17 93 18 95 19 82 20 83 21 84 22 92 23 85 24
REMARK SMILES IDX 91 25 86 26 90 27 87 28 89 29 88 30 12 31 13 32 14 33 15 34
REMARK SMILES IDX 16 35 17 37 18 38 19 39 77 40 20 41 76 42 21 43 22 44 23 45
REMARK SMILES IDX 70 46 24 47 75 48 69 49 71 50 25 51 74 52 68 53 67 54 26 56
REMARK SMILES IDX 56 57 37 58 55 59 38 60 41 61 54 62 72 63 39 64 40 65 53 67
REMARK SMILES IDX 73 68 42 69 27 70 28 71 36 72 29 73 35 74 30 75 31 76 32 77
REMARK SMILES IDX 33 78 34 79 57 80 58 81 66 82 59 83 65 84 60 85 61 86 62 87
REMARK SMILES IDX 63 88 64 89 43 90 44 91 52 92 45 93 51 94 46 95 47 96 48 97
REMARK SMILES IDX 49 98 50 99
REMARK H PARENT 8 7 15 36 71 55 41 66
REMARK Flexibility Score: inf
ROOT
ATOM      1  C   UNL A   1      37.842  21.982  25.819  1.00  0.00     0.002 C 
ENDROOT
BRANCH   1   2
ATOM      2  C   UNL A   1      37.445  23.462  25.910  1.00  0.00     0.021 C 
BRANCH   2   3
ATOM      3  C   UNL A   1      35.938  23.701  25.944  1.00  0.00     0.116 C 
BRANCH   3   4
ATOM      4  N   UNL A   1      35.284  22.756  26.823  1.00  0.00    -0.354 N 
ATOM      5  C   UNL A   1      34.183  21.981  26.619  1.00  0.00     0.243 C 
ATOM      6  O   UNL A   1      33.840  21.237  27.539  1.00  0.00    -0.273 OA
ATOM      7  H   UNL A   1      35.700  22.660  27.709  1.00  0.00     0.163 HD
BRANCH   5   8
ATOM      8  C   UNL A   1      33.493  21.984  25.235  1.00  0.00     0.182 C 
BRANCH   8   9
ATOM      9  C   UNL A   1      32.724  20.673  24.971  1.00  0.00     0.046 C 
BRANCH   9  10
ATOM     10  C   UNL A   1      33.595  19.542  24.396  1.00  0.00     0.072 C 
BRANCH  10  11
ATOM     11  S   UNL A   1      33.172  17.842  24.927  1.00  0.00    -0.165 SA
ATOM     12  C   UNL A   1      33.715  16.861  23.499  1.00  0.00     0.085 C 
ENDBRANCH  10  11
ENDBRANCH   9  10
ENDBRANCH   8   9
BRANCH   8  13
ATOM     13  N   UNL A   1      32.711  23.203  24.917  1.00  0.00    -0.280 N 
ATOM     14  C   UNL A   1      33.084  24.028  23.865  1.00  0.00     0.266 C 
ATOM     15  C   UNL A   1      31.668  23.662  25.705  1.00  0.00     0.149 C 
ATOM     16  O   UNL A   1      34.021  23.866  23.104  1.00  0.00    -0.268 OA
ATOM     17  C   UNL A   1      32.161  25.193  23.771  1.00  0.00     0.081 C 
ATOM     18  S   UNL A   1      31.101  25.211  25.121  1.00  0.00    -0.054 SA
ATOM     19  S   UNL A   1      30.961  22.953  27.038  1.00  0.00    -0.052 S 
ATOM     20  C   UNL A   1      32.190  26.083  22.766  1.00  0.00     0.029 C 
BRANCH  20  21
ATOM     21  C   UNL A   1      31.407  27.323  22.783  1.00  0.00    -0.024 A 
ATOM     22  C   UNL A   1      31.950  28.559  22.438  1.00  0.00     0.010 A 
ATOM     23  C   UNL A   1      30.045  27.241  23.096  1.00  0.00     0.018 A 
ATOM     24  C   UNL A   1      31.120  29.689  22.379  1.00  0.00     0.029 A 
ATOM     25  C   UNL A   1      29.218  28.366  23.002  1.00  0.00     0.001 A 
ATOM     26  C   UNL A   1      29.754  29.617  22.640  1.00  0.00     0.070 A 
ATOM     27  C   UNL A   1      27.842  28.267  23.238  1.00  0.00     0.012 A 
ATOM     28  N   UNL A   1      28.980  30.712  22.531  1.00  0.00    -0.256 NA
ATOM     29  C   UNL A   1      27.041  29.391  23.105  1.00  0.00     0.021 A 
ATOM     30  C   UNL A   1      27.653  30.580  22.755  1.00  0.00     0.112 A 
ENDBRANCH  20  21
ENDBRANCH   8  13
ENDBRANCH   5   8
ENDBRANCH   3   4
ENDBRANCH   2   3
ENDBRANCH   1   2
BRANCH   1  31
ATOM     31  C   UNL A   1      39.330  21.696  26.053  1.00  0.00     0.002 C 
BRANCH  31  32
ATOM     32  C   UNL A   1      39.784  20.292  25.649  1.00  0.00     0.021 C 
BRANCH  32  33
ATOM     33  C   UNL A   1      40.570  19.550  26.723  1.00  0.00     0.116 C 
BRANCH  33  34
ATOM     34  N   UNL A   1      41.689  18.808  26.168  1.00  0.00    -0.352 N 
ATOM     35  C   UNL A   1      42.904  19.276  25.733  1.00  0.00     0.251 C 
ATOM     36  H   UNL A   1      41.558  17.836  26.094  1.00  0.00     0.163 HD
ATOM     37  O   UNL A   1      43.658  18.535  25.109  1.00  0.00    -0.269 OA
BRANCH  35  38
ATOM     38  C   UNL A   1      43.290  20.679  26.001  1.00  0.00     0.039 A 
ATOM     39  C   UNL A   1      43.623  21.507  24.927  1.00  0.00     0.014 A 
ATOM     40  C   UNL A   1      43.337  21.174  27.309  1.00  0.00     0.014 A 
ATOM     41  C   UNL A   1      43.962  22.841  25.163  1.00  0.00     0.010 A 
ATOM     42  C   UNL A   1      43.592  22.524  27.533  1.00  0.00     0.010 A 
ATOM     43  C   UNL A   1      43.927  23.368  26.464  1.00  0.00    -0.014 A 
BRANCH  43  44
ATOM     44  C   UNL A   1      44.281  24.787  26.730  1.00  0.00     0.031 A 
ATOM     45  C   UNL A   1      45.712  25.240  26.595  1.00  0.00     0.074 A 
ATOM     46  C   UNL A   1      43.330  25.657  27.125  1.00  0.00     0.049 A 
ATOM     47  N   UNL A   1      46.230  26.418  26.838  1.00  0.00    -0.248 NA
ATOM     48  C   UNL A   1      46.694  24.236  26.152  1.00  0.00     0.031 C 
ATOM     49  C   UNL A   1      41.915  25.335  27.326  1.00  0.00     0.029 A 
ATOM     50  N   UNL A   1      43.410  26.993  27.432  1.00  0.00    -0.354 N 
ATOM     51  C   UNL A   1      47.591  26.293  26.578  1.00  0.00     0.074 A 
ATOM     52  C   UNL A   1      47.830  24.911  26.228  1.00  0.00     0.031 C 
ATOM     53  C   UNL A   1      41.259  26.447  27.699  1.00  0.00     0.029 A 
ATOM     54  C   UNL A   1      42.210  27.550  27.805  1.00  0.00     0.049 A 
ATOM     55  H   UNL A   1      44.250  27.506  27.388  1.00  0.00     0.167 HD
ATOM     56  C   UNL A   1      48.551  27.248  26.595  1.00  0.00     0.031 A 
ATOM     57  C   UNL A   1      41.908  28.803  28.198  1.00  0.00     0.031 A 
ATOM     58  C   UNL A   1      48.311  28.625  26.934  1.00  0.00     0.049 A 
ATOM     59  C   UNL A   1      43.001  29.840  28.235  1.00  0.00     0.074 A 
ATOM     60  C   UNL A   1      49.215  29.674  26.965  1.00  0.00     0.029 A 
ATOM     61  N   UNL A   1      47.079  29.150  27.292  1.00  0.00    -0.354 N 
ATOM     62  N   UNL A   1      44.275  29.708  27.948  1.00  0.00    -0.248 NA
ATOM     63  C   UNL A   1      42.612  31.201  28.630  1.00  0.00     0.031 C 
ATOM     64  C   UNL A   1      48.538  30.822  27.384  1.00  0.00     0.029 A 
ATOM     65  C   UNL A   1      47.199  30.504  27.548  1.00  0.00     0.049 A 
ATOM     66  H   UNL A   1      46.242  28.634  27.353  1.00  0.00     0.167 HD
ATOM     67  C   UNL A   1      44.827  30.979  28.083  1.00  0.00     0.074 A 
ATOM     68  C   UNL A   1      43.747  31.865  28.464  1.00  0.00     0.031 C 
ATOM     69  C   UNL A   1      46.110  31.377  27.907  1.00  0.00     0.031 A 
BRANCH  56  70
ATOM     70  C   UNL A   1      49.949  26.840  26.212  1.00  0.00    -0.014 A 
ATOM     71  C   UNL A   1      50.811  26.252  27.156  1.00  0.00     0.010 A 
ATOM     72  C   UNL A   1      50.388  26.980  24.882  1.00  0.00     0.010 A 
ATOM     73  C   UNL A   1      52.093  25.839  26.787  1.00  0.00     0.020 A 
ATOM     74  C   UNL A   1      51.659  26.540  24.501  1.00  0.00     0.020 A 
ATOM     75  C   UNL A   1      52.507  25.981  25.460  1.00  0.00     0.054 A 
BRANCH  75  76
ATOM     76  S   UNL A   1      54.157  25.385  25.001  1.00  0.00     0.124 S 
ATOM     77  O   UNL A   1      54.988  25.947  26.063  1.00  0.00    -0.237 OA
ATOM     78  O   UNL A   1      53.992  23.934  25.035  1.00  0.00    -0.237 OA
ATOM     79  O   UNL A   1      54.376  25.953  23.673  1.00  0.00    -0.744 OA
ENDBRANCH  75  76
ENDBRANCH  56  70
BRANCH  57  80
ATOM     80  C   UNL A   1      40.515  29.157  28.594  1.00  0.00    -0.014 A 
ATOM     81  C   UNL A   1      39.528  29.405  27.624  1.00  0.00     0.010 A 
ATOM     82  C   UNL A   1      40.180  29.286  29.955  1.00  0.00     0.010 A 
ATOM     83  C   UNL A   1      38.249  29.825  28.004  1.00  0.00     0.020 A 
ATOM     84  C   UNL A   1      38.894  29.670  30.340  1.00  0.00     0.020 A 
ATOM     85  C   UNL A   1      37.942  29.960  29.362  1.00  0.00     0.054 A 
BRANCH  85  86
ATOM     86  S   UNL A   1      36.278  30.508  29.834  1.00  0.00     0.124 S 
ATOM     87  O   UNL A   1      36.484  31.933  30.070  1.00  0.00    -0.237 OA
ATOM     88  O   UNL A   1      35.487  30.167  28.656  1.00  0.00    -0.237 OA
ATOM     89  O   UNL A   1      35.984  29.713  31.025  1.00  0.00    -0.744 OA
ENDBRANCH  85  86
ENDBRANCH  57  80
BRANCH  69  90
ATOM     90  C   UNL A   1      46.409  32.848  28.047  1.00  0.00    -0.014 A 
ATOM     91  C   UNL A   1      46.324  33.728  26.954  1.00  0.00     0.010 A 
ATOM     92  C   UNL A   1      46.745  33.361  29.314  1.00  0.00     0.010 A 
ATOM     93  C   UNL A   1      46.615  35.085  27.116  1.00  0.00     0.020 A 
ATOM     94  C   UNL A   1      47.002  34.722  29.487  1.00  0.00     0.020 A 
ATOM     95  C   UNL A   1      46.955  35.573  28.383  1.00  0.00     0.054 A 
BRANCH  95  96
ATOM     96  S   UNL A   1      47.304  37.342  28.572  1.00  0.00     0.124 S 
ATOM     97  O   UNL A   1      48.735  37.402  28.292  1.00  0.00    -0.237 OA
ATOM     98  O   UNL A   1      46.441  37.949  27.561  1.00  0.00    -0.237 OA
ATOM     99  O   UNL A   1      46.927  37.625  29.956  1.00  0.00    -0.744 OA
ENDBRANCH  95  96
ENDBRANCH  69  90
ENDBRANCH  43  44
ENDBRANCH  35  38
ENDBRANCH  33  34
ENDBRANCH  32  33
ENDBRANCH  31  32
ENDBRANCH   1  31
TORSDOF 21
ENDMDL
