MODEL 1
REMARK VINA RESULT:     -11.5      0.000      0.000
REMARK SMILES C[N@@H+]1CC[C@H]2CN(C(=O)c3csc(-c4ccncc4)n3)C[C@@]2(C(=O)NCCCCCCNC(=O)c2ccc(-c3c4nc(c(-c5ccc(S(=O)(=O)[O-])cc5)c5ccc([nH]5)c(-c5ccc(S(=O)(=O)[O-])cc5)c5nc(c(-c6ccc(S(=O)(=O)[O-])cc6)c6ccc3[nH]6)C=C5)C=C4)cc2)C1
REMARK SMILES IDX 28 1 27 2 26 3 25 4 23 5 24 6 22 8 1 9 2 10 3 11 95 12 4 14
REMARK SMILES IDX 5 15 21 16 6 17 7 18 8 19 9 20 10 21 11 22 20 23 12 24 13 25
REMARK SMILES IDX 14 26 15 27 19 28 16 29 18 30 17 31 29 32 30 33 31 34 32 35
REMARK SMILES IDX 33 36 34 38 35 39 36 40 94 41 37 42 93 43 38 44 39 45 40 46
REMARK SMILES IDX 87 47 41 48 92 49 86 50 88 51 42 52 91 53 85 54 84 55 43 57
REMARK SMILES IDX 73 58 54 59 72 60 55 61 58 62 71 63 89 64 56 65 57 66 70 68
REMARK SMILES IDX 90 69 59 70 44 71 45 72 53 73 46 74 52 75 47 76 48 77 49 78
REMARK SMILES IDX 50 79 51 80 74 81 75 82 83 83 76 84 82 85 77 86 78 87 79 88
REMARK SMILES IDX 80 89 81 90 60 91 61 92 69 93 62 94 68 95 63 96 64 97 65 98
REMARK SMILES IDX 66 99 67 100
REMARK H PARENT 25 7 2 13 32 37 88 56 58 67
REMARK Flexibility Score: inf
ROOT
ATOM      1  C   UNL A   1      35.305  31.164  28.805  1.00  0.00     0.002 C 
ENDROOT
BRANCH   1   2
ATOM      2  C   UNL A   1      35.678  29.792  28.244  1.00  0.00     0.021 C 
BRANCH   2   3
ATOM      3  C   UNL A   1      34.674  29.185  27.264  1.00  0.00     0.116 C 
BRANCH   3   4
ATOM      4  N   UNL A   1      33.272  29.019  27.694  1.00  0.00    -0.355 N 
ATOM      5  C   UNL A   1      32.254  28.128  27.379  1.00  0.00     0.234 C 
ATOM      6  O   UNL A   1      31.351  27.991  28.209  1.00  0.00    -0.274 OA
ATOM      7  H   UNL A   1      32.995  29.694  28.356  1.00  0.00     0.163 HD
BRANCH   5   8
ATOM      8  C   UNL A   1      32.172  27.470  25.986  1.00  0.00     0.120 C 
ATOM      9  C   UNL A   1      31.427  30.734  25.422  1.00  0.00     0.332 C 
ATOM     10  N   UNL A   1      31.663  29.583  24.548  1.00  0.00    -0.336 N 
ATOM     11  C   UNL A   1      30.373  29.020  24.148  1.00  0.00     0.262 C 
ATOM     12  C   UNL A   1      32.672  28.601  25.038  1.00  0.00     0.281 C 
ATOM     13  H   UNL A   1      32.135  29.915  23.708  1.00  0.00     0.347 HD
ATOM     14  C   UNL A   1      30.407  27.515  24.073  1.00  0.00     0.068 C 
ATOM     15  C   UNL A   1      30.799  26.927  25.435  1.00  0.00     0.037 C 
ATOM     16  C   UNL A   1      32.969  26.164  26.139  1.00  0.00     0.143 C 
ATOM     17  C   UNL A   1      30.944  25.415  25.213  1.00  0.00     0.125 C 
ATOM     18  N   UNL A   1      32.056  25.052  26.018  1.00  0.00    -0.336 N 
BRANCH  18  19
ATOM     19  C   UNL A   1      32.186  23.782  26.566  1.00  0.00     0.273 C 
ATOM     20  O   UNL A   1      31.619  23.472  27.609  1.00  0.00    -0.267 OA
BRANCH  19  21
ATOM     21  C   UNL A   1      33.072  22.833  25.868  1.00  0.00     0.139 A 
ATOM     22  C   UNL A   1      34.351  23.138  25.440  1.00  0.00     0.101 A 
ATOM     23  N   UNL A   1      32.639  21.552  25.495  1.00  0.00    -0.231 NA
ATOM     24  S   UNL A   1      35.036  21.808  24.603  1.00  0.00    -0.122 S 
ATOM     25  C   UNL A   1      33.568  20.935  24.794  1.00  0.00     0.124 A 
BRANCH  25  26
ATOM     26  C   UNL A   1      33.407  19.624  24.161  1.00  0.00     0.013 A 
ATOM     27  C   UNL A   1      34.238  18.563  24.536  1.00  0.00     0.031 A 
ATOM     28  C   UNL A   1      32.446  19.406  23.172  1.00  0.00     0.031 A 
ATOM     29  C   UNL A   1      34.069  17.339  23.912  1.00  0.00     0.111 A 
ATOM     30  C   UNL A   1      32.362  18.145  22.601  1.00  0.00     0.111 A 
ATOM     31  N   UNL A   1      33.159  17.111  22.943  1.00  0.00    -0.265 NA
ENDBRANCH  25  26
ENDBRANCH  19  21
ENDBRANCH  18  19
ENDBRANCH   5   8
ENDBRANCH   3   4
ENDBRANCH   2   3
ENDBRANCH   1   2
BRANCH   1  32
ATOM     32  C   UNL A   1      35.853  32.368  28.029  1.00  0.00     0.002 C 
BRANCH  32  33
ATOM     33  C   UNL A   1      34.902  33.561  27.867  1.00  0.00     0.021 C 
BRANCH  33  34
ATOM     34  C   UNL A   1      33.467  33.307  28.307  1.00  0.00     0.116 C 
BRANCH  34  35
ATOM     35  N   UNL A   1      32.962  34.381  29.143  1.00  0.00    -0.352 N 
ATOM     36  C   UNL A   1      33.327  34.739  30.418  1.00  0.00     0.251 C 
ATOM     37  H   UNL A   1      32.254  34.933  28.737  1.00  0.00     0.163 HD
ATOM     38  O   UNL A   1      32.630  35.519  31.055  1.00  0.00    -0.269 OA
BRANCH  36  39
ATOM     39  C   UNL A   1      34.553  34.169  31.021  1.00  0.00     0.039 A 
ATOM     40  C   UNL A   1      34.468  32.964  31.721  1.00  0.00     0.014 A 
ATOM     41  C   UNL A   1      35.779  34.831  30.908  1.00  0.00     0.014 A 
ATOM     42  C   UNL A   1      35.623  32.396  32.263  1.00  0.00     0.010 A 
ATOM     43  C   UNL A   1      36.940  34.226  31.381  1.00  0.00     0.010 A 
ATOM     44  C   UNL A   1      36.874  33.007  32.072  1.00  0.00    -0.014 A 
BRANCH  44  45
ATOM     45  C   UNL A   1      38.121  32.392  32.596  1.00  0.00     0.031 A 
ATOM     46  C   UNL A   1      38.576  32.688  34.002  1.00  0.00     0.074 A 
ATOM     47  C   UNL A   1      38.874  31.617  31.791  1.00  0.00     0.049 A 
ATOM     48  N   UNL A   1      39.661  32.292  34.617  1.00  0.00    -0.248 NA
ATOM     49  C   UNL A   1      37.713  33.562  34.813  1.00  0.00     0.031 C 
ATOM     50  C   UNL A   1      38.560  31.286  30.399  1.00  0.00     0.029 A 
ATOM     51  N   UNL A   1      40.062  30.969  32.025  1.00  0.00    -0.354 N 
ATOM     52  C   UNL A   1      39.618  32.879  35.877  1.00  0.00     0.074 A 
ATOM     53  C   UNL A   1      38.429  33.702  35.918  1.00  0.00     0.031 C 
ATOM     54  C   UNL A   1      39.515  30.476  29.913  1.00  0.00     0.029 A 
ATOM     55  C   UNL A   1      40.530  30.265  30.940  1.00  0.00     0.049 A 
ATOM     56  H   UNL A   1      40.534  31.006  32.887  1.00  0.00     0.167 HD
ATOM     57  C   UNL A   1      40.478  32.732  36.912  1.00  0.00     0.031 A 
ATOM     58  C   UNL A   1      41.654  29.538  30.786  1.00  0.00     0.031 A 
ATOM     59  C   UNL A   1      41.655  31.905  36.869  1.00  0.00     0.049 A 
ATOM     60  C   UNL A   1      42.604  29.403  31.945  1.00  0.00     0.074 A 
ATOM     61  C   UNL A   1      42.562  31.647  37.881  1.00  0.00     0.029 A 
ATOM     62  N   UNL A   1      42.090  31.204  35.753  1.00  0.00    -0.354 N 
ATOM     63  N   UNL A   1      42.511  29.914  33.149  1.00  0.00    -0.248 NA
ATOM     64  C   UNL A   1      43.803  28.583  31.728  1.00  0.00     0.031 C 
ATOM     65  C   UNL A   1      43.578  30.840  37.361  1.00  0.00     0.029 A 
ATOM     66  C   UNL A   1      43.268  30.538  36.045  1.00  0.00     0.049 A 
ATOM     67  H   UNL A   1      41.631  31.185  34.883  1.00  0.00     0.167 HD
ATOM     68  C   UNL A   1      43.624  29.453  33.843  1.00  0.00     0.074 A 
ATOM     69  C   UNL A   1      44.367  28.610  32.928  1.00  0.00     0.031 C 
ATOM     70  C   UNL A   1      43.996  29.702  35.123  1.00  0.00     0.031 A 
BRANCH  57  71
ATOM     71  C   UNL A   1      40.182  33.490  38.181  1.00  0.00    -0.014 A 
ATOM     72  C   UNL A   1      40.674  34.792  38.385  1.00  0.00     0.010 A 
ATOM     73  C   UNL A   1      39.364  32.908  39.166  1.00  0.00     0.010 A 
ATOM     74  C   UNL A   1      40.391  35.481  39.568  1.00  0.00     0.020 A 
ATOM     75  C   UNL A   1      39.052  33.605  40.338  1.00  0.00     0.020 A 
ATOM     76  C   UNL A   1      39.582  34.881  40.538  1.00  0.00     0.054 A 
BRANCH  76  77
ATOM     77  S   UNL A   1      39.212  35.807  42.053  1.00  0.00     0.124 S 
ATOM     78  O   UNL A   1      37.815  35.449  42.291  1.00  0.00    -0.237 OA
ATOM     79  O   UNL A   1      40.172  35.255  43.006  1.00  0.00    -0.237 OA
ATOM     80  O   UNL A   1      39.443  37.199  41.675  1.00  0.00    -0.744 OA
ENDBRANCH  76  77
ENDBRANCH  57  71
BRANCH  58  81
ATOM     81  C   UNL A   1      41.936  28.872  29.483  1.00  0.00    -0.014 A 
ATOM     82  C   UNL A   1      41.595  27.523  29.281  1.00  0.00     0.010 A 
ATOM     83  C   UNL A   1      42.539  29.589  28.434  1.00  0.00     0.010 A 
ATOM     84  C   UNL A   1      41.872  26.898  28.061  1.00  0.00     0.020 A 
ATOM     85  C   UNL A   1      42.790  28.976  27.203  1.00  0.00     0.020 A 
ATOM     86  C   UNL A   1      42.465  27.630  27.028  1.00  0.00     0.054 A 
BRANCH  86  87
ATOM     87  S   UNL A   1      42.773  26.810  25.439  1.00  0.00     0.124 S 
ATOM     88  O   UNL A   1      44.064  26.171  25.673  1.00  0.00    -0.237 OA
ATOM     89  O   UNL A   1      41.629  25.908  25.326  1.00  0.00    -0.237 OA
ATOM     90  O   UNL A   1      42.783  27.914  24.483  1.00  0.00    -0.744 OA
ENDBRANCH  86  87
ENDBRANCH  58  81
BRANCH  70  91
ATOM     91  C   UNL A   1      45.245  29.026  35.628  1.00  0.00    -0.014 A 
ATOM     92  C   UNL A   1      46.501  29.652  35.548  1.00  0.00     0.010 A 
ATOM     93  C   UNL A   1      45.146  27.766  36.247  1.00  0.00     0.010 A 
ATOM     94  C   UNL A   1      47.640  29.016  36.048  1.00  0.00     0.020 A 
ATOM     95  C   UNL A   1      46.276  27.141  36.776  1.00  0.00     0.020 A 
ATOM     96  C   UNL A   1      47.520  27.765  36.660  1.00  0.00     0.054 A 
BRANCH  96  97
ATOM     97  S   UNL A   1      49.007  26.981  37.343  1.00  0.00     0.124 S 
ATOM     98  O   UNL A   1      49.490  28.002  38.269  1.00  0.00    -0.237 OA
ATOM     99  O   UNL A   1      48.473  25.771  37.963  1.00  0.00    -0.237 OA
ATOM    100  O   UNL A   1      49.849  26.754  36.171  1.00  0.00    -0.744 OA
ENDBRANCH  96  97
ENDBRANCH  70  91
ENDBRANCH  44  45
ENDBRANCH  36  39
ENDBRANCH  34  35
ENDBRANCH  33  34
ENDBRANCH  32  33
ENDBRANCH   1  32
TORSDOF 19
ENDMDL
MODEL 2
REMARK VINA RESULT:     -11.4      6.396      9.186
REMARK SMILES C[N@@H+]1CC[C@H]2CN(C(=O)c3csc(-c4ccncc4)n3)C[C@@]2(C(=O)NCCCCCCNC(=O)c2ccc(-c3c4nc(c(-c5ccc(S(=O)(=O)[O-])cc5)c5ccc([nH]5)c(-c5ccc(S(=O)(=O)[O-])cc5)c5nc(c(-c6ccc(S(=O)(=O)[O-])cc6)c6ccc3[nH]6)C=C5)C=C4)cc2)C1
REMARK SMILES IDX 28 1 27 2 26 3 25 4 23 5 24 6 22 8 1 9 2 10 3 11 95 12 4 14
REMARK SMILES IDX 5 15 21 16 6 17 7 18 8 19 9 20 10 21 11 22 20 23 12 24 13 25
REMARK SMILES IDX 14 26 15 27 19 28 16 29 18 30 17 31 29 32 30 33 31 34 32 35
REMARK SMILES IDX 33 36 34 38 35 39 36 40 94 41 37 42 93 43 38 44 39 45 40 46
REMARK SMILES IDX 87 47 41 48 92 49 86 50 88 51 42 52 91 53 85 54 84 55 43 57
REMARK SMILES IDX 73 58 54 59 72 60 55 61 58 62 71 63 89 64 56 65 57 66 70 68
REMARK SMILES IDX 90 69 59 70 44 71 45 72 53 73 46 74 52 75 47 76 48 77 49 78
REMARK SMILES IDX 50 79 51 80 74 81 75 82 83 83 76 84 82 85 77 86 78 87 79 88
REMARK SMILES IDX 80 89 81 90 60 91 61 92 69 93 62 94 68 95 63 96 64 97 65 98
REMARK SMILES IDX 66 99 67 100
REMARK H PARENT 25 7 2 13 32 37 88 56 58 67
REMARK Flexibility Score: inf
ROOT
ATOM      1  C   UNL A   1      33.875  28.111  26.310  1.00  0.00     0.002 C 
ENDROOT
BRANCH   1   2
ATOM      2  C   UNL A   1      32.657  27.205  26.486  1.00  0.00     0.021 C 
BRANCH   2   3
ATOM      3  C   UNL A   1      32.322  26.310  25.294  1.00  0.00     0.116 C 
BRANCH   3   4
ATOM      4  N   UNL A   1      31.538  25.081  25.525  1.00  0.00    -0.355 N 
ATOM      5  C   UNL A   1      31.823  23.722  25.492  1.00  0.00     0.234 C 
ATOM      6  O   UNL A   1      31.082  22.978  26.139  1.00  0.00    -0.274 OA
ATOM      7  H   UNL A   1      30.599  25.267  25.756  1.00  0.00     0.163 HD
BRANCH   5   8
ATOM      8  C   UNL A   1      32.910  23.157  24.554  1.00  0.00     0.120 C 
ATOM      9  C   UNL A   1      33.561  21.720  27.561  1.00  0.00     0.332 C 
ATOM     10  N   UNL A   1      34.100  21.536  26.212  1.00  0.00    -0.336 N 
ATOM     11  C   UNL A   1      35.343  22.300  26.090  1.00  0.00     0.262 C 
ATOM     12  C   UNL A   1      33.123  21.713  25.100  1.00  0.00     0.281 C 
ATOM     13  H   UNL A   1      34.325  20.549  26.093  1.00  0.00     0.347 HD
ATOM     14  C   UNL A   1      35.497  22.924  24.727  1.00  0.00     0.068 C 
ATOM     15  C   UNL A   1      34.316  23.860  24.439  1.00  0.00     0.037 C 
ATOM     16  C   UNL A   1      32.345  23.387  23.143  1.00  0.00     0.143 C 
ATOM     17  C   UNL A   1      34.494  24.327  22.988  1.00  0.00     0.125 C 
ATOM     18  N   UNL A   1      33.172  24.364  22.472  1.00  0.00    -0.336 N 
BRANCH  18  19
ATOM     19  C   UNL A   1      32.801  25.233  21.454  1.00  0.00     0.273 C 
ATOM     20  O   UNL A   1      32.887  24.912  20.272  1.00  0.00    -0.267 OA
BRANCH  19  21
ATOM     21  C   UNL A   1      32.343  26.578  21.846  1.00  0.00     0.139 A 
ATOM     22  C   UNL A   1      33.178  27.574  22.318  1.00  0.00     0.101 A 
ATOM     23  N   UNL A   1      30.983  26.923  21.861  1.00  0.00    -0.231 NA
ATOM     24  S   UNL A   1      32.271  28.966  22.743  1.00  0.00    -0.122 S 
ATOM     25  C   UNL A   1      30.818  28.136  22.348  1.00  0.00     0.124 A 
BRANCH  25  26
ATOM     26  C   UNL A   1      29.522  28.769  22.599  1.00  0.00     0.013 A 
ATOM     27  C   UNL A   1      29.355  30.136  22.355  1.00  0.00     0.031 A 
ATOM     28  C   UNL A   1      28.439  28.038  23.093  1.00  0.00     0.031 A 
ATOM     29  C   UNL A   1      28.121  30.708  22.612  1.00  0.00     0.111 A 
ATOM     30  C   UNL A   1      27.246  28.705  23.327  1.00  0.00     0.111 A 
ATOM     31  N   UNL A   1      27.067  30.024  23.105  1.00  0.00    -0.265 NA
ENDBRANCH  25  26
ENDBRANCH  19  21
ENDBRANCH  18  19
ENDBRANCH   5   8
ENDBRANCH   3   4
ENDBRANCH   2   3
ENDBRANCH   1   2
BRANCH   1  32
ATOM     32  C   UNL A   1      34.233  28.983  27.519  1.00  0.00     0.002 C 
BRANCH  32  33
ATOM     33  C   UNL A   1      34.625  30.436  27.217  1.00  0.00     0.021 C 
BRANCH  33  34
ATOM     34  C   UNL A   1      35.769  30.984  28.059  1.00  0.00     0.116 C 
BRANCH  34  35
ATOM     35  N   UNL A   1      35.580  30.706  29.471  1.00  0.00    -0.352 N 
ATOM     36  C   UNL A   1      36.354  29.957  30.324  1.00  0.00     0.251 C 
ATOM     37  H   UNL A   1      34.781  31.115  29.877  1.00  0.00     0.163 HD
ATOM     38  O   UNL A   1      35.916  29.637  31.422  1.00  0.00    -0.269 OA
BRANCH  36  39
ATOM     39  C   UNL A   1      37.706  29.527  29.905  1.00  0.00     0.039 A 
ATOM     40  C   UNL A   1      38.024  29.515  28.546  1.00  0.00     0.014 A 
ATOM     41  C   UNL A   1      38.653  29.121  30.851  1.00  0.00     0.014 A 
ATOM     42  C   UNL A   1      39.309  29.147  28.139  1.00  0.00     0.010 A 
ATOM     43  C   UNL A   1      39.953  28.830  30.451  1.00  0.00     0.010 A 
ATOM     44  C   UNL A   1      40.294  28.830  29.091  1.00  0.00    -0.014 A 
BRANCH  44  45
ATOM     45  C   UNL A   1      41.680  28.486  28.681  1.00  0.00     0.031 A 
ATOM     46  C   UNL A   1      42.737  29.558  28.617  1.00  0.00     0.074 A 
ATOM     47  C   UNL A   1      41.973  27.224  28.308  1.00  0.00     0.049 A 
ATOM     48  N   UNL A   1      43.984  29.464  28.231  1.00  0.00    -0.248 NA
ATOM     49  C   UNL A   1      42.335  30.917  29.016  1.00  0.00     0.031 C 
ATOM     50  C   UNL A   1      41.028  26.105  28.291  1.00  0.00     0.029 A 
ATOM     51  N   UNL A   1      43.150  26.670  27.869  1.00  0.00    -0.354 N 
ATOM     52  C   UNL A   1      44.508  30.748  28.325  1.00  0.00     0.074 A 
ATOM     53  C   UNL A   1      43.430  31.614  28.752  1.00  0.00     0.031 C 
ATOM     54  C   UNL A   1      41.669  24.995  27.891  1.00  0.00     0.029 A 
ATOM     55  C   UNL A   1      43.055  25.329  27.580  1.00  0.00     0.049 A 
ATOM     56  H   UNL A   1      43.983  27.185  27.769  1.00  0.00     0.167 HD
ATOM     57  C   UNL A   1      45.775  31.167  28.095  1.00  0.00     0.031 A 
ATOM     58  C   UNL A   1      43.976  24.466  27.110  1.00  0.00     0.031 A 
ATOM     59  C   UNL A   1      46.846  30.301  27.680  1.00  0.00     0.049 A 
ATOM     60  C   UNL A   1      45.374  24.958  26.847  1.00  0.00     0.074 A 
ATOM     61  C   UNL A   1      48.176  30.618  27.473  1.00  0.00     0.029 A 
ATOM     62  N   UNL A   1      46.709  28.948  27.403  1.00  0.00    -0.354 N 
ATOM     63  N   UNL A   1      45.865  26.164  27.005  1.00  0.00    -0.248 NA
ATOM     64  C   UNL A   1      46.344  23.971  26.354  1.00  0.00     0.031 C 
ATOM     65  C   UNL A   1      48.832  29.471  27.014  1.00  0.00     0.029 A 
ATOM     66  C   UNL A   1      47.925  28.424  27.000  1.00  0.00     0.049 A 
ATOM     67  H   UNL A   1      45.871  28.438  27.481  1.00  0.00     0.167 HD
ATOM     68  C   UNL A   1      47.209  26.073  26.660  1.00  0.00     0.074 A 
ATOM     69  C   UNL A   1      47.456  24.692  26.300  1.00  0.00     0.031 C 
ATOM     70  C   UNL A   1      48.155  27.046  26.645  1.00  0.00     0.031 A 
BRANCH  57  71
ATOM     71  C   UNL A   1      46.071  32.634  28.283  1.00  0.00    -0.014 A 
ATOM     72  C   UNL A   1      46.738  33.102  29.430  1.00  0.00     0.010 A 
ATOM     73  C   UNL A   1      45.715  33.552  27.279  1.00  0.00     0.010 A 
ATOM     74  C   UNL A   1      47.005  34.465  29.589  1.00  0.00     0.020 A 
ATOM     75  C   UNL A   1      46.007  34.912  27.419  1.00  0.00     0.020 A 
ATOM     76  C   UNL A   1      46.636  35.361  28.582  1.00  0.00     0.054 A 
BRANCH  76  77
ATOM     77  S   UNL A   1      47.014  37.121  28.806  1.00  0.00     0.124 S 
ATOM     78  O   UNL A   1      46.381  37.405  30.092  1.00  0.00    -0.237 OA
ATOM     79  O   UNL A   1      48.475  37.136  28.808  1.00  0.00    -0.237 OA
ATOM     80  O   UNL A   1      46.390  37.761  27.650  1.00  0.00    -0.744 OA
ENDBRANCH  76  77
ENDBRANCH  57  71
BRANCH  58  81
ATOM     81  C   UNL A   1      43.609  23.043  26.869  1.00  0.00    -0.014 A 
ATOM     82  C   UNL A   1      42.950  22.295  27.862  1.00  0.00     0.010 A 
ATOM     83  C   UNL A   1      43.908  22.430  25.638  1.00  0.00     0.010 A 
ATOM     84  C   UNL A   1      42.617  20.956  27.636  1.00  0.00     0.020 A 
ATOM     85  C   UNL A   1      43.548  21.101  25.398  1.00  0.00     0.020 A 
ATOM     86  C   UNL A   1      42.916  20.368  26.403  1.00  0.00     0.054 A 
BRANCH  86  87
ATOM     87  S   UNL A   1      42.433  18.643  26.117  1.00  0.00     0.124 S 
ATOM     88  O   UNL A   1      41.018  18.775  25.783  1.00  0.00    -0.237 OA
ATOM     89  O   UNL A   1      43.311  18.250  25.017  1.00  0.00    -0.237 OA
ATOM     90  O   UNL A   1      42.718  17.994  27.394  1.00  0.00    -0.744 OA
ENDBRANCH  86  87
ENDBRANCH  58  81
BRANCH  70  91
ATOM     91  C   UNL A   1      49.557  26.646  26.263  1.00  0.00    -0.014 A 
ATOM     92  C   UNL A   1      50.434  26.067  27.196  1.00  0.00     0.010 A 
ATOM     93  C   UNL A   1      49.980  26.803  24.930  1.00  0.00     0.010 A 
ATOM     94  C   UNL A   1      51.720  25.680  26.810  1.00  0.00     0.020 A 
ATOM     95  C   UNL A   1      51.253  26.389  24.533  1.00  0.00     0.020 A 
ATOM     96  C   UNL A   1      52.121  25.843  25.480  1.00  0.00     0.054 A 
BRANCH  96  97
ATOM     97  S   UNL A   1      53.779  25.289  24.995  1.00  0.00     0.124 S 
ATOM     98  O   UNL A   1      54.003  26.045  23.765  1.00  0.00    -0.237 OA
ATOM     99  O   UNL A   1      54.596  25.690  26.137  1.00  0.00    -0.237 OA
ATOM    100  O   UNL A   1      53.627  23.847  24.820  1.00  0.00    -0.744 OA
ENDBRANCH  96  97
ENDBRANCH  70  91
ENDBRANCH  44  45
ENDBRANCH  36  39
ENDBRANCH  34  35
ENDBRANCH  33  34
ENDBRANCH  32  33
ENDBRANCH   1  32
TORSDOF 19
ENDMDL
MODEL 3
REMARK VINA RESULT:     -11.2      2.724      9.392
REMARK SMILES C[N@@H+]1CC[C@H]2CN(C(=O)c3csc(-c4ccncc4)n3)C[C@@]2(C(=O)NCCCCCCNC(=O)c2ccc(-c3c4nc(c(-c5ccc(S(=O)(=O)[O-])cc5)c5ccc([nH]5)c(-c5ccc(S(=O)(=O)[O-])cc5)c5nc(c(-c6ccc(S(=O)(=O)[O-])cc6)c6ccc3[nH]6)C=C5)C=C4)cc2)C1
REMARK SMILES IDX 28 1 27 2 26 3 25 4 23 5 24 6 22 8 1 9 2 10 3 11 95 12 4 14
REMARK SMILES IDX 5 15 21 16 6 17 7 18 8 19 9 20 10 21 11 22 20 23 12 24 13 25
REMARK SMILES IDX 14 26 15 27 19 28 16 29 18 30 17 31 29 32 30 33 31 34 32 35
REMARK SMILES IDX 33 36 34 38 35 39 36 40 94 41 37 42 93 43 38 44 39 45 40 46
REMARK SMILES IDX 87 47 41 48 92 49 86 50 88 51 42 52 91 53 85 54 84 55 43 57
REMARK SMILES IDX 73 58 54 59 72 60 55 61 58 62 71 63 89 64 56 65 57 66 70 68
REMARK SMILES IDX 90 69 59 70 44 71 45 72 53 73 46 74 52 75 47 76 48 77 49 78
REMARK SMILES IDX 50 79 51 80 74 81 75 82 83 83 76 84 82 85 77 86 78 87 79 88
REMARK SMILES IDX 80 89 81 90 60 91 61 92 69 93 62 94 68 95 63 96 64 97 65 98
REMARK SMILES IDX 66 99 67 100
REMARK H PARENT 25 7 2 13 32 37 88 56 58 67
REMARK Flexibility Score: inf
ROOT
ATOM      1  C   UNL A   1      37.860  22.703  25.707  1.00  0.00     0.002 C 
ENDROOT
BRANCH   1   2
ATOM      2  C   UNL A   1      36.878  23.654  25.023  1.00  0.00     0.021 C 
BRANCH   2   3
ATOM      3  C   UNL A   1      35.425  23.182  24.977  1.00  0.00     0.116 C 
BRANCH   3   4
ATOM      4  N   UNL A   1      34.544  23.480  26.123  1.00  0.00    -0.355 N 
ATOM      5  C   UNL A   1      33.194  23.293  26.390  1.00  0.00     0.234 C 
ATOM      6  O   UNL A   1      32.856  23.255  27.575  1.00  0.00    -0.274 OA
ATOM      7  H   UNL A   1      35.023  23.910  26.869  1.00  0.00     0.163 HD
BRANCH   5   8
ATOM      8  C   UNL A   1      32.147  23.301  25.255  1.00  0.00     0.120 C 
ATOM      9  C   UNL A   1      32.995  20.031  25.596  1.00  0.00     0.332 C 
ATOM     10  N   UNL A   1      31.978  20.737  24.816  1.00  0.00    -0.336 N 
ATOM     11  C   UNL A   1      32.470  20.923  23.451  1.00  0.00     0.262 C 
ATOM     12  C   UNL A   1      31.399  21.950  25.464  1.00  0.00     0.281 C 
ATOM     13  H   UNL A   1      31.146  20.149  24.773  1.00  0.00     0.347 HD
ATOM     14  C   UNL A   1      32.063  22.254  22.874  1.00  0.00     0.068 C 
ATOM     15  C   UNL A   1      32.598  23.395  23.748  1.00  0.00     0.037 C 
ATOM     16  C   UNL A   1      31.413  24.640  25.432  1.00  0.00     0.143 C 
ATOM     17  C   UNL A   1      32.012  24.686  23.160  1.00  0.00     0.125 C 
ATOM     18  N   UNL A   1      31.717  25.481  24.298  1.00  0.00    -0.336 N 
BRANCH  18  19
ATOM     19  C   UNL A   1      31.723  26.870  24.248  1.00  0.00     0.273 C 
ATOM     20  O   UNL A   1      32.729  27.518  24.524  1.00  0.00    -0.267 OA
BRANCH  19  21
ATOM     21  C   UNL A   1      30.458  27.539  23.895  1.00  0.00     0.139 A 
ATOM     22  C   UNL A   1      29.243  26.889  23.782  1.00  0.00     0.101 A 
ATOM     23  N   UNL A   1      30.409  28.898  23.548  1.00  0.00    -0.231 NA
ATOM     24  S   UNL A   1      28.022  27.984  23.279  1.00  0.00    -0.122 S 
ATOM     25  C   UNL A   1      29.194  29.237  23.170  1.00  0.00     0.124 A 
BRANCH  25  26
ATOM     26  C   UNL A   1      28.815  30.550  22.645  1.00  0.00     0.013 A 
ATOM     27  C   UNL A   1      28.398  30.676  21.317  1.00  0.00     0.031 A 
ATOM     28  C   UNL A   1      28.873  31.696  23.442  1.00  0.00     0.031 A 
ATOM     29  C   UNL A   1      28.057  31.933  20.846  1.00  0.00     0.111 A 
ATOM     30  C   UNL A   1      28.519  32.911  22.874  1.00  0.00     0.111 A 
ATOM     31  N   UNL A   1      28.122  33.055  21.593  1.00  0.00    -0.265 NA
ENDBRANCH  25  26
ENDBRANCH  19  21
ENDBRANCH  18  19
ENDBRANCH   5   8
ENDBRANCH   3   4
ENDBRANCH   2   3
ENDBRANCH   1   2
BRANCH   1  32
ATOM     32  C   UNL A   1      38.940  23.370  26.567  1.00  0.00     0.002 C 
BRANCH  32  33
ATOM     33  C   UNL A   1      40.200  22.538  26.840  1.00  0.00     0.021 C 
BRANCH  33  34
ATOM     34  C   UNL A   1      41.430  23.343  27.233  1.00  0.00     0.116 C 
BRANCH  34  35
ATOM     35  N   UNL A   1      41.962  24.096  26.112  1.00  0.00    -0.352 N 
ATOM     36  C   UNL A   1      42.009  25.456  25.919  1.00  0.00     0.251 C 
ATOM     37  H   UNL A   1      42.346  23.554  25.385  1.00  0.00     0.163 HD
ATOM     38  O   UNL A   1      42.277  25.905  24.811  1.00  0.00    -0.269 OA
BRANCH  36  39
ATOM     39  C   UNL A   1      41.720  26.370  27.045  1.00  0.00     0.039 A 
ATOM     40  C   UNL A   1      40.703  26.040  27.944  1.00  0.00     0.014 A 
ATOM     41  C   UNL A   1      42.439  27.559  27.205  1.00  0.00     0.014 A 
ATOM     42  C   UNL A   1      40.445  26.876  29.034  1.00  0.00     0.010 A 
ATOM     43  C   UNL A   1      42.233  28.349  28.331  1.00  0.00     0.010 A 
ATOM     44  C   UNL A   1      41.228  28.022  29.253  1.00  0.00    -0.014 A 
BRANCH  44  45
ATOM     45  C   UNL A   1      41.002  28.896  30.434  1.00  0.00     0.031 A 
ATOM     46  C   UNL A   1      41.850  28.732  31.668  1.00  0.00     0.074 A 
ATOM     47  C   UNL A   1      39.997  29.794  30.418  1.00  0.00     0.049 A 
ATOM     48  N   UNL A   1      41.768  29.359  32.813  1.00  0.00    -0.248 NA
ATOM     49  C   UNL A   1      42.912  27.714  31.618  1.00  0.00     0.031 C 
ATOM     50  C   UNL A   1      39.082  30.022  29.297  1.00  0.00     0.029 A 
ATOM     51  N   UNL A   1      39.573  30.681  31.376  1.00  0.00    -0.354 N 
ATOM     52  C   UNL A   1      42.753  28.803  33.621  1.00  0.00     0.074 A 
ATOM     53  C   UNL A   1      43.384  27.751  32.855  1.00  0.00     0.031 C 
ATOM     54  C   UNL A   1      38.226  31.004  29.621  1.00  0.00     0.029 A 
ATOM     55  C   UNL A   1      38.498  31.444  30.985  1.00  0.00     0.049 A 
ATOM     56  H   UNL A   1      39.998  30.762  32.260  1.00  0.00     0.167 HD
ATOM     57  C   UNL A   1      43.114  29.149  34.880  1.00  0.00     0.031 A 
ATOM     58  C   UNL A   1      37.803  32.387  31.652  1.00  0.00     0.031 A 
ATOM     59  C   UNL A   1      42.490  30.203  35.635  1.00  0.00     0.049 A 
ATOM     60  C   UNL A   1      38.212  32.742  33.056  1.00  0.00     0.074 A 
ATOM     61  C   UNL A   1      42.818  30.667  36.897  1.00  0.00     0.029 A 
ATOM     62  N   UNL A   1      41.409  30.955  35.201  1.00  0.00    -0.354 N 
ATOM     63  N   UNL A   1      39.190  32.249  33.778  1.00  0.00    -0.248 NA
ATOM     64  C   UNL A   1      37.433  33.790  33.729  1.00  0.00     0.031 C 
ATOM     65  C   UNL A   1      41.897  31.658  37.250  1.00  0.00     0.029 A 
ATOM     66  C   UNL A   1      41.039  31.859  36.182  1.00  0.00     0.049 A 
ATOM     67  H   UNL A   1      40.968  30.859  34.326  1.00  0.00     0.167 HD
ATOM     68  C   UNL A   1      39.161  32.948  34.980  1.00  0.00     0.074 A 
ATOM     69  C   UNL A   1      38.081  33.908  34.880  1.00  0.00     0.031 C 
ATOM     70  C   UNL A   1      39.960  32.809  36.067  1.00  0.00     0.031 A 
BRANCH  57  71
ATOM     71  C   UNL A   1      44.235  28.373  35.525  1.00  0.00    -0.014 A 
ATOM     72  C   UNL A   1      45.573  28.792  35.410  1.00  0.00     0.010 A 
ATOM     73  C   UNL A   1      43.942  27.231  36.291  1.00  0.00     0.010 A 
ATOM     74  C   UNL A   1      46.600  28.060  36.012  1.00  0.00     0.020 A 
ATOM     75  C   UNL A   1      44.963  26.513  36.923  1.00  0.00     0.020 A 
ATOM     76  C   UNL A   1      46.288  26.924  36.764  1.00  0.00     0.054 A 
BRANCH  76  77
ATOM     77  S   UNL A   1      47.639  26.007  37.553  1.00  0.00     0.124 S 
ATOM     78  O   UNL A   1      47.018  24.707  37.797  1.00  0.00    -0.237 OA
ATOM     79  O   UNL A   1      48.679  26.024  36.527  1.00  0.00    -0.237 OA
ATOM     80  O   UNL A   1      47.937  26.789  38.751  1.00  0.00    -0.744 OA
ENDBRANCH  76  77
ENDBRANCH  57  71
BRANCH  58  81
ATOM     81  C   UNL A   1      36.654  33.069  30.994  1.00  0.00    -0.014 A 
ATOM     82  C   UNL A   1      35.352  32.933  31.505  1.00  0.00     0.010 A 
ATOM     83  C   UNL A   1      36.860  33.870  29.855  1.00  0.00     0.010 A 
ATOM     84  C   UNL A   1      34.274  33.566  30.879  1.00  0.00     0.020 A 
ATOM     85  C   UNL A   1      35.790  34.529  29.244  1.00  0.00     0.020 A 
ATOM     86  C   UNL A   1      34.501  34.364  29.752  1.00  0.00     0.054 A 
BRANCH  86  87
ATOM     87  S   UNL A   1      33.094  35.212  28.983  1.00  0.00     0.124 S 
ATOM     88  O   UNL A   1      32.629  34.218  28.022  1.00  0.00    -0.237 OA
ATOM     89  O   UNL A   1      32.213  35.454  30.124  1.00  0.00    -0.237 OA
ATOM     90  O   UNL A   1      33.695  36.412  28.405  1.00  0.00    -0.744 OA
ENDBRANCH  86  87
ENDBRANCH  58  81
BRANCH  70  91
ATOM     91  C   UNL A   1      39.724  33.742  37.227  1.00  0.00    -0.014 A 
ATOM     92  C   UNL A   1      39.004  33.332  38.363  1.00  0.00     0.010 A 
ATOM     93  C   UNL A   1      40.284  35.033  37.200  1.00  0.00     0.010 A 
ATOM     94  C   UNL A   1      38.822  34.207  39.437  1.00  0.00     0.020 A 
ATOM     95  C   UNL A   1      40.132  35.899  38.284  1.00  0.00     0.020 A 
ATOM     96  C   UNL A   1      39.388  35.485  39.391  1.00  0.00     0.054 A 
BRANCH  96  97
ATOM     97  S   UNL A   1      39.176  36.585  40.818  1.00  0.00     0.124 S 
ATOM     98  O   UNL A   1      38.266  35.816  41.662  1.00  0.00    -0.237 OA
ATOM     99  O   UNL A   1      40.540  36.718  41.323  1.00  0.00    -0.237 OA
ATOM    100  O   UNL A   1      38.610  37.801  40.238  1.00  0.00    -0.744 OA
ENDBRANCH  96  97
ENDBRANCH  70  91
ENDBRANCH  44  45
ENDBRANCH  36  39
ENDBRANCH  34  35
ENDBRANCH  33  34
ENDBRANCH  32  33
ENDBRANCH   1  32
TORSDOF 19
ENDMDL
