MODEL 1
REMARK VINA RESULT:     -11.6      0.000      0.000
REMARK SMILES COc1ccc(-c2nc(C(C)C)cc3nn(CC(=O)NCCCCCCNC(=O)c4ccc(-c5c6nc(c(-c7ccc(S(=O)(=O)[O-])cc7)c7ccc([nH]7)c(-c7ccc(S(=O)(=O)[O-])cc7)c7nc(c(-c8ccc(S(=O)(=O)[O-])cc8)c8ccc5[nH]8)C=C7)C=C6)cc4)c(=O)n23)cc1
REMARK SMILES IDX 23 1 22 2 21 3 20 4 18 5 19 6 17 8 16 9 7 10 8 11 92 12 9 13
REMARK SMILES IDX 14 14 90 15 13 16 15 17 91 18 6 19 3 20 4 21 94 22 5 23
REMARK SMILES IDX 93 24 2 25 1 26 10 27 11 28 12 29 24 30 25 31 26 32 27 33
REMARK SMILES IDX 28 34 29 36 30 37 31 38 89 39 32 40 88 41 33 42 34 43 35 44
REMARK SMILES IDX 82 45 36 46 87 47 81 48 83 49 37 50 86 51 80 52 79 53 38 55
REMARK SMILES IDX 68 56 49 57 67 58 50 59 53 60 66 61 84 62 51 63 52 64 65 66
REMARK SMILES IDX 85 67 54 68 39 69 40 70 48 71 41 72 47 73 42 74 43 75 44 76
REMARK SMILES IDX 45 77 46 78 69 79 70 80 78 81 71 82 77 83 72 84 73 85 74 86
REMARK SMILES IDX 75 87 76 88 55 89 56 90 64 91 57 92 63 93 58 94 59 95 60 96
REMARK SMILES IDX 61 97 62 98
REMARK H PARENT 20 7 27 35 83 54 53 65
REMARK Flexibility Score: inf
ROOT
ATOM      1  C   UNL A   1      36.034  22.259  24.176  1.00  0.00     0.002 C 
ENDROOT
BRANCH   1   2
ATOM      2  C   UNL A   1      35.531  23.472  24.970  1.00  0.00     0.021 C 
BRANCH   2   3
ATOM      3  C   UNL A   1      34.054  23.398  25.358  1.00  0.00     0.116 C 
BRANCH   3   4
ATOM      4  N   UNL A   1      33.223  22.971  24.250  1.00  0.00    -0.354 N 
ATOM      5  C   UNL A   1      31.896  23.199  24.020  1.00  0.00     0.241 C 
ATOM      6  O   UNL A   1      31.471  22.938  22.889  1.00  0.00    -0.273 OA
ATOM      7  H   UNL A   1      33.682  22.439  23.562  1.00  0.00     0.163 HD
BRANCH   5   8
ATOM      8  C   UNL A   1      31.016  23.915  25.046  1.00  0.00     0.249 C 
BRANCH   8   9
ATOM      9  N   UNL A   1      30.826  25.309  24.737  1.00  0.00    -0.203 N 
ATOM     10  C   UNL A   1      31.341  28.861  24.797  1.00  0.00     0.150 A 
ATOM     11  N   UNL A   1      30.667  29.762  24.144  1.00  0.00    -0.234 NA
ATOM     12  N   UNL A   1      31.028  27.510  24.717  1.00  0.00    -0.226 N 
ATOM     13  C   UNL A   1      29.602  29.356  23.362  1.00  0.00     0.049 A 
ATOM     14  C   UNL A   1      30.011  27.075  23.948  1.00  0.00     0.165 A 
ATOM     15  C   UNL A   1      31.560  26.362  25.305  1.00  0.00     0.352 A 
ATOM     16  C   UNL A   1      29.232  28.071  23.223  1.00  0.00     0.073 A 
ATOM     17  N   UNL A   1      29.827  25.789  23.923  1.00  0.00    -0.149 NA
ATOM     18  O   UNL A   1      32.447  26.239  26.123  1.00  0.00    -0.245 OA
BRANCH  10  19
ATOM     19  C   UNL A   1      32.465  29.247  25.673  1.00  0.00     0.018 A 
ATOM     20  C   UNL A   1      34.511  29.777  27.497  1.00  0.00     0.118 A 
ATOM     21  C   UNL A   1      34.766  29.005  26.361  1.00  0.00     0.047 A 
ATOM     22  C   UNL A   1      33.248  30.346  27.677  1.00  0.00     0.047 A 
ATOM     23  C   UNL A   1      33.747  28.736  25.446  1.00  0.00     0.016 A 
ATOM     24  C   UNL A   1      32.222  30.086  26.761  1.00  0.00     0.016 A 
BRANCH  20  25
ATOM     25  O   UNL A   1      35.576  29.953  28.339  1.00  0.00    -0.497 OA
ATOM     26  C   UNL A   1      36.838  29.598  27.785  1.00  0.00     0.278 C 
ENDBRANCH  20  25
ENDBRANCH  10  19
BRANCH  13  27
ATOM     27  C   UNL A   1      28.838  30.475  22.658  1.00  0.00     0.032 C 
ATOM     28  C   UNL A   1      27.929  29.930  21.551  1.00  0.00     0.014 C 
ATOM     29  C   UNL A   1      28.028  31.318  23.650  1.00  0.00     0.014 C 
ENDBRANCH  13  27
ENDBRANCH   8   9
ENDBRANCH   5   8
ENDBRANCH   3   4
ENDBRANCH   2   3
ENDBRANCH   1   2
BRANCH   1  30
ATOM     30  C   UNL A   1      37.233  21.510  24.778  1.00  0.00     0.002 C 
BRANCH  30  31
ATOM     31  C   UNL A   1      38.327  22.381  25.413  1.00  0.00     0.021 C 
BRANCH  31  32
ATOM     32  C   UNL A   1      39.286  21.616  26.315  1.00  0.00     0.116 C 
BRANCH  32  33
ATOM     33  N   UNL A   1      40.647  21.601  25.788  1.00  0.00    -0.352 N 
ATOM     34  C   UNL A   1      41.538  22.649  25.689  1.00  0.00     0.251 C 
ATOM     35  H   UNL A   1      40.972  20.730  25.463  1.00  0.00     0.163 HD
ATOM     36  O   UNL A   1      42.462  22.596  24.885  1.00  0.00    -0.269 OA
BRANCH  34  37
ATOM     37  C   UNL A   1      41.366  23.835  26.552  1.00  0.00     0.039 A 
ATOM     38  C   UNL A   1      41.628  23.758  27.922  1.00  0.00     0.014 A 
ATOM     39  C   UNL A   1      40.926  25.030  25.981  1.00  0.00     0.014 A 
ATOM     40  C   UNL A   1      41.530  24.913  28.695  1.00  0.00     0.010 A 
ATOM     41  C   UNL A   1      40.935  26.191  26.720  1.00  0.00     0.010 A 
ATOM     42  C   UNL A   1      41.210  26.136  28.083  1.00  0.00    -0.014 A 
BRANCH  42  43
ATOM     43  C   UNL A   1      41.344  27.389  28.825  1.00  0.00     0.031 A 
ATOM     44  C   UNL A   1      42.433  28.267  28.322  1.00  0.00     0.074 A 
ATOM     45  C   UNL A   1      40.449  27.835  29.733  1.00  0.00     0.049 A 
ATOM     46  N   UNL A   1      43.564  28.507  28.899  1.00  0.00    -0.248 NA
ATOM     47  C   UNL A   1      42.340  28.797  26.951  1.00  0.00     0.031 C 
ATOM     48  C   UNL A   1      39.184  27.209  30.128  1.00  0.00     0.029 A 
ATOM     49  N   UNL A   1      40.419  29.019  30.411  1.00  0.00    -0.354 N 
ATOM     50  C   UNL A   1      44.207  29.437  28.092  1.00  0.00     0.074 A 
ATOM     51  C   UNL A   1      43.527  29.395  26.821  1.00  0.00     0.031 C 
ATOM     52  C   UNL A   1      38.411  28.114  30.768  1.00  0.00     0.029 A 
ATOM     53  C   UNL A   1      39.179  29.331  30.966  1.00  0.00     0.049 A 
ATOM     54  H   UNL A   1      41.207  29.602  30.502  1.00  0.00     0.167 HD
ATOM     55  C   UNL A   1      45.037  30.375  28.629  1.00  0.00     0.031 A 
ATOM     56  C   UNL A   1      38.797  30.513  31.520  1.00  0.00     0.031 A 
ATOM     57  C   UNL A   1      45.370  30.062  29.999  1.00  0.00     0.049 A 
ATOM     58  C   UNL A   1      40.037  31.225  31.913  1.00  0.00     0.074 A 
ATOM     59  C   UNL A   1      45.912  28.968  30.647  1.00  0.00     0.029 A 
ATOM     60  N   UNL A   1      44.746  30.809  30.972  1.00  0.00    -0.354 N 
ATOM     61  N   UNL A   1      40.818  30.813  32.870  1.00  0.00    -0.248 NA
ATOM     62  C   UNL A   1      40.650  32.134  30.958  1.00  0.00     0.031 C 
ATOM     63  C   UNL A   1      45.182  28.867  31.868  1.00  0.00     0.029 A 
ATOM     64  C   UNL A   1      44.307  29.951  31.944  1.00  0.00     0.049 A 
ATOM     65  H   UNL A   1      44.635  31.788  30.971  1.00  0.00     0.167 HD
ATOM     66  C   UNL A   1      42.100  31.010  32.380  1.00  0.00     0.074 A 
ATOM     67  C   UNL A   1      41.937  31.934  31.258  1.00  0.00     0.031 C 
ATOM     68  C   UNL A   1      43.122  30.180  32.743  1.00  0.00     0.031 A 
BRANCH  55  69
ATOM     69  C   UNL A   1      45.163  31.785  28.096  1.00  0.00    -0.014 A 
ATOM     70  C   UNL A   1      46.449  32.265  27.765  1.00  0.00     0.010 A 
ATOM     71  C   UNL A   1      44.134  32.743  28.196  1.00  0.00     0.010 A 
ATOM     72  C   UNL A   1      46.706  33.635  27.646  1.00  0.00     0.020 A 
ATOM     73  C   UNL A   1      44.370  34.108  28.029  1.00  0.00     0.020 A 
ATOM     74  C   UNL A   1      45.664  34.549  27.795  1.00  0.00     0.054 A 
BRANCH  74  75
ATOM     75  S   UNL A   1      46.020  36.320  27.741  1.00  0.00     0.124 S 
ATOM     76  O   UNL A   1      46.901  36.481  28.893  1.00  0.00    -0.237 OA
ATOM     77  O   UNL A   1      46.650  36.465  26.431  1.00  0.00    -0.237 OA
ATOM     78  O   UNL A   1      44.702  36.935  27.865  1.00  0.00    -0.744 OA
ENDBRANCH  74  75
ENDBRANCH  55  69
BRANCH  56  79
ATOM     79  C   UNL A   1      37.466  31.175  31.518  1.00  0.00    -0.014 A 
ATOM     80  C   UNL A   1      36.682  31.216  32.690  1.00  0.00     0.010 A 
ATOM     81  C   UNL A   1      37.090  32.024  30.458  1.00  0.00     0.010 A 
ATOM     82  C   UNL A   1      35.634  32.143  32.834  1.00  0.00     0.020 A 
ATOM     83  C   UNL A   1      36.039  32.944  30.589  1.00  0.00     0.020 A 
ATOM     84  C   UNL A   1      35.341  33.025  31.792  1.00  0.00     0.054 A 
BRANCH  84  85
ATOM     85  S   UNL A   1      34.154  34.375  32.071  1.00  0.00     0.124 S 
ATOM     86  O   UNL A   1      35.000  35.431  32.619  1.00  0.00    -0.237 OA
ATOM     87  O   UNL A   1      33.629  34.619  30.730  1.00  0.00    -0.237 OA
ATOM     88  O   UNL A   1      33.189  33.805  33.011  1.00  0.00    -0.744 OA
ENDBRANCH  84  85
ENDBRANCH  56  79
BRANCH  68  89
ATOM     89  C   UNL A   1      42.930  29.269  33.933  1.00  0.00    -0.014 A 
ATOM     90  C   UNL A   1      42.765  29.717  35.260  1.00  0.00     0.010 A 
ATOM     91  C   UNL A   1      42.783  27.896  33.669  1.00  0.00     0.010 A 
ATOM     92  C   UNL A   1      42.504  28.806  36.295  1.00  0.00     0.020 A 
ATOM     93  C   UNL A   1      42.500  26.989  34.690  1.00  0.00     0.020 A 
ATOM     94  C   UNL A   1      42.378  27.445  36.002  1.00  0.00     0.054 A 
BRANCH  94  95
ATOM     95  S   UNL A   1      42.023  26.269  37.338  1.00  0.00     0.124 S 
ATOM     96  O   UNL A   1      40.681  26.664  37.759  1.00  0.00    -0.237 OA
ATOM     97  O   UNL A   1      42.118  24.975  36.666  1.00  0.00    -0.237 OA
ATOM     98  O   UNL A   1      43.078  26.527  38.318  1.00  0.00    -0.744 OA
ENDBRANCH  94  95
ENDBRANCH  68  89
ENDBRANCH  42  43
ENDBRANCH  34  37
ENDBRANCH  32  33
ENDBRANCH  31  32
ENDBRANCH  30  31
ENDBRANCH   1  30
TORSDOF 20
ENDMDL
MODEL 2
REMARK VINA RESULT:     -11.1      3.148      5.924
REMARK SMILES COc1ccc(-c2nc(C(C)C)cc3nn(CC(=O)NCCCCCCNC(=O)c4ccc(-c5c6nc(c(-c7ccc(S(=O)(=O)[O-])cc7)c7ccc([nH]7)c(-c7ccc(S(=O)(=O)[O-])cc7)c7nc(c(-c8ccc(S(=O)(=O)[O-])cc8)c8ccc5[nH]8)C=C7)C=C6)cc4)c(=O)n23)cc1
REMARK SMILES IDX 23 1 22 2 21 3 20 4 18 5 19 6 17 8 16 9 7 10 8 11 92 12 9 13
REMARK SMILES IDX 14 14 90 15 13 16 15 17 91 18 6 19 3 20 4 21 94 22 5 23
REMARK SMILES IDX 93 24 2 25 1 26 10 27 11 28 12 29 24 30 25 31 26 32 27 33
REMARK SMILES IDX 28 34 29 36 30 37 31 38 89 39 32 40 88 41 33 42 34 43 35 44
REMARK SMILES IDX 82 45 36 46 87 47 81 48 83 49 37 50 86 51 80 52 79 53 38 55
REMARK SMILES IDX 68 56 49 57 67 58 50 59 53 60 66 61 84 62 51 63 52 64 65 66
REMARK SMILES IDX 85 67 54 68 39 69 40 70 48 71 41 72 47 73 42 74 43 75 44 76
REMARK SMILES IDX 45 77 46 78 69 79 70 80 78 81 71 82 77 83 72 84 73 85 74 86
REMARK SMILES IDX 75 87 76 88 55 89 56 90 64 91 57 92 63 93 58 94 59 95 60 96
REMARK SMILES IDX 61 97 62 98
REMARK H PARENT 20 7 27 35 83 54 53 65
REMARK Flexibility Score: inf
ROOT
ATOM      1  C   UNL A   1      42.540  19.878  25.875  1.00  0.00     0.002 C 
ENDROOT
BRANCH   1   2
ATOM      2  C   UNL A   1      41.403  20.091  26.883  1.00  0.00     0.021 C 
BRANCH   2   3
ATOM      3  C   UNL A   1      40.058  20.440  26.246  1.00  0.00     0.116 C 
BRANCH   3   4
ATOM      4  N   UNL A   1      39.581  21.743  26.664  1.00  0.00    -0.354 N 
ATOM      5  C   UNL A   1      38.580  22.512  26.143  1.00  0.00     0.241 C 
ATOM      6  O   UNL A   1      38.202  23.474  26.820  1.00  0.00    -0.273 OA
ATOM      7  H   UNL A   1      40.047  22.131  27.439  1.00  0.00     0.163 HD
BRANCH   5   8
ATOM      8  C   UNL A   1      37.833  22.100  24.873  1.00  0.00     0.249 C 
BRANCH   8   9
ATOM      9  N   UNL A   1      36.402  22.131  25.036  1.00  0.00    -0.203 N 
ATOM     10  C   UNL A   1      33.018  20.946  25.212  1.00  0.00     0.150 A 
ATOM     11  N   UNL A   1      31.951  21.654  25.438  1.00  0.00    -0.234 NA
ATOM     12  N   UNL A   1      34.279  21.523  25.137  1.00  0.00    -0.226 N 
ATOM     13  C   UNL A   1      32.082  23.021  25.592  1.00  0.00     0.049 A 
ATOM     14  C   UNL A   1      34.449  22.850  25.304  1.00  0.00     0.165 A 
ATOM     15  C   UNL A   1      35.558  21.018  24.900  1.00  0.00     0.352 A 
ATOM     16  C   UNL A   1      33.262  23.663  25.539  1.00  0.00     0.073 A 
ATOM     17  N   UNL A   1      35.674  23.279  25.243  1.00  0.00    -0.149 NA
ATOM     18  O   UNL A   1      35.918  19.891  24.631  1.00  0.00    -0.245 OA
BRANCH  10  19
ATOM     19  C   UNL A   1      32.927  19.487  25.007  1.00  0.00     0.018 A 
ATOM     20  C   UNL A   1      33.024  16.730  24.575  1.00  0.00     0.118 A 
ATOM     21  C   UNL A   1      33.016  17.237  25.877  1.00  0.00     0.047 A 
ATOM     22  C   UNL A   1      32.907  17.605  23.492  1.00  0.00     0.047 A 
ATOM     23  C   UNL A   1      32.968  18.614  26.099  1.00  0.00     0.016 A 
ATOM     24  C   UNL A   1      32.852  18.986  23.706  1.00  0.00     0.016 A 
BRANCH  20  25
ATOM     25  O   UNL A   1      33.101  15.366  24.476  1.00  0.00    -0.497 OA
ATOM     26  C   UNL A   1      32.438  14.656  25.515  1.00  0.00     0.278 C 
ENDBRANCH  20  25
ENDBRANCH  10  19
BRANCH  13  27
ATOM     27  C   UNL A   1      30.780  23.786  25.816  1.00  0.00     0.032 C 
ATOM     28  C   UNL A   1      29.923  23.140  26.910  1.00  0.00     0.014 C 
ATOM     29  C   UNL A   1      31.038  25.262  26.140  1.00  0.00     0.014 C 
ENDBRANCH  13  27
ENDBRANCH   8   9
ENDBRANCH   5   8
ENDBRANCH   3   4
ENDBRANCH   2   3
ENDBRANCH   1   2
BRANCH   1  30
ATOM     30  C   UNL A   1      43.499  21.063  25.682  1.00  0.00     0.002 C 
BRANCH  30  31
ATOM     31  C   UNL A   1      43.185  22.330  26.493  1.00  0.00     0.021 C 
BRANCH  31  32
ATOM     32  C   UNL A   1      43.348  23.626  25.712  1.00  0.00     0.116 C 
BRANCH  32  33
ATOM     33  N   UNL A   1      44.733  23.861  25.314  1.00  0.00    -0.352 N 
ATOM     34  C   UNL A   1      45.391  25.064  25.176  1.00  0.00     0.251 C 
ATOM     35  H   UNL A   1      45.265  23.056  25.120  1.00  0.00     0.163 HD
ATOM     36  O   UNL A   1      46.390  25.141  24.469  1.00  0.00    -0.269 OA
BRANCH  34  37
ATOM     37  C   UNL A   1      44.881  26.257  25.880  1.00  0.00     0.039 A 
ATOM     38  C   UNL A   1      43.898  27.060  25.294  1.00  0.00     0.014 A 
ATOM     39  C   UNL A   1      45.401  26.579  27.134  1.00  0.00     0.014 A 
ATOM     40  C   UNL A   1      43.383  28.134  26.016  1.00  0.00     0.010 A 
ATOM     41  C   UNL A   1      44.818  27.570  27.890  1.00  0.00     0.010 A 
ATOM     42  C   UNL A   1      43.827  28.369  27.328  1.00  0.00    -0.014 A 
BRANCH  42  43
ATOM     43  C   UNL A   1      43.128  29.328  28.182  1.00  0.00     0.031 A 
ATOM     44  C   UNL A   1      43.797  30.653  28.264  1.00  0.00     0.074 A 
ATOM     45  C   UNL A   1      41.887  29.140  28.681  1.00  0.00     0.049 A 
ATOM     46  N   UNL A   1      44.438  31.136  29.276  1.00  0.00    -0.248 NA
ATOM     47  C   UNL A   1      43.927  31.457  27.037  1.00  0.00     0.031 C 
ATOM     48  C   UNL A   1      40.993  28.001  28.456  1.00  0.00     0.029 A 
ATOM     49  N   UNL A   1      41.105  29.993  29.403  1.00  0.00    -0.354 N 
ATOM     50  C   UNL A   1      44.813  32.421  28.903  1.00  0.00     0.074 A 
ATOM     51  C   UNL A   1      44.683  32.471  27.468  1.00  0.00     0.031 C 
ATOM     52  C   UNL A   1      39.732  28.337  28.809  1.00  0.00     0.029 A 
ATOM     53  C   UNL A   1      39.753  29.651  29.427  1.00  0.00     0.049 A 
ATOM     54  H   UNL A   1      41.464  30.782  29.868  1.00  0.00     0.167 HD
ATOM     55  C   UNL A   1      44.901  33.420  29.826  1.00  0.00     0.031 A 
ATOM     56  C   UNL A   1      38.720  30.404  29.892  1.00  0.00     0.031 A 
ATOM     57  C   UNL A   1      44.872  32.898  31.172  1.00  0.00     0.049 A 
ATOM     58  C   UNL A   1      39.297  31.397  30.829  1.00  0.00     0.074 A 
ATOM     59  C   UNL A   1      45.606  31.959  31.871  1.00  0.00     0.029 A 
ATOM     60  N   UNL A   1      43.698  33.061  31.873  1.00  0.00    -0.354 N 
ATOM     61  N   UNL A   1      39.820  31.068  31.976  1.00  0.00    -0.248 NA
ATOM     62  C   UNL A   1      39.705  32.692  30.308  1.00  0.00     0.031 C 
ATOM     63  C   UNL A   1      44.649  31.264  32.667  1.00  0.00     0.029 A 
ATOM     64  C   UNL A   1      43.407  31.873  32.485  1.00  0.00     0.049 A 
ATOM     65  H   UNL A   1      43.163  33.886  31.925  1.00  0.00     0.167 HD
ATOM     66  C   UNL A   1      40.954  31.859  32.079  1.00  0.00     0.074 A 
ATOM     67  C   UNL A   1      40.765  32.919  31.089  1.00  0.00     0.031 C 
ATOM     68  C   UNL A   1      42.059  31.412  32.745  1.00  0.00     0.031 A 
BRANCH  55  69
ATOM     69  C   UNL A   1      44.541  34.861  29.537  1.00  0.00    -0.014 A 
ATOM     70  C   UNL A   1      43.187  35.179  29.297  1.00  0.00     0.010 A 
ATOM     71  C   UNL A   1      45.495  35.840  29.193  1.00  0.00     0.010 A 
ATOM     72  C   UNL A   1      42.822  36.367  28.653  1.00  0.00     0.020 A 
ATOM     73  C   UNL A   1      45.137  37.049  28.596  1.00  0.00     0.020 A 
ATOM     74  C   UNL A   1      43.805  37.287  28.293  1.00  0.00     0.054 A 
BRANCH  74  75
ATOM     75  S   UNL A   1      43.338  38.771  27.373  1.00  0.00     0.124 S 
ATOM     76  O   UNL A   1      44.499  38.965  26.512  1.00  0.00    -0.237 OA
ATOM     77  O   UNL A   1      42.112  38.343  26.703  1.00  0.00    -0.237 OA
ATOM     78  O   UNL A   1      43.154  39.775  28.417  1.00  0.00    -0.744 OA
ENDBRANCH  74  75
ENDBRANCH  55  69
BRANCH  56  79
ATOM     79  C   UNL A   1      37.316  30.488  29.409  1.00  0.00    -0.014 A 
ATOM     80  C   UNL A   1      36.938  31.467  28.467  1.00  0.00     0.010 A 
ATOM     81  C   UNL A   1      36.415  29.428  29.638  1.00  0.00     0.010 A 
ATOM     82  C   UNL A   1      35.760  31.334  27.710  1.00  0.00     0.020 A 
ATOM     83  C   UNL A   1      35.233  29.294  28.896  1.00  0.00     0.020 A 
ATOM     84  C   UNL A   1      34.930  30.228  27.908  1.00  0.00     0.054 A 
BRANCH  84  85
ATOM     85  S   UNL A   1      33.543  29.936  26.767  1.00  0.00     0.124 S 
ATOM     86  O   UNL A   1      34.138  29.056  25.766  1.00  0.00    -0.237 OA
ATOM     87  O   UNL A   1      32.543  29.319  27.635  1.00  0.00    -0.237 OA
ATOM     88  O   UNL A   1      33.196  31.273  26.288  1.00  0.00    -0.744 OA
ENDBRANCH  84  85
ENDBRANCH  56  79
BRANCH  68  89
ATOM     89  C   UNL A   1      41.925  30.210  33.652  1.00  0.00    -0.014 A 
ATOM     90  C   UNL A   1      41.987  28.872  33.213  1.00  0.00     0.010 A 
ATOM     91  C   UNL A   1      41.860  30.458  35.034  1.00  0.00     0.010 A 
ATOM     92  C   UNL A   1      41.939  27.815  34.135  1.00  0.00     0.020 A 
ATOM     93  C   UNL A   1      41.836  29.412  35.957  1.00  0.00     0.020 A 
ATOM     94  C   UNL A   1      41.860  28.094  35.502  1.00  0.00     0.054 A 
BRANCH  94  95
ATOM     95  S   UNL A   1      41.817  26.727  36.696  1.00  0.00     0.124 S 
ATOM     96  O   UNL A   1      43.064  26.912  37.433  1.00  0.00    -0.237 OA
ATOM     97  O   UNL A   1      40.593  26.992  37.450  1.00  0.00    -0.237 OA
ATOM     98  O   UNL A   1      41.768  25.532  35.854  1.00  0.00    -0.744 OA
ENDBRANCH  94  95
ENDBRANCH  68  89
ENDBRANCH  42  43
ENDBRANCH  34  37
ENDBRANCH  32  33
ENDBRANCH  31  32
ENDBRANCH  30  31
ENDBRANCH   1  30
TORSDOF 20
ENDMDL
MODEL 3
REMARK VINA RESULT:     -10.9      4.447     12.528
REMARK SMILES COc1ccc(-c2nc(C(C)C)cc3nn(CC(=O)NCCCCCCNC(=O)c4ccc(-c5c6nc(c(-c7ccc(S(=O)(=O)[O-])cc7)c7ccc([nH]7)c(-c7ccc(S(=O)(=O)[O-])cc7)c7nc(c(-c8ccc(S(=O)(=O)[O-])cc8)c8ccc5[nH]8)C=C7)C=C6)cc4)c(=O)n23)cc1
REMARK SMILES IDX 23 1 22 2 21 3 20 4 18 5 19 6 17 8 16 9 7 10 8 11 92 12 9 13
REMARK SMILES IDX 14 14 90 15 13 16 15 17 91 18 6 19 3 20 4 21 94 22 5 23
REMARK SMILES IDX 93 24 2 25 1 26 10 27 11 28 12 29 24 30 25 31 26 32 27 33
REMARK SMILES IDX 28 34 29 36 30 37 31 38 89 39 32 40 88 41 33 42 34 43 35 44
REMARK SMILES IDX 82 45 36 46 87 47 81 48 83 49 37 50 86 51 80 52 79 53 38 55
REMARK SMILES IDX 68 56 49 57 67 58 50 59 53 60 66 61 84 62 51 63 52 64 65 66
REMARK SMILES IDX 85 67 54 68 39 69 40 70 48 71 41 72 47 73 42 74 43 75 44 76
REMARK SMILES IDX 45 77 46 78 69 79 70 80 78 81 71 82 77 83 72 84 73 85 74 86
REMARK SMILES IDX 75 87 76 88 55 89 56 90 64 91 57 92 63 93 58 94 59 95 60 96
REMARK SMILES IDX 61 97 62 98
REMARK H PARENT 20 7 27 35 83 54 53 65
REMARK Flexibility Score: inf
ROOT
ATOM      1  C   UNL A   1      35.334  32.085  31.890  1.00  0.00     0.002 C 
ENDROOT
BRANCH   1   2
ATOM      2  C   UNL A   1      36.627  31.471  32.444  1.00  0.00     0.021 C 
BRANCH   2   3
ATOM      3  C   UNL A   1      37.052  32.027  33.803  1.00  0.00     0.116 C 
BRANCH   3   4
ATOM      4  N   UNL A   1      37.521  30.983  34.693  1.00  0.00    -0.354 N 
ATOM      5  C   UNL A   1      38.269  31.082  35.832  1.00  0.00     0.241 C 
ATOM      6  O   UNL A   1      38.336  30.076  36.546  1.00  0.00    -0.273 OA
ATOM      7  H   UNL A   1      37.262  30.068  34.439  1.00  0.00     0.163 HD
BRANCH   5   8
ATOM      8  C   UNL A   1      38.841  32.421  36.300  1.00  0.00     0.249 C 
BRANCH   8   9
ATOM      9  N   UNL A   1      40.280  32.463  36.235  1.00  0.00    -0.203 N 
ATOM     10  C   UNL A   1      43.575  33.732  35.587  1.00  0.00     0.150 A 
ATOM     11  N   UNL A   1      44.704  33.123  35.799  1.00  0.00    -0.234 NA
ATOM     12  N   UNL A   1      42.354  33.125  35.851  1.00  0.00    -0.226 N 
ATOM     13  C   UNL A   1      44.680  31.831  36.288  1.00  0.00     0.049 A 
ATOM     14  C   UNL A   1      42.291  31.873  36.349  1.00  0.00     0.165 A 
ATOM     15  C   UNL A   1      41.026  33.529  35.709  1.00  0.00     0.352 A 
ATOM     16  C   UNL A   1      43.546  31.168  36.574  1.00  0.00     0.073 A 
ATOM     17  N   UNL A   1      41.098  31.415  36.587  1.00  0.00    -0.149 NA
ATOM     18  O   UNL A   1      40.563  34.550  35.245  1.00  0.00    -0.245 OA
BRANCH  10  19
ATOM     19  C   UNL A   1      43.546  35.100  35.034  1.00  0.00     0.018 A 
ATOM     20  C   UNL A   1      43.221  37.663  33.975  1.00  0.00     0.118 A 
ATOM     21  C   UNL A   1      43.385  37.488  35.352  1.00  0.00     0.047 A 
ATOM     22  C   UNL A   1      43.296  36.558  33.124  1.00  0.00     0.047 A 
ATOM     23  C   UNL A   1      43.548  36.209  35.886  1.00  0.00     0.016 A 
ATOM     24  C   UNL A   1      43.465  35.274  33.652  1.00  0.00     0.016 A 
BRANCH  20  25
ATOM     25  O   UNL A   1      43.042  38.957  33.565  1.00  0.00    -0.497 OA
ATOM     26  C   UNL A   1      43.649  39.936  34.402  1.00  0.00     0.278 C 
ENDBRANCH  20  25
ENDBRANCH  10  19
BRANCH  13  27
ATOM     27  C   UNL A   1      46.045  31.171  36.473  1.00  0.00     0.032 C 
ATOM     28  C   UNL A   1      45.913  29.680  36.801  1.00  0.00     0.014 C 
ATOM     29  C   UNL A   1      46.942  31.372  35.246  1.00  0.00     0.014 C 
ENDBRANCH  13  27
ENDBRANCH   8   9
ENDBRANCH   5   8
ENDBRANCH   3   4
ENDBRANCH   2   3
ENDBRANCH   1   2
BRANCH   1  30
ATOM     30  C   UNL A   1      35.448  33.516  31.344  1.00  0.00     0.002 C 
BRANCH  30  31
ATOM     31  C   UNL A   1      34.343  33.964  30.376  1.00  0.00     0.021 C 
BRANCH  31  32
ATOM     32  C   UNL A   1      34.677  33.750  28.907  1.00  0.00     0.116 C 
BRANCH  32  33
ATOM     33  N   UNL A   1      33.946  32.625  28.332  1.00  0.00    -0.352 N 
ATOM     34  C   UNL A   1      34.441  31.414  27.896  1.00  0.00     0.251 C 
ATOM     35  H   UNL A   1      32.972  32.746  28.246  1.00  0.00     0.163 HD
ATOM     36  O   UNL A   1      33.805  30.744  27.090  1.00  0.00    -0.269 OA
BRANCH  34  37
ATOM     37  C   UNL A   1      35.743  30.937  28.401  1.00  0.00     0.039 A 
ATOM     38  C   UNL A   1      35.932  29.586  28.709  1.00  0.00     0.014 A 
ATOM     39  C   UNL A   1      36.780  31.854  28.577  1.00  0.00     0.014 A 
ATOM     40  C   UNL A   1      37.194  29.155  29.111  1.00  0.00     0.010 A 
ATOM     41  C   UNL A   1      38.051  31.412  28.867  1.00  0.00     0.010 A 
ATOM     42  C   UNL A   1      38.260  30.068  29.161  1.00  0.00    -0.014 A 
BRANCH  42  43
ATOM     43  C   UNL A   1      39.631  29.592  29.337  1.00  0.00     0.031 A 
ATOM     44  C   UNL A   1      40.028  29.430  30.761  1.00  0.00     0.074 A 
ATOM     45  C   UNL A   1      40.410  29.126  28.337  1.00  0.00     0.049 A 
ATOM     46  N   UNL A   1      40.843  30.177  31.429  1.00  0.00    -0.248 NA
ATOM     47  C   UNL A   1      39.312  28.444  31.588  1.00  0.00     0.031 C 
ATOM     48  C   UNL A   1      40.055  28.966  26.924  1.00  0.00     0.029 A 
ATOM     49  N   UNL A   1      41.656  28.574  28.395  1.00  0.00    -0.354 N 
ATOM     50  C   UNL A   1      40.952  29.587  32.682  1.00  0.00     0.074 A 
ATOM     51  C   UNL A   1      39.832  28.685  32.794  1.00  0.00     0.031 C 
ATOM     52  C   UNL A   1      40.946  28.146  26.324  1.00  0.00     0.029 A 
ATOM     53  C   UNL A   1      42.016  27.848  27.259  1.00  0.00     0.049 A 
ATOM     54  H   UNL A   1      42.252  28.680  29.172  1.00  0.00     0.167 HD
ATOM     55  C   UNL A   1      42.114  29.658  33.390  1.00  0.00     0.031 A 
ATOM     56  C   UNL A   1      43.096  27.036  27.107  1.00  0.00     0.031 A 
ATOM     57  C   UNL A   1      43.015  30.637  32.829  1.00  0.00     0.049 A 
ATOM     58  C   UNL A   1      44.091  27.446  28.126  1.00  0.00     0.074 A 
ATOM     59  C   UNL A   1      42.926  31.981  32.518  1.00  0.00     0.029 A 
ATOM     60  N   UNL A   1      44.087  30.153  32.115  1.00  0.00    -0.354 N 
ATOM     61  N   UNL A   1      44.712  28.592  28.090  1.00  0.00    -0.248 NA
ATOM     62  C   UNL A   1      44.070  26.792  29.424  1.00  0.00     0.031 C 
ATOM     63  C   UNL A   1      43.630  32.120  31.287  1.00  0.00     0.029 A 
ATOM     64  C   UNL A   1      44.189  30.883  30.962  1.00  0.00     0.049 A 
ATOM     65  H   UNL A   1      44.678  29.412  32.385  1.00  0.00     0.167 HD
ATOM     66  C   UNL A   1      44.729  29.018  29.409  1.00  0.00     0.074 A 
ATOM     67  C   UNL A   1      44.433  27.821  30.196  1.00  0.00     0.031 C 
ATOM     68  C   UNL A   1      44.690  30.349  29.714  1.00  0.00     0.031 A 
BRANCH  55  69
ATOM     69  C   UNL A   1      42.625  28.542  34.276  1.00  0.00    -0.014 A 
ATOM     70  C   UNL A   1      43.959  28.112  34.112  1.00  0.00     0.010 A 
ATOM     71  C   UNL A   1      41.775  27.708  35.031  1.00  0.00     0.010 A 
ATOM     72  C   UNL A   1      44.386  26.868  34.589  1.00  0.00     0.020 A 
ATOM     73  C   UNL A   1      42.206  26.488  35.554  1.00  0.00     0.020 A 
ATOM     74  C   UNL A   1      43.498  26.057  35.295  1.00  0.00     0.054 A 
BRANCH  74  75
ATOM     75  S   UNL A   1      44.025  24.410  35.820  1.00  0.00     0.124 S 
ATOM     76  O   UNL A   1      42.831  23.616  35.552  1.00  0.00    -0.237 OA
ATOM     77  O   UNL A   1      45.168  24.160  34.945  1.00  0.00    -0.237 OA
ATOM     78  O   UNL A   1      44.355  24.594  37.231  1.00  0.00    -0.744 OA
ENDBRANCH  74  75
ENDBRANCH  55  69
BRANCH  56  79
ATOM     79  C   UNL A   1      43.237  25.785  26.315  1.00  0.00    -0.014 A 
ATOM     80  C   UNL A   1      44.293  25.635  25.392  1.00  0.00     0.010 A 
ATOM     81  C   UNL A   1      42.521  24.626  26.674  1.00  0.00     0.010 A 
ATOM     82  C   UNL A   1      44.683  24.365  24.932  1.00  0.00     0.020 A 
ATOM     83  C   UNL A   1      42.897  23.356  26.211  1.00  0.00     0.020 A 
ATOM     84  C   UNL A   1      44.001  23.228  25.372  1.00  0.00     0.054 A 
BRANCH  84  85
ATOM     85  S   UNL A   1      44.657  21.580  24.968  1.00  0.00     0.124 S 
ATOM     86  O   UNL A   1      43.751  20.694  25.694  1.00  0.00    -0.237 OA
ATOM     87  O   UNL A   1      44.545  21.541  23.512  1.00  0.00    -0.237 OA
ATOM     88  O   UNL A   1      46.028  21.614  25.476  1.00  0.00    -0.744 OA
ENDBRANCH  84  85
ENDBRANCH  56  79
BRANCH  68  89
ATOM     89  C   UNL A   1      44.973  31.353  28.620  1.00  0.00    -0.014 A 
ATOM     90  C   UNL A   1      43.994  31.882  27.754  1.00  0.00     0.010 A 
ATOM     91  C   UNL A   1      46.275  31.877  28.555  1.00  0.00     0.010 A 
ATOM     92  C   UNL A   1      44.327  32.877  26.822  1.00  0.00     0.020 A 
ATOM     93  C   UNL A   1      46.608  32.882  27.647  1.00  0.00     0.020 A 
ATOM     94  C   UNL A   1      45.636  33.367  26.773  1.00  0.00     0.054 A 
BRANCH  94  95
ATOM     95  S   UNL A   1      46.063  34.666  25.580  1.00  0.00     0.124 S 
ATOM     96  O   UNL A   1      45.725  35.887  26.306  1.00  0.00    -0.237 OA
ATOM     97  O   UNL A   1      47.489  34.442  25.351  1.00  0.00    -0.237 OA
ATOM     98  O   UNL A   1      45.207  34.376  24.428  1.00  0.00    -0.744 OA
ENDBRANCH  94  95
ENDBRANCH  68  89
ENDBRANCH  42  43
ENDBRANCH  34  37
ENDBRANCH  32  33
ENDBRANCH  31  32
ENDBRANCH  30  31
ENDBRANCH   1  30
TORSDOF 20
ENDMDL
