MODEL 1
REMARK VINA RESULT:     -11.0      0.000      0.000
REMARK SMILES C[C@@H]1C[N@H+]2CCC[C@@H]2CN1C(=O)N1CC(C(=O)NCCCCCCNC(=O)c2ccc(-c3c4nc(c(-c5ccc(S(=O)(=O)[O-])cc5)c5ccc([nH]5)c(-c5ccc(S(=O)(=O)[O-])cc5)c5nc(c(-c6ccc(S(=O)(=O)[O-])cc6)c6ccc3[nH]6)C=C5)C=C4)cc2)C1
REMARK SMILES IDX 22 1 21 2 20 3 19 4 18 5 16 6 17 7 15 9 11 10 12 11 13 12
REMARK SMILES IDX 14 13 88 14 10 15 1 16 2 17 3 18 4 19 9 20 5 21 8 22 6 24
REMARK SMILES IDX 7 25 23 26 24 27 25 28 26 29 27 31 28 32 29 33 87 34 30 35
REMARK SMILES IDX 86 36 31 37 32 38 33 39 80 40 34 41 85 42 79 43 81 44 35 45
REMARK SMILES IDX 84 46 78 47 77 48 36 50 66 51 47 52 65 53 48 54 51 55 64 56
REMARK SMILES IDX 82 57 49 58 50 59 63 61 83 62 52 63 37 64 38 65 46 66 39 67
REMARK SMILES IDX 45 68 40 69 41 70 42 71 43 72 44 73 67 74 68 75 76 76 69 77
REMARK SMILES IDX 75 78 70 79 71 80 72 81 73 82 74 83 53 84 54 85 62 86 55 87
REMARK SMILES IDX 61 88 56 89 57 90 58 91 59 92 60 93
REMARK H PARENT 18 8 4 23 25 30 81 49 51 60
REMARK Flexibility Score: inf
ROOT
ATOM      1  C   UNL A   1      33.170  29.087  24.437  1.00  0.00     0.002 C 
ENDROOT
BRANCH   1   2
ATOM      2  C   UNL A   1      33.245  29.005  22.908  1.00  0.00     0.002 C 
BRANCH   2   3
ATOM      3  C   UNL A   1      33.586  27.619  22.346  1.00  0.00     0.021 C 
BRANCH   3   4
ATOM      4  C   UNL A   1      32.368  26.807  21.906  1.00  0.00     0.116 C 
BRANCH   4   5
ATOM      5  N   UNL A   1      31.139  27.505  22.233  1.00  0.00    -0.356 N 
ATOM      6  C   UNL A   1      30.109  27.175  23.077  1.00  0.00     0.226 C 
ATOM      7  O   UNL A   1      29.148  27.960  23.083  1.00  0.00    -0.275 OA
ATOM      8  H   UNL A   1      31.024  28.365  21.768  1.00  0.00     0.163 HD
BRANCH   6   9
ATOM      9  C   UNL A   1      30.149  25.941  23.982  1.00  0.00     0.117 C 
ATOM     10  C   UNL A   1      31.649  23.983  26.192  1.00  0.00     0.320 C 
ATOM     11  O   UNL A   1      30.912  23.892  27.175  1.00  0.00    -0.248 OA
ATOM     12  N   UNL A   1      31.460  24.982  25.275  1.00  0.00    -0.323 N 
ATOM     13  C   UNL A   1      30.551  26.113  25.443  1.00  0.00     0.136 C 
ATOM     14  C   UNL A   1      31.217  24.856  23.840  1.00  0.00     0.136 C 
BRANCH  10  15
ATOM     15  N   UNL A   1      32.712  23.127  25.986  1.00  0.00    -0.310 N 
ATOM     16  C   UNL A   1      32.703  20.651  25.814  1.00  0.00     0.037 C 
ATOM     17  C   UNL A   1      32.736  21.976  25.043  1.00  0.00     0.139 C 
ATOM     18  C   UNL A   1      33.950  22.054  24.055  1.00  0.00     0.287 C 
ATOM     19  N   UNL A   1      35.205  22.341  24.753  1.00  0.00    -0.329 N 
ATOM     20  C   UNL A   1      34.016  23.475  26.587  1.00  0.00     0.186 C 
ATOM     21  C   UNL A   1      36.375  22.505  23.894  1.00  0.00     0.262 C 
ATOM     22  C   UNL A   1      35.072  23.611  25.490  1.00  0.00     0.204 C 
ATOM     23  H   UNL A   1      35.358  21.526  25.347  1.00  0.00     0.348 HD
ATOM     24  C   UNL A   1      37.294  23.440  24.690  1.00  0.00     0.068 C 
ATOM     25  C   UNL A   1      36.502  23.819  25.941  1.00  0.00     0.073 C 
ENDBRANCH  10  15
ENDBRANCH   6   9
ENDBRANCH   4   5
ENDBRANCH   3   4
ENDBRANCH   2   3
ENDBRANCH   1   2
BRANCH   1  26
ATOM     26  C   UNL A   1      33.742  27.878  25.181  1.00  0.00     0.021 C 
BRANCH  26  27
ATOM     27  C   UNL A   1      34.152  28.155  26.624  1.00  0.00     0.116 C 
BRANCH  27  28
ATOM     28  N   UNL A   1      33.842  29.517  27.028  1.00  0.00    -0.352 N 
ATOM     29  C   UNL A   1      34.568  30.372  27.819  1.00  0.00     0.251 C 
ATOM     30  H   UNL A   1      32.991  29.877  26.688  1.00  0.00     0.163 HD
ATOM     31  O   UNL A   1      34.058  31.417  28.220  1.00  0.00    -0.269 OA
BRANCH  29  32
ATOM     32  C   UNL A   1      35.955  30.028  28.203  1.00  0.00     0.039 A 
ATOM     33  C   UNL A   1      36.205  29.570  29.498  1.00  0.00     0.014 A 
ATOM     34  C   UNL A   1      37.006  30.166  27.292  1.00  0.00     0.014 A 
ATOM     35  C   UNL A   1      37.502  29.204  29.864  1.00  0.00     0.010 A 
ATOM     36  C   UNL A   1      38.282  29.725  27.633  1.00  0.00     0.010 A 
ATOM     37  C   UNL A   1      38.548  29.253  28.926  1.00  0.00    -0.014 A 
BRANCH  37  38
ATOM     38  C   UNL A   1      39.926  28.830  29.289  1.00  0.00     0.031 A 
ATOM     39  C   UNL A   1      40.839  29.779  30.021  1.00  0.00     0.074 A 
ATOM     40  C   UNL A   1      40.373  27.614  28.919  1.00  0.00     0.049 A 
ATOM     41  N   UNL A   1      42.082  29.605  30.392  1.00  0.00    -0.248 NA
ATOM     42  C   UNL A   1      40.293  31.104  30.358  1.00  0.00     0.031 C 
ATOM     43  C   UNL A   1      39.601  26.617  28.174  1.00  0.00     0.029 A 
ATOM     44  N   UNL A   1      41.589  27.009  29.118  1.00  0.00    -0.354 N 
ATOM     45  C   UNL A   1      42.468  30.799  30.992  1.00  0.00     0.074 A 
ATOM     46  C   UNL A   1      41.349  31.708  30.881  1.00  0.00     0.031 C 
ATOM     47  C   UNL A   1      40.349  25.514  28.010  1.00  0.00     0.029 A 
ATOM     48  C   UNL A   1      41.666  25.738  28.598  1.00  0.00     0.049 A 
ATOM     49  H   UNL A   1      42.336  27.443  29.590  1.00  0.00     0.167 HD
ATOM     50  C   UNL A   1      43.639  31.104  31.601  1.00  0.00     0.031 A 
ATOM     51  C   UNL A   1      42.681  24.853  28.591  1.00  0.00     0.031 A 
ATOM     52  C   UNL A   1      44.748  30.195  31.715  1.00  0.00     0.049 A 
ATOM     53  C   UNL A   1      43.980  25.221  29.256  1.00  0.00     0.074 A 
ATOM     54  C   UNL A   1      45.958  30.392  32.356  1.00  0.00     0.029 A 
ATOM     55  N   UNL A   1      44.785  28.919  31.173  1.00  0.00    -0.354 N 
ATOM     56  N   UNL A   1      44.303  26.332  29.874  1.00  0.00    -0.248 NA
ATOM     57  C   UNL A   1      45.046  24.210  29.234  1.00  0.00     0.031 C 
ATOM     58  C   UNL A   1      46.751  29.257  32.149  1.00  0.00     0.029 A 
ATOM     59  C   UNL A   1      46.008  28.327  31.441  1.00  0.00     0.049 A 
ATOM     60  H   UNL A   1      44.051  28.497  30.672  1.00  0.00     0.167 HD
ATOM     61  C   UNL A   1      45.598  26.142  30.342  1.00  0.00     0.074 A 
ATOM     62  C   UNL A   1      45.992  24.804  29.947  1.00  0.00     0.031 C 
ATOM     63  C   UNL A   1      46.389  26.995  31.039  1.00  0.00     0.031 A 
BRANCH  50  64
ATOM     64  C   UNL A   1      43.780  32.489  32.182  1.00  0.00    -0.014 A 
ATOM     65  C   UNL A   1      43.399  32.766  33.508  1.00  0.00     0.010 A 
ATOM     66  C   UNL A   1      44.329  33.522  31.401  1.00  0.00     0.010 A 
ATOM     67  C   UNL A   1      43.517  34.059  34.024  1.00  0.00     0.020 A 
ATOM     68  C   UNL A   1      44.479  34.810  31.924  1.00  0.00     0.020 A 
ATOM     69  C   UNL A   1      44.054  35.074  33.227  1.00  0.00     0.054 A 
BRANCH  69  70
ATOM     70  S   UNL A   1      44.203  36.741  33.928  1.00  0.00     0.124 S 
ATOM     71  O   UNL A   1      44.094  36.475  35.360  1.00  0.00    -0.237 OA
ATOM     72  O   UNL A   1      45.522  37.164  33.465  1.00  0.00    -0.237 OA
ATOM     73  O   UNL A   1      43.078  37.466  33.342  1.00  0.00    -0.744 OA
ENDBRANCH  69  70
ENDBRANCH  50  64
BRANCH  51  74
ATOM     74  C   UNL A   1      42.501  23.521  27.947  1.00  0.00    -0.014 A 
ATOM     75  C   UNL A   1      42.848  23.325  26.598  1.00  0.00     0.010 A 
ATOM     76  C   UNL A   1      41.995  22.436  28.686  1.00  0.00     0.010 A 
ATOM     77  C   UNL A   1      42.676  22.075  25.996  1.00  0.00     0.020 A 
ATOM     78  C   UNL A   1      41.851  21.177  28.097  1.00  0.00     0.020 A 
ATOM     79  C   UNL A   1      42.182  21.008  26.751  1.00  0.00     0.054 A 
BRANCH  79  80
ATOM     80  S   UNL A   1      42.021  19.381  25.963  1.00  0.00     0.124 S 
ATOM     81  O   UNL A   1      40.582  19.301  25.725  1.00  0.00    -0.237 OA
ATOM     82  O   UNL A   1      42.854  19.525  24.772  1.00  0.00    -0.237 OA
ATOM     83  O   UNL A   1      42.542  18.460  26.971  1.00  0.00    -0.744 OA
ENDBRANCH  79  80
ENDBRANCH  51  74
BRANCH  63  84
ATOM     84  C   UNL A   1      47.749  26.499  31.458  1.00  0.00    -0.014 A 
ATOM     85  C   UNL A   1      47.973  25.967  32.740  1.00  0.00     0.010 A 
ATOM     86  C   UNL A   1      48.807  26.518  30.530  1.00  0.00     0.010 A 
ATOM     87  C   UNL A   1      49.239  25.495  33.097  1.00  0.00     0.020 A 
ATOM     88  C   UNL A   1      50.065  26.018  30.872  1.00  0.00     0.020 A 
ATOM     89  C   UNL A   1      50.277  25.522  32.161  1.00  0.00     0.054 A 
BRANCH  89  90
ATOM     90  S   UNL A   1      51.899  24.866  32.636  1.00  0.00     0.124 S 
ATOM     91  O   UNL A   1      51.936  25.153  34.067  1.00  0.00    -0.237 OA
ATOM     92  O   UNL A   1      51.788  23.453  32.280  1.00  0.00    -0.237 OA
ATOM     93  O   UNL A   1      52.838  25.634  31.822  1.00  0.00    -0.744 OA
ENDBRANCH  89  90
ENDBRANCH  63  84
ENDBRANCH  37  38
ENDBRANCH  29  32
ENDBRANCH  27  28
ENDBRANCH  26  27
ENDBRANCH   1  26
TORSDOF 17
ENDMDL
MODEL 2
REMARK VINA RESULT:     -10.8      4.100     10.244
REMARK SMILES C[C@@H]1C[N@H+]2CCC[C@@H]2CN1C(=O)N1CC(C(=O)NCCCCCCNC(=O)c2ccc(-c3c4nc(c(-c5ccc(S(=O)(=O)[O-])cc5)c5ccc([nH]5)c(-c5ccc(S(=O)(=O)[O-])cc5)c5nc(c(-c6ccc(S(=O)(=O)[O-])cc6)c6ccc3[nH]6)C=C5)C=C4)cc2)C1
REMARK SMILES IDX 22 1 21 2 20 3 19 4 18 5 16 6 17 7 15 9 11 10 12 11 13 12
REMARK SMILES IDX 14 13 88 14 10 15 1 16 2 17 3 18 4 19 9 20 5 21 8 22 6 24
REMARK SMILES IDX 7 25 23 26 24 27 25 28 26 29 27 31 28 32 29 33 87 34 30 35
REMARK SMILES IDX 86 36 31 37 32 38 33 39 80 40 34 41 85 42 79 43 81 44 35 45
REMARK SMILES IDX 84 46 78 47 77 48 36 50 66 51 47 52 65 53 48 54 51 55 64 56
REMARK SMILES IDX 82 57 49 58 50 59 63 61 83 62 52 63 37 64 38 65 46 66 39 67
REMARK SMILES IDX 45 68 40 69 41 70 42 71 43 72 44 73 67 74 68 75 76 76 69 77
REMARK SMILES IDX 75 78 70 79 71 80 72 81 73 82 74 83 53 84 54 85 62 86 55 87
REMARK SMILES IDX 61 88 56 89 57 90 58 91 59 92 60 93
REMARK H PARENT 18 8 4 23 25 30 81 49 51 60
REMARK Flexibility Score: inf
ROOT
ATOM      1  C   UNL A   1      40.832  21.341  27.569  1.00  0.00     0.002 C 
ENDROOT
BRANCH   1   2
ATOM      2  C   UNL A   1      39.866  22.325  26.900  1.00  0.00     0.002 C 
BRANCH   2   3
ATOM      3  C   UNL A   1      39.031  21.742  25.753  1.00  0.00     0.021 C 
BRANCH   3   4
ATOM      4  C   UNL A   1      37.531  22.009  25.875  1.00  0.00     0.116 C 
BRANCH   4   5
ATOM      5  N   UNL A   1      36.987  22.479  24.615  1.00  0.00    -0.356 N 
ATOM      6  C   UNL A   1      35.835  23.166  24.327  1.00  0.00     0.226 C 
ATOM      7  O   UNL A   1      35.614  23.361  23.122  1.00  0.00    -0.275 OA
ATOM      8  H   UNL A   1      37.542  22.269  23.830  1.00  0.00     0.163 HD
BRANCH   6   9
ATOM      9  C   UNL A   1      34.896  23.692  25.415  1.00  0.00     0.117 C 
ATOM     10  C   UNL A   1      31.981  24.891  26.433  1.00  0.00     0.320 C 
ATOM     11  O   UNL A   1      31.559  24.149  27.321  1.00  0.00    -0.248 OA
ATOM     12  N   UNL A   1      32.980  24.470  25.596  1.00  0.00    -0.323 N 
ATOM     13  C   UNL A   1      33.493  23.104  25.523  1.00  0.00     0.136 C 
ATOM     14  C   UNL A   1      34.282  25.091  25.360  1.00  0.00     0.136 C 
BRANCH  10  15
ATOM     15  N   UNL A   1      31.453  26.146  26.208  1.00  0.00    -0.310 N 
ATOM     16  C   UNL A   1      31.399  28.104  27.733  1.00  0.00     0.037 C 
ATOM     17  C   UNL A   1      32.106  27.441  26.545  1.00  0.00     0.139 C 
ATOM     18  C   UNL A   1      32.193  28.392  25.303  1.00  0.00     0.287 C 
ATOM     19  N   UNL A   1      30.916  28.480  24.592  1.00  0.00    -0.329 N 
ATOM     20  C   UNL A   1      30.231  26.253  25.386  1.00  0.00     0.186 C 
ATOM     21  C   UNL A   1      30.933  29.290  23.375  1.00  0.00     0.262 C 
ATOM     22  C   UNL A   1      30.504  27.131  24.165  1.00  0.00     0.204 C 
ATOM     23  H   UNL A   1      30.284  28.921  25.259  1.00  0.00     0.348 HD
ATOM     24  C   UNL A   1      29.826  28.679  22.506  1.00  0.00     0.068 C 
ATOM     25  C   UNL A   1      29.316  27.469  23.289  1.00  0.00     0.073 C 
ENDBRANCH  10  15
ENDBRANCH   6   9
ENDBRANCH   4   5
ENDBRANCH   3   4
ENDBRANCH   2   3
ENDBRANCH   1   2
BRANCH   1  26
ATOM     26  C   UNL A   1      42.314  21.704  27.450  1.00  0.00     0.021 C 
BRANCH  26  27
ATOM     27  C   UNL A   1      42.622  23.185  27.634  1.00  0.00     0.116 C 
BRANCH  27  28
ATOM     28  N   UNL A   1      42.663  23.898  26.368  1.00  0.00    -0.352 N 
ATOM     29  C   UNL A   1      42.294  25.190  26.089  1.00  0.00     0.251 C 
ATOM     30  H   UNL A   1      43.002  23.381  25.602  1.00  0.00     0.163 HD
ATOM     31  O   UNL A   1      42.209  25.563  24.919  1.00  0.00    -0.269 OA
BRANCH  29  32
ATOM     32  C   UNL A   1      41.982  26.126  27.191  1.00  0.00     0.039 A 
ATOM     33  C   UNL A   1      40.911  25.840  28.040  1.00  0.00     0.014 A 
ATOM     34  C   UNL A   1      42.737  27.287  27.381  1.00  0.00     0.014 A 
ATOM     35  C   UNL A   1      40.628  26.693  29.108  1.00  0.00     0.010 A 
ATOM     36  C   UNL A   1      42.504  28.092  28.492  1.00  0.00     0.010 A 
ATOM     37  C   UNL A   1      41.439  27.812  29.360  1.00  0.00    -0.014 A 
BRANCH  37  38
ATOM     38  C   UNL A   1      41.175  28.709  30.517  1.00  0.00     0.031 A 
ATOM     39  C   UNL A   1      42.012  28.599  31.764  1.00  0.00     0.074 A 
ATOM     40  C   UNL A   1      40.154  29.587  30.464  1.00  0.00     0.049 A 
ATOM     41  N   UNL A   1      41.912  29.268  32.885  1.00  0.00    -0.248 NA
ATOM     42  C   UNL A   1      43.084  27.591  31.762  1.00  0.00     0.031 C 
ATOM     43  C   UNL A   1      39.246  29.766  29.329  1.00  0.00     0.029 A 
ATOM     44  N   UNL A   1      39.706  30.497  31.391  1.00  0.00    -0.354 N 
ATOM     45  C   UNL A   1      42.896  28.752  33.722  1.00  0.00     0.074 A 
ATOM     46  C   UNL A   1      43.541  27.677  33.002  1.00  0.00     0.031 C 
ATOM     47  C   UNL A   1      38.375  30.747  29.612  1.00  0.00     0.029 A 
ATOM     48  C   UNL A   1      38.631  31.238  30.962  1.00  0.00     0.049 A 
ATOM     49  H   UNL A   1      40.118  30.608  32.278  1.00  0.00     0.167 HD
ATOM     50  C   UNL A   1      43.248  29.152  34.968  1.00  0.00     0.031 A 
ATOM     51  C   UNL A   1      37.926  32.203  31.585  1.00  0.00     0.031 A 
ATOM     52  C   UNL A   1      42.608  30.227  35.678  1.00  0.00     0.049 A 
ATOM     53  C   UNL A   1      38.322  32.617  32.976  1.00  0.00     0.074 A 
ATOM     54  C   UNL A   1      42.923  30.742  36.923  1.00  0.00     0.029 A 
ATOM     55  N   UNL A   1      41.522  30.951  35.210  1.00  0.00    -0.354 N 
ATOM     56  N   UNL A   1      39.297  32.161  33.726  1.00  0.00    -0.248 NA
ATOM     57  C   UNL A   1      37.531  33.687  33.600  1.00  0.00     0.031 C 
ATOM     58  C   UNL A   1      41.988  31.736  37.234  1.00  0.00     0.029 A 
ATOM     59  C   UNL A   1      41.136  31.889  36.152  1.00  0.00     0.049 A 
ATOM     60  H   UNL A   1      41.089  30.817  34.336  1.00  0.00     0.167 HD
ATOM     61  C   UNL A   1      39.257  32.910  34.897  1.00  0.00     0.074 A 
ATOM     62  C   UNL A   1      38.170  33.857  34.749  1.00  0.00     0.031 C 
ATOM     63  C   UNL A   1      40.049  32.824  35.994  1.00  0.00     0.031 A 
BRANCH  50  64
ATOM     64  C   UNL A   1      44.373  28.411  35.644  1.00  0.00    -0.014 A 
ATOM     65  C   UNL A   1      45.717  28.771  35.429  1.00  0.00     0.010 A 
ATOM     66  C   UNL A   1      44.084  27.357  36.530  1.00  0.00     0.010 A 
ATOM     67  C   UNL A   1      46.749  28.061  36.047  1.00  0.00     0.020 A 
ATOM     68  C   UNL A   1      45.112  26.666  37.176  1.00  0.00     0.020 A 
ATOM     69  C   UNL A   1      46.440  27.009  36.915  1.00  0.00     0.054 A 
BRANCH  69  70
ATOM     70  S   UNL A   1      47.800  26.111  37.710  1.00  0.00     0.124 S 
ATOM     71  O   UNL A   1      47.134  24.889  38.155  1.00  0.00    -0.237 OA
ATOM     72  O   UNL A   1      48.754  25.945  36.617  1.00  0.00    -0.237 OA
ATOM     73  O   UNL A   1      48.231  27.009  38.779  1.00  0.00    -0.744 OA
ENDBRANCH  69  70
ENDBRANCH  50  64
BRANCH  51  74
ATOM     74  C   UNL A   1      36.784  32.858  30.887  1.00  0.00    -0.014 A 
ATOM     75  C   UNL A   1      35.458  32.546  31.236  1.00  0.00     0.010 A 
ATOM     76  C   UNL A   1      37.019  33.809  29.877  1.00  0.00     0.010 A 
ATOM     77  C   UNL A   1      34.389  33.160  30.577  1.00  0.00     0.020 A 
ATOM     78  C   UNL A   1      35.953  34.448  29.238  1.00  0.00     0.020 A 
ATOM     79  C   UNL A   1      34.643  34.111  29.586  1.00  0.00     0.054 A 
BRANCH  79  80
ATOM     80  S   UNL A   1      33.239  34.936  28.784  1.00  0.00     0.124 S 
ATOM     81  O   UNL A   1      32.717  33.879  27.924  1.00  0.00    -0.237 OA
ATOM     82  O   UNL A   1      32.399  35.301  29.922  1.00  0.00    -0.237 OA
ATOM     83  O   UNL A   1      33.857  36.063  28.089  1.00  0.00    -0.744 OA
ENDBRANCH  79  80
ENDBRANCH  51  74
BRANCH  63  84
ATOM     84  C   UNL A   1      39.801  33.805  37.110  1.00  0.00    -0.014 A 
ATOM     85  C   UNL A   1      39.015  33.464  38.225  1.00  0.00     0.010 A 
ATOM     86  C   UNL A   1      40.412  35.072  37.065  1.00  0.00     0.010 A 
ATOM     87  C   UNL A   1      38.816  34.385  39.258  1.00  0.00     0.020 A 
ATOM     88  C   UNL A   1      40.242  35.984  38.110  1.00  0.00     0.020 A 
ATOM     89  C   UNL A   1      39.432  35.639  39.194  1.00  0.00     0.054 A 
BRANCH  89  90
ATOM     90  S   UNL A   1      39.192  36.801  40.566  1.00  0.00     0.124 S 
ATOM     91  O   UNL A   1      38.598  37.951  39.890  1.00  0.00    -0.237 OA
ATOM     92  O   UNL A   1      38.298  36.063  41.456  1.00  0.00    -0.237 OA
ATOM     93  O   UNL A   1      40.542  37.011  41.084  1.00  0.00    -0.744 OA
ENDBRANCH  89  90
ENDBRANCH  63  84
ENDBRANCH  37  38
ENDBRANCH  29  32
ENDBRANCH  27  28
ENDBRANCH  26  27
ENDBRANCH   1  26
TORSDOF 17
ENDMDL
MODEL 3
REMARK VINA RESULT:     -10.8      3.259      3.937
REMARK SMILES C[C@@H]1C[N@H+]2CCC[C@@H]2CN1C(=O)N1CC(C(=O)NCCCCCCNC(=O)c2ccc(-c3c4nc(c(-c5ccc(S(=O)(=O)[O-])cc5)c5ccc([nH]5)c(-c5ccc(S(=O)(=O)[O-])cc5)c5nc(c(-c6ccc(S(=O)(=O)[O-])cc6)c6ccc3[nH]6)C=C5)C=C4)cc2)C1
REMARK SMILES IDX 22 1 21 2 20 3 19 4 18 5 16 6 17 7 15 9 11 10 12 11 13 12
REMARK SMILES IDX 14 13 88 14 10 15 1 16 2 17 3 18 4 19 9 20 5 21 8 22 6 24
REMARK SMILES IDX 7 25 23 26 24 27 25 28 26 29 27 31 28 32 29 33 87 34 30 35
REMARK SMILES IDX 86 36 31 37 32 38 33 39 80 40 34 41 85 42 79 43 81 44 35 45
REMARK SMILES IDX 84 46 78 47 77 48 36 50 66 51 47 52 65 53 48 54 51 55 64 56
REMARK SMILES IDX 82 57 49 58 50 59 63 61 83 62 52 63 37 64 38 65 46 66 39 67
REMARK SMILES IDX 45 68 40 69 41 70 42 71 43 72 44 73 67 74 68 75 76 76 69 77
REMARK SMILES IDX 75 78 70 79 71 80 72 81 73 82 74 83 53 84 54 85 62 86 55 87
REMARK SMILES IDX 61 88 56 89 57 90 58 91 59 92 60 93
REMARK H PARENT 18 8 4 23 25 30 81 49 51 60
REMARK Flexibility Score: inf
ROOT
ATOM      1  C   UNL A   1      33.451  30.994  27.493  1.00  0.00     0.002 C 
ENDROOT
BRANCH   1   2
ATOM      2  C   UNL A   1      32.373  29.968  27.124  1.00  0.00     0.002 C 
BRANCH   2   3
ATOM      3  C   UNL A   1      31.723  30.172  25.749  1.00  0.00     0.021 C 
BRANCH   3   4
ATOM      4  C   UNL A   1      32.323  29.307  24.641  1.00  0.00     0.116 C 
BRANCH   4   5
ATOM      5  N   UNL A   1      31.463  29.296  23.473  1.00  0.00    -0.356 N 
ATOM      6  C   UNL A   1      30.649  28.320  22.959  1.00  0.00     0.226 C 
ATOM      7  O   UNL A   1      30.088  28.599  21.888  1.00  0.00    -0.275 OA
ATOM      8  H   UNL A   1      31.464  30.137  22.961  1.00  0.00     0.163 HD
BRANCH   6   9
ATOM      9  C   UNL A   1      30.414  26.985  23.669  1.00  0.00     0.117 C 
ATOM     10  C   UNL A   1      31.343  24.568  25.734  1.00  0.00     0.320 C 
ATOM     11  O   UNL A   1      30.468  24.450  26.593  1.00  0.00    -0.248 OA
ATOM     12  N   UNL A   1      31.405  25.695  24.959  1.00  0.00    -0.323 N 
ATOM     13  C   UNL A   1      30.622  26.908  25.178  1.00  0.00     0.136 C 
ATOM     14  C   UNL A   1      31.355  25.791  23.501  1.00  0.00     0.136 C 
BRANCH  10  15
ATOM     15  N   UNL A   1      32.316  23.609  25.537  1.00  0.00    -0.310 N 
ATOM     16  C   UNL A   1      32.042  21.169  25.172  1.00  0.00     0.037 C 
ATOM     17  C   UNL A   1      32.285  22.531  24.511  1.00  0.00     0.139 C 
ATOM     18  C   UNL A   1      33.574  22.534  23.621  1.00  0.00     0.287 C 
ATOM     19  N   UNL A   1      34.794  22.622  24.426  1.00  0.00    -0.329 N 
ATOM     20  C   UNL A   1      33.599  23.758  26.255  1.00  0.00     0.186 C 
ATOM     21  C   UNL A   1      36.040  22.706  23.668  1.00  0.00     0.262 C 
ATOM     22  C   UNL A   1      34.747  23.844  25.249  1.00  0.00     0.204 C 
ATOM     23  H   UNL A   1      34.807  21.755  24.963  1.00  0.00     0.348 HD
ATOM     24  C   UNL A   1      36.992  23.468  24.598  1.00  0.00     0.068 C 
ATOM     25  C   UNL A   1      36.151  23.851  25.816  1.00  0.00     0.073 C 
ENDBRANCH  10  15
ENDBRANCH   6   9
ENDBRANCH   4   5
ENDBRANCH   3   4
ENDBRANCH   2   3
ENDBRANCH   1   2
BRANCH   1  26
ATOM     26  C   UNL A   1      34.891  30.484  27.402  1.00  0.00     0.021 C 
BRANCH  26  27
ATOM     27  C   UNL A   1      35.870  31.174  28.346  1.00  0.00     0.116 C 
BRANCH  27  28
ATOM     28  N   UNL A   1      35.707  30.731  29.721  1.00  0.00    -0.352 N 
ATOM     29  C   UNL A   1      36.552  29.976  30.494  1.00  0.00     0.251 C 
ATOM     30  H   UNL A   1      34.872  31.013  30.161  1.00  0.00     0.163 HD
ATOM     31  O   UNL A   1      36.162  29.529  31.572  1.00  0.00    -0.269 OA
BRANCH  29  32
ATOM     32  C   UNL A   1      37.924  29.683  30.023  1.00  0.00     0.039 A 
ATOM     33  C   UNL A   1      38.941  29.509  30.964  1.00  0.00     0.014 A 
ATOM     34  C   UNL A   1      38.208  29.589  28.657  1.00  0.00     0.014 A 
ATOM     35  C   UNL A   1      40.232  29.194  30.537  1.00  0.00     0.010 A 
ATOM     36  C   UNL A   1      39.475  29.196  28.238  1.00  0.00     0.010 A 
ATOM     37  C   UNL A   1      40.505  29.007  29.171  1.00  0.00    -0.014 A 
BRANCH  37  38
ATOM     38  C   UNL A   1      41.866  28.633  28.703  1.00  0.00     0.031 A 
ATOM     39  C   UNL A   1      42.951  29.675  28.624  1.00  0.00     0.074 A 
ATOM     40  C   UNL A   1      42.114  27.370  28.305  1.00  0.00     0.049 A 
ATOM     41  N   UNL A   1      44.186  29.549  28.210  1.00  0.00    -0.248 NA
ATOM     42  C   UNL A   1      42.595  31.042  29.040  1.00  0.00     0.031 C 
ATOM     43  C   UNL A   1      41.140  26.276  28.298  1.00  0.00     0.029 A 
ATOM     44  N   UNL A   1      43.264  26.791  27.827  1.00  0.00    -0.354 N 
ATOM     45  C   UNL A   1      44.748  30.818  28.303  1.00  0.00     0.074 A 
ATOM     46  C   UNL A   1      43.702  31.710  28.755  1.00  0.00     0.031 C 
ATOM     47  C   UNL A   1      41.741  25.154  27.872  1.00  0.00     0.029 A 
ATOM     48  C   UNL A   1      43.129  25.454  27.534  1.00  0.00     0.049 A 
ATOM     49  H   UNL A   1      44.105  27.286  27.706  1.00  0.00     0.167 HD
ATOM     50  C   UNL A   1      46.023  31.204  28.058  1.00  0.00     0.031 A 
ATOM     51  C   UNL A   1      44.019  24.568  27.047  1.00  0.00     0.031 A 
ATOM     52  C   UNL A   1      47.062  30.313  27.615  1.00  0.00     0.049 A 
ATOM     53  C   UNL A   1      45.425  25.023  26.763  1.00  0.00     0.074 A 
ATOM     54  C   UNL A   1      48.397  30.595  27.387  1.00  0.00     0.029 A 
ATOM     55  N   UNL A   1      46.883  28.967  27.329  1.00  0.00    -0.354 N 
ATOM     56  N   UNL A   1      45.953  26.214  26.919  1.00  0.00    -0.248 NA
ATOM     57  C   UNL A   1      46.358  24.011  26.250  1.00  0.00     0.031 C 
ATOM     58  C   UNL A   1      49.012  29.435  26.904  1.00  0.00     0.029 A 
ATOM     59  C   UNL A   1      48.077  28.412  26.900  1.00  0.00     0.049 A 
ATOM     60  H   UNL A   1      46.033  28.479  27.418  1.00  0.00     0.167 HD
ATOM     61  C   UNL A   1      47.289  26.086  26.554  1.00  0.00     0.074 A 
ATOM     62  C   UNL A   1      47.490  24.700  26.183  1.00  0.00     0.031 C 
ATOM     63  C   UNL A   1      48.262  27.030  26.531  1.00  0.00     0.031 A 
BRANCH  50  64
ATOM     64  C   UNL A   1      46.360  32.660  28.256  1.00  0.00    -0.014 A 
ATOM     65  C   UNL A   1      46.816  33.142  29.497  1.00  0.00     0.010 A 
ATOM     66  C   UNL A   1      46.245  33.557  27.177  1.00  0.00     0.010 A 
ATOM     67  C   UNL A   1      47.103  34.498  29.669  1.00  0.00     0.020 A 
ATOM     68  C   UNL A   1      46.564  34.909  27.337  1.00  0.00     0.020 A 
ATOM     69  C   UNL A   1      46.972  35.374  28.588  1.00  0.00     0.054 A 
BRANCH  69  70
ATOM     70  S   UNL A   1      47.361  37.128  28.838  1.00  0.00     0.124 S 
ATOM     71  O   UNL A   1      48.236  37.077  30.007  1.00  0.00    -0.237 OA
ATOM     72  O   UNL A   1      48.010  37.494  27.582  1.00  0.00    -0.237 OA
ATOM     73  O   UNL A   1      46.056  37.744  29.065  1.00  0.00    -0.744 OA
ENDBRANCH  69  70
ENDBRANCH  50  64
BRANCH  51  74
ATOM     74  C   UNL A   1      43.610  23.154  26.815  1.00  0.00    -0.014 A 
ATOM     75  C   UNL A   1      43.885  22.521  25.590  1.00  0.00     0.010 A 
ATOM     76  C   UNL A   1      42.956  22.428  27.827  1.00  0.00     0.010 A 
ATOM     77  C   UNL A   1      43.499  21.195  25.375  1.00  0.00     0.020 A 
ATOM     78  C   UNL A   1      42.596  21.093  27.627  1.00  0.00     0.020 A 
ATOM     79  C   UNL A   1      42.860  20.488  26.397  1.00  0.00     0.054 A 
BRANCH  79  80
ATOM     80  S   UNL A   1      42.418  18.751  26.114  1.00  0.00     0.124 S 
ATOM     81  O   UNL A   1      43.342  18.372  25.049  1.00  0.00    -0.237 OA
ATOM     82  O   UNL A   1      42.673  18.146  27.419  1.00  0.00    -0.237 OA
ATOM     83  O   UNL A   1      41.010  18.814  25.730  1.00  0.00    -0.744 OA
ENDBRANCH  79  80
ENDBRANCH  51  74
BRANCH  63  84
ATOM     84  C   UNL A   1      49.647  26.593  26.129  1.00  0.00    -0.014 A 
ATOM     85  C   UNL A   1      50.127  26.785  24.821  1.00  0.00     0.010 A 
ATOM     86  C   UNL A   1      50.500  26.027  27.095  1.00  0.00     0.010 A 
ATOM     87  C   UNL A   1      51.423  26.388  24.479  1.00  0.00     0.020 A 
ATOM     88  C   UNL A   1      51.807  25.659  26.765  1.00  0.00     0.020 A 
ATOM     89  C   UNL A   1      52.255  25.828  25.453  1.00  0.00     0.054 A 
BRANCH  89  90
ATOM     90  S   UNL A   1      53.945  25.360  24.993  1.00  0.00     0.124 S 
ATOM     91  O   UNL A   1      54.720  25.868  26.122  1.00  0.00    -0.237 OA
ATOM     92  O   UNL A   1      53.858  23.905  24.894  1.00  0.00    -0.237 OA
ATOM     93  O   UNL A   1      54.165  26.052  23.725  1.00  0.00    -0.744 OA
ENDBRANCH  89  90
ENDBRANCH  63  84
ENDBRANCH  37  38
ENDBRANCH  29  32
ENDBRANCH  27  28
ENDBRANCH  26  27
ENDBRANCH   1  26
TORSDOF 17
ENDMDL
