MODEL 1
REMARK VINA RESULT:     -11.9      0.000      0.000
REMARK SMILES CC(C)[C@H](C)CNC(=O)N1CC(n2cc(C(=O)NCCCCCCNC(=O)c3ccc(-c4c5nc(c(-c6ccc(S(=O)(=O)[O-])cc6)c6ccc([nH]6)c(-c6ccc(S(=O)(=O)[O-])cc6)c6nc(c(-c7ccc(S(=O)(=O)[O-])cc7)c7ccc4[nH]7)C=C6)C=C5)cc3)nn2)C1
REMARK SMILES IDX 21 1 20 2 19 3 18 4 16 5 17 6 15 8 13 9 14 10 89 11 88 12
REMARK SMILES IDX 12 13 7 14 8 15 9 17 10 18 11 19 90 20 6 21 4 22 5 23 2 24
REMARK SMILES IDX 1 25 3 26 22 27 23 28 24 29 25 30 26 31 27 33 28 34 29 35
REMARK SMILES IDX 87 36 30 37 86 38 31 39 32 40 33 41 80 42 34 43 85 44 79 45
REMARK SMILES IDX 81 46 35 47 84 48 78 49 77 50 36 52 66 53 47 54 65 55 48 56
REMARK SMILES IDX 51 57 64 58 82 59 49 60 50 61 63 63 83 64 52 65 37 66 38 67
REMARK SMILES IDX 46 68 39 69 45 70 40 71 41 72 42 73 43 74 44 75 67 76 68 77
REMARK SMILES IDX 76 78 69 79 75 80 70 81 71 82 72 83 73 84 74 85 53 86 54 87
REMARK SMILES IDX 62 88 55 89 61 90 56 91 57 92 58 93 59 94 60 95
REMARK H PARENT 18 7 7 16 25 32 81 51 51 62
REMARK Flexibility Score: inf
ROOT
ATOM      1  C   UNL A   1      32.844  29.870  25.608  1.00  0.00     0.002 C 
ENDROOT
BRANCH   1   2
ATOM      2  C   UNL A   1      31.499  29.247  25.209  1.00  0.00     0.021 C 
BRANCH   2   3
ATOM      3  C   UNL A   1      31.578  28.292  24.019  1.00  0.00     0.116 C 
BRANCH   3   4
ATOM      4  N   UNL A   1      30.292  27.682  23.747  1.00  0.00    -0.351 N 
ATOM      5  C   UNL A   1      29.713  26.522  24.205  1.00  0.00     0.273 C 
ATOM      6  O   UNL A   1      28.526  26.349  23.920  1.00  0.00    -0.267 OA
ATOM      7  H   UNL A   1      29.729  28.193  23.120  1.00  0.00     0.163 HD
BRANCH   5   8
ATOM      8  C   UNL A   1      30.450  25.577  25.036  1.00  0.00     0.170 A 
ATOM      9  N   UNL A   1      31.766  24.079  25.905  1.00  0.00    -0.245 N 
ATOM     10  C   UNL A   1      31.306  24.544  24.702  1.00  0.00     0.145 A 
ATOM     11  N   UNL A   1      31.180  24.721  26.926  1.00  0.00    -0.066 NA
ATOM     12  N   UNL A   1      30.344  25.611  26.411  1.00  0.00    -0.125 NA
BRANCH   9  13
ATOM     13  C   UNL A   1      32.852  23.157  26.034  1.00  0.00     0.148 C 
ATOM     14  N   UNL A   1      34.169  19.313  24.994  1.00  0.00    -0.338 N 
ATOM     15  C   UNL A   1      34.543  20.614  24.887  1.00  0.00     0.317 C 
ATOM     16  H   UNL A   1      34.879  18.702  25.298  1.00  0.00     0.165 HD
ATOM     17  O   UNL A   1      35.739  20.864  24.744  1.00  0.00    -0.249 OA
ATOM     18  N   UNL A   1      33.601  21.587  24.937  1.00  0.00    -0.320 N 
ATOM     19  C   UNL A   1      33.791  23.033  24.824  1.00  0.00     0.150 C 
ATOM     20  C   UNL A   1      32.375  21.723  25.699  1.00  0.00     0.150 C 
BRANCH  14  21
ATOM     21  C   UNL A   1      32.885  18.679  24.728  1.00  0.00     0.121 C 
BRANCH  21  22
ATOM     22  C   UNL A   1      33.050  17.206  24.285  1.00  0.00     0.008 C 
ATOM     23  C   UNL A   1      33.934  17.125  23.029  1.00  0.00     0.010 C 
BRANCH  22  24
ATOM     24  C   UNL A   1      33.528  16.228  25.409  1.00  0.00    -0.013 C 
ATOM     25  C   UNL A   1      32.640  14.995  25.617  1.00  0.00     0.008 C 
ATOM     26  C   UNL A   1      34.984  15.777  25.258  1.00  0.00     0.008 C 
ENDBRANCH  22  24
ENDBRANCH  21  22
ENDBRANCH  14  21
ENDBRANCH   9  13
ENDBRANCH   5   8
ENDBRANCH   3   4
ENDBRANCH   2   3
ENDBRANCH   1   2
BRANCH   1  27
ATOM     27  C   UNL A   1      32.931  30.440  27.034  1.00  0.00     0.002 C 
BRANCH  27  28
ATOM     28  C   UNL A   1      34.313  30.418  27.705  1.00  0.00     0.021 C 
BRANCH  28  29
ATOM     29  C   UNL A   1      34.988  31.778  27.781  1.00  0.00     0.116 C 
BRANCH  29  30
ATOM     30  N   UNL A   1      34.665  32.497  29.013  1.00  0.00    -0.352 N 
ATOM     31  C   UNL A   1      35.050  32.203  30.311  1.00  0.00     0.251 C 
ATOM     32  H   UNL A   1      34.098  33.295  28.905  1.00  0.00     0.163 HD
ATOM     33  O   UNL A   1      34.419  32.635  31.260  1.00  0.00    -0.269 OA
BRANCH  31  34
ATOM     34  C   UNL A   1      36.240  31.355  30.514  1.00  0.00     0.039 A 
ATOM     35  C   UNL A   1      36.135  29.995  30.812  1.00  0.00     0.014 A 
ATOM     36  C   UNL A   1      37.486  31.953  30.366  1.00  0.00     0.014 A 
ATOM     37  C   UNL A   1      37.300  29.231  30.874  1.00  0.00     0.010 A 
ATOM     38  C   UNL A   1      38.604  31.174  30.237  1.00  0.00     0.010 A 
ATOM     39  C   UNL A   1      38.532  29.827  30.562  1.00  0.00    -0.014 A 
BRANCH  39  40
ATOM     40  C   UNL A   1      39.765  29.055  30.519  1.00  0.00     0.031 A 
ATOM     41  C   UNL A   1      40.438  28.847  31.823  1.00  0.00     0.074 A 
ATOM     42  C   UNL A   1      40.184  28.395  29.417  1.00  0.00     0.049 A 
ATOM     43  N   UNL A   1      41.499  29.441  32.253  1.00  0.00    -0.248 NA
ATOM     44  C   UNL A   1      39.793  27.981  32.821  1.00  0.00     0.031 C 
ATOM     45  C   UNL A   1      39.507  28.226  28.125  1.00  0.00     0.029 A 
ATOM     46  N   UNL A   1      41.296  27.631  29.270  1.00  0.00    -0.354 N 
ATOM     47  C   UNL A   1      41.793  28.866  33.484  1.00  0.00     0.074 A 
ATOM     48  C   UNL A   1      40.619  28.119  33.862  1.00  0.00     0.031 C 
ATOM     49  C   UNL A   1      40.102  27.236  27.425  1.00  0.00     0.029 A 
ATOM     50  C   UNL A   1      41.309  26.845  28.127  1.00  0.00     0.049 A 
ATOM     51  H   UNL A   1      42.035  27.634  29.922  1.00  0.00     0.167 HD
ATOM     52  C   UNL A   1      43.062  28.863  33.983  1.00  0.00     0.031 A 
ATOM     53  C   UNL A   1      42.252  25.935  27.780  1.00  0.00     0.031 A 
ATOM     54  C   UNL A   1      43.937  29.709  33.209  1.00  0.00     0.049 A 
ATOM     55  C   UNL A   1      43.490  26.310  28.506  1.00  0.00     0.074 A 
ATOM     56  C   UNL A   1      43.965  31.053  32.893  1.00  0.00     0.029 A 
ATOM     57  N   UNL A   1      44.742  29.087  32.281  1.00  0.00    -0.354 N 
ATOM     58  N   UNL A   1      44.137  27.419  28.277  1.00  0.00    -0.248 NA
ATOM     59  C   UNL A   1      43.755  25.692  29.795  1.00  0.00     0.031 C 
ATOM     60  C   UNL A   1      44.375  31.101  31.528  1.00  0.00     0.029 A 
ATOM     61  C   UNL A   1      44.646  29.795  31.110  1.00  0.00     0.049 A 
ATOM     62  H   UNL A   1      45.288  28.281  32.431  1.00  0.00     0.167 HD
ATOM     63  C   UNL A   1      44.535  27.866  29.530  1.00  0.00     0.074 A 
ATOM     64  C   UNL A   1      44.368  26.710  30.409  1.00  0.00     0.031 C 
ATOM     65  C   UNL A   1      44.698  29.199  29.789  1.00  0.00     0.031 A 
BRANCH  52  66
ATOM     66  C   UNL A   1      43.613  27.813  34.914  1.00  0.00    -0.014 A 
ATOM     67  C   UNL A   1      43.406  27.964  36.301  1.00  0.00     0.010 A 
ATOM     68  C   UNL A   1      44.546  26.838  34.508  1.00  0.00     0.010 A 
ATOM     69  C   UNL A   1      44.153  27.233  37.233  1.00  0.00     0.020 A 
ATOM     70  C   UNL A   1      45.265  26.073  35.428  1.00  0.00     0.020 A 
ATOM     71  C   UNL A   1      45.091  26.302  36.787  1.00  0.00     0.054 A 
BRANCH  71  72
ATOM     72  S   UNL A   1      46.136  25.450  37.993  1.00  0.00     0.124 S 
ATOM     73  O   UNL A   1      46.329  24.152  37.356  1.00  0.00    -0.237 OA
ATOM     74  O   UNL A   1      47.313  26.313  38.045  1.00  0.00    -0.237 OA
ATOM     75  O   UNL A   1      45.321  25.440  39.205  1.00  0.00    -0.744 OA
ENDBRANCH  71  72
ENDBRANCH  52  66
BRANCH  53  76
ATOM     76  C   UNL A   1      42.057  24.631  27.107  1.00  0.00    -0.014 A 
ATOM     77  C   UNL A   1      43.045  24.098  26.259  1.00  0.00     0.010 A 
ATOM     78  C   UNL A   1      41.018  23.774  27.528  1.00  0.00     0.010 A 
ATOM     79  C   UNL A   1      43.033  22.738  25.905  1.00  0.00     0.020 A 
ATOM     80  C   UNL A   1      40.999  22.420  27.175  1.00  0.00     0.020 A 
ATOM     81  C   UNL A   1      42.021  21.902  26.386  1.00  0.00     0.054 A 
BRANCH  81  82
ATOM     82  S   UNL A   1      42.121  20.111  26.085  1.00  0.00     0.124 S 
ATOM     83  O   UNL A   1      42.317  19.582  27.431  1.00  0.00    -0.237 OA
ATOM     84  O   UNL A   1      40.828  19.820  25.471  1.00  0.00    -0.237 OA
ATOM     85  O   UNL A   1      43.271  19.978  25.192  1.00  0.00    -0.744 OA
ENDBRANCH  81  82
ENDBRANCH  53  76
BRANCH  65  86
ATOM     86  C   UNL A   1      44.693  30.163  28.620  1.00  0.00    -0.014 A 
ATOM     87  C   UNL A   1      43.550  30.454  27.849  1.00  0.00     0.010 A 
ATOM     88  C   UNL A   1      45.857  30.920  28.396  1.00  0.00     0.010 A 
ATOM     89  C   UNL A   1      43.579  31.457  26.867  1.00  0.00     0.020 A 
ATOM     90  C   UNL A   1      45.888  31.932  27.433  1.00  0.00     0.020 A 
ATOM     91  C   UNL A   1      44.752  32.190  26.665  1.00  0.00     0.054 A 
BRANCH  91  92
ATOM     92  S   UNL A   1      44.774  33.520  25.429  1.00  0.00     0.124 S 
ATOM     93  O   UNL A   1      44.175  32.880  24.262  1.00  0.00    -0.237 OA
ATOM     94  O   UNL A   1      43.966  34.562  26.059  1.00  0.00    -0.237 OA
ATOM     95  O   UNL A   1      46.193  33.847  25.295  1.00  0.00    -0.744 OA
ENDBRANCH  91  92
ENDBRANCH  65  86
ENDBRANCH  39  40
ENDBRANCH  31  34
ENDBRANCH  29  30
ENDBRANCH  28  29
ENDBRANCH  27  28
ENDBRANCH   1  27
TORSDOF 20
ENDMDL
MODEL 2
REMARK VINA RESULT:     -11.2      5.171     12.640
REMARK SMILES CC(C)[C@H](C)CNC(=O)N1CC(n2cc(C(=O)NCCCCCCNC(=O)c3ccc(-c4c5nc(c(-c6ccc(S(=O)(=O)[O-])cc6)c6ccc([nH]6)c(-c6ccc(S(=O)(=O)[O-])cc6)c6nc(c(-c7ccc(S(=O)(=O)[O-])cc7)c7ccc4[nH]7)C=C6)C=C5)cc3)nn2)C1
REMARK SMILES IDX 21 1 20 2 19 3 18 4 16 5 17 6 15 8 13 9 14 10 89 11 88 12
REMARK SMILES IDX 12 13 7 14 8 15 9 17 10 18 11 19 90 20 6 21 4 22 5 23 2 24
REMARK SMILES IDX 1 25 3 26 22 27 23 28 24 29 25 30 26 31 27 33 28 34 29 35
REMARK SMILES IDX 87 36 30 37 86 38 31 39 32 40 33 41 80 42 34 43 85 44 79 45
REMARK SMILES IDX 81 46 35 47 84 48 78 49 77 50 36 52 66 53 47 54 65 55 48 56
REMARK SMILES IDX 51 57 64 58 82 59 49 60 50 61 63 63 83 64 52 65 37 66 38 67
REMARK SMILES IDX 46 68 39 69 45 70 40 71 41 72 42 73 43 74 44 75 67 76 68 77
REMARK SMILES IDX 76 78 69 79 75 80 70 81 71 82 72 83 73 84 74 85 53 86 54 87
REMARK SMILES IDX 62 88 55 89 61 90 56 91 57 92 58 93 59 94 60 95
REMARK H PARENT 18 7 7 16 25 32 81 51 51 62
REMARK Flexibility Score: inf
ROOT
ATOM      1  C   UNL A   1      43.493  25.076  25.500  1.00  0.00     0.002 C 
ENDROOT
BRANCH   1   2
ATOM      2  C   UNL A   1      44.263  25.711  26.666  1.00  0.00     0.021 C 
BRANCH   2   3
ATOM      3  C   UNL A   1      45.709  26.079  26.338  1.00  0.00     0.116 C 
BRANCH   3   4
ATOM      4  N   UNL A   1      45.778  27.302  25.565  1.00  0.00    -0.351 N 
ATOM      5  C   UNL A   1      46.767  28.248  25.435  1.00  0.00     0.273 C 
ATOM      6  O   UNL A   1      46.600  29.105  24.565  1.00  0.00    -0.267 OA
ATOM      7  H   UNL A   1      44.969  27.490  25.035  1.00  0.00     0.163 HD
BRANCH   5   8
ATOM      8  C   UNL A   1      47.980  28.202  26.245  1.00  0.00     0.170 A 
ATOM      9  N   UNL A   1      49.537  27.913  27.735  1.00  0.00    -0.245 N 
ATOM     10  C   UNL A   1      48.178  27.865  27.570  1.00  0.00     0.145 A 
ATOM     11  N   UNL A   1      50.144  28.329  26.614  1.00  0.00    -0.066 NA
ATOM     12  N   UNL A   1      49.203  28.547  25.707  1.00  0.00    -0.125 NA
BRANCH   9  13
ATOM     13  C   UNL A   1      50.211  27.417  28.895  1.00  0.00     0.148 C 
ATOM     14  N   UNL A   1      49.627  25.637  32.648  1.00  0.00    -0.338 N 
ATOM     15  C   UNL A   1      50.286  25.427  31.479  1.00  0.00     0.317 C 
ATOM     16  H   UNL A   1      50.169  25.501  33.459  1.00  0.00     0.165 HD
ATOM     17  O   UNL A   1      51.282  24.706  31.496  1.00  0.00    -0.249 OA
ATOM     18  N   UNL A   1      49.830  26.005  30.341  1.00  0.00    -0.320 N 
ATOM     19  C   UNL A   1      50.378  25.893  28.990  1.00  0.00     0.150 C 
ATOM     20  C   UNL A   1      49.219  27.293  30.076  1.00  0.00     0.150 C 
BRANCH  14  21
ATOM     21  C   UNL A   1      48.247  26.031  32.892  1.00  0.00     0.121 C 
BRANCH  21  22
ATOM     22  C   UNL A   1      47.407  24.865  33.466  1.00  0.00     0.008 C 
ATOM     23  C   UNL A   1      48.138  24.218  34.654  1.00  0.00     0.010 C 
BRANCH  22  24
ATOM     24  C   UNL A   1      45.924  25.228  33.810  1.00  0.00    -0.013 C 
ATOM     25  C   UNL A   1      45.742  26.523  34.610  1.00  0.00     0.008 C 
ATOM     26  C   UNL A   1      44.997  25.259  32.591  1.00  0.00     0.008 C 
ENDBRANCH  22  24
ENDBRANCH  21  22
ENDBRANCH  14  21
ENDBRANCH   9  13
ENDBRANCH   5   8
ENDBRANCH   3   4
ENDBRANCH   2   3
ENDBRANCH   1   2
BRANCH   1  27
ATOM     27  C   UNL A   1      44.160  23.863  24.827  1.00  0.00     0.002 C 
BRANCH  27  28
ATOM     28  C   UNL A   1      43.275  22.631  24.586  1.00  0.00     0.021 C 
BRANCH  28  29
ATOM     29  C   UNL A   1      42.617  22.083  25.843  1.00  0.00     0.116 C 
BRANCH  29  30
ATOM     30  N   UNL A   1      41.194  21.805  25.653  1.00  0.00    -0.352 N 
ATOM     31  C   UNL A   1      40.116  22.277  26.385  1.00  0.00     0.251 C 
ATOM     32  H   UNL A   1      40.972  21.201  24.908  1.00  0.00     0.163 HD
ATOM     33  O   UNL A   1      39.050  21.687  26.374  1.00  0.00    -0.269 OA
BRANCH  31  34
ATOM     34  C   UNL A   1      40.293  23.510  27.175  1.00  0.00     0.039 A 
ATOM     35  C   UNL A   1      41.319  23.645  28.113  1.00  0.00     0.014 A 
ATOM     36  C   UNL A   1      39.413  24.560  26.932  1.00  0.00     0.014 A 
ATOM     37  C   UNL A   1      41.497  24.879  28.737  1.00  0.00     0.010 A 
ATOM     38  C   UNL A   1      39.706  25.813  27.396  1.00  0.00     0.010 A 
ATOM     39  C   UNL A   1      40.697  25.967  28.355  1.00  0.00    -0.014 A 
BRANCH  39  40
ATOM     40  C   UNL A   1      40.903  27.299  28.905  1.00  0.00     0.031 A 
ATOM     41  C   UNL A   1      41.982  28.094  28.270  1.00  0.00     0.074 A 
ATOM     42  C   UNL A   1      40.061  27.870  29.792  1.00  0.00     0.049 A 
ATOM     43  N   UNL A   1      43.153  28.338  28.753  1.00  0.00    -0.248 NA
ATOM     44  C   UNL A   1      41.794  28.566  26.891  1.00  0.00     0.031 C 
ATOM     45  C   UNL A   1      38.779  27.368  30.307  1.00  0.00     0.029 A 
ATOM     46  N   UNL A   1      40.140  29.104  30.350  1.00  0.00    -0.354 N 
ATOM     47  C   UNL A   1      43.778  29.182  27.842  1.00  0.00     0.074 A 
ATOM     48  C   UNL A   1      42.978  29.135  26.644  1.00  0.00     0.031 C 
ATOM     49  C   UNL A   1      38.105  28.374  30.905  1.00  0.00     0.029 A 
ATOM     50  C   UNL A   1      38.983  29.525  30.990  1.00  0.00     0.049 A 
ATOM     51  H   UNL A   1      40.953  29.658  30.304  1.00  0.00     0.167 HD
ATOM     52  C   UNL A   1      44.775  30.030  28.227  1.00  0.00     0.031 A 
ATOM     53  C   UNL A   1      38.765  30.737  31.554  1.00  0.00     0.031 A 
ATOM     54  C   UNL A   1      45.218  29.751  29.570  1.00  0.00     0.049 A 
ATOM     55  C   UNL A   1      40.098  31.310  31.859  1.00  0.00     0.074 A 
ATOM     56  C   UNL A   1      45.775  28.658  30.207  1.00  0.00     0.029 A 
ATOM     57  N   UNL A   1      44.713  30.553  30.570  1.00  0.00    -0.354 N 
ATOM     58  N   UNL A   1      40.912  30.786  32.733  1.00  0.00    -0.248 NA
ATOM     59  C   UNL A   1      40.722  32.181  30.875  1.00  0.00     0.031 C 
ATOM     60  C   UNL A   1      45.149  28.623  31.488  1.00  0.00     0.029 A 
ATOM     61  C   UNL A   1      44.305  29.733  31.591  1.00  0.00     0.049 A 
ATOM     62  H   UNL A   1      44.657  31.536  30.554  1.00  0.00     0.167 HD
ATOM     63  C   UNL A   1      42.172  30.896  32.159  1.00  0.00     0.074 A 
ATOM     64  C   UNL A   1      42.005  31.859  31.071  1.00  0.00     0.031 C 
ATOM     65  C   UNL A   1      43.161  29.995  32.442  1.00  0.00     0.031 A 
BRANCH  52  66
ATOM     66  C   UNL A   1      45.084  31.346  27.559  1.00  0.00    -0.014 A 
ATOM     67  C   UNL A   1      46.397  31.580  27.102  1.00  0.00     0.010 A 
ATOM     68  C   UNL A   1      44.215  32.454  27.605  1.00  0.00     0.010 A 
ATOM     69  C   UNL A   1      46.839  32.870  26.783  1.00  0.00     0.020 A 
ATOM     70  C   UNL A   1      44.632  33.737  27.248  1.00  0.00     0.020 A 
ATOM     71  C   UNL A   1      45.954  33.944  26.875  1.00  0.00     0.054 A 
BRANCH  71  72
ATOM     72  S   UNL A   1      46.563  35.622  26.580  1.00  0.00     0.124 S 
ATOM     73  O   UNL A   1      47.462  35.817  27.712  1.00  0.00    -0.237 OA
ATOM     74  O   UNL A   1      47.204  35.492  25.274  1.00  0.00    -0.237 OA
ATOM     75  O   UNL A   1      45.349  36.433  26.596  1.00  0.00    -0.744 OA
ENDBRANCH  71  72
ENDBRANCH  52  66
BRANCH  53  76
ATOM     76  C   UNL A   1      37.510  31.523  31.571  1.00  0.00    -0.014 A 
ATOM     77  C   UNL A   1      36.620  31.445  32.657  1.00  0.00     0.010 A 
ATOM     78  C   UNL A   1      37.329  32.572  30.645  1.00  0.00     0.010 A 
ATOM     79  C   UNL A   1      35.630  32.424  32.850  1.00  0.00     0.020 A 
ATOM     80  C   UNL A   1      36.343  33.548  30.829  1.00  0.00     0.020 A 
ATOM     81  C   UNL A   1      35.514  33.483  31.945  1.00  0.00     0.054 A 
BRANCH  81  82
ATOM     82  S   UNL A   1      34.365  34.847  32.305  1.00  0.00     0.124 S 
ATOM     83  O   UNL A   1      34.033  35.333  30.970  1.00  0.00    -0.237 OA
ATOM     84  O   UNL A   1      33.287  34.171  33.021  1.00  0.00    -0.237 OA
ATOM     85  O   UNL A   1      35.166  35.762  33.118  1.00  0.00    -0.744 OA
ENDBRANCH  81  82
ENDBRANCH  53  76
BRANCH  65  86
ATOM     86  C   UNL A   1      42.945  29.030  33.590  1.00  0.00    -0.014 A 
ATOM     87  C   UNL A   1      43.278  29.319  34.929  1.00  0.00     0.010 A 
ATOM     88  C   UNL A   1      42.232  27.848  33.322  1.00  0.00     0.010 A 
ATOM     89  C   UNL A   1      42.928  28.438  35.964  1.00  0.00     0.020 A 
ATOM     90  C   UNL A   1      41.864  26.975  34.349  1.00  0.00     0.020 A 
ATOM     91  C   UNL A   1      42.222  27.269  35.666  1.00  0.00     0.054 A 
BRANCH  91  92
ATOM     92  S   UNL A   1      41.726  26.155  37.011  1.00  0.00     0.124 S 
ATOM     93  O   UNL A   1      40.493  26.769  37.495  1.00  0.00    -0.237 OA
ATOM     94  O   UNL A   1      41.565  24.873  36.329  1.00  0.00    -0.237 OA
ATOM     95  O   UNL A   1      42.852  26.212  37.943  1.00  0.00    -0.744 OA
ENDBRANCH  91  92
ENDBRANCH  65  86
ENDBRANCH  39  40
ENDBRANCH  31  34
ENDBRANCH  29  30
ENDBRANCH  28  29
ENDBRANCH  27  28
ENDBRANCH   1  27
TORSDOF 20
ENDMDL
MODEL 3
REMARK VINA RESULT:     -10.9      3.081      7.594
REMARK SMILES CC(C)[C@H](C)CNC(=O)N1CC(n2cc(C(=O)NCCCCCCNC(=O)c3ccc(-c4c5nc(c(-c6ccc(S(=O)(=O)[O-])cc6)c6ccc([nH]6)c(-c6ccc(S(=O)(=O)[O-])cc6)c6nc(c(-c7ccc(S(=O)(=O)[O-])cc7)c7ccc4[nH]7)C=C6)C=C5)cc3)nn2)C1
REMARK SMILES IDX 21 1 20 2 19 3 18 4 16 5 17 6 15 8 13 9 14 10 89 11 88 12
REMARK SMILES IDX 12 13 7 14 8 15 9 17 10 18 11 19 90 20 6 21 4 22 5 23 2 24
REMARK SMILES IDX 1 25 3 26 22 27 23 28 24 29 25 30 26 31 27 33 28 34 29 35
REMARK SMILES IDX 87 36 30 37 86 38 31 39 32 40 33 41 80 42 34 43 85 44 79 45
REMARK SMILES IDX 81 46 35 47 84 48 78 49 77 50 36 52 66 53 47 54 65 55 48 56
REMARK SMILES IDX 51 57 64 58 82 59 49 60 50 61 63 63 83 64 52 65 37 66 38 67
REMARK SMILES IDX 46 68 39 69 45 70 40 71 41 72 42 73 43 74 44 75 67 76 68 77
REMARK SMILES IDX 76 78 69 79 75 80 70 81 71 82 72 83 73 84 74 85 53 86 54 87
REMARK SMILES IDX 62 88 55 89 61 90 56 91 57 92 58 93 59 94 60 95
REMARK H PARENT 18 7 7 16 25 32 81 51 51 62
REMARK Flexibility Score: inf
ROOT
ATOM      1  C   UNL A   1      33.267  30.130  27.398  1.00  0.00     0.002 C 
ENDROOT
BRANCH   1   2
ATOM      2  C   UNL A   1      33.324  28.626  27.097  1.00  0.00     0.021 C 
BRANCH   2   3
ATOM      3  C   UNL A   1      32.088  27.849  27.547  1.00  0.00     0.116 C 
BRANCH   3   4
ATOM      4  N   UNL A   1      31.265  27.470  26.417  1.00  0.00    -0.351 N 
ATOM      5  C   UNL A   1      31.406  26.482  25.470  1.00  0.00     0.273 C 
ATOM      6  O   UNL A   1      30.446  26.296  24.720  1.00  0.00    -0.267 OA
ATOM      7  H   UNL A   1      30.455  28.020  26.306  1.00  0.00     0.163 HD
BRANCH   5   8
ATOM      8  C   UNL A   1      32.608  25.659  25.400  1.00  0.00     0.170 A 
ATOM      9  N   UNL A   1      34.174  24.156  25.547  1.00  0.00    -0.245 N 
ATOM     10  C   UNL A   1      33.003  24.557  26.135  1.00  0.00     0.145 A 
ATOM     11  N   UNL A   1      34.531  24.994  24.563  1.00  0.00    -0.066 NA
ATOM     12  N   UNL A   1      33.605  25.939  24.488  1.00  0.00    -0.125 NA
BRANCH   9  13
ATOM     13  C   UNL A   1      34.821  22.914  25.840  1.00  0.00     0.148 C 
ATOM     14  N   UNL A   1      34.928  18.838  24.858  1.00  0.00    -0.338 N 
ATOM     15  C   UNL A   1      35.740  19.925  24.912  1.00  0.00     0.317 C 
ATOM     16  H   UNL A   1      35.301  18.022  25.264  1.00  0.00     0.165 HD
ATOM     17  O   UNL A   1      36.950  19.740  25.034  1.00  0.00    -0.249 OA
ATOM     18  N   UNL A   1      35.203  21.166  24.826  1.00  0.00    -0.320 N 
ATOM     19  C   UNL A   1      35.897  22.454  24.845  1.00  0.00     0.150 C 
ATOM     20  C   UNL A   1      33.965  21.733  25.326  1.00  0.00     0.150 C 
BRANCH  14  21
ATOM     21  C   UNL A   1      33.593  18.688  24.295  1.00  0.00     0.121 C 
BRANCH  21  22
ATOM     22  C   UNL A   1      33.340  17.249  23.787  1.00  0.00     0.008 C 
ATOM     23  C   UNL A   1      34.198  16.966  22.542  1.00  0.00     0.010 C 
BRANCH  22  24
ATOM     24  C   UNL A   1      33.485  16.131  24.872  1.00  0.00    -0.013 C 
ATOM     25  C   UNL A   1      34.923  15.854  25.329  1.00  0.00     0.008 C 
ATOM     26  C   UNL A   1      32.602  16.349  26.105  1.00  0.00     0.008 C 
ENDBRANCH  22  24
ENDBRANCH  21  22
ENDBRANCH  14  21
ENDBRANCH   9  13
ENDBRANCH   5   8
ENDBRANCH   3   4
ENDBRANCH   2   3
ENDBRANCH   1   2
BRANCH   1  27
ATOM     27  C   UNL A   1      32.232  30.943  26.602  1.00  0.00     0.002 C 
BRANCH  27  28
ATOM     28  C   UNL A   1      31.611  32.157  27.310  1.00  0.00     0.021 C 
BRANCH  28  29
ATOM     29  C   UNL A   1      32.194  33.493  26.879  1.00  0.00     0.116 C 
BRANCH  29  30
ATOM     30  N   UNL A   1      32.201  34.476  27.961  1.00  0.00    -0.352 N 
ATOM     31  C   UNL A   1      33.004  34.515  29.089  1.00  0.00     0.251 C 
ATOM     32  H   UNL A   1      31.547  35.208  27.877  1.00  0.00     0.163 HD
ATOM     33  O   UNL A   1      32.662  35.144  30.075  1.00  0.00    -0.269 OA
BRANCH  31  34
ATOM     34  C   UNL A   1      34.281  33.777  29.065  1.00  0.00     0.039 A 
ATOM     35  C   UNL A   1      35.152  33.843  27.975  1.00  0.00     0.014 A 
ATOM     36  C   UNL A   1      34.609  33.027  30.189  1.00  0.00     0.014 A 
ATOM     37  C   UNL A   1      36.393  33.214  28.070  1.00  0.00     0.010 A 
ATOM     38  C   UNL A   1      35.891  32.577  30.356  1.00  0.00     0.010 A 
ATOM     39  C   UNL A   1      36.764  32.600  29.277  1.00  0.00    -0.014 A 
BRANCH  39  40
ATOM     40  C   UNL A   1      38.083  32.013  29.462  1.00  0.00     0.031 A 
ATOM     41  C   UNL A   1      38.200  30.578  29.107  1.00  0.00     0.074 A 
ATOM     42  C   UNL A   1      39.183  32.743  29.745  1.00  0.00     0.049 A 
ATOM     43  N   UNL A   1      38.272  29.580  29.922  1.00  0.00    -0.248 NA
ATOM     44  C   UNL A   1      38.096  30.189  27.694  1.00  0.00     0.031 C 
ATOM     45  C   UNL A   1      39.329  34.202  29.831  1.00  0.00     0.029 A 
ATOM     46  N   UNL A   1      40.457  32.308  29.914  1.00  0.00    -0.354 N 
ATOM     47  C   UNL A   1      38.450  28.449  29.133  1.00  0.00     0.074 A 
ATOM     48  C   UNL A   1      38.148  28.857  27.783  1.00  0.00     0.031 C 
ATOM     49  C   UNL A   1      40.638  34.531  29.803  1.00  0.00     0.029 A 
ATOM     50  C   UNL A   1      41.416  33.311  29.898  1.00  0.00     0.049 A 
ATOM     51  H   UNL A   1      40.684  31.358  30.037  1.00  0.00     0.167 HD
ATOM     52  C   UNL A   1      39.054  27.329  29.622  1.00  0.00     0.031 A 
ATOM     53  C   UNL A   1      42.760  33.147  29.962  1.00  0.00     0.031 A 
ATOM     54  C   UNL A   1      39.236  27.406  31.050  1.00  0.00     0.049 A 
ATOM     55  C   UNL A   1      42.997  31.825  30.591  1.00  0.00     0.074 A 
ATOM     56  C   UNL A   1      38.392  27.537  32.135  1.00  0.00     0.029 A 
ATOM     57  N   UNL A   1      40.486  27.775  31.498  1.00  0.00    -0.354 N 
ATOM     58  N   UNL A   1      42.668  31.558  31.824  1.00  0.00    -0.248 NA
ATOM     59  C   UNL A   1      43.168  30.666  29.730  1.00  0.00     0.031 C 
ATOM     60  C   UNL A   1      39.066  28.431  33.019  1.00  0.00     0.029 A 
ATOM     61  C   UNL A   1      40.312  28.735  32.462  1.00  0.00     0.049 A 
ATOM     62  H   UNL A   1      41.346  27.414  31.183  1.00  0.00     0.167 HD
ATOM     63  C   UNL A   1      42.165  30.264  31.788  1.00  0.00     0.074 A 
ATOM     64  C   UNL A   1      42.600  29.730  30.499  1.00  0.00     0.031 C 
ATOM     65  C   UNL A   1      41.217  29.846  32.681  1.00  0.00     0.031 A 
BRANCH  52  66
ATOM     66  C   UNL A   1      39.830  26.342  28.787  1.00  0.00    -0.014 A 
ATOM     67  C   UNL A   1      39.137  25.268  28.192  1.00  0.00     0.010 A 
ATOM     68  C   UNL A   1      41.238  26.276  28.786  1.00  0.00     0.010 A 
ATOM     69  C   UNL A   1      39.817  24.149  27.694  1.00  0.00     0.020 A 
ATOM     70  C   UNL A   1      41.927  25.185  28.253  1.00  0.00     0.020 A 
ATOM     71  C   UNL A   1      41.210  24.109  27.744  1.00  0.00     0.054 A 
BRANCH  71  72
ATOM     72  S   UNL A   1      42.074  22.612  27.211  1.00  0.00     0.124 S 
ATOM     73  O   UNL A   1      41.147  21.567  27.634  1.00  0.00    -0.237 OA
ATOM     74  O   UNL A   1      42.186  22.818  25.770  1.00  0.00    -0.237 OA
ATOM     75  O   UNL A   1      43.336  22.667  27.945  1.00  0.00    -0.744 OA
ENDBRANCH  71  72
ENDBRANCH  52  66
BRANCH  53  76
ATOM     76  C   UNL A   1      43.807  33.922  29.259  1.00  0.00    -0.014 A 
ATOM     77  C   UNL A   1      45.050  34.179  29.866  1.00  0.00     0.010 A 
ATOM     78  C   UNL A   1      43.689  34.162  27.873  1.00  0.00     0.010 A 
ATOM     79  C   UNL A   1      46.154  34.592  29.101  1.00  0.00     0.020 A 
ATOM     80  C   UNL A   1      44.785  34.577  27.107  1.00  0.00     0.020 A 
ATOM     81  C   UNL A   1      46.019  34.765  27.721  1.00  0.00     0.054 A 
BRANCH  81  82
ATOM     82  S   UNL A   1      47.494  35.108  26.713  1.00  0.00     0.124 S 
ATOM     83  O   UNL A   1      47.145  34.494  25.436  1.00  0.00    -0.237 OA
ATOM     84  O   UNL A   1      47.551  36.567  26.721  1.00  0.00    -0.237 OA
ATOM     85  O   UNL A   1      48.570  34.445  27.448  1.00  0.00    -0.744 OA
ENDBRANCH  81  82
ENDBRANCH  53  76
BRANCH  65  86
ATOM     86  C   UNL A   1      40.915  30.731  33.873  1.00  0.00    -0.014 A 
ATOM     87  C   UNL A   1      39.959  31.766  33.857  1.00  0.00     0.010 A 
ATOM     88  C   UNL A   1      41.511  30.395  35.102  1.00  0.00     0.010 A 
ATOM     89  C   UNL A   1      39.629  32.461  35.032  1.00  0.00     0.020 A 
ATOM     90  C   UNL A   1      41.174  31.069  36.278  1.00  0.00     0.020 A 
ATOM     91  C   UNL A   1      40.241  32.106  36.238  1.00  0.00     0.054 A 
BRANCH  91  92
ATOM     92  S   UNL A   1      39.776  32.970  37.766  1.00  0.00     0.124 S 
ATOM     93  O   UNL A   1      38.483  32.373  38.088  1.00  0.00    -0.237 OA
ATOM     94  O   UNL A   1      40.869  32.633  38.675  1.00  0.00    -0.237 OA
ATOM     95  O   UNL A   1      39.726  34.377  37.368  1.00  0.00    -0.744 OA
ENDBRANCH  91  92
ENDBRANCH  65  86
ENDBRANCH  39  40
ENDBRANCH  31  34
ENDBRANCH  29  30
ENDBRANCH  28  29
ENDBRANCH  27  28
ENDBRANCH   1  27
TORSDOF 20
ENDMDL
