MODEL 1
REMARK VINA RESULT:     -11.7      0.000      0.000
REMARK SMILES Cc1cccc(CC(=O)N2CCC3(CCC(=O)N([C@H](C)C(=O)NCCCCCCNC(=O)c4ccc(-c5c6nc(c(-c7ccc(S(=O)(=O)[O-])cc7)c7ccc([nH]7)c(-c7ccc(S(=O)(=O)[O-])cc7)c7nc(c(-c8ccc(S(=O)(=O)[O-])cc8)c8ccc5[nH]8)C=C7)C=C6)cc4)C3)CC2)c1
REMARK SMILES IDX 26 1 25 2 24 3 23 4 21 5 22 6 19 8 20 9 18 10 8 11 9 12
REMARK SMILES IDX 10 13 11 14 95 15 12 16 94 17 13 18 14 19 93 20 15 21 16 22
REMARK SMILES IDX 17 23 7 24 6 25 1 26 2 27 3 28 96 29 4 30 5 31 27 32 28 33
REMARK SMILES IDX 29 34 30 35 31 36 32 38 33 39 34 40 92 41 35 42 91 43 36 44
REMARK SMILES IDX 37 45 38 46 85 47 39 48 90 49 84 50 86 51 40 52 89 53 83 54
REMARK SMILES IDX 82 55 41 57 71 58 52 59 70 60 53 61 56 62 69 63 87 64 54 65
REMARK SMILES IDX 55 66 68 68 88 69 57 70 42 71 43 72 51 73 44 74 50 75 45 76
REMARK SMILES IDX 46 77 47 78 48 79 49 80 72 81 73 82 81 83 74 84 80 85 75 86
REMARK SMILES IDX 76 87 77 88 78 89 79 90 58 91 59 92 67 93 60 94 66 95 61 96
REMARK SMILES IDX 62 97 63 98 64 99 65 100
REMARK H PARENT 23 7 30 37 86 56 56 67
REMARK Flexibility Score: inf
ROOT
ATOM      1  C   UNL A   1      38.857  24.168  26.943  1.00  0.00     0.002 C 
ENDROOT
BRANCH   1   2
ATOM      2  C   UNL A   1      37.870  24.051  25.774  1.00  0.00     0.021 C 
BRANCH   2   3
ATOM      3  C   UNL A   1      36.573  23.311  26.072  1.00  0.00     0.116 C 
BRANCH   3   4
ATOM      4  N   UNL A   1      36.593  21.892  25.774  1.00  0.00    -0.354 N 
ATOM      5  C   UNL A   1      35.541  21.021  25.693  1.00  0.00     0.242 C 
ATOM      6  O   UNL A   1      35.719  19.956  25.089  1.00  0.00    -0.273 OA
ATOM      7  H   UNL A   1      37.482  21.504  25.606  1.00  0.00     0.163 HD
BRANCH   5   8
ATOM      8  C   UNL A   1      34.165  21.312  26.360  1.00  0.00     0.171 C 
ATOM      9  C   UNL A   1      34.264  22.175  27.619  1.00  0.00     0.042 C 
BRANCH   8  10
ATOM     10  N   UNL A   1      33.021  21.704  25.514  1.00  0.00    -0.330 N 
ATOM     11  C   UNL A   1      33.080  27.461  22.349  1.00  0.00     0.226 C 
ATOM     12  O   UNL A   1      34.068  27.738  21.660  1.00  0.00    -0.275 OA
ATOM     13  N   UNL A   1      32.699  26.141  22.546  1.00  0.00    -0.342 N 
ATOM     14  C   UNL A   1      33.665  25.068  22.314  1.00  0.00     0.120 C 
ATOM     15  C   UNL A   1      31.370  25.666  22.893  1.00  0.00     0.120 C 
ATOM     16  C   UNL A   1      33.758  24.165  23.557  1.00  0.00     0.030 C 
ATOM     17  C   UNL A   1      31.428  24.900  24.202  1.00  0.00     0.030 C 
ATOM     18  C   UNL A   1      32.378  23.679  24.091  1.00  0.00    -0.008 C 
ATOM     19  C   UNL A   1      31.724  22.634  23.147  1.00  0.00     0.019 C 
ATOM     20  C   UNL A   1      32.544  23.076  25.509  1.00  0.00     0.127 C 
ATOM     21  C   UNL A   1      32.353  21.261  23.251  1.00  0.00     0.101 C 
ATOM     22  C   UNL A   1      32.378  20.812  24.685  1.00  0.00     0.223 C 
ATOM     23  O   UNL A   1      31.907  19.746  25.051  1.00  0.00    -0.275 OA
BRANCH  11  24
ATOM     24  C   UNL A   1      32.435  28.580  23.167  1.00  0.00     0.135 C 
BRANCH  24  25
ATOM     25  C   UNL A   1      32.823  28.745  24.612  1.00  0.00    -0.038 A 
ATOM     26  C   UNL A   1      32.600  31.459  27.287  1.00  0.00     0.044 C 
ATOM     27  C   UNL A   1      32.913  30.164  26.597  1.00  0.00    -0.051 A 
ATOM     28  C   UNL A   1      33.719  29.208  27.225  1.00  0.00     0.003 A 
ATOM     29  C   UNL A   1      32.449  29.913  25.302  1.00  0.00     0.007 A 
ATOM     30  C   UNL A   1      34.052  28.021  26.568  1.00  0.00     0.001 A 
ATOM     31  C   UNL A   1      33.605  27.786  25.267  1.00  0.00     0.004 A 
ENDBRANCH  24  25
ENDBRANCH  11  24
ENDBRANCH   8  10
ENDBRANCH   5   8
ENDBRANCH   3   4
ENDBRANCH   2   3
ENDBRANCH   1   2
BRANCH   1  32
ATOM     32  C   UNL A   1      39.330  25.575  27.348  1.00  0.00     0.002 C 
BRANCH  32  33
ATOM     33  C   UNL A   1      40.002  25.736  28.714  1.00  0.00     0.021 C 
BRANCH  33  34
ATOM     34  C   UNL A   1      39.424  26.847  29.580  1.00  0.00     0.116 C 
BRANCH  34  35
ATOM     35  N   UNL A   1      38.273  27.502  28.965  1.00  0.00    -0.352 N 
ATOM     36  C   UNL A   1      38.209  28.773  28.417  1.00  0.00     0.251 C 
ATOM     37  H   UNL A   1      37.441  26.976  28.936  1.00  0.00     0.163 HD
ATOM     38  O   UNL A   1      37.162  29.305  28.101  1.00  0.00    -0.269 OA
BRANCH  36  39
ATOM     39  C   UNL A   1      39.502  29.418  28.119  1.00  0.00     0.039 A 
ATOM     40  C   UNL A   1      40.169  28.995  26.964  1.00  0.00     0.014 A 
ATOM     41  C   UNL A   1      40.154  30.137  29.115  1.00  0.00     0.014 A 
ATOM     42  C   UNL A   1      41.551  29.120  26.893  1.00  0.00     0.010 A 
ATOM     43  C   UNL A   1      41.533  30.174  29.085  1.00  0.00     0.010 A 
ATOM     44  C   UNL A   1      42.231  29.615  28.002  1.00  0.00    -0.014 A 
BRANCH  44  45
ATOM     45  C   UNL A   1      43.678  29.534  28.170  1.00  0.00     0.031 A 
ATOM     46  C   UNL A   1      44.547  30.500  27.463  1.00  0.00     0.074 A 
ATOM     47  C   UNL A   1      44.202  28.686  29.083  1.00  0.00     0.049 A 
ATOM     48  N   UNL A   1      45.826  30.387  27.334  1.00  0.00    -0.248 NA
ATOM     49  C   UNL A   1      44.004  31.668  26.775  1.00  0.00     0.031 C 
ATOM     50  C   UNL A   1      45.539  28.750  29.669  1.00  0.00     0.029 A 
ATOM     51  N   UNL A   1      43.711  27.449  29.506  1.00  0.00    -0.354 N 
ATOM     52  C   UNL A   1      46.298  31.595  26.870  1.00  0.00     0.074 A 
ATOM     53  C   UNL A   1      45.123  32.309  26.431  1.00  0.00     0.031 C 
ATOM     54  C   UNL A   1      45.878  27.525  30.099  1.00  0.00     0.029 A 
ATOM     55  C   UNL A   1      44.836  26.618  29.648  1.00  0.00     0.049 A 
ATOM     56  H   UNL A   1      42.770  27.208  29.671  1.00  0.00     0.167 HD
ATOM     57  C   UNL A   1      47.608  31.918  27.064  1.00  0.00     0.031 A 
ATOM     58  C   UNL A   1      45.052  25.487  28.912  1.00  0.00     0.031 A 
ATOM     59  C   UNL A   1      48.377  30.770  27.549  1.00  0.00     0.049 A 
ATOM     60  C   UNL A   1      46.362  25.516  28.152  1.00  0.00     0.074 A 
ATOM     61  C   UNL A   1      48.870  30.408  28.791  1.00  0.00     0.029 A 
ATOM     62  N   UNL A   1      48.482  29.643  26.741  1.00  0.00    -0.354 N 
ATOM     63  N   UNL A   1      47.053  26.601  27.929  1.00  0.00    -0.248 NA
ATOM     64  C   UNL A   1      46.980  24.336  27.555  1.00  0.00     0.031 C 
ATOM     65  C   UNL A   1      49.186  29.022  28.749  1.00  0.00     0.029 A 
ATOM     66  C   UNL A   1      48.918  28.556  27.473  1.00  0.00     0.049 A 
ATOM     67  H   UNL A   1      48.275  29.623  25.778  1.00  0.00     0.167 HD
ATOM     68  C   UNL A   1      48.176  26.297  27.203  1.00  0.00     0.074 A 
ATOM     69  C   UNL A   1      48.088  24.862  27.000  1.00  0.00     0.031 C 
ATOM     70  C   UNL A   1      49.076  27.256  26.831  1.00  0.00     0.031 A 
BRANCH  57  71
ATOM     71  C   UNL A   1      48.115  33.349  27.099  1.00  0.00    -0.014 A 
ATOM     72  C   UNL A   1      47.705  34.210  28.140  1.00  0.00     0.010 A 
ATOM     73  C   UNL A   1      48.913  33.939  26.100  1.00  0.00     0.010 A 
ATOM     74  C   UNL A   1      47.987  35.588  28.128  1.00  0.00     0.020 A 
ATOM     75  C   UNL A   1      49.179  35.316  26.057  1.00  0.00     0.020 A 
ATOM     76  C   UNL A   1      48.700  36.139  27.066  1.00  0.00     0.054 A 
BRANCH  76  77
ATOM     77  S   UNL A   1      48.986  37.926  27.011  1.00  0.00     0.124 S 
ATOM     78  O   UNL A   1      48.170  38.339  25.872  1.00  0.00    -0.237 OA
ATOM     79  O   UNL A   1      48.510  38.361  28.320  1.00  0.00    -0.237 OA
ATOM     80  O   UNL A   1      50.429  38.040  26.806  1.00  0.00    -0.744 OA
ENDBRANCH  76  77
ENDBRANCH  57  71
BRANCH  58  81
ATOM     81  C   UNL A   1      43.811  24.800  28.463  1.00  0.00    -0.014 A 
ATOM     82  C   UNL A   1      43.544  24.795  27.076  1.00  0.00     0.010 A 
ATOM     83  C   UNL A   1      43.204  23.826  29.276  1.00  0.00     0.010 A 
ATOM     84  C   UNL A   1      42.851  23.733  26.492  1.00  0.00     0.020 A 
ATOM     85  C   UNL A   1      42.499  22.765  28.691  1.00  0.00     0.020 A 
ATOM     86  C   UNL A   1      42.394  22.691  27.298  1.00  0.00     0.054 A 
BRANCH  86  87
ATOM     87  S   UNL A   1      41.872  21.151  26.483  1.00  0.00     0.124 S 
ATOM     88  O   UNL A   1      40.500  21.454  26.091  1.00  0.00    -0.237 OA
ATOM     89  O   UNL A   1      42.836  21.057  25.387  1.00  0.00    -0.237 OA
ATOM     90  O   UNL A   1      42.023  20.149  27.531  1.00  0.00    -0.744 OA
ENDBRANCH  86  87
ENDBRANCH  58  81
BRANCH  70  91
ATOM     91  C   UNL A   1      50.239  27.075  25.879  1.00  0.00    -0.014 A 
ATOM     92  C   UNL A   1      50.132  27.071  24.481  1.00  0.00     0.010 A 
ATOM     93  C   UNL A   1      51.552  27.029  26.415  1.00  0.00     0.010 A 
ATOM     94  C   UNL A   1      51.267  26.969  23.660  1.00  0.00     0.020 A 
ATOM     95  C   UNL A   1      52.692  26.973  25.608  1.00  0.00     0.020 A 
ATOM     96  C   UNL A   1      52.540  26.918  24.230  1.00  0.00     0.054 A 
BRANCH  96  97
ATOM     97  S   UNL A   1      54.002  26.861  23.162  1.00  0.00     0.124 S 
ATOM     98  O   UNL A   1      54.386  28.269  23.104  1.00  0.00    -0.237 OA
ATOM     99  O   UNL A   1      54.916  25.994  23.903  1.00  0.00    -0.237 OA
ATOM    100  O   UNL A   1      53.493  26.296  21.916  1.00  0.00    -0.744 OA
ENDBRANCH  96  97
ENDBRANCH  70  91
ENDBRANCH  44  45
ENDBRANCH  36  39
ENDBRANCH  34  35
ENDBRANCH  33  34
ENDBRANCH  32  33
ENDBRANCH   1  32
TORSDOF 19
ENDMDL
MODEL 2
REMARK VINA RESULT:     -11.6      3.897      8.244
REMARK SMILES Cc1cccc(CC(=O)N2CCC3(CCC(=O)N([C@H](C)C(=O)NCCCCCCNC(=O)c4ccc(-c5c6nc(c(-c7ccc(S(=O)(=O)[O-])cc7)c7ccc([nH]7)c(-c7ccc(S(=O)(=O)[O-])cc7)c7nc(c(-c8ccc(S(=O)(=O)[O-])cc8)c8ccc5[nH]8)C=C7)C=C6)cc4)C3)CC2)c1
REMARK SMILES IDX 26 1 25 2 24 3 23 4 21 5 22 6 19 8 20 9 18 10 8 11 9 12
REMARK SMILES IDX 10 13 11 14 95 15 12 16 94 17 13 18 14 19 93 20 15 21 16 22
REMARK SMILES IDX 17 23 7 24 6 25 1 26 2 27 3 28 96 29 4 30 5 31 27 32 28 33
REMARK SMILES IDX 29 34 30 35 31 36 32 38 33 39 34 40 92 41 35 42 91 43 36 44
REMARK SMILES IDX 37 45 38 46 85 47 39 48 90 49 84 50 86 51 40 52 89 53 83 54
REMARK SMILES IDX 82 55 41 57 71 58 52 59 70 60 53 61 56 62 69 63 87 64 54 65
REMARK SMILES IDX 55 66 68 68 88 69 57 70 42 71 43 72 51 73 44 74 50 75 45 76
REMARK SMILES IDX 46 77 47 78 48 79 49 80 72 81 73 82 81 83 74 84 80 85 75 86
REMARK SMILES IDX 76 87 77 88 78 89 79 90 58 91 59 92 67 93 60 94 66 95 61 96
REMARK SMILES IDX 62 97 63 98 64 99 65 100
REMARK H PARENT 23 7 30 37 86 56 56 67
REMARK Flexibility Score: inf
ROOT
ATOM      1  C   UNL A   1      38.562  23.917  27.067  1.00  0.00     0.002 C 
ENDROOT
BRANCH   1   2
ATOM      2  C   UNL A   1      37.753  24.072  25.773  1.00  0.00     0.021 C 
BRANCH   2   3
ATOM      3  C   UNL A   1      36.413  23.350  25.736  1.00  0.00     0.116 C 
BRANCH   3   4
ATOM      4  N   UNL A   1      36.494  21.912  25.574  1.00  0.00    -0.354 N 
ATOM      5  C   UNL A   1      35.481  20.992  25.584  1.00  0.00     0.242 C 
ATOM      6  O   UNL A   1      35.704  19.883  25.082  1.00  0.00    -0.273 OA
ATOM      7  H   UNL A   1      37.399  21.549  25.436  1.00  0.00     0.163 HD
BRANCH   5   8
ATOM      8  C   UNL A   1      34.096  21.284  26.231  1.00  0.00     0.171 C 
ATOM      9  C   UNL A   1      34.178  22.147  27.492  1.00  0.00     0.042 C 
BRANCH   8  10
ATOM     10  N   UNL A   1      32.965  21.678  25.369  1.00  0.00    -0.330 N 
ATOM     11  C   UNL A   1      32.932  27.568  22.459  1.00  0.00     0.226 C 
ATOM     12  O   UNL A   1      33.930  27.906  21.813  1.00  0.00    -0.275 OA
ATOM     13  N   UNL A   1      32.587  26.231  22.588  1.00  0.00    -0.342 N 
ATOM     14  C   UNL A   1      33.593  25.199  22.338  1.00  0.00     0.120 C 
ATOM     15  C   UNL A   1      31.265  25.700  22.874  1.00  0.00     0.120 C 
ATOM     16  C   UNL A   1      33.679  24.245  23.544  1.00  0.00     0.030 C 
ATOM     17  C   UNL A   1      31.310  24.879  24.149  1.00  0.00     0.030 C 
ATOM     18  C   UNL A   1      32.300  23.694  24.015  1.00  0.00    -0.008 C 
ATOM     19  C   UNL A   1      31.707  22.672  23.007  1.00  0.00     0.019 C 
ATOM     20  C   UNL A   1      32.445  23.034  25.410  1.00  0.00     0.127 C 
ATOM     21  C   UNL A   1      32.377  21.315  23.070  1.00  0.00     0.101 C 
ATOM     22  C   UNL A   1      32.375  20.805  24.484  1.00  0.00     0.223 C 
ATOM     23  O   UNL A   1      31.927  19.710  24.789  1.00  0.00    -0.275 OA
BRANCH  11  24
ATOM     24  C   UNL A   1      32.228  28.630  23.305  1.00  0.00     0.135 C 
BRANCH  24  25
ATOM     25  C   UNL A   1      32.419  28.618  24.799  1.00  0.00    -0.038 A 
ATOM     26  C   UNL A   1      35.245  29.297  27.273  1.00  0.00     0.044 C 
ATOM     27  C   UNL A   1      33.903  28.927  26.713  1.00  0.00    -0.051 A 
ATOM     28  C   UNL A   1      32.913  28.397  27.546  1.00  0.00     0.003 A 
ATOM     29  C   UNL A   1      33.639  29.058  25.346  1.00  0.00     0.007 A 
ATOM     30  C   UNL A   1      31.678  28.007  27.020  1.00  0.00     0.001 A 
ATOM     31  C   UNL A   1      31.428  28.118  25.652  1.00  0.00     0.004 A 
ENDBRANCH  24  25
ENDBRANCH  11  24
ENDBRANCH   8  10
ENDBRANCH   5   8
ENDBRANCH   3   4
ENDBRANCH   2   3
ENDBRANCH   1   2
BRANCH   1  32
ATOM     32  C   UNL A   1      40.092  24.058  26.981  1.00  0.00     0.002 C 
BRANCH  32  33
ATOM     33  C   UNL A   1      40.914  22.785  26.769  1.00  0.00     0.021 C 
BRANCH  33  34
ATOM     34  C   UNL A   1      42.214  22.988  26.001  1.00  0.00     0.116 C 
BRANCH  34  35
ATOM     35  N   UNL A   1      43.398  22.814  26.838  1.00  0.00    -0.352 N 
ATOM     36  C   UNL A   1      44.055  23.773  27.591  1.00  0.00     0.251 C 
ATOM     37  H   UNL A   1      43.774  21.905  26.871  1.00  0.00     0.163 HD
ATOM     38  O   UNL A   1      45.142  23.581  28.103  1.00  0.00    -0.269 OA
BRANCH  36  39
ATOM     39  C   UNL A   1      43.312  25.021  27.848  1.00  0.00     0.039 A 
ATOM     40  C   UNL A   1      43.392  26.017  26.867  1.00  0.00     0.014 A 
ATOM     41  C   UNL A   1      42.862  25.299  29.134  1.00  0.00     0.014 A 
ATOM     42  C   UNL A   1      43.207  27.345  27.232  1.00  0.00     0.010 A 
ATOM     43  C   UNL A   1      42.773  26.622  29.513  1.00  0.00     0.010 A 
ATOM     44  C   UNL A   1      43.002  27.643  28.576  1.00  0.00    -0.014 A 
BRANCH  44  45
ATOM     45  C   UNL A   1      43.077  28.990  29.130  1.00  0.00     0.031 A 
ATOM     46  C   UNL A   1      41.833  29.765  29.327  1.00  0.00     0.074 A 
ATOM     47  C   UNL A   1      44.255  29.459  29.601  1.00  0.00     0.049 A 
ATOM     48  N   UNL A   1      41.782  31.031  29.573  1.00  0.00    -0.248 NA
ATOM     49  C   UNL A   1      40.513  29.156  29.193  1.00  0.00     0.031 C 
ATOM     50  C   UNL A   1      44.444  30.572  30.528  1.00  0.00     0.029 A 
ATOM     51  N   UNL A   1      45.547  29.168  29.159  1.00  0.00    -0.354 N 
ATOM     52  C   UNL A   1      40.492  31.320  29.961  1.00  0.00     0.074 A 
ATOM     53  C   UNL A   1      39.725  30.154  29.596  1.00  0.00     0.031 C 
ATOM     54  C   UNL A   1      45.682  31.062  30.361  1.00  0.00     0.029 A 
ATOM     55  C   UNL A   1      46.253  30.383  29.210  1.00  0.00     0.049 A 
ATOM     56  H   UNL A   1      45.894  28.293  28.870  1.00  0.00     0.167 HD
ATOM     57  C   UNL A   1      40.252  32.443  30.696  1.00  0.00     0.031 A 
ATOM     58  C   UNL A   1      46.780  31.011  28.118  1.00  0.00     0.031 A 
ATOM     59  C   UNL A   1      41.431  33.310  30.750  1.00  0.00     0.049 A 
ATOM     60  C   UNL A   1      46.262  32.424  27.938  1.00  0.00     0.074 A 
ATOM     61  C   UNL A   1      42.386  33.564  31.720  1.00  0.00     0.029 A 
ATOM     62  N   UNL A   1      41.922  33.850  29.566  1.00  0.00    -0.354 N 
ATOM     63  N   UNL A   1      45.195  32.890  28.527  1.00  0.00    -0.248 NA
ATOM     64  C   UNL A   1      46.883  33.411  27.059  1.00  0.00     0.031 C 
ATOM     65  C   UNL A   1      43.500  34.180  31.087  1.00  0.00     0.029 A 
ATOM     66  C   UNL A   1      43.204  34.330  29.742  1.00  0.00     0.049 A 
ATOM     67  H   UNL A   1      41.423  33.885  28.717  1.00  0.00     0.167 HD
ATOM     68  C   UNL A   1      44.984  34.191  28.148  1.00  0.00     0.074 A 
ATOM     69  C   UNL A   1      46.075  34.473  27.232  1.00  0.00     0.031 C 
ATOM     70  C   UNL A   1      43.927  34.918  28.620  1.00  0.00     0.031 A 
BRANCH  57  71
ATOM     71  C   UNL A   1      39.048  32.597  31.608  1.00  0.00    -0.014 A 
ATOM     72  C   UNL A   1      37.868  33.194  31.115  1.00  0.00     0.010 A 
ATOM     73  C   UNL A   1      39.035  32.268  32.977  1.00  0.00     0.010 A 
ATOM     74  C   UNL A   1      36.791  33.532  31.953  1.00  0.00     0.020 A 
ATOM     75  C   UNL A   1      37.982  32.623  33.833  1.00  0.00     0.020 A 
ATOM     76  C   UNL A   1      36.869  33.270  33.318  1.00  0.00     0.054 A 
BRANCH  76  77
ATOM     77  S   UNL A   1      35.517  33.786  34.407  1.00  0.00     0.124 S 
ATOM     78  O   UNL A   1      34.394  32.994  33.910  1.00  0.00    -0.237 OA
ATOM     79  O   UNL A   1      36.017  33.414  35.727  1.00  0.00    -0.237 OA
ATOM     80  O   UNL A   1      35.408  35.224  34.168  1.00  0.00    -0.744 OA
ENDBRANCH  76  77
ENDBRANCH  57  71
BRANCH  58  81
ATOM     81  C   UNL A   1      47.179  30.095  27.015  1.00  0.00    -0.014 A 
ATOM     82  C   UNL A   1      48.351  29.332  27.204  1.00  0.00     0.010 A 
ATOM     83  C   UNL A   1      46.227  29.660  26.074  1.00  0.00     0.010 A 
ATOM     84  C   UNL A   1      48.480  28.071  26.617  1.00  0.00     0.020 A 
ATOM     85  C   UNL A   1      46.361  28.399  25.476  1.00  0.00     0.020 A 
ATOM     86  C   UNL A   1      47.449  27.586  25.812  1.00  0.00     0.054 A 
BRANCH  86  87
ATOM     87  S   UNL A   1      47.450  25.813  25.406  1.00  0.00     0.124 S 
ATOM     88  O   UNL A   1      46.173  25.648  24.720  1.00  0.00    -0.237 OA
ATOM     89  O   UNL A   1      48.639  25.705  24.562  1.00  0.00    -0.237 OA
ATOM     90  O   UNL A   1      47.553  25.170  26.711  1.00  0.00    -0.744 OA
ENDBRANCH  86  87
ENDBRANCH  58  81
BRANCH  70  91
ATOM     91  C   UNL A   1      43.488  36.283  28.136  1.00  0.00    -0.014 A 
ATOM     92  C   UNL A   1      43.020  36.557  26.843  1.00  0.00     0.010 A 
ATOM     93  C   UNL A   1      43.422  37.346  29.073  1.00  0.00     0.010 A 
ATOM     94  C   UNL A   1      42.563  37.836  26.485  1.00  0.00     0.020 A 
ATOM     95  C   UNL A   1      42.926  38.610  28.742  1.00  0.00     0.020 A 
ATOM     96  C   UNL A   1      42.521  38.855  27.437  1.00  0.00     0.054 A 
BRANCH  96  97
ATOM     97  S   UNL A   1      41.860  40.481  26.988  1.00  0.00     0.124 S 
ATOM     98  O   UNL A   1      43.074  41.211  26.633  1.00  0.00    -0.237 OA
ATOM     99  O   UNL A   1      40.966  40.175  25.872  1.00  0.00    -0.237 OA
ATOM    100  O   UNL A   1      41.191  40.926  28.207  1.00  0.00    -0.744 OA
ENDBRANCH  96  97
ENDBRANCH  70  91
ENDBRANCH  44  45
ENDBRANCH  36  39
ENDBRANCH  34  35
ENDBRANCH  33  34
ENDBRANCH  32  33
ENDBRANCH   1  32
TORSDOF 19
ENDMDL
MODEL 3
REMARK VINA RESULT:     -10.9      6.038     10.063
REMARK SMILES Cc1cccc(CC(=O)N2CCC3(CCC(=O)N([C@H](C)C(=O)NCCCCCCNC(=O)c4ccc(-c5c6nc(c(-c7ccc(S(=O)(=O)[O-])cc7)c7ccc([nH]7)c(-c7ccc(S(=O)(=O)[O-])cc7)c7nc(c(-c8ccc(S(=O)(=O)[O-])cc8)c8ccc5[nH]8)C=C7)C=C6)cc4)C3)CC2)c1
REMARK SMILES IDX 26 1 25 2 24 3 23 4 21 5 22 6 19 8 20 9 18 10 8 11 9 12
REMARK SMILES IDX 10 13 11 14 95 15 12 16 94 17 13 18 14 19 93 20 15 21 16 22
REMARK SMILES IDX 17 23 7 24 6 25 1 26 2 27 3 28 96 29 4 30 5 31 27 32 28 33
REMARK SMILES IDX 29 34 30 35 31 36 32 38 33 39 34 40 92 41 35 42 91 43 36 44
REMARK SMILES IDX 37 45 38 46 85 47 39 48 90 49 84 50 86 51 40 52 89 53 83 54
REMARK SMILES IDX 82 55 41 57 71 58 52 59 70 60 53 61 56 62 69 63 87 64 54 65
REMARK SMILES IDX 55 66 68 68 88 69 57 70 42 71 43 72 51 73 44 74 50 75 45 76
REMARK SMILES IDX 46 77 47 78 48 79 49 80 72 81 73 82 81 83 74 84 80 85 75 86
REMARK SMILES IDX 76 87 77 88 78 89 79 90 58 91 59 92 67 93 60 94 66 95 61 96
REMARK SMILES IDX 62 97 63 98 64 99 65 100
REMARK H PARENT 23 7 30 37 86 56 56 67
REMARK Flexibility Score: inf
ROOT
ATOM      1  C   UNL A   1      39.400  23.864  27.349  1.00  0.00     0.002 C 
ENDROOT
BRANCH   1   2
ATOM      2  C   UNL A   1      38.602  23.942  26.041  1.00  0.00     0.021 C 
BRANCH   2   3
ATOM      3  C   UNL A   1      37.109  24.207  26.188  1.00  0.00     0.116 C 
BRANCH   3   4
ATOM      4  N   UNL A   1      36.303  23.038  26.480  1.00  0.00    -0.354 N 
ATOM      5  C   UNL A   1      35.342  22.446  25.706  1.00  0.00     0.242 C 
ATOM      6  O   UNL A   1      35.030  21.278  25.967  1.00  0.00    -0.273 OA
ATOM      7  H   UNL A   1      36.470  22.612  27.352  1.00  0.00     0.163 HD
BRANCH   5   8
ATOM      8  C   UNL A   1      34.621  23.201  24.552  1.00  0.00     0.171 C 
ATOM      9  C   UNL A   1      35.157  22.852  23.162  1.00  0.00     0.042 C 
BRANCH   8  10
ATOM     10  N   UNL A   1      33.149  23.300  24.563  1.00  0.00    -0.330 N 
ATOM     11  C   UNL A   1      30.203  28.875  22.718  1.00  0.00     0.226 C 
ATOM     12  O   UNL A   1      30.525  29.375  21.635  1.00  0.00    -0.275 OA
ATOM     13  N   UNL A   1      30.281  27.504  22.919  1.00  0.00    -0.342 N 
ATOM     14  C   UNL A   1      31.123  26.692  22.041  1.00  0.00     0.120 C 
ATOM     15  C   UNL A   1      29.529  26.726  23.891  1.00  0.00     0.120 C 
ATOM     16  C   UNL A   1      32.099  25.849  22.880  1.00  0.00     0.030 C 
ATOM     17  C   UNL A   1      30.490  26.009  24.821  1.00  0.00     0.030 C 
ATOM     18  C   UNL A   1      31.419  25.050  24.031  1.00  0.00    -0.008 C 
ATOM     19  C   UNL A   1      30.564  23.871  23.495  1.00  0.00     0.019 C 
ATOM     20  C   UNL A   1      32.495  24.517  25.011  1.00  0.00     0.127 C 
ATOM     21  C   UNL A   1      31.395  22.689  23.041  1.00  0.00     0.101 C 
ATOM     22  C   UNL A   1      32.339  22.272  24.134  1.00  0.00     0.223 C 
ATOM     23  O   UNL A   1      32.393  21.128  24.557  1.00  0.00    -0.275 OA
BRANCH  11  24
ATOM     24  C   UNL A   1      29.945  29.813  23.897  1.00  0.00     0.135 C 
BRANCH  24  25
ATOM     25  C   UNL A   1      31.048  30.054  24.893  1.00  0.00    -0.038 A 
ATOM     26  C   UNL A   1      34.117  28.190  26.189  1.00  0.00     0.044 C 
ATOM     27  C   UNL A   1      33.062  29.242  26.010  1.00  0.00    -0.051 A 
ATOM     28  C   UNL A   1      32.996  30.330  26.886  1.00  0.00     0.003 A 
ATOM     29  C   UNL A   1      32.100  29.125  25.002  1.00  0.00     0.007 A 
ATOM     30  C   UNL A   1      31.986  31.287  26.753  1.00  0.00     0.001 A 
ATOM     31  C   UNL A   1      31.016  31.153  25.759  1.00  0.00     0.004 A 
ENDBRANCH  24  25
ENDBRANCH  11  24
ENDBRANCH   8  10
ENDBRANCH   5   8
ENDBRANCH   3   4
ENDBRANCH   2   3
ENDBRANCH   1   2
BRANCH   1  32
ATOM     32  C   UNL A   1      40.259  25.077  27.742  1.00  0.00     0.002 C 
BRANCH  32  33
ATOM     33  C   UNL A   1      41.764  24.859  27.917  1.00  0.00     0.021 C 
BRANCH  33  34
ATOM     34  C   UNL A   1      42.605  26.125  27.829  1.00  0.00     0.116 C 
BRANCH  34  35
ATOM     35  N   UNL A   1      42.819  26.568  26.454  1.00  0.00    -0.352 N 
ATOM     36  C   UNL A   1      42.277  27.674  25.823  1.00  0.00     0.251 C 
ATOM     37  H   UNL A   1      43.423  26.011  25.910  1.00  0.00     0.163 HD
ATOM     38  O   UNL A   1      42.359  27.857  24.623  1.00  0.00    -0.269 OA
BRANCH  36  39
ATOM     39  C   UNL A   1      41.684  28.700  26.702  1.00  0.00     0.039 A 
ATOM     40  C   UNL A   1      42.573  29.488  27.442  1.00  0.00     0.014 A 
ATOM     41  C   UNL A   1      40.332  28.631  27.021  1.00  0.00     0.014 A 
ATOM     42  C   UNL A   1      42.143  30.060  28.634  1.00  0.00     0.010 A 
ATOM     43  C   UNL A   1      39.934  29.118  28.249  1.00  0.00     0.010 A 
ATOM     44  C   UNL A   1      40.854  29.781  29.078  1.00  0.00    -0.014 A 
BRANCH  44  45
ATOM     45  C   UNL A   1      40.378  30.074  30.425  1.00  0.00     0.031 A 
ATOM     46  C   UNL A   1      39.658  31.341  30.682  1.00  0.00     0.074 A 
ATOM     47  C   UNL A   1      40.458  29.128  31.387  1.00  0.00     0.049 A 
ATOM     48  N   UNL A   1      39.406  31.824  31.851  1.00  0.00    -0.248 NA
ATOM     49  C   UNL A   1      39.214  32.211  29.597  1.00  0.00     0.031 C 
ATOM     50  C   UNL A   1      39.696  29.082  32.633  1.00  0.00     0.029 A 
ATOM     51  N   UNL A   1      41.416  28.124  31.544  1.00  0.00    -0.354 N 
ATOM     52  C   UNL A   1      38.498  32.846  31.685  1.00  0.00     0.074 A 
ATOM     53  C   UNL A   1      38.503  33.120  30.268  1.00  0.00     0.031 C 
ATOM     54  C   UNL A   1      40.377  28.346  33.525  1.00  0.00     0.029 A 
ATOM     55  C   UNL A   1      41.666  28.045  32.926  1.00  0.00     0.049 A 
ATOM     56  H   UNL A   1      41.832  27.583  30.834  1.00  0.00     0.167 HD
ATOM     57  C   UNL A   1      37.723  33.230  32.739  1.00  0.00     0.031 A 
ATOM     58  C   UNL A   1      42.875  28.312  33.503  1.00  0.00     0.031 A 
ATOM     59  C   UNL A   1      38.178  32.616  33.988  1.00  0.00     0.049 A 
ATOM     60  C   UNL A   1      42.804  29.404  34.550  1.00  0.00     0.074 A 
ATOM     61  C   UNL A   1      37.712  31.563  34.760  1.00  0.00     0.029 A 
ATOM     62  N   UNL A   1      39.454  32.910  34.456  1.00  0.00    -0.354 N 
ATOM     63  N   UNL A   1      41.809  30.241  34.666  1.00  0.00    -0.248 NA
ATOM     64  C   UNL A   1      43.858  29.663  35.527  1.00  0.00     0.031 C 
ATOM     65  C   UNL A   1      38.760  31.166  35.634  1.00  0.00     0.029 A 
ATOM     66  C   UNL A   1      39.845  31.998  35.416  1.00  0.00     0.049 A 
ATOM     67  H   UNL A   1      40.004  33.665  34.144  1.00  0.00     0.167 HD
ATOM     68  C   UNL A   1      42.051  31.115  35.694  1.00  0.00     0.074 A 
ATOM     69  C   UNL A   1      43.346  30.706  36.208  1.00  0.00     0.031 C 
ATOM     70  C   UNL A   1      41.165  32.100  36.029  1.00  0.00     0.031 A 
BRANCH  57  71
ATOM     71  C   UNL A   1      36.380  33.918  32.576  1.00  0.00    -0.014 A 
ATOM     72  C   UNL A   1      35.599  33.666  31.428  1.00  0.00     0.010 A 
ATOM     73  C   UNL A   1      35.867  34.889  33.458  1.00  0.00     0.010 A 
ATOM     74  C   UNL A   1      34.442  34.406  31.130  1.00  0.00     0.020 A 
ATOM     75  C   UNL A   1      34.731  35.657  33.163  1.00  0.00     0.020 A 
ATOM     76  C   UNL A   1      34.030  35.422  31.989  1.00  0.00     0.054 A 
BRANCH  76  77
ATOM     77  S   UNL A   1      32.590  36.431  31.559  1.00  0.00     0.124 S 
ATOM     78  O   UNL A   1      33.132  37.339  30.551  1.00  0.00    -0.237 OA
ATOM     79  O   UNL A   1      31.644  35.434  31.066  1.00  0.00    -0.237 OA
ATOM     80  O   UNL A   1      32.220  37.065  32.823  1.00  0.00    -0.744 OA
ENDBRANCH  76  77
ENDBRANCH  57  71
BRANCH  58  81
ATOM     81  C   UNL A   1      44.048  28.031  32.631  1.00  0.00    -0.014 A 
ATOM     82  C   UNL A   1      44.861  29.127  32.272  1.00  0.00     0.010 A 
ATOM     83  C   UNL A   1      44.586  26.733  32.563  1.00  0.00     0.010 A 
ATOM     84  C   UNL A   1      46.227  28.952  32.041  1.00  0.00     0.020 A 
ATOM     85  C   UNL A   1      45.956  26.555  32.320  1.00  0.00     0.020 A 
ATOM     86  C   UNL A   1      46.775  27.673  32.136  1.00  0.00     0.054 A 
BRANCH  86  87
ATOM     87  S   UNL A   1      48.586  27.530  32.240  1.00  0.00     0.124 S 
ATOM     88  O   UNL A   1      49.032  28.421  31.174  1.00  0.00    -0.237 OA
ATOM     89  O   UNL A   1      48.840  27.998  33.602  1.00  0.00    -0.237 OA
ATOM     90  O   UNL A   1      48.823  26.109  32.016  1.00  0.00    -0.744 OA
ENDBRANCH  86  87
ENDBRANCH  58  81
BRANCH  70  91
ATOM     91  C   UNL A   1      41.404  33.229  37.009  1.00  0.00    -0.014 A 
ATOM     92  C   UNL A   1      40.410  34.101  37.477  1.00  0.00     0.010 A 
ATOM     93  C   UNL A   1      42.687  33.352  37.601  1.00  0.00     0.010 A 
ATOM     94  C   UNL A   1      40.693  35.082  38.441  1.00  0.00     0.020 A 
ATOM     95  C   UNL A   1      42.968  34.293  38.595  1.00  0.00     0.020 A 
ATOM     96  C   UNL A   1      41.971  35.173  38.992  1.00  0.00     0.054 A 
BRANCH  96  97
ATOM     97  S   UNL A   1      42.308  36.391  40.290  1.00  0.00     0.124 S 
ATOM     98  O   UNL A   1      43.512  37.045  39.784  1.00  0.00    -0.237 OA
ATOM     99  O   UNL A   1      41.101  37.216  40.287  1.00  0.00    -0.237 OA
ATOM    100  O   UNL A   1      42.491  35.574  41.486  1.00  0.00    -0.744 OA
ENDBRANCH  96  97
ENDBRANCH  70  91
ENDBRANCH  44  45
ENDBRANCH  36  39
ENDBRANCH  34  35
ENDBRANCH  33  34
ENDBRANCH  32  33
ENDBRANCH   1  32
TORSDOF 19
ENDMDL
