MODEL 1
REMARK VINA RESULT:     -11.9      0.000      0.000
REMARK SMILES CN1C(=O)C[C@@H](C(=O)NCCCCCCNC(=O)c2ccc(-c3c4nc(c(-c5ccc(S(=O)(=O)[O-])cc5)c5ccc([nH]5)c(-c5ccc(S(=O)(=O)[O-])cc5)c5nc(c(-c6ccc(S(=O)(=O)[O-])cc6)c6ccc3[nH]6)C=C5)C=C4)cc2)C12CCN(c1ccc(Cl)cn1)CC2
REMARK SMILES IDX 13 1 12 2 11 3 10 4 9 5 7 6 8 7 6 9 1 10 2 11 3 12 79 13
REMARK SMILES IDX 4 14 5 15 80 16 91 17 81 18 90 19 82 20 83 21 84 22 89 23
REMARK SMILES IDX 85 24 88 25 86 26 87 27 14 28 15 29 16 30 17 31 18 33 19 34
REMARK SMILES IDX 20 35 78 36 21 37 77 38 22 39 23 40 24 41 71 42 25 43 76 44
REMARK SMILES IDX 70 45 72 46 26 47 75 48 69 49 68 50 27 52 57 53 38 54 56 55
REMARK SMILES IDX 39 56 42 57 55 58 73 59 40 60 41 61 54 63 74 64 43 65 28 66
REMARK SMILES IDX 29 67 37 68 30 69 36 70 31 71 32 72 33 73 34 74 35 75 58 76
REMARK SMILES IDX 59 77 67 78 60 79 66 80 61 81 62 82 63 83 64 84 65 85 44 86
REMARK SMILES IDX 45 87 53 88 46 89 52 90 47 91 48 92 49 93 50 94 51 95
REMARK H PARENT 9 8 16 32 72 51 42 62
REMARK Flexibility Score: inf
ROOT
ATOM      1  C   UNL A   1      40.384  21.840  26.442  1.00  0.00     0.002 C 
ENDROOT
BRANCH   1   2
ATOM      2  C   UNL A   1      38.923  22.099  26.068  1.00  0.00     0.002 C 
BRANCH   2   3
ATOM      3  C   UNL A   1      38.355  23.402  26.626  1.00  0.00     0.021 C 
BRANCH   3   4
ATOM      4  C   UNL A   1      37.257  24.023  25.762  1.00  0.00     0.116 C 
BRANCH   4   5
ATOM      5  N   UNL A   1      37.230  23.494  24.412  1.00  0.00    -0.356 N 
ATOM      6  C   UNL A   1      36.226  23.134  23.577  1.00  0.00     0.226 C 
ATOM      7  O   UNL A   1      36.571  22.750  22.452  1.00  0.00    -0.275 OA
ATOM      8  H   UNL A   1      38.127  23.371  24.023  1.00  0.00     0.163 HD
BRANCH   6   9
ATOM      9  C   UNL A   1      34.734  23.137  23.925  1.00  0.00     0.113 C 
ATOM     10  C   UNL A   1      34.004  23.295  27.591  1.00  0.00     0.147 C 
ATOM     11  N   UNL A   1      34.127  23.447  26.154  1.00  0.00    -0.339 N 
ATOM     12  C   UNL A   1      33.910  24.683  25.553  1.00  0.00     0.223 C 
ATOM     13  C   UNL A   1      34.270  22.354  25.179  1.00  0.00     0.058 C 
ATOM     14  O   UNL A   1      33.616  25.721  26.117  1.00  0.00    -0.275 OA
ATOM     15  C   UNL A   1      34.153  24.543  24.075  1.00  0.00     0.116 C 
ATOM     16  C   UNL A   1      35.248  21.246  25.623  1.00  0.00     0.051 C 
ATOM     17  C   UNL A   1      32.864  21.716  24.934  1.00  0.00     0.051 C 
ATOM     18  C   UNL A   1      35.267  20.068  24.663  1.00  0.00     0.120 C 
ATOM     19  C   UNL A   1      32.903  20.459  24.047  1.00  0.00     0.120 C 
ATOM     20  N   UNL A   1      33.913  19.572  24.584  1.00  0.00    -0.356 N 
BRANCH  20  21
ATOM     21  C   UNL A   1      33.641  18.255  24.850  1.00  0.00     0.128 A 
ATOM     22  C   UNL A   1      34.612  17.280  24.598  1.00  0.00     0.048 A 
ATOM     23  N   UNL A   1      32.437  17.925  25.358  1.00  0.00    -0.238 NA
ATOM     24  C   UNL A   1      34.343  15.937  24.850  1.00  0.00     0.026 A 
ATOM     25  C   UNL A   1      32.180  16.609  25.561  1.00  0.00     0.134 A 
ATOM     26  C   UNL A   1      33.092  15.592  25.328  1.00  0.00     0.059 A 
ATOM     27  Cl  UNL A   1      32.691  13.951  25.623  1.00  0.00    -0.083 Cl
ENDBRANCH  20  21
ENDBRANCH   6   9
ENDBRANCH   4   5
ENDBRANCH   3   4
ENDBRANCH   2   3
ENDBRANCH   1   2
BRANCH   1  28
ATOM     28  C   UNL A   1      40.816  22.443  27.783  1.00  0.00     0.021 C 
BRANCH  28  29
ATOM     29  C   UNL A   1      42.001  23.400  27.692  1.00  0.00     0.116 C 
BRANCH  29  30
ATOM     30  N   UNL A   1      41.987  24.145  26.444  1.00  0.00    -0.352 N 
ATOM     31  C   UNL A   1      41.549  25.421  26.208  1.00  0.00     0.251 C 
ATOM     32  H   UNL A   1      42.343  23.666  25.660  1.00  0.00     0.163 HD
ATOM     33  O   UNL A   1      41.365  25.806  25.058  1.00  0.00    -0.269 OA
BRANCH  31  34
ATOM     34  C   UNL A   1      41.294  26.323  27.349  1.00  0.00     0.039 A 
ATOM     35  C   UNL A   1      40.216  26.057  28.196  1.00  0.00     0.014 A 
ATOM     36  C   UNL A   1      42.112  27.434  27.576  1.00  0.00     0.014 A 
ATOM     37  C   UNL A   1      39.988  26.881  29.299  1.00  0.00     0.010 A 
ATOM     38  C   UNL A   1      41.928  28.211  28.715  1.00  0.00     0.010 A 
ATOM     39  C   UNL A   1      40.857  27.948  29.583  1.00  0.00    -0.014 A 
BRANCH  39  40
ATOM     40  C   UNL A   1      40.659  28.799  30.784  1.00  0.00     0.031 A 
ATOM     41  C   UNL A   1      39.559  29.828  30.809  1.00  0.00     0.074 A 
ATOM     42  C   UNL A   1      41.504  28.682  31.829  1.00  0.00     0.049 A 
ATOM     43  N   UNL A   1      39.260  30.688  31.747  1.00  0.00    -0.248 NA
ATOM     44  C   UNL A   1      38.697  29.920  29.618  1.00  0.00     0.031 C 
ATOM     45  C   UNL A   1      42.633  27.751  31.906  1.00  0.00     0.029 A 
ATOM     46  N   UNL A   1      41.550  29.354  33.025  1.00  0.00    -0.354 N 
ATOM     47  C   UNL A   1      38.198  31.437  31.252  1.00  0.00     0.074 A 
ATOM     48  C   UNL A   1      37.925  30.956  29.918  1.00  0.00     0.031 C 
ATOM     49  C   UNL A   1      43.243  27.894  33.094  1.00  0.00     0.029 A 
ATOM     50  C   UNL A   1      42.581  28.955  33.845  1.00  0.00     0.049 A 
ATOM     51  H   UNL A   1      40.906  30.056  33.273  1.00  0.00     0.167 HD
ATOM     52  C   UNL A   1      37.505  32.427  31.862  1.00  0.00     0.031 A 
ATOM     53  C   UNL A   1      42.959  29.403  35.059  1.00  0.00     0.031 A 
ATOM     54  C   UNL A   1      37.762  32.881  33.203  1.00  0.00     0.049 A 
ATOM     55  C   UNL A   1      42.168  30.509  35.707  1.00  0.00     0.074 A 
ATOM     56  C   UNL A   1      37.059  33.820  33.938  1.00  0.00     0.029 A 
ATOM     57  N   UNL A   1      38.803  32.442  34.005  1.00  0.00    -0.354 N 
ATOM     58  N   UNL A   1      41.105  31.134  35.261  1.00  0.00    -0.248 NA
ATOM     59  C   UNL A   1      42.620  30.960  37.031  1.00  0.00     0.031 C 
ATOM     60  C   UNL A   1      37.715  33.999  35.159  1.00  0.00     0.029 A 
ATOM     61  C   UNL A   1      38.783  33.118  35.213  1.00  0.00     0.049 A 
ATOM     62  H   UNL A   1      39.458  31.752  33.753  1.00  0.00     0.167 HD
ATOM     63  C   UNL A   1      40.743  32.026  36.264  1.00  0.00     0.074 A 
ATOM     64  C   UNL A   1      41.687  31.846  37.347  1.00  0.00     0.031 C 
ATOM     65  C   UNL A   1      39.721  32.917  36.287  1.00  0.00     0.031 A 
BRANCH  52  66
ATOM     66  C   UNL A   1      36.401  33.105  31.094  1.00  0.00    -0.014 A 
ATOM     67  C   UNL A   1      35.065  33.045  31.525  1.00  0.00     0.010 A 
ATOM     68  C   UNL A   1      36.726  33.904  29.980  1.00  0.00     0.010 A 
ATOM     69  C   UNL A   1      34.072  33.761  30.850  1.00  0.00     0.020 A 
ATOM     70  C   UNL A   1      35.741  34.642  29.320  1.00  0.00     0.020 A 
ATOM     71  C   UNL A   1      34.418  34.562  29.757  1.00  0.00     0.054 A 
BRANCH  71  72
ATOM     72  S   UNL A   1      33.120  35.539  28.949  1.00  0.00     0.124 S 
ATOM     73  O   UNL A   1      32.388  36.072  30.095  1.00  0.00    -0.237 OA
ATOM     74  O   UNL A   1      33.889  36.518  28.185  1.00  0.00    -0.237 OA
ATOM     75  O   UNL A   1      32.393  34.558  28.147  1.00  0.00    -0.744 OA
ENDBRANCH  71  72
ENDBRANCH  52  66
BRANCH  53  76
ATOM     76  C   UNL A   1      44.149  28.822  35.744  1.00  0.00    -0.014 A 
ATOM     77  C   UNL A   1      45.444  29.289  35.454  1.00  0.00     0.010 A 
ATOM     78  C   UNL A   1      43.995  27.764  36.659  1.00  0.00     0.010 A 
ATOM     79  C   UNL A   1      46.563  28.674  36.024  1.00  0.00     0.020 A 
ATOM     80  C   UNL A   1      45.110  27.173  37.259  1.00  0.00     0.020 A 
ATOM     81  C   UNL A   1      46.388  27.614  36.919  1.00  0.00     0.054 A 
BRANCH  81  82
ATOM     82  S   UNL A   1      47.853  26.827  37.641  1.00  0.00     0.124 S 
ATOM     83  O   UNL A   1      48.872  27.102  36.632  1.00  0.00    -0.237 OA
ATOM     84  O   UNL A   1      48.006  27.541  38.907  1.00  0.00    -0.237 OA
ATOM     85  O   UNL A   1      47.460  25.425  37.768  1.00  0.00    -0.744 OA
ENDBRANCH  81  82
ENDBRANCH  53  76
BRANCH  65  86
ATOM     86  C   UNL A   1      39.532  33.730  37.541  1.00  0.00    -0.014 A 
ATOM     87  C   UNL A   1      38.861  33.208  38.661  1.00  0.00     0.010 A 
ATOM     88  C   UNL A   1      40.089  35.021  37.617  1.00  0.00     0.010 A 
ATOM     89  C   UNL A   1      38.719  33.975  39.820  1.00  0.00     0.020 A 
ATOM     90  C   UNL A   1      39.980  35.778  38.785  1.00  0.00     0.020 A 
ATOM     91  C   UNL A   1      39.280  35.255  39.875  1.00  0.00     0.054 A 
BRANCH  91  92
ATOM     92  S   UNL A   1      39.120  36.213  41.406  1.00  0.00     0.124 S 
ATOM     93  O   UNL A   1      38.989  37.576  40.900  1.00  0.00    -0.237 OA
ATOM     94  O   UNL A   1      37.917  35.648  42.012  1.00  0.00    -0.237 OA
ATOM     95  O   UNL A   1      40.363  35.932  42.122  1.00  0.00    -0.744 OA
ENDBRANCH  91  92
ENDBRANCH  65  86
ENDBRANCH  39  40
ENDBRANCH  31  34
ENDBRANCH  29  30
ENDBRANCH  28  29
ENDBRANCH   1  28
TORSDOF 17
ENDMDL
MODEL 2
REMARK VINA RESULT:     -11.8      6.193     11.585
REMARK SMILES CN1C(=O)C[C@@H](C(=O)NCCCCCCNC(=O)c2ccc(-c3c4nc(c(-c5ccc(S(=O)(=O)[O-])cc5)c5ccc([nH]5)c(-c5ccc(S(=O)(=O)[O-])cc5)c5nc(c(-c6ccc(S(=O)(=O)[O-])cc6)c6ccc3[nH]6)C=C5)C=C4)cc2)C12CCN(c1ccc(Cl)cn1)CC2
REMARK SMILES IDX 13 1 12 2 11 3 10 4 9 5 7 6 8 7 6 9 1 10 2 11 3 12 79 13
REMARK SMILES IDX 4 14 5 15 80 16 91 17 81 18 90 19 82 20 83 21 84 22 89 23
REMARK SMILES IDX 85 24 88 25 86 26 87 27 14 28 15 29 16 30 17 31 18 33 19 34
REMARK SMILES IDX 20 35 78 36 21 37 77 38 22 39 23 40 24 41 71 42 25 43 76 44
REMARK SMILES IDX 70 45 72 46 26 47 75 48 69 49 68 50 27 52 57 53 38 54 56 55
REMARK SMILES IDX 39 56 42 57 55 58 73 59 40 60 41 61 54 63 74 64 43 65 28 66
REMARK SMILES IDX 29 67 37 68 30 69 36 70 31 71 32 72 33 73 34 74 35 75 58 76
REMARK SMILES IDX 59 77 67 78 60 79 66 80 61 81 62 82 63 83 64 84 65 85 44 86
REMARK SMILES IDX 45 87 53 88 46 89 52 90 47 91 48 92 49 93 50 94 51 95
REMARK H PARENT 9 8 16 32 72 51 42 62
REMARK Flexibility Score: inf
ROOT
ATOM      1  C   UNL A   1      34.423  32.914  28.332  1.00  0.00     0.002 C 
ENDROOT
BRANCH   1   2
ATOM      2  C   UNL A   1      33.920  31.528  27.925  1.00  0.00     0.002 C 
BRANCH   2   3
ATOM      3  C   UNL A   1      35.007  30.599  27.387  1.00  0.00     0.021 C 
BRANCH   3   4
ATOM      4  C   UNL A   1      34.662  29.113  27.488  1.00  0.00     0.116 C 
BRANCH   4   5
ATOM      5  N   UNL A   1      33.248  28.873  27.704  1.00  0.00    -0.356 N 
ATOM      6  C   UNL A   1      32.243  28.459  26.895  1.00  0.00     0.226 C 
ATOM      7  O   UNL A   1      31.138  28.320  27.435  1.00  0.00    -0.275 OA
ATOM      8  H   UNL A   1      32.959  29.045  28.630  1.00  0.00     0.163 HD
BRANCH   6   9
ATOM      9  C   UNL A   1      32.364  28.188  25.392  1.00  0.00     0.113 C 
ATOM     10  C   UNL A   1      29.666  26.002  23.997  1.00  0.00     0.147 C 
ATOM     11  N   UNL A   1      30.638  27.020  24.346  1.00  0.00    -0.339 N 
ATOM     12  C   UNL A   1      30.420  28.353  24.008  1.00  0.00     0.223 C 
ATOM     13  C   UNL A   1      31.993  26.778  24.868  1.00  0.00     0.058 C 
ATOM     14  O   UNL A   1      29.451  28.801  23.425  1.00  0.00    -0.275 OA
ATOM     15  C   UNL A   1      31.565  29.172  24.536  1.00  0.00     0.116 C 
ATOM     16  C   UNL A   1      32.058  25.672  25.943  1.00  0.00     0.051 C 
ATOM     17  C   UNL A   1      32.924  26.377  23.678  1.00  0.00     0.051 C 
ATOM     18  C   UNL A   1      33.484  25.350  26.360  1.00  0.00     0.120 C 
ATOM     19  C   UNL A   1      34.335  25.948  24.115  1.00  0.00     0.120 C 
ATOM     20  N   UNL A   1      34.190  24.959  25.162  1.00  0.00    -0.356 N 
BRANCH  20  21
ATOM     21  C   UNL A   1      34.840  23.753  25.104  1.00  0.00     0.128 A 
ATOM     22  C   UNL A   1      35.618  23.436  23.986  1.00  0.00     0.048 A 
ATOM     23  N   UNL A   1      34.717  22.893  26.135  1.00  0.00    -0.238 NA
ATOM     24  C   UNL A   1      36.269  22.208  23.907  1.00  0.00     0.026 A 
ATOM     25  C   UNL A   1      35.327  21.687  26.024  1.00  0.00     0.134 A 
ATOM     26  C   UNL A   1      36.108  21.306  24.944  1.00  0.00     0.059 A 
ATOM     27  Cl  UNL A   1      36.856  19.764  24.887  1.00  0.00    -0.083 Cl
ENDBRANCH  20  21
ENDBRANCH   6   9
ENDBRANCH   4   5
ENDBRANCH   3   4
ENDBRANCH   2   3
ENDBRANCH   1   2
BRANCH   1  28
ATOM     28  C   UNL A   1      35.891  33.187  27.986  1.00  0.00     0.021 C 
BRANCH  28  29
ATOM     29  C   UNL A   1      36.799  33.375  29.197  1.00  0.00     0.116 C 
BRANCH  29  30
ATOM     30  N   UNL A   1      36.291  32.665  30.358  1.00  0.00    -0.352 N 
ATOM     31  C   UNL A   1      36.707  31.472  30.889  1.00  0.00     0.251 C 
ATOM     32  H   UNL A   1      35.544  33.102  30.830  1.00  0.00     0.163 HD
ATOM     33  O   UNL A   1      36.008  30.886  31.710  1.00  0.00    -0.269 OA
BRANCH  31  34
ATOM     34  C   UNL A   1      37.998  30.898  30.460  1.00  0.00     0.039 A 
ATOM     35  C   UNL A   1      38.171  30.547  29.120  1.00  0.00     0.014 A 
ATOM     36  C   UNL A   1      39.031  30.700  31.382  1.00  0.00     0.014 A 
ATOM     37  C   UNL A   1      39.400  30.038  28.695  1.00  0.00     0.010 A 
ATOM     38  C   UNL A   1      40.277  30.262  30.943  1.00  0.00     0.010 A 
ATOM     39  C   UNL A   1      40.471  29.917  29.597  1.00  0.00    -0.014 A 
BRANCH  39  40
ATOM     40  C   UNL A   1      41.800  29.431  29.148  1.00  0.00     0.031 A 
ATOM     41  C   UNL A   1      42.965  30.382  29.062  1.00  0.00     0.074 A 
ATOM     42  C   UNL A   1      41.943  28.145  28.763  1.00  0.00     0.049 A 
ATOM     43  N   UNL A   1      44.185  30.152  28.654  1.00  0.00    -0.248 NA
ATOM     44  C   UNL A   1      42.724  31.778  29.467  1.00  0.00     0.031 C 
ATOM     45  C   UNL A   1      40.878  27.138  28.761  1.00  0.00     0.029 A 
ATOM     46  N   UNL A   1      43.039  27.466  28.295  1.00  0.00    -0.354 N 
ATOM     47  C   UNL A   1      44.847  31.373  28.727  1.00  0.00     0.074 A 
ATOM     48  C   UNL A   1      43.887  32.349  29.185  1.00  0.00     0.031 C 
ATOM     49  C   UNL A   1      41.380  25.966  28.337  1.00  0.00     0.029 A 
ATOM     50  C   UNL A   1      42.786  26.146  27.994  1.00  0.00     0.049 A 
ATOM     51  H   UNL A   1      43.924  27.883  28.183  1.00  0.00     0.167 HD
ATOM     52  C   UNL A   1      46.143  31.649  28.449  1.00  0.00     0.031 A 
ATOM     53  C   UNL A   1      43.592  25.193  27.486  1.00  0.00     0.031 A 
ATOM     54  C   UNL A   1      47.102  30.666  28.021  1.00  0.00     0.049 A 
ATOM     55  C   UNL A   1      45.028  25.536  27.185  1.00  0.00     0.074 A 
ATOM     56  C   UNL A   1      48.458  30.833  27.798  1.00  0.00     0.029 A 
ATOM     57  N   UNL A   1      46.811  29.340  27.744  1.00  0.00    -0.354 N 
ATOM     58  N   UNL A   1      45.658  26.674  27.356  1.00  0.00    -0.248 NA
ATOM     59  C   UNL A   1      45.865  24.462  26.633  1.00  0.00     0.031 C 
ATOM     60  C   UNL A   1      48.974  29.626  27.319  1.00  0.00     0.029 A 
ATOM     61  C   UNL A   1      47.954  28.688  27.316  1.00  0.00     0.049 A 
ATOM     62  H   UNL A   1      45.924  28.924  27.839  1.00  0.00     0.167 HD
ATOM     63  C   UNL A   1      46.972  26.440  26.967  1.00  0.00     0.074 A 
ATOM     64  C   UNL A   1      47.052  25.050  26.571  1.00  0.00     0.031 C 
ATOM     65  C   UNL A   1      48.021  27.299  26.938  1.00  0.00     0.031 A 
BRANCH  52  66
ATOM     66  C   UNL A   1      46.615  33.073  28.585  1.00  0.00    -0.014 A 
ATOM     67  C   UNL A   1      47.230  33.531  29.763  1.00  0.00     0.010 A 
ATOM     68  C   UNL A   1      46.535  33.935  27.475  1.00  0.00     0.010 A 
ATOM     69  C   UNL A   1      47.746  34.828  29.832  1.00  0.00     0.020 A 
ATOM     70  C   UNL A   1      47.074  35.223  27.531  1.00  0.00     0.020 A 
ATOM     71  C   UNL A   1      47.672  35.664  28.713  1.00  0.00     0.054 A 
BRANCH  71  72
ATOM     72  S   UNL A   1      48.419  37.314  28.808  1.00  0.00     0.124 S 
ATOM     73  O   UNL A   1      47.244  38.180  28.745  1.00  0.00    -0.237 OA
ATOM     74  O   UNL A   1      49.104  37.279  30.098  1.00  0.00    -0.237 OA
ATOM     75  O   UNL A   1      49.295  37.368  27.640  1.00  0.00    -0.744 OA
ENDBRANCH  71  72
ENDBRANCH  52  66
BRANCH  53  76
ATOM     76  C   UNL A   1      43.069  23.824  27.214  1.00  0.00    -0.014 A 
ATOM     77  C   UNL A   1      42.930  22.888  28.255  1.00  0.00     0.010 A 
ATOM     78  C   UNL A   1      42.750  23.435  25.900  1.00  0.00     0.010 A 
ATOM     79  C   UNL A   1      42.534  21.576  27.979  1.00  0.00     0.020 A 
ATOM     80  C   UNL A   1      42.318  22.134  25.627  1.00  0.00     0.020 A 
ATOM     81  C   UNL A   1      42.237  21.205  26.664  1.00  0.00     0.054 A 
BRANCH  81  82
ATOM     82  S   UNL A   1      41.732  19.496  26.328  1.00  0.00     0.124 S 
ATOM     83  O   UNL A   1      42.183  18.806  27.533  1.00  0.00    -0.237 OA
ATOM     84  O   UNL A   1      40.285  19.618  26.172  1.00  0.00    -0.237 OA
ATOM     85  O   UNL A   1      42.458  19.160  25.105  1.00  0.00    -0.744 OA
ENDBRANCH  81  82
ENDBRANCH  53  76
BRANCH  65  86
ATOM     86  C   UNL A   1      49.359  26.753  26.515  1.00  0.00    -0.014 A 
ATOM     87  C   UNL A   1      49.741  26.713  25.162  1.00  0.00     0.010 A 
ATOM     88  C   UNL A   1      50.271  26.323  27.497  1.00  0.00     0.010 A 
ATOM     89  C   UNL A   1      50.998  26.222  24.798  1.00  0.00     0.020 A 
ATOM     90  C   UNL A   1      51.540  25.864  27.140  1.00  0.00     0.020 A 
ATOM     91  C   UNL A   1      51.890  25.801  25.790  1.00  0.00     0.054 A 
BRANCH  91  92
ATOM     92  S   UNL A   1      53.530  25.209  25.294  1.00  0.00     0.124 S 
ATOM     93  O   UNL A   1      54.368  25.680  26.393  1.00  0.00    -0.237 OA
ATOM     94  O   UNL A   1      53.340  23.762  25.223  1.00  0.00    -0.237 OA
ATOM     95  O   UNL A   1      53.762  25.865  24.010  1.00  0.00    -0.744 OA
ENDBRANCH  91  92
ENDBRANCH  65  86
ENDBRANCH  39  40
ENDBRANCH  31  34
ENDBRANCH  29  30
ENDBRANCH  28  29
ENDBRANCH   1  28
TORSDOF 17
ENDMDL
MODEL 3
REMARK VINA RESULT:     -11.8      2.394      8.816
REMARK SMILES CN1C(=O)C[C@@H](C(=O)NCCCCCCNC(=O)c2ccc(-c3c4nc(c(-c5ccc(S(=O)(=O)[O-])cc5)c5ccc([nH]5)c(-c5ccc(S(=O)(=O)[O-])cc5)c5nc(c(-c6ccc(S(=O)(=O)[O-])cc6)c6ccc3[nH]6)C=C5)C=C4)cc2)C12CCN(c1ccc(Cl)cn1)CC2
REMARK SMILES IDX 13 1 12 2 11 3 10 4 9 5 7 6 8 7 6 9 1 10 2 11 3 12 79 13
REMARK SMILES IDX 4 14 5 15 80 16 91 17 81 18 90 19 82 20 83 21 84 22 89 23
REMARK SMILES IDX 85 24 88 25 86 26 87 27 14 28 15 29 16 30 17 31 18 33 19 34
REMARK SMILES IDX 20 35 78 36 21 37 77 38 22 39 23 40 24 41 71 42 25 43 76 44
REMARK SMILES IDX 70 45 72 46 26 47 75 48 69 49 68 50 27 52 57 53 38 54 56 55
REMARK SMILES IDX 39 56 42 57 55 58 73 59 40 60 41 61 54 63 74 64 43 65 28 66
REMARK SMILES IDX 29 67 37 68 30 69 36 70 31 71 32 72 33 73 34 74 35 75 58 76
REMARK SMILES IDX 59 77 67 78 60 79 66 80 61 81 62 82 63 83 64 84 65 85 44 86
REMARK SMILES IDX 45 87 53 88 46 89 52 90 47 91 48 92 49 93 50 94 51 95
REMARK H PARENT 9 8 16 32 72 51 42 62
REMARK Flexibility Score: inf
ROOT
ATOM      1  C   UNL A   1      40.545  21.522  26.492  1.00  0.00     0.002 C 
ENDROOT
BRANCH   1   2
ATOM      2  C   UNL A   1      39.154  22.040  26.123  1.00  0.00     0.002 C 
BRANCH   2   3
ATOM      3  C   UNL A   1      38.835  23.428  26.675  1.00  0.00     0.021 C 
BRANCH   3   4
ATOM      4  C   UNL A   1      37.639  24.105  26.006  1.00  0.00     0.116 C 
BRANCH   4   5
ATOM      5  N   UNL A   1      37.350  23.572  24.688  1.00  0.00    -0.356 N 
ATOM      6  C   UNL A   1      36.260  22.976  24.148  1.00  0.00     0.226 C 
ATOM      7  O   UNL A   1      36.347  22.675  22.950  1.00  0.00    -0.275 OA
ATOM      8  H   UNL A   1      38.100  23.662  24.057  1.00  0.00     0.163 HD
BRANCH   6   9
ATOM      9  C   UNL A   1      34.971  22.627  24.899  1.00  0.00     0.113 C 
ATOM     10  C   UNL A   1      32.265  21.203  22.743  1.00  0.00     0.147 C 
ATOM     11  N   UNL A   1      33.278  21.535  23.726  1.00  0.00    -0.339 N 
ATOM     12  C   UNL A   1      33.892  20.535  24.475  1.00  0.00     0.223 C 
ATOM     13  C   UNL A   1      33.616  22.889  24.195  1.00  0.00     0.058 C 
ATOM     14  O   UNL A   1      33.676  19.340  24.401  1.00  0.00    -0.275 OA
ATOM     15  C   UNL A   1      34.921  21.173  25.368  1.00  0.00     0.116 C 
ATOM     16  C   UNL A   1      33.690  23.939  23.065  1.00  0.00     0.051 C 
ATOM     17  C   UNL A   1      32.540  23.343  25.233  1.00  0.00     0.051 C 
ATOM     18  C   UNL A   1      33.901  25.348  23.594  1.00  0.00     0.120 C 
ATOM     19  C   UNL A   1      32.696  24.805  25.685  1.00  0.00     0.120 C 
ATOM     20  N   UNL A   1      32.808  25.624  24.497  1.00  0.00    -0.356 N 
BRANCH  20  21
ATOM     21  C   UNL A   1      32.018  26.729  24.310  1.00  0.00     0.128 A 
ATOM     22  C   UNL A   1      31.115  26.765  23.242  1.00  0.00     0.048 A 
ATOM     23  N   UNL A   1      32.124  27.762  25.169  1.00  0.00    -0.238 NA
ATOM     24  C   UNL A   1      30.319  27.888  23.032  1.00  0.00     0.026 A 
ATOM     25  C   UNL A   1      31.368  28.862  24.926  1.00  0.00     0.134 A 
ATOM     26  C   UNL A   1      30.460  28.967  23.885  1.00  0.00     0.059 A 
ATOM     27  Cl  UNL A   1      29.532  30.391  23.655  1.00  0.00    -0.083 Cl
ENDBRANCH  20  21
ENDBRANCH   6   9
ENDBRANCH   4   5
ENDBRANCH   3   4
ENDBRANCH   2   3
ENDBRANCH   1   2
BRANCH   1  28
ATOM     28  C   UNL A   1      40.995  21.860  27.917  1.00  0.00     0.021 C 
BRANCH  28  29
ATOM     29  C   UNL A   1      42.293  22.658  27.996  1.00  0.00     0.116 C 
BRANCH  29  30
ATOM     30  N   UNL A   1      42.599  23.302  26.730  1.00  0.00    -0.352 N 
ATOM     31  C   UNL A   1      42.408  24.607  26.360  1.00  0.00     0.251 C 
ATOM     32  H   UNL A   1      42.999  22.721  26.043  1.00  0.00     0.163 HD
ATOM     33  O   UNL A   1      42.476  24.929  25.178  1.00  0.00    -0.269 OA
BRANCH  31  34
ATOM     34  C   UNL A   1      42.113  25.619  27.395  1.00  0.00     0.039 A 
ATOM     35  C   UNL A   1      40.927  25.517  28.123  1.00  0.00     0.014 A 
ATOM     36  C   UNL A   1      43.003  26.670  27.637  1.00  0.00     0.014 A 
ATOM     37  C   UNL A   1      40.656  26.446  29.129  1.00  0.00     0.010 A 
ATOM     38  C   UNL A   1      42.767  27.551  28.688  1.00  0.00     0.010 A 
ATOM     39  C   UNL A   1      41.585  27.454  29.438  1.00  0.00    -0.014 A 
BRANCH  39  40
ATOM     40  C   UNL A   1      41.335  28.415  30.543  1.00  0.00     0.031 A 
ATOM     41  C   UNL A   1      42.156  28.347  31.804  1.00  0.00     0.074 A 
ATOM     42  C   UNL A   1      40.333  29.310  30.432  1.00  0.00     0.049 A 
ATOM     43  N   UNL A   1      42.057  29.070  32.889  1.00  0.00    -0.248 NA
ATOM     44  C   UNL A   1      43.211  27.321  31.866  1.00  0.00     0.031 C 
ATOM     45  C   UNL A   1      39.441  29.445  29.276  1.00  0.00     0.029 A 
ATOM     46  N   UNL A   1      39.890  30.273  31.303  1.00  0.00    -0.354 N 
ATOM     47  C   UNL A   1      43.013  28.572  33.767  1.00  0.00     0.074 A 
ATOM     48  C   UNL A   1      43.660  27.463  33.106  1.00  0.00     0.031 C 
ATOM     49  C   UNL A   1      38.576  30.448  29.501  1.00  0.00     0.029 A 
ATOM     50  C   UNL A   1      38.819  30.998  30.830  1.00  0.00     0.049 A 
ATOM     51  H   UNL A   1      40.299  30.432  32.184  1.00  0.00     0.167 HD
ATOM     52  C   UNL A   1      43.330  29.010  35.009  1.00  0.00     0.031 A 
ATOM     53  C   UNL A   1      38.104  31.984  31.408  1.00  0.00     0.031 A 
ATOM     54  C   UNL A   1      42.702  30.135  35.650  1.00  0.00     0.049 A 
ATOM     55  C   UNL A   1      38.482  32.444  32.791  1.00  0.00     0.074 A 
ATOM     56  C   UNL A   1      43.013  30.707  36.871  1.00  0.00     0.029 A 
ATOM     57  N   UNL A   1      41.634  30.850  35.133  1.00  0.00    -0.354 N 
ATOM     58  N   UNL A   1      39.455  32.024  33.564  1.00  0.00    -0.248 NA
ATOM     59  C   UNL A   1      37.672  33.522  33.376  1.00  0.00     0.031 C 
ATOM     60  C   UNL A   1      42.090  31.725  37.124  1.00  0.00     0.029 A 
ATOM     61  C   UNL A   1      41.251  31.834  36.027  1.00  0.00     0.049 A 
ATOM     62  H   UNL A   1      41.212  30.684  34.259  1.00  0.00     0.167 HD
ATOM     63  C   UNL A   1      39.394  32.811  34.709  1.00  0.00     0.074 A 
ATOM     64  C   UNL A   1      38.304  33.744  34.520  1.00  0.00     0.031 C 
ATOM     65  C   UNL A   1      40.172  32.765  35.819  1.00  0.00     0.031 A 
BRANCH  52  66
ATOM     66  C   UNL A   1      44.399  28.276  35.774  1.00  0.00    -0.014 A 
ATOM     67  C   UNL A   1      44.100  27.131  36.534  1.00  0.00     0.010 A 
ATOM     68  C   UNL A   1      45.742  28.678  35.643  1.00  0.00     0.010 A 
ATOM     69  C   UNL A   1      45.122  26.411  37.158  1.00  0.00     0.020 A 
ATOM     70  C   UNL A   1      46.769  27.946  36.242  1.00  0.00     0.020 A 
ATOM     71  C   UNL A   1      46.451  26.818  37.001  1.00  0.00     0.054 A 
BRANCH  71  72
ATOM     72  S   UNL A   1      47.762  25.819  37.759  1.00  0.00     0.124 S 
ATOM     73  O   UNL A   1      47.292  25.701  39.137  1.00  0.00    -0.237 OA
ATOM     74  O   UNL A   1      47.718  24.588  36.973  1.00  0.00    -0.237 OA
ATOM     75  O   UNL A   1      48.965  26.628  37.578  1.00  0.00    -0.744 OA
ENDBRANCH  71  72
ENDBRANCH  52  66
BRANCH  53  76
ATOM     76  C   UNL A   1      36.949  32.600  30.695  1.00  0.00    -0.014 A 
ATOM     77  C   UNL A   1      37.151  33.618  29.746  1.00  0.00     0.010 A 
ATOM     78  C   UNL A   1      35.634  32.202  30.997  1.00  0.00     0.010 A 
ATOM     79  C   UNL A   1      36.060  34.262  29.154  1.00  0.00     0.020 A 
ATOM     80  C   UNL A   1      34.542  32.818  30.379  1.00  0.00     0.020 A 
ATOM     81  C   UNL A   1      34.762  33.861  29.480  1.00  0.00     0.054 A 
BRANCH  81  82
ATOM     82  S   UNL A   1      33.361  34.714  28.706  1.00  0.00     0.124 S 
ATOM     83  O   UNL A   1      34.024  35.812  28.008  1.00  0.00    -0.237 OA
ATOM     84  O   UNL A   1      32.789  33.675  27.853  1.00  0.00    -0.237 OA
ATOM     85  O   UNL A   1      32.529  35.106  29.842  1.00  0.00    -0.744 OA
ENDBRANCH  81  82
ENDBRANCH  53  76
BRANCH  65  86
ATOM     86  C   UNL A   1      39.909  33.785  36.897  1.00  0.00    -0.014 A 
ATOM     87  C   UNL A   1      39.199  33.453  38.064  1.00  0.00     0.010 A 
ATOM     88  C   UNL A   1      40.435  35.083  36.760  1.00  0.00     0.010 A 
ATOM     89  C   UNL A   1      38.988  34.412  39.058  1.00  0.00     0.020 A 
ATOM     90  C   UNL A   1      40.257  36.035  37.767  1.00  0.00     0.020 A 
ATOM     91  C   UNL A   1      39.520  35.697  38.903  1.00  0.00     0.054 A 
BRANCH  91  92
ATOM     92  S   UNL A   1      39.270  36.909  40.229  1.00  0.00     0.124 S 
ATOM     93  O   UNL A   1      40.595  36.967  40.841  1.00  0.00    -0.237 OA
ATOM     94  O   UNL A   1      38.864  38.105  39.495  1.00  0.00    -0.237 OA
ATOM     95  O   UNL A   1      38.227  36.309  41.057  1.00  0.00    -0.744 OA
ENDBRANCH  91  92
ENDBRANCH  65  86
ENDBRANCH  39  40
ENDBRANCH  31  34
ENDBRANCH  29  30
ENDBRANCH  28  29
ENDBRANCH   1  28
TORSDOF 17
ENDMDL
