MODEL 1
REMARK VINA RESULT:     -11.1      0.000      0.000
REMARK SMILES C[C@H]1OCC[C@H]1c1nnnn1CC(=O)NCCCCCCNC(=O)c1ccc(-c2c3nc(c(-c4ccc(S(=O)(=O)[O-])cc4)c4ccc([nH]4)c(-c4ccc(S(=O)(=O)[O-])cc4)c4nc(c(-c5ccc(S(=O)(=O)[O-])cc5)c5ccc2[nH]5)C=C4)C=C3)cc1
REMARK SMILES IDX 19 1 18 2 17 3 16 4 15 5 13 6 14 7 12 9 11 10 7 11 8 12 9 13
REMARK SMILES IDX 10 14 6 15 1 16 2 17 3 18 4 19 5 20 20 21 21 22 22 23 23 24
REMARK SMILES IDX 24 26 25 27 26 28 84 29 27 30 83 31 28 32 29 33 30 34 77 35
REMARK SMILES IDX 31 36 82 37 76 38 78 39 32 40 81 41 75 42 74 43 33 45 63 46
REMARK SMILES IDX 44 47 62 48 45 49 48 50 61 51 79 52 46 53 47 54 60 56 80 57
REMARK SMILES IDX 49 58 34 59 35 60 43 61 36 62 42 63 37 64 38 65 39 66 40 67
REMARK SMILES IDX 41 68 64 69 65 70 73 71 66 72 72 73 67 74 68 75 69 76 70 77
REMARK SMILES IDX 71 78 50 79 51 80 59 81 52 82 58 83 53 84 54 85 55 86 56 87
REMARK SMILES IDX 57 88
REMARK H PARENT 15 8 22 25 78 44 48 55
REMARK Flexibility Score: inf
ROOT
ATOM      1  C   UNL A   1      38.511  22.193  26.150  1.00  0.00     0.002 C 
ENDROOT
BRANCH   1   2
ATOM      2  C   UNL A   1      37.708  21.819  24.891  1.00  0.00     0.002 C 
BRANCH   2   3
ATOM      3  C   UNL A   1      36.359  21.180  25.209  1.00  0.00     0.021 C 
BRANCH   3   4
ATOM      4  C   UNL A   1      35.233  22.084  24.743  1.00  0.00     0.116 C 
BRANCH   4   5
ATOM      5  N   UNL A   1      33.997  21.359  24.605  1.00  0.00    -0.354 N 
ATOM      6  C   UNL A   1      32.994  21.261  25.526  1.00  0.00     0.241 C 
ATOM      7  O   UNL A   1      32.030  20.540  25.267  1.00  0.00    -0.273 OA
ATOM      8  H   UNL A   1      33.859  20.884  23.754  1.00  0.00     0.163 HD
BRANCH   6   9
ATOM      9  C   UNL A   1      33.001  22.190  26.715  1.00  0.00     0.248 C 
BRANCH   9  10
ATOM     10  N   UNL A   1      32.037  23.264  26.681  1.00  0.00    -0.220 N 
ATOM     11  C   UNL A   1      32.142  24.547  26.172  1.00  0.00     0.157 A 
ATOM     12  N   UNL A   1      30.988  25.142  26.409  1.00  0.00    -0.113 NA
ATOM     13  N   UNL A   1      30.178  24.221  27.022  1.00  0.00    -0.024 NA
ATOM     14  N   UNL A   1      30.810  23.071  27.183  1.00  0.00    -0.044 NA
BRANCH  11  15
ATOM     15  C   UNL A   1      33.379  25.212  25.631  1.00  0.00     0.090 C 
ATOM     16  C   UNL A   1      32.648  24.474  23.204  1.00  0.00     0.039 C 
ATOM     17  C   UNL A   1      33.563  25.281  24.109  1.00  0.00     0.126 C 
ATOM     18  O   UNL A   1      33.461  26.661  23.716  1.00  0.00    -0.378 OA
ATOM     19  C   UNL A   1      33.009  27.417  24.842  1.00  0.00     0.161 C 
ATOM     20  C   UNL A   1      33.507  26.673  26.053  1.00  0.00     0.043 C 
ENDBRANCH  11  15
ENDBRANCH   9  10
ENDBRANCH   6   9
ENDBRANCH   4   5
ENDBRANCH   3   4
ENDBRANCH   2   3
ENDBRANCH   1   2
BRANCH   1  21
ATOM     21  C   UNL A   1      39.865  21.481  26.277  1.00  0.00     0.021 C 
BRANCH  21  22
ATOM     22  C   UNL A   1      40.504  21.778  27.610  1.00  0.00     0.116 C 
BRANCH  22  23
ATOM     23  N   UNL A   1      41.961  21.908  27.505  1.00  0.00    -0.352 N 
ATOM     24  C   UNL A   1      42.686  23.029  27.102  1.00  0.00     0.251 C 
ATOM     25  H   UNL A   1      42.488  21.112  27.745  1.00  0.00     0.163 HD
ATOM     26  O   UNL A   1      43.825  22.959  26.732  1.00  0.00    -0.269 OA
BRANCH  24  27
ATOM     27  C   UNL A   1      41.995  24.321  27.295  1.00  0.00     0.039 A 
ATOM     28  C   UNL A   1      41.054  24.932  26.473  1.00  0.00     0.014 A 
ATOM     29  C   UNL A   1      42.504  25.085  28.320  1.00  0.00     0.014 A 
ATOM     30  C   UNL A   1      40.801  26.304  26.731  1.00  0.00     0.010 A 
ATOM     31  C   UNL A   1      41.679  25.986  28.861  1.00  0.00     0.010 A 
ATOM     32  C   UNL A   1      41.375  26.883  27.889  1.00  0.00    -0.014 A 
BRANCH  32  33
ATOM     33  C   UNL A   1      41.173  28.187  28.518  1.00  0.00     0.031 A 
ATOM     34  C   UNL A   1      42.239  29.096  27.945  1.00  0.00     0.074 A 
ATOM     35  C   UNL A   1      40.077  28.524  29.283  1.00  0.00     0.049 A 
ATOM     36  N   UNL A   1      43.419  29.186  28.466  1.00  0.00    -0.248 NA
ATOM     37  C   UNL A   1      42.255  29.584  26.534  1.00  0.00     0.031 C 
ATOM     38  C   UNL A   1      38.903  27.767  29.797  1.00  0.00     0.029 A 
ATOM     39  N   UNL A   1      39.812  29.751  29.854  1.00  0.00    -0.354 N 
ATOM     40  C   UNL A   1      44.120  30.098  27.695  1.00  0.00     0.074 A 
ATOM     41  C   UNL A   1      43.497  30.079  26.409  1.00  0.00     0.031 C 
ATOM     42  C   UNL A   1      37.977  28.608  30.357  1.00  0.00     0.029 A 
ATOM     43  C   UNL A   1      38.506  29.960  30.378  1.00  0.00     0.049 A 
ATOM     44  H   UNL A   1      40.499  30.454  29.898  1.00  0.00     0.167 HD
ATOM     45  C   UNL A   1      44.910  31.014  28.318  1.00  0.00     0.031 A 
ATOM     46  C   UNL A   1      38.031  31.101  31.007  1.00  0.00     0.031 A 
ATOM     47  C   UNL A   1      44.999  30.685  29.722  1.00  0.00     0.049 A 
ATOM     48  C   UNL A   1      39.263  31.846  31.415  1.00  0.00     0.074 A 
ATOM     49  C   UNL A   1      45.510  29.616  30.427  1.00  0.00     0.029 A 
ATOM     50  N   UNL A   1      44.003  31.243  30.494  1.00  0.00    -0.354 N 
ATOM     51  N   UNL A   1      40.056  31.361  32.338  1.00  0.00    -0.248 NA
ATOM     52  C   UNL A   1      39.907  32.649  30.374  1.00  0.00     0.031 C 
ATOM     53  C   UNL A   1      44.507  29.304  31.392  1.00  0.00     0.029 A 
ATOM     54  C   UNL A   1      43.529  30.300  31.371  1.00  0.00     0.049 A 
ATOM     55  H   UNL A   1      43.683  32.171  30.426  1.00  0.00     0.167 HD
ATOM     56  C   UNL A   1      41.318  31.385  31.763  1.00  0.00     0.074 A 
ATOM     57  C   UNL A   1      41.160  32.196  30.536  1.00  0.00     0.031 C 
ATOM     58  C   UNL A   1      42.266  30.440  32.064  1.00  0.00     0.031 A 
BRANCH  45  59
ATOM     59  C   UNL A   1      45.194  32.412  27.845  1.00  0.00    -0.014 A 
ATOM     60  C   UNL A   1      46.549  32.793  27.761  1.00  0.00     0.010 A 
ATOM     61  C   UNL A   1      44.226  33.434  27.757  1.00  0.00     0.010 A 
ATOM     62  C   UNL A   1      46.928  34.129  27.630  1.00  0.00     0.020 A 
ATOM     63  C   UNL A   1      44.598  34.779  27.598  1.00  0.00     0.020 A 
ATOM     64  C   UNL A   1      45.950  35.116  27.545  1.00  0.00     0.054 A 
BRANCH  64  65
ATOM     65  S   UNL A   1      46.489  36.836  27.356  1.00  0.00     0.124 S 
ATOM     66  O   UNL A   1      47.776  36.836  28.043  1.00  0.00    -0.237 OA
ATOM     67  O   UNL A   1      46.551  36.974  25.902  1.00  0.00    -0.237 OA
ATOM     68  O   UNL A   1      45.430  37.603  28.004  1.00  0.00    -0.744 OA
ENDBRANCH  64  65
ENDBRANCH  45  59
BRANCH  46  69
ATOM     69  C   UNL A   1      36.717  31.831  30.772  1.00  0.00    -0.014 A 
ATOM     70  C   UNL A   1      36.181  32.894  31.559  1.00  0.00     0.010 A 
ATOM     71  C   UNL A   1      36.102  31.632  29.526  1.00  0.00     0.010 A 
ATOM     72  C   UNL A   1      35.123  33.731  31.082  1.00  0.00     0.020 A 
ATOM     73  C   UNL A   1      35.077  32.461  29.041  1.00  0.00     0.020 A 
ATOM     74  C   UNL A   1      34.600  33.523  29.802  1.00  0.00     0.054 A 
BRANCH  74  75
ATOM     75  S   UNL A   1      33.398  34.683  29.049  1.00  0.00     0.124 S 
ATOM     76  O   UNL A   1      34.257  35.714  28.474  1.00  0.00    -0.237 OA
ATOM     77  O   UNL A   1      32.693  33.842  28.086  1.00  0.00    -0.237 OA
ATOM     78  O   UNL A   1      32.587  35.121  30.185  1.00  0.00    -0.744 OA
ENDBRANCH  74  75
ENDBRANCH  46  69
BRANCH  58  79
ATOM     79  C   UNL A   1      41.994  29.419  33.159  1.00  0.00    -0.014 A 
ATOM     80  C   UNL A   1      41.462  28.118  32.992  1.00  0.00     0.010 A 
ATOM     81  C   UNL A   1      42.495  29.757  34.422  1.00  0.00     0.010 A 
ATOM     82  C   UNL A   1      41.373  27.224  34.083  1.00  0.00     0.020 A 
ATOM     83  C   UNL A   1      42.437  28.871  35.497  1.00  0.00     0.020 A 
ATOM     84  C   UNL A   1      41.849  27.619  35.336  1.00  0.00     0.054 A 
BRANCH  84  85
ATOM     85  S   UNL A   1      41.719  26.502  36.763  1.00  0.00     0.124 S 
ATOM     86  O   UNL A   1      42.935  26.805  37.513  1.00  0.00    -0.237 OA
ATOM     87  O   UNL A   1      40.470  26.922  37.394  1.00  0.00    -0.237 OA
ATOM     88  O   UNL A   1      41.681  25.171  36.159  1.00  0.00    -0.744 OA
ENDBRANCH  84  85
ENDBRANCH  58  79
ENDBRANCH  32  33
ENDBRANCH  24  27
ENDBRANCH  22  23
ENDBRANCH  21  22
ENDBRANCH   1  21
TORSDOF 18
ENDMDL
MODEL 2
REMARK VINA RESULT:     -10.8      1.728      2.426
REMARK SMILES C[C@H]1OCC[C@H]1c1nnnn1CC(=O)NCCCCCCNC(=O)c1ccc(-c2c3nc(c(-c4ccc(S(=O)(=O)[O-])cc4)c4ccc([nH]4)c(-c4ccc(S(=O)(=O)[O-])cc4)c4nc(c(-c5ccc(S(=O)(=O)[O-])cc5)c5ccc2[nH]5)C=C4)C=C3)cc1
REMARK SMILES IDX 19 1 18 2 17 3 16 4 15 5 13 6 14 7 12 9 11 10 7 11 8 12 9 13
REMARK SMILES IDX 10 14 6 15 1 16 2 17 3 18 4 19 5 20 20 21 21 22 22 23 23 24
REMARK SMILES IDX 24 26 25 27 26 28 84 29 27 30 83 31 28 32 29 33 30 34 77 35
REMARK SMILES IDX 31 36 82 37 76 38 78 39 32 40 81 41 75 42 74 43 33 45 63 46
REMARK SMILES IDX 44 47 62 48 45 49 48 50 61 51 79 52 46 53 47 54 60 56 80 57
REMARK SMILES IDX 49 58 34 59 35 60 43 61 36 62 42 63 37 64 38 65 39 66 40 67
REMARK SMILES IDX 41 68 64 69 65 70 73 71 66 72 72 73 67 74 68 75 69 76 70 77
REMARK SMILES IDX 71 78 50 79 51 80 59 81 52 82 58 83 53 84 54 85 55 86 56 87
REMARK SMILES IDX 57 88
REMARK H PARENT 15 8 22 25 78 44 48 55
REMARK Flexibility Score: inf
ROOT
ATOM      1  C   UNL A   1      36.593  21.824  24.242  1.00  0.00     0.002 C 
ENDROOT
BRANCH   1   2
ATOM      2  C   UNL A   1      35.073  21.738  24.473  1.00  0.00     0.002 C 
BRANCH   2   3
ATOM      3  C   UNL A   1      34.705  21.451  25.926  1.00  0.00     0.021 C 
BRANCH   3   4
ATOM      4  C   UNL A   1      34.293  22.735  26.621  1.00  0.00     0.116 C 
BRANCH   4   5
ATOM      5  N   UNL A   1      32.899  22.718  26.977  1.00  0.00    -0.354 N 
ATOM      6  C   UNL A   1      32.011  23.750  26.873  1.00  0.00     0.241 C 
ATOM      7  O   UNL A   1      30.865  23.580  27.289  1.00  0.00    -0.273 OA
ATOM      8  H   UNL A   1      32.546  21.871  27.332  1.00  0.00     0.163 HD
BRANCH   6   9
ATOM      9  C   UNL A   1      32.399  24.969  26.073  1.00  0.00     0.248 C 
BRANCH   9  10
ATOM     10  N   UNL A   1      32.037  24.947  24.675  1.00  0.00    -0.220 N 
ATOM     11  C   UNL A   1      31.286  25.838  23.930  1.00  0.00     0.157 A 
ATOM     12  N   UNL A   1      31.231  25.352  22.704  1.00  0.00    -0.113 NA
ATOM     13  N   UNL A   1      31.972  24.198  22.695  1.00  0.00    -0.024 NA
ATOM     14  N   UNL A   1      32.473  23.950  23.893  1.00  0.00    -0.044 NA
BRANCH  11  15
ATOM     15  C   UNL A   1      30.512  27.024  24.440  1.00  0.00     0.090 C 
ATOM     16  C   UNL A   1      32.745  28.433  24.387  1.00  0.00     0.039 C 
ATOM     17  C   UNL A   1      31.236  28.374  24.547  1.00  0.00     0.126 C 
ATOM     18  O   UNL A   1      30.657  29.262  23.575  1.00  0.00    -0.378 OA
ATOM     19  C   UNL A   1      29.791  28.500  22.730  1.00  0.00     0.161 C 
ATOM     20  C   UNL A   1      29.296  27.360  23.582  1.00  0.00     0.043 C 
ENDBRANCH  11  15
ENDBRANCH   9  10
ENDBRANCH   6   9
ENDBRANCH   4   5
ENDBRANCH   3   4
ENDBRANCH   2   3
ENDBRANCH   1   2
BRANCH   1  21
ATOM     21  C   UNL A   1      37.446  21.332  25.419  1.00  0.00     0.021 C 
BRANCH  21  22
ATOM     22  C   UNL A   1      38.341  22.432  25.931  1.00  0.00     0.116 C 
BRANCH  22  23
ATOM     23  N   UNL A   1      39.520  21.905  26.624  1.00  0.00    -0.352 N 
ATOM     24  C   UNL A   1      40.550  22.632  27.221  1.00  0.00     0.251 C 
ATOM     25  H   UNL A   1      39.595  20.924  26.673  1.00  0.00     0.163 HD
ATOM     26  O   UNL A   1      41.619  22.147  27.470  1.00  0.00    -0.269 OA
BRANCH  24  27
ATOM     27  C   UNL A   1      40.183  23.999  27.647  1.00  0.00     0.039 A 
ATOM     28  C   UNL A   1      39.005  24.697  27.399  1.00  0.00     0.014 A 
ATOM     29  C   UNL A   1      41.223  24.719  28.184  1.00  0.00     0.014 A 
ATOM     30  C   UNL A   1      39.048  26.093  27.644  1.00  0.00     0.010 A 
ATOM     31  C   UNL A   1      40.895  25.720  29.007  1.00  0.00     0.010 A 
ATOM     32  C   UNL A   1      40.199  26.626  28.274  1.00  0.00    -0.014 A 
BRANCH  32  33
ATOM     33  C   UNL A   1      40.476  27.958  28.810  1.00  0.00     0.031 A 
ATOM     34  C   UNL A   1      41.619  28.510  27.986  1.00  0.00     0.074 A 
ATOM     35  C   UNL A   1      39.675  28.617  29.718  1.00  0.00     0.049 A 
ATOM     36  N   UNL A   1      42.856  28.285  28.287  1.00  0.00    -0.248 NA
ATOM     37  C   UNL A   1      41.499  28.919  26.555  1.00  0.00     0.031 C 
ATOM     38  C   UNL A   1      38.460  28.239  30.490  1.00  0.00     0.029 A 
ATOM     39  N   UNL A   1      39.862  29.890  30.215  1.00  0.00    -0.354 N 
ATOM     40  C   UNL A   1      43.618  28.934  27.331  1.00  0.00     0.074 A 
ATOM     41  C   UNL A   1      42.782  29.042  26.176  1.00  0.00     0.031 C 
ATOM     42  C   UNL A   1      37.916  29.327  31.123  1.00  0.00     0.029 A 
ATOM     43  C   UNL A   1      38.784  30.476  30.933  1.00  0.00     0.049 A 
ATOM     44  H   UNL A   1      40.708  30.373  30.078  1.00  0.00     0.167 HD
ATOM     45  C   UNL A   1      44.727  29.615  27.725  1.00  0.00     0.031 A 
ATOM     46  C   UNL A   1      38.759  31.727  31.531  1.00  0.00     0.031 A 
ATOM     47  C   UNL A   1      44.988  29.328  29.118  1.00  0.00     0.049 A 
ATOM     48  C   UNL A   1      40.200  32.112  31.655  1.00  0.00     0.074 A 
ATOM     49  C   UNL A   1      45.316  28.186  29.817  1.00  0.00     0.029 A 
ATOM     50  N   UNL A   1      44.342  30.171  29.995  1.00  0.00    -0.354 N 
ATOM     51  N   UNL A   1      40.993  31.460  32.469  1.00  0.00    -0.248 NA
ATOM     52  C   UNL A   1      40.827  32.663  30.452  1.00  0.00     0.031 C 
ATOM     53  C   UNL A   1      44.468  28.204  30.963  1.00  0.00     0.029 A 
ATOM     54  C   UNL A   1      43.807  29.433  31.020  1.00  0.00     0.049 A 
ATOM     55  H   UNL A   1      44.277  31.149  29.901  1.00  0.00     0.167 HD
ATOM     56  C   UNL A   1      42.083  31.108  31.687  1.00  0.00     0.074 A 
ATOM     57  C   UNL A   1      41.920  31.884  30.438  1.00  0.00     0.031 C 
ATOM     58  C   UNL A   1      42.782  29.947  31.904  1.00  0.00     0.031 A 
BRANCH  45  59
ATOM     59  C   UNL A   1      45.281  30.859  27.089  1.00  0.00    -0.014 A 
ATOM     60  C   UNL A   1      46.685  30.968  27.021  1.00  0.00     0.010 A 
ATOM     61  C   UNL A   1      44.527  32.020  26.823  1.00  0.00     0.010 A 
ATOM     62  C   UNL A   1      47.313  32.181  26.736  1.00  0.00     0.020 A 
ATOM     63  C   UNL A   1      45.150  33.238  26.508  1.00  0.00     0.020 A 
ATOM     64  C   UNL A   1      46.543  33.310  26.476  1.00  0.00     0.054 A 
BRANCH  64  65
ATOM     65  S   UNL A   1      47.401  34.858  26.092  1.00  0.00     0.124 S 
ATOM     66  O   UNL A   1      46.299  35.746  25.737  1.00  0.00    -0.237 OA
ATOM     67  O   UNL A   1      48.067  35.156  27.359  1.00  0.00    -0.237 OA
ATOM     68  O   UNL A   1      48.295  34.495  24.996  1.00  0.00    -0.744 OA
ENDBRANCH  64  65
ENDBRANCH  45  59
BRANCH  46  69
ATOM     69  C   UNL A   1      37.670  32.787  31.460  1.00  0.00    -0.014 A 
ATOM     70  C   UNL A   1      36.976  33.217  30.288  1.00  0.00     0.010 A 
ATOM     71  C   UNL A   1      37.105  33.190  32.680  1.00  0.00     0.010 A 
ATOM     72  C   UNL A   1      35.757  33.964  30.362  1.00  0.00     0.020 A 
ATOM     73  C   UNL A   1      35.899  33.905  32.762  1.00  0.00     0.020 A 
ATOM     74  C   UNL A   1      35.210  34.274  31.611  1.00  0.00     0.054 A 
BRANCH  74  75
ATOM     75  S   UNL A   1      33.553  35.039  31.777  1.00  0.00     0.124 S 
ATOM     76  O   UNL A   1      32.929  34.239  32.826  1.00  0.00    -0.237 OA
ATOM     77  O   UNL A   1      33.866  36.418  32.139  1.00  0.00    -0.237 OA
ATOM     78  O   UNL A   1      32.966  34.875  30.447  1.00  0.00    -0.744 OA
ENDBRANCH  74  75
ENDBRANCH  46  69
BRANCH  58  79
ATOM     79  C   UNL A   1      42.458  29.086  33.115  1.00  0.00    -0.014 A 
ATOM     80  C   UNL A   1      41.528  28.020  33.173  1.00  0.00     0.010 A 
ATOM     81  C   UNL A   1      43.304  29.268  34.216  1.00  0.00     0.010 A 
ATOM     82  C   UNL A   1      41.412  27.220  34.332  1.00  0.00     0.020 A 
ATOM     83  C   UNL A   1      43.214  28.467  35.353  1.00  0.00     0.020 A 
ATOM     84  C   UNL A   1      42.250  27.465  35.424  1.00  0.00     0.054 A 
BRANCH  84  85
ATOM     85  S   UNL A   1      42.100  26.473  36.938  1.00  0.00     0.124 S 
ATOM     86  O   UNL A   1      40.765  26.821  37.414  1.00  0.00    -0.237 OA
ATOM     87  O   UNL A   1      42.256  25.105  36.450  1.00  0.00    -0.237 OA
ATOM     88  O   UNL A   1      43.199  26.952  37.776  1.00  0.00    -0.744 OA
ENDBRANCH  84  85
ENDBRANCH  58  79
ENDBRANCH  32  33
ENDBRANCH  24  27
ENDBRANCH  22  23
ENDBRANCH  21  22
ENDBRANCH   1  21
TORSDOF 18
ENDMDL
MODEL 3
REMARK VINA RESULT:     -10.6      3.138      9.631
REMARK SMILES C[C@H]1OCC[C@H]1c1nnnn1CC(=O)NCCCCCCNC(=O)c1ccc(-c2c3nc(c(-c4ccc(S(=O)(=O)[O-])cc4)c4ccc([nH]4)c(-c4ccc(S(=O)(=O)[O-])cc4)c4nc(c(-c5ccc(S(=O)(=O)[O-])cc5)c5ccc2[nH]5)C=C4)C=C3)cc1
REMARK SMILES IDX 19 1 18 2 17 3 16 4 15 5 13 6 14 7 12 9 11 10 7 11 8 12 9 13
REMARK SMILES IDX 10 14 6 15 1 16 2 17 3 18 4 19 5 20 20 21 21 22 22 23 23 24
REMARK SMILES IDX 24 26 25 27 26 28 84 29 27 30 83 31 28 32 29 33 30 34 77 35
REMARK SMILES IDX 31 36 82 37 76 38 78 39 32 40 81 41 75 42 74 43 33 45 63 46
REMARK SMILES IDX 44 47 62 48 45 49 48 50 61 51 79 52 46 53 47 54 60 56 80 57
REMARK SMILES IDX 49 58 34 59 35 60 43 61 36 62 42 63 37 64 38 65 39 66 40 67
REMARK SMILES IDX 41 68 64 69 65 70 73 71 66 72 72 73 67 74 68 75 69 76 70 77
REMARK SMILES IDX 71 78 50 79 51 80 59 81 52 82 58 83 53 84 54 85 55 86 56 87
REMARK SMILES IDX 57 88
REMARK H PARENT 15 8 22 25 78 44 48 55
REMARK Flexibility Score: inf
ROOT
ATOM      1  C   UNL A   1      34.931  33.988  28.141  1.00  0.00     0.002 C 
ENDROOT
BRANCH   1   2
ATOM      2  C   UNL A   1      34.076  32.712  28.257  1.00  0.00     0.002 C 
BRANCH   2   3
ATOM      3  C   UNL A   1      34.899  31.468  28.579  1.00  0.00     0.021 C 
BRANCH   3   4
ATOM      4  C   UNL A   1      34.694  30.417  27.505  1.00  0.00     0.116 C 
BRANCH   4   5
ATOM      5  N   UNL A   1      33.528  29.615  27.767  1.00  0.00    -0.354 N 
ATOM      6  C   UNL A   1      32.389  29.548  27.017  1.00  0.00     0.241 C 
ATOM      7  O   UNL A   1      31.458  28.856  27.427  1.00  0.00    -0.273 OA
ATOM      8  H   UNL A   1      33.554  29.052  28.575  1.00  0.00     0.163 HD
BRANCH   6   9
ATOM      9  C   UNL A   1      32.393  30.144  25.631  1.00  0.00     0.248 C 
BRANCH   9  10
ATOM     10  N   UNL A   1      31.685  29.394  24.620  1.00  0.00    -0.220 N 
ATOM     11  C   UNL A   1      32.085  28.302  23.870  1.00  0.00     0.157 A 
ATOM     12  N   UNL A   1      31.077  28.004  23.071  1.00  0.00    -0.113 NA
ATOM     13  N   UNL A   1      30.063  28.882  23.358  1.00  0.00    -0.024 NA
ATOM     14  N   UNL A   1      30.425  29.727  24.307  1.00  0.00    -0.044 NA
BRANCH  11  15
ATOM     15  C   UNL A   1      33.458  27.687  23.820  1.00  0.00     0.090 C 
ATOM     16  C   UNL A   1      32.746  26.075  25.787  1.00  0.00     0.039 C 
ATOM     17  C   UNL A   1      33.743  26.469  24.710  1.00  0.00     0.126 C 
ATOM     18  O   UNL A   1      33.933  25.331  23.851  1.00  0.00    -0.378 OA
ATOM     19  C   UNL A   1      33.568  25.706  22.521  1.00  0.00     0.161 C 
ATOM     20  C   UNL A   1      33.839  27.185  22.430  1.00  0.00     0.043 C 
ENDBRANCH  11  15
ENDBRANCH   9  10
ENDBRANCH   6   9
ENDBRANCH   4   5
ENDBRANCH   3   4
ENDBRANCH   2   3
ENDBRANCH   1   2
BRANCH   1  21
ATOM     21  C   UNL A   1      34.216  35.276  28.573  1.00  0.00     0.021 C 
BRANCH  21  22
ATOM     22  C   UNL A   1      33.470  35.068  29.867  1.00  0.00     0.116 C 
BRANCH  22  23
ATOM     23  N   UNL A   1      34.042  35.856  30.963  1.00  0.00    -0.352 N 
ATOM     24  C   UNL A   1      34.765  35.385  32.059  1.00  0.00     0.251 C 
ATOM     25  H   UNL A   1      33.897  36.829  30.923  1.00  0.00     0.163 HD
ATOM     26  O   UNL A   1      34.910  36.031  33.059  1.00  0.00    -0.269 OA
BRANCH  24  27
ATOM     27  C   UNL A   1      35.453  34.095  31.845  1.00  0.00     0.039 A 
ATOM     28  C   UNL A   1      34.954  32.808  32.022  1.00  0.00     0.014 A 
ATOM     29  C   UNL A   1      36.806  34.206  31.633  1.00  0.00     0.014 A 
ATOM     30  C   UNL A   1      35.919  31.768  32.057  1.00  0.00     0.010 A 
ATOM     31  C   UNL A   1      37.392  33.203  30.972  1.00  0.00     0.010 A 
ATOM     32  C   UNL A   1      37.260  32.090  31.738  1.00  0.00    -0.014 A 
BRANCH  32  33
ATOM     33  C   UNL A   1      38.431  31.242  31.518  1.00  0.00     0.031 A 
ATOM     34  C   UNL A   1      38.972  30.912  32.892  1.00  0.00     0.074 A 
ATOM     35  C   UNL A   1      38.779  30.692  30.303  1.00  0.00     0.049 A 
ATOM     36  N   UNL A   1      39.818  31.678  33.500  1.00  0.00    -0.248 NA
ATOM     37  C   UNL A   1      38.288  30.015  33.869  1.00  0.00     0.031 C 
ATOM     38  C   UNL A   1      38.251  30.827  28.917  1.00  0.00     0.029 A 
ATOM     39  N   UNL A   1      39.838  29.846  30.050  1.00  0.00    -0.354 N 
ATOM     40  C   UNL A   1      40.090  31.074  34.716  1.00  0.00     0.074 A 
ATOM     41  C   UNL A   1      38.952  30.262  35.010  1.00  0.00     0.031 C 
ATOM     42  C   UNL A   1      38.827  29.911  28.075  1.00  0.00     0.029 A 
ATOM     43  C   UNL A   1      39.864  29.187  28.790  1.00  0.00     0.049 A 
ATOM     44  H   UNL A   1      40.549  29.704  30.716  1.00  0.00     0.167 HD
ATOM     45  C   UNL A   1      41.375  31.048  35.163  1.00  0.00     0.031 A 
ATOM     46  C   UNL A   1      40.835  28.316  28.322  1.00  0.00     0.031 A 
ATOM     47  C   UNL A   1      42.190  31.880  34.308  1.00  0.00     0.049 A 
ATOM     48  C   UNL A   1      42.024  28.574  29.194  1.00  0.00     0.074 A 
ATOM     49  C   UNL A   1      42.211  33.228  34.018  1.00  0.00     0.029 A 
ATOM     50  N   UNL A   1      42.715  31.221  33.218  1.00  0.00    -0.354 N 
ATOM     51  N   UNL A   1      42.659  29.717  29.127  1.00  0.00    -0.248 NA
ATOM     52  C   UNL A   1      42.019  27.918  30.502  1.00  0.00     0.031 C 
ATOM     53  C   UNL A   1      42.336  33.293  32.599  1.00  0.00     0.029 A 
ATOM     54  C   UNL A   1      42.580  32.011  32.104  1.00  0.00     0.049 A 
ATOM     55  H   UNL A   1      43.123  30.326  33.237  1.00  0.00     0.167 HD
ATOM     56  C   UNL A   1      42.725  30.157  30.441  1.00  0.00     0.074 A 
ATOM     57  C   UNL A   1      42.306  28.993  31.252  1.00  0.00     0.031 C 
ATOM     58  C   UNL A   1      42.697  31.492  30.757  1.00  0.00     0.031 A 
BRANCH  45  59
ATOM     59  C   UNL A   1      42.005  29.969  35.997  1.00  0.00    -0.014 A 
ATOM     60  C   UNL A   1      43.225  30.284  36.629  1.00  0.00     0.010 A 
ATOM     61  C   UNL A   1      41.624  28.612  35.963  1.00  0.00     0.010 A 
ATOM     62  C   UNL A   1      44.046  29.295  37.172  1.00  0.00     0.020 A 
ATOM     63  C   UNL A   1      42.431  27.613  36.531  1.00  0.00     0.020 A 
ATOM     64  C   UNL A   1      43.643  27.963  37.125  1.00  0.00     0.054 A 
BRANCH  64  65
ATOM     65  S   UNL A   1      44.732  26.716  37.859  1.00  0.00     0.124 S 
ATOM     66  O   UNL A   1      44.826  25.720  36.797  1.00  0.00    -0.237 OA
ATOM     67  O   UNL A   1      45.949  27.487  38.109  1.00  0.00    -0.237 OA
ATOM     68  O   UNL A   1      44.013  26.292  39.058  1.00  0.00    -0.744 OA
ENDBRANCH  64  65
ENDBRANCH  45  59
BRANCH  46  69
ATOM     69  C   UNL A   1      40.645  26.971  27.636  1.00  0.00    -0.014 A 
ATOM     70  C   UNL A   1      41.549  26.344  26.726  1.00  0.00     0.010 A 
ATOM     71  C   UNL A   1      39.626  26.148  28.139  1.00  0.00     0.010 A 
ATOM     72  C   UNL A   1      41.448  24.956  26.394  1.00  0.00     0.020 A 
ATOM     73  C   UNL A   1      39.532  24.779  27.835  1.00  0.00     0.020 A 
ATOM     74  C   UNL A   1      40.450  24.174  26.984  1.00  0.00     0.054 A 
BRANCH  74  75
ATOM     75  S   UNL A   1      40.395  22.355  26.769  1.00  0.00     0.124 S 
ATOM     76  O   UNL A   1      41.473  22.107  25.816  1.00  0.00    -0.237 OA
ATOM     77  O   UNL A   1      40.627  21.860  28.123  1.00  0.00    -0.237 OA
ATOM     78  O   UNL A   1      39.049  22.112  26.253  1.00  0.00    -0.744 OA
ENDBRANCH  74  75
ENDBRANCH  46  69
BRANCH  58  79
ATOM     79  C   UNL A   1      42.740  32.532  29.648  1.00  0.00    -0.014 A 
ATOM     80  C   UNL A   1      41.922  33.681  29.531  1.00  0.00     0.010 A 
ATOM     81  C   UNL A   1      43.822  32.415  28.766  1.00  0.00     0.010 A 
ATOM     82  C   UNL A   1      42.148  34.634  28.512  1.00  0.00     0.020 A 
ATOM     83  C   UNL A   1      44.068  33.363  27.775  1.00  0.00     0.020 A 
ATOM     84  C   UNL A   1      43.216  34.454  27.628  1.00  0.00     0.054 A 
BRANCH  84  85
ATOM     85  S   UNL A   1      43.511  35.646  26.289  1.00  0.00     0.124 S 
ATOM     86  O   UNL A   1      44.945  35.900  26.402  1.00  0.00    -0.237 OA
ATOM     87  O   UNL A   1      43.096  34.909  25.098  1.00  0.00    -0.237 OA
ATOM     88  O   UNL A   1      42.654  36.778  26.638  1.00  0.00    -0.744 OA
ENDBRANCH  84  85
ENDBRANCH  58  79
ENDBRANCH  32  33
ENDBRANCH  24  27
ENDBRANCH  22  23
ENDBRANCH  21  22
ENDBRANCH   1  21
TORSDOF 18
ENDMDL
