MODEL 1
REMARK VINA RESULT:      -9.1      0.000      0.000
REMARK SMILES C=CCSc1ccccc1C(=O)NCCCCCCNC(=O)c1ccc(-c2c3nc(c(-c4ccc(S(=O)(=O)[O-])cc4)c4ccc([nH]4)c(-c4ccc(S(=O)(=O)[O-])cc4)c4nc(c(-c5ccc(S(=O)(=O)[O-])cc5)c5ccc2[nH]5)C=C4)C=C3)cc1
REMARK SMILES IDX 16 1 15 2 14 3 13 4 11 5 12 6 10 8 5 9 6 10 7 11 9 12 8 13
REMARK SMILES IDX 4 14 3 15 2 16 1 17 17 18 18 19 19 20 20 21 21 22 22 24
REMARK SMILES IDX 23 25 24 26 82 27 25 28 81 29 26 30 27 31 28 32 75 33 29 34
REMARK SMILES IDX 80 35 74 36 76 37 30 38 79 39 73 40 72 41 31 43 61 44 42 45
REMARK SMILES IDX 60 46 43 47 46 48 59 49 77 50 44 51 45 52 58 54 78 55 47 56
REMARK SMILES IDX 32 57 33 58 41 59 34 60 40 61 35 62 36 63 37 64 38 65 39 66
REMARK SMILES IDX 62 67 63 68 71 69 64 70 70 71 65 72 66 73 67 74 68 75 69 76
REMARK SMILES IDX 48 77 49 78 57 79 50 80 56 81 51 82 52 83 53 84 54 85 55 86
REMARK H PARENT 13 7 20 23 76 42 46 53
REMARK Flexibility Score: inf
ROOT
ATOM      1  C   UNL A   1      31.443  27.926  26.099  1.00  0.00     0.002 C 
ENDROOT
BRANCH   1   2
ATOM      2  C   UNL A   1      31.267  26.408  26.084  1.00  0.00     0.021 C 
BRANCH   2   3
ATOM      3  C   UNL A   1      32.554  25.650  26.432  1.00  0.00     0.116 C 
BRANCH   3   4
ATOM      4  N   UNL A   1      32.267  24.251  26.604  1.00  0.00    -0.352 N 
ATOM      5  C   UNL A   1      32.840  23.092  26.168  1.00  0.00     0.252 C 
ATOM      6  O   UNL A   1      32.199  22.075  26.468  1.00  0.00    -0.269 OA
ATOM      7  H   UNL A   1      31.473  24.093  27.166  1.00  0.00     0.163 HD
BRANCH   5   8
ATOM      8  C   UNL A   1      34.168  22.905  25.481  1.00  0.00     0.053 A 
ATOM      9  C   UNL A   1      34.673  23.409  24.262  1.00  0.00     0.020 A 
ATOM     10  C   UNL A   1      35.925  22.937  23.794  1.00  0.00     0.016 A 
ATOM     11  C   UNL A   1      36.671  21.988  24.491  1.00  0.00     0.001 A 
ATOM     12  C   UNL A   1      34.967  21.954  26.173  1.00  0.00     0.015 A 
ATOM     13  C   UNL A   1      36.189  21.491  25.686  1.00  0.00     0.001 A 
BRANCH   9  14
ATOM     14  S   UNL A   1      33.805  24.431  23.076  1.00  0.00    -0.121 SA
BRANCH  14  15
ATOM     15  C   UNL A   1      33.038  23.216  21.932  1.00  0.00     0.101 C 
BRANCH  15  16
ATOM     16  C   UNL A   1      32.066  22.285  22.597  1.00  0.00    -0.024 C 
ATOM     17  C   UNL A   1      32.316  21.000  22.882  1.00  0.00     0.005 C 
ENDBRANCH  15  16
ENDBRANCH  14  15
ENDBRANCH   9  14
ENDBRANCH   5   8
ENDBRANCH   3   4
ENDBRANCH   2   3
ENDBRANCH   1   2
BRANCH   1  18
ATOM     18  C   UNL A   1      31.963  28.497  24.776  1.00  0.00     0.002 C 
BRANCH  18  19
ATOM     19  C   UNL A   1      33.475  28.744  24.725  1.00  0.00     0.021 C 
BRANCH  19  20
ATOM     20  C   UNL A   1      34.146  28.822  26.094  1.00  0.00     0.116 C 
BRANCH  20  21
ATOM     21  N   UNL A   1      33.914  30.114  26.724  1.00  0.00    -0.352 N 
ATOM     22  C   UNL A   1      34.607  30.714  27.741  1.00  0.00     0.251 C 
ATOM     23  H   UNL A   1      33.152  30.628  26.370  1.00  0.00     0.163 HD
ATOM     24  O   UNL A   1      34.115  31.667  28.348  1.00  0.00    -0.269 OA
BRANCH  22  25
ATOM     25  C   UNL A   1      35.947  30.214  28.105  1.00  0.00     0.039 A 
ATOM     26  C   UNL A   1      36.980  30.269  27.167  1.00  0.00     0.014 A 
ATOM     27  C   UNL A   1      36.174  29.681  29.378  1.00  0.00     0.014 A 
ATOM     28  C   UNL A   1      38.258  29.837  27.525  1.00  0.00     0.010 A 
ATOM     29  C   UNL A   1      37.461  29.320  29.755  1.00  0.00     0.010 A 
ATOM     30  C   UNL A   1      38.515  29.387  28.831  1.00  0.00    -0.014 A 
BRANCH  30  31
ATOM     31  C   UNL A   1      39.874  28.973  29.258  1.00  0.00     0.031 A 
ATOM     32  C   UNL A   1      40.766  29.951  29.973  1.00  0.00     0.074 A 
ATOM     33  C   UNL A   1      40.333  27.748  28.931  1.00  0.00     0.049 A 
ATOM     34  N   UNL A   1      42.015  29.817  30.334  1.00  0.00    -0.248 NA
ATOM     35  C   UNL A   1      40.183  31.264  30.300  1.00  0.00     0.031 C 
ATOM     36  C   UNL A   1      39.573  26.722  28.214  1.00  0.00     0.029 A 
ATOM     37  N   UNL A   1      41.555  27.163  29.149  1.00  0.00    -0.354 N 
ATOM     38  C   UNL A   1      42.373  31.029  30.913  1.00  0.00     0.074 A 
ATOM     39  C   UNL A   1      41.227  31.904  30.809  1.00  0.00     0.031 C 
ATOM     40  C   UNL A   1      40.337  25.628  28.070  1.00  0.00     0.029 A 
ATOM     41  C   UNL A   1      41.656  25.890  28.639  1.00  0.00     0.049 A 
ATOM     42  H   UNL A   1      42.290  27.613  29.626  1.00  0.00     0.167 HD
ATOM     43  C   UNL A   1      43.546  31.376  31.494  1.00  0.00     0.031 A 
ATOM     44  C   UNL A   1      42.696  25.035  28.619  1.00  0.00     0.031 A 
ATOM     45  C   UNL A   1      44.681  30.498  31.599  1.00  0.00     0.049 A 
ATOM     46  C   UNL A   1      43.999  25.452  29.245  1.00  0.00     0.074 A 
ATOM     47  C   UNL A   1      45.898  30.735  32.213  1.00  0.00     0.029 A 
ATOM     48  N   UNL A   1      44.739  29.214  31.077  1.00  0.00    -0.354 N 
ATOM     49  N   UNL A   1      44.301  26.583  29.838  1.00  0.00    -0.248 NA
ATOM     50  C   UNL A   1      45.099  24.478  29.207  1.00  0.00     0.031 C 
ATOM     51  C   UNL A   1      46.712  29.617  32.012  1.00  0.00     0.029 A 
ATOM     52  C   UNL A   1      45.981  28.657  31.332  1.00  0.00     0.049 A 
ATOM     53  H   UNL A   1      44.006  28.766  30.596  1.00  0.00     0.167 HD
ATOM     54  C   UNL A   1      45.615  26.443  30.273  1.00  0.00     0.074 A 
ATOM     55  C   UNL A   1      46.046  25.116  29.882  1.00  0.00     0.031 C 
ATOM     56  C   UNL A   1      46.391  27.332  30.941  1.00  0.00     0.031 A 
BRANCH  43  57
ATOM     57  C   UNL A   1      43.664  32.771  32.050  1.00  0.00    -0.014 A 
ATOM     58  C   UNL A   1      43.405  33.038  33.407  1.00  0.00     0.010 A 
ATOM     59  C   UNL A   1      44.076  33.826  31.214  1.00  0.00     0.010 A 
ATOM     60  C   UNL A   1      43.512  34.339  33.906  1.00  0.00     0.020 A 
ATOM     61  C   UNL A   1      44.215  35.123  31.717  1.00  0.00     0.020 A 
ATOM     62  C   UNL A   1      43.914  35.374  33.057  1.00  0.00     0.054 A 
BRANCH  62  63
ATOM     63  S   UNL A   1      44.063  37.048  33.738  1.00  0.00     0.124 S 
ATOM     64  O   UNL A   1      42.792  37.202  34.439  1.00  0.00    -0.237 OA
ATOM     65  O   UNL A   1      45.242  36.942  34.593  1.00  0.00    -0.237 OA
ATOM     66  O   UNL A   1      44.227  37.891  32.556  1.00  0.00    -0.744 OA
ENDBRANCH  62  63
ENDBRANCH  43  57
BRANCH  44  67
ATOM     67  C   UNL A   1      42.544  23.694  27.989  1.00  0.00    -0.014 A 
ATOM     68  C   UNL A   1      41.917  22.645  28.685  1.00  0.00     0.010 A 
ATOM     69  C   UNL A   1      43.009  23.464  26.681  1.00  0.00     0.010 A 
ATOM     70  C   UNL A   1      41.774  21.387  28.093  1.00  0.00     0.020 A 
ATOM     71  C   UNL A   1      42.841  22.216  26.075  1.00  0.00     0.020 A 
ATOM     72  C   UNL A   1      42.235  21.181  26.789  1.00  0.00     0.054 A 
BRANCH  72  73
ATOM     73  S   UNL A   1      41.993  19.554  26.022  1.00  0.00     0.124 S 
ATOM     74  O   UNL A   1      42.460  18.653  27.070  1.00  0.00    -0.237 OA
ATOM     75  O   UNL A   1      40.555  19.538  25.767  1.00  0.00    -0.237 OA
ATOM     76  O   UNL A   1      42.829  19.614  24.826  1.00  0.00    -0.744 OA
ENDBRANCH  72  73
ENDBRANCH  44  67
BRANCH  56  77
ATOM     77  C   UNL A   1      47.776  26.893  31.334  1.00  0.00    -0.014 A 
ATOM     78  C   UNL A   1      48.896  27.209  30.545  1.00  0.00     0.010 A 
ATOM     79  C   UNL A   1      47.967  26.228  32.560  1.00  0.00     0.010 A 
ATOM     80  C   UNL A   1      50.179  26.853  30.967  1.00  0.00     0.020 A 
ATOM     81  C   UNL A   1      49.250  25.896  32.999  1.00  0.00     0.020 A 
ATOM     82  C   UNL A   1      50.349  26.204  32.195  1.00  0.00     0.054 A 
BRANCH  82  83
ATOM     83  S   UNL A   1      52.031  25.820  32.753  1.00  0.00     0.124 S 
ATOM     84  O   UNL A   1      52.526  27.134  33.155  1.00  0.00    -0.237 OA
ATOM     85  O   UNL A   1      51.798  24.874  33.841  1.00  0.00    -0.237 OA
ATOM     86  O   UNL A   1      52.669  25.252  31.566  1.00  0.00    -0.744 OA
ENDBRANCH  82  83
ENDBRANCH  56  77
ENDBRANCH  30  31
ENDBRANCH  22  25
ENDBRANCH  20  21
ENDBRANCH  19  20
ENDBRANCH  18  19
ENDBRANCH   1  18
TORSDOF 19
ENDMDL
MODEL 2
REMARK VINA RESULT:      -9.0      3.904      9.613
REMARK SMILES C=CCSc1ccccc1C(=O)NCCCCCCNC(=O)c1ccc(-c2c3nc(c(-c4ccc(S(=O)(=O)[O-])cc4)c4ccc([nH]4)c(-c4ccc(S(=O)(=O)[O-])cc4)c4nc(c(-c5ccc(S(=O)(=O)[O-])cc5)c5ccc2[nH]5)C=C4)C=C3)cc1
REMARK SMILES IDX 16 1 15 2 14 3 13 4 11 5 12 6 10 8 5 9 6 10 7 11 9 12 8 13
REMARK SMILES IDX 4 14 3 15 2 16 1 17 17 18 18 19 19 20 20 21 21 22 22 24
REMARK SMILES IDX 23 25 24 26 82 27 25 28 81 29 26 30 27 31 28 32 75 33 29 34
REMARK SMILES IDX 80 35 74 36 76 37 30 38 79 39 73 40 72 41 31 43 61 44 42 45
REMARK SMILES IDX 60 46 43 47 46 48 59 49 77 50 44 51 45 52 58 54 78 55 47 56
REMARK SMILES IDX 32 57 33 58 41 59 34 60 40 61 35 62 36 63 37 64 38 65 39 66
REMARK SMILES IDX 62 67 63 68 71 69 64 70 70 71 65 72 66 73 67 74 68 75 69 76
REMARK SMILES IDX 48 77 49 78 57 79 50 80 56 81 51 82 52 83 53 84 54 85 55 86
REMARK H PARENT 13 7 20 23 76 42 46 53
REMARK Flexibility Score: inf
ROOT
ATOM      1  C   UNL A   1      34.059  29.841  27.766  1.00  0.00     0.002 C 
ENDROOT
BRANCH   1   2
ATOM      2  C   UNL A   1      34.377  29.400  26.338  1.00  0.00     0.021 C 
BRANCH   2   3
ATOM      3  C   UNL A   1      33.195  29.577  25.377  1.00  0.00     0.116 C 
BRANCH   3   4
ATOM      4  N   UNL A   1      33.639  29.404  24.019  1.00  0.00    -0.352 N 
ATOM      5  C   UNL A   1      33.422  28.468  23.050  1.00  0.00     0.252 C 
ATOM      6  O   UNL A   1      34.096  28.647  22.026  1.00  0.00    -0.269 OA
ATOM      7  H   UNL A   1      34.236  30.128  23.721  1.00  0.00     0.163 HD
BRANCH   5   8
ATOM      8  C   UNL A   1      32.417  27.346  23.040  1.00  0.00     0.053 A 
ATOM      9  C   UNL A   1      31.013  27.342  23.196  1.00  0.00     0.020 A 
ATOM     10  C   UNL A   1      30.340  26.098  23.288  1.00  0.00     0.016 A 
ATOM     11  C   UNL A   1      31.015  24.880  23.239  1.00  0.00     0.001 A 
ATOM     12  C   UNL A   1      33.068  26.083  22.974  1.00  0.00     0.015 A 
ATOM     13  C   UNL A   1      32.387  24.871  23.084  1.00  0.00     0.001 A 
BRANCH   9  14
ATOM     14  S   UNL A   1      29.962  28.751  23.531  1.00  0.00    -0.121 SA
BRANCH  14  15
ATOM     15  C   UNL A   1      30.048  29.739  21.986  1.00  0.00     0.101 C 
BRANCH  15  16
ATOM     16  C   UNL A   1      28.738  30.349  21.581  1.00  0.00    -0.024 C 
ATOM     17  C   UNL A   1      28.483  31.665  21.565  1.00  0.00     0.005 C 
ENDBRANCH  15  16
ENDBRANCH  14  15
ENDBRANCH   9  14
ENDBRANCH   5   8
ENDBRANCH   3   4
ENDBRANCH   2   3
ENDBRANCH   1   2
BRANCH   1  18
ATOM     18  C   UNL A   1      34.186  31.353  27.984  1.00  0.00     0.002 C 
BRANCH  18  19
ATOM     19  C   UNL A   1      35.601  31.917  27.817  1.00  0.00     0.021 C 
BRANCH  19  20
ATOM     20  C   UNL A   1      36.253  32.374  29.119  1.00  0.00     0.116 C 
BRANCH  20  21
ATOM     21  N   UNL A   1      35.983  31.439  30.203  1.00  0.00    -0.352 N 
ATOM     22  C   UNL A   1      36.670  30.309  30.557  1.00  0.00     0.251 C 
ATOM     23  H   UNL A   1      35.197  31.648  30.758  1.00  0.00     0.163 HD
ATOM     24  O   UNL A   1      36.151  29.479  31.307  1.00  0.00    -0.269 OA
BRANCH  22  25
ATOM     25  C   UNL A   1      38.033  30.089  30.035  1.00  0.00     0.039 A 
ATOM     26  C   UNL A   1      39.122  30.171  30.905  1.00  0.00     0.014 A 
ATOM     27  C   UNL A   1      38.228  29.812  28.679  1.00  0.00     0.014 A 
ATOM     28  C   UNL A   1      40.408  29.920  30.421  1.00  0.00     0.010 A 
ATOM     29  C   UNL A   1      39.498  29.492  28.217  1.00  0.00     0.010 A 
ATOM     30  C   UNL A   1      40.603  29.549  29.081  1.00  0.00    -0.014 A 
BRANCH  30  31
ATOM     31  C   UNL A   1      41.949  29.223  28.551  1.00  0.00     0.031 A 
ATOM     32  C   UNL A   1      42.263  27.818  28.114  1.00  0.00     0.074 A 
ATOM     33  C   UNL A   1      42.910  30.169  28.539  1.00  0.00     0.049 A 
ATOM     34  N   UNL A   1      43.402  27.311  27.722  1.00  0.00    -0.248 NA
ATOM     35  C   UNL A   1      41.154  26.849  28.149  1.00  0.00     0.031 C 
ATOM     36  C   UNL A   1      42.734  31.560  28.964  1.00  0.00     0.029 A 
ATOM     37  N   UNL A   1      44.228  30.101  28.166  1.00  0.00    -0.354 N 
ATOM     38  C   UNL A   1      43.154  25.965  27.482  1.00  0.00     0.074 A 
ATOM     39  C   UNL A   1      41.770  25.722  27.821  1.00  0.00     0.031 C 
ATOM     40  C   UNL A   1      43.894  32.217  28.808  1.00  0.00     0.029 A 
ATOM     41  C   UNL A   1      44.908  31.286  28.320  1.00  0.00     0.049 A 
ATOM     42  H   UNL A   1      44.648  29.280  27.820  1.00  0.00     0.167 HD
ATOM     43  C   UNL A   1      43.999  25.019  27.006  1.00  0.00     0.031 A 
ATOM     44  C   UNL A   1      46.203  31.587  28.107  1.00  0.00     0.031 A 
ATOM     45  C   UNL A   1      45.375  25.270  26.665  1.00  0.00     0.049 A 
ATOM     46  C   UNL A   1      47.130  30.514  27.605  1.00  0.00     0.074 A 
ATOM     47  C   UNL A   1      46.300  24.394  26.128  1.00  0.00     0.029 A 
ATOM     48  N   UNL A   1      46.021  26.487  26.829  1.00  0.00    -0.354 N 
ATOM     49  N   UNL A   1      46.864  29.259  27.330  1.00  0.00    -0.248 NA
ATOM     50  C   UNL A   1      48.531  30.898  27.377  1.00  0.00     0.031 C 
ATOM     51  C   UNL A   1      47.523  25.064  26.021  1.00  0.00     0.029 A 
ATOM     52  C   UNL A   1      47.341  26.377  26.428  1.00  0.00     0.049 A 
ATOM     53  H   UNL A   1      45.602  27.306  27.178  1.00  0.00     0.167 HD
ATOM     54  C   UNL A   1      48.055  28.713  26.865  1.00  0.00     0.074 A 
ATOM     55  C   UNL A   1      49.040  29.774  26.889  1.00  0.00     0.031 C 
ATOM     56  C   UNL A   1      48.308  27.446  26.451  1.00  0.00     0.031 A 
BRANCH  43  57
ATOM     57  C   UNL A   1      43.461  23.622  26.838  1.00  0.00    -0.014 A 
ATOM     58  C   UNL A   1      43.045  23.149  25.580  1.00  0.00     0.010 A 
ATOM     59  C   UNL A   1      43.405  22.756  27.946  1.00  0.00     0.010 A 
ATOM     60  C   UNL A   1      42.541  21.853  25.441  1.00  0.00     0.020 A 
ATOM     61  C   UNL A   1      42.932  21.448  27.805  1.00  0.00     0.020 A 
ATOM     62  C   UNL A   1      42.486  21.011  26.556  1.00  0.00     0.054 A 
BRANCH  62  63
ATOM     63  S   UNL A   1      41.846  19.328  26.342  1.00  0.00     0.124 S 
ATOM     64  O   UNL A   1      42.721  18.804  25.297  1.00  0.00    -0.237 OA
ATOM     65  O   UNL A   1      42.034  18.744  27.667  1.00  0.00    -0.237 OA
ATOM     66  O   UNL A   1      40.455  19.532  25.945  1.00  0.00    -0.744 OA
ENDBRANCH  62  63
ENDBRANCH  43  57
BRANCH  44  67
ATOM     67  C   UNL A   1      46.696  32.969  28.361  1.00  0.00    -0.014 A 
ATOM     68  C   UNL A   1      46.742  33.913  27.320  1.00  0.00     0.010 A 
ATOM     69  C   UNL A   1      47.106  33.354  29.651  1.00  0.00     0.010 A 
ATOM     70  C   UNL A   1      47.205  35.211  27.559  1.00  0.00     0.020 A 
ATOM     71  C   UNL A   1      47.541  34.659  29.900  1.00  0.00     0.020 A 
ATOM     72  C   UNL A   1      47.599  35.576  28.850  1.00  0.00     0.054 A 
BRANCH  72  73
ATOM     73  S   UNL A   1      48.148  37.280  29.147  1.00  0.00     0.124 S 
ATOM     74  O   UNL A   1      46.989  38.052  28.712  1.00  0.00    -0.237 OA
ATOM     75  O   UNL A   1      48.407  37.280  30.585  1.00  0.00    -0.237 OA
ATOM     76  O   UNL A   1      49.337  37.406  28.308  1.00  0.00    -0.744 OA
ENDBRANCH  72  73
ENDBRANCH  44  67
BRANCH  56  77
ATOM     77  C   UNL A   1      49.692  27.139  25.947  1.00  0.00    -0.014 A 
ATOM     78  C   UNL A   1      50.651  26.523  26.770  1.00  0.00     0.010 A 
ATOM     79  C   UNL A   1      50.007  27.392  24.599  1.00  0.00     0.010 A 
ATOM     80  C   UNL A   1      51.906  26.183  26.258  1.00  0.00     0.020 A 
ATOM     81  C   UNL A   1      51.249  27.027  24.076  1.00  0.00     0.020 A 
ATOM     82  C   UNL A   1      52.194  26.430  24.912  1.00  0.00     0.054 A 
BRANCH  82  83
ATOM     83  S   UNL A   1      53.803  25.911  24.256  1.00  0.00     0.124 S 
ATOM     84  O   UNL A   1      53.898  24.535  24.736  1.00  0.00    -0.237 OA
ATOM     85  O   UNL A   1      53.624  26.063  22.814  1.00  0.00    -0.237 OA
ATOM     86  O   UNL A   1      54.745  26.848  24.864  1.00  0.00    -0.744 OA
ENDBRANCH  82  83
ENDBRANCH  56  77
ENDBRANCH  30  31
ENDBRANCH  22  25
ENDBRANCH  20  21
ENDBRANCH  19  20
ENDBRANCH  18  19
ENDBRANCH   1  18
TORSDOF 19
ENDMDL
MODEL 3
REMARK VINA RESULT:      -8.9      3.906      9.635
REMARK SMILES C=CCSc1ccccc1C(=O)NCCCCCCNC(=O)c1ccc(-c2c3nc(c(-c4ccc(S(=O)(=O)[O-])cc4)c4ccc([nH]4)c(-c4ccc(S(=O)(=O)[O-])cc4)c4nc(c(-c5ccc(S(=O)(=O)[O-])cc5)c5ccc2[nH]5)C=C4)C=C3)cc1
REMARK SMILES IDX 16 1 15 2 14 3 13 4 11 5 12 6 10 8 5 9 6 10 7 11 9 12 8 13
REMARK SMILES IDX 4 14 3 15 2 16 1 17 17 18 18 19 19 20 20 21 21 22 22 24
REMARK SMILES IDX 23 25 24 26 82 27 25 28 81 29 26 30 27 31 28 32 75 33 29 34
REMARK SMILES IDX 80 35 74 36 76 37 30 38 79 39 73 40 72 41 31 43 61 44 42 45
REMARK SMILES IDX 60 46 43 47 46 48 59 49 77 50 44 51 45 52 58 54 78 55 47 56
REMARK SMILES IDX 32 57 33 58 41 59 34 60 40 61 35 62 36 63 37 64 38 65 39 66
REMARK SMILES IDX 62 67 63 68 71 69 64 70 70 71 65 72 66 73 67 74 68 75 69 76
REMARK SMILES IDX 48 77 49 78 57 79 50 80 56 81 51 82 52 83 53 84 54 85 55 86
REMARK H PARENT 13 7 20 23 76 42 46 53
REMARK Flexibility Score: inf
ROOT
ATOM      1  C   UNL A   1      33.753  30.204  27.763  1.00  0.00     0.002 C 
ENDROOT
BRANCH   1   2
ATOM      2  C   UNL A   1      33.803  29.595  26.363  1.00  0.00     0.021 C 
BRANCH   2   3
ATOM      3  C   UNL A   1      32.584  29.958  25.506  1.00  0.00     0.116 C 
BRANCH   3   4
ATOM      4  N   UNL A   1      32.732  29.406  24.185  1.00  0.00    -0.352 N 
ATOM      5  C   UNL A   1      31.916  28.718  23.335  1.00  0.00     0.252 C 
ATOM      6  O   UNL A   1      32.485  28.326  22.306  1.00  0.00    -0.269 OA
ATOM      7  H   UNL A   1      33.629  29.560  23.809  1.00  0.00     0.163 HD
BRANCH   5   8
ATOM      8  C   UNL A   1      30.433  28.479  23.449  1.00  0.00     0.053 A 
ATOM      9  C   UNL A   1      29.690  27.313  23.738  1.00  0.00     0.020 A 
ATOM     10  C   UNL A   1      28.277  27.359  23.631  1.00  0.00     0.016 A 
ATOM     11  C   UNL A   1      27.597  28.513  23.245  1.00  0.00     0.001 A 
ATOM     12  C   UNL A   1      29.703  29.641  23.077  1.00  0.00     0.015 A 
ATOM     13  C   UNL A   1      28.313  29.660  22.963  1.00  0.00     0.001 A 
BRANCH   9  14
ATOM     14  S   UNL A   1      30.333  25.665  24.009  1.00  0.00    -0.121 SA
BRANCH  14  15
ATOM     15  C   UNL A   1      30.424  25.526  25.837  1.00  0.00     0.101 C 
BRANCH  15  16
ATOM     16  C   UNL A   1      31.826  25.491  26.374  1.00  0.00    -0.024 C 
ATOM     17  C   UNL A   1      32.875  26.101  25.806  1.00  0.00     0.005 C 
ENDBRANCH  15  16
ENDBRANCH  14  15
ENDBRANCH   9  14
ENDBRANCH   5   8
ENDBRANCH   3   4
ENDBRANCH   2   3
ENDBRANCH   1   2
BRANCH   1  18
ATOM     18  C   UNL A   1      34.256  31.651  27.821  1.00  0.00     0.002 C 
BRANCH  18  19
ATOM     19  C   UNL A   1      35.781  31.807  27.854  1.00  0.00     0.021 C 
BRANCH  19  20
ATOM     20  C   UNL A   1      36.322  32.426  29.139  1.00  0.00     0.116 C 
BRANCH  20  21
ATOM     21  N   UNL A   1      36.076  31.564  30.287  1.00  0.00    -0.352 N 
ATOM     22  C   UNL A   1      36.768  30.455  30.697  1.00  0.00     0.251 C 
ATOM     23  H   UNL A   1      35.303  31.811  30.845  1.00  0.00     0.163 HD
ATOM     24  O   UNL A   1      36.265  29.678  31.510  1.00  0.00    -0.269 OA
BRANCH  22  25
ATOM     25  C   UNL A   1      38.117  30.198  30.159  1.00  0.00     0.039 A 
ATOM     26  C   UNL A   1      39.213  30.200  31.025  1.00  0.00     0.014 A 
ATOM     27  C   UNL A   1      38.295  29.963  28.792  1.00  0.00     0.014 A 
ATOM     28  C   UNL A   1      40.485  29.913  30.524  1.00  0.00     0.010 A 
ATOM     29  C   UNL A   1      39.548  29.607  28.311  1.00  0.00     0.010 A 
ATOM     30  C   UNL A   1      40.657  29.584  29.169  1.00  0.00    -0.014 A 
BRANCH  30  31
ATOM     31  C   UNL A   1      41.986  29.222  28.619  1.00  0.00     0.031 A 
ATOM     32  C   UNL A   1      42.254  27.808  28.179  1.00  0.00     0.074 A 
ATOM     33  C   UNL A   1      42.972  30.140  28.593  1.00  0.00     0.049 A 
ATOM     34  N   UNL A   1      43.374  27.270  27.770  1.00  0.00    -0.248 NA
ATOM     35  C   UNL A   1      41.120  26.870  28.232  1.00  0.00     0.031 C 
ATOM     36  C   UNL A   1      42.842  31.535  29.019  1.00  0.00     0.029 A 
ATOM     37  N   UNL A   1      44.282  30.036  28.200  1.00  0.00    -0.354 N 
ATOM     38  C   UNL A   1      43.085  25.931  27.535  1.00  0.00     0.074 A 
ATOM     39  C   UNL A   1      41.699  25.726  27.895  1.00  0.00     0.031 C 
ATOM     40  C   UNL A   1      44.017  32.160  28.846  1.00  0.00     0.029 A 
ATOM     41  C   UNL A   1      44.997  31.202  28.343  1.00  0.00     0.049 A 
ATOM     42  H   UNL A   1      44.675  29.203  27.848  1.00  0.00     0.167 HD
ATOM     43  C   UNL A   1      43.896  24.962  27.047  1.00  0.00     0.031 A 
ATOM     44  C   UNL A   1      46.297  31.467  28.110  1.00  0.00     0.031 A 
ATOM     45  C   UNL A   1      45.273  25.175  26.685  1.00  0.00     0.049 A 
ATOM     46  C   UNL A   1      47.187  30.369  27.595  1.00  0.00     0.074 A 
ATOM     47  C   UNL A   1      46.166  24.274  26.135  1.00  0.00     0.029 A 
ATOM     48  N   UNL A   1      45.955  26.374  26.838  1.00  0.00    -0.354 N 
ATOM     49  N   UNL A   1      46.882  29.122  27.325  1.00  0.00    -0.248 NA
ATOM     50  C   UNL A   1      48.593  30.713  27.346  1.00  0.00     0.031 C 
ATOM     51  C   UNL A   1      47.404  24.910  26.009  1.00  0.00     0.029 A 
ATOM     52  C   UNL A   1      47.266  26.227  26.417  1.00  0.00     0.049 A 
ATOM     53  H   UNL A   1      45.564  27.204  27.194  1.00  0.00     0.167 HD
ATOM     54  C   UNL A   1      48.050  28.542  26.843  1.00  0.00     0.074 A 
ATOM     55  C   UNL A   1      49.064  29.576  26.851  1.00  0.00     0.031 C 
ATOM     56  C   UNL A   1      48.261  27.269  26.426  1.00  0.00     0.031 A 
BRANCH  43  57
ATOM     57  C   UNL A   1      43.317  23.581  26.888  1.00  0.00    -0.014 A 
ATOM     58  C   UNL A   1      42.769  23.158  25.663  1.00  0.00     0.010 A 
ATOM     59  C   UNL A   1      43.355  22.677  27.966  1.00  0.00     0.010 A 
ATOM     60  C   UNL A   1      42.229  21.875  25.533  1.00  0.00     0.020 A 
ATOM     61  C   UNL A   1      42.845  21.383  27.831  1.00  0.00     0.020 A 
ATOM     62  C   UNL A   1      42.269  20.997  26.619  1.00  0.00     0.054 A 
BRANCH  62  63
ATOM     63  S   UNL A   1      41.579  19.332  26.416  1.00  0.00     0.124 S 
ATOM     64  O   UNL A   1      42.575  18.696  25.557  1.00  0.00    -0.237 OA
ATOM     65  O   UNL A   1      41.528  18.837  27.789  1.00  0.00    -0.237 OA
ATOM     66  O   UNL A   1      40.280  19.568  25.791  1.00  0.00    -0.744 OA
ENDBRANCH  62  63
ENDBRANCH  43  57
BRANCH  44  67
ATOM     67  C   UNL A   1      46.831  32.835  28.356  1.00  0.00    -0.014 A 
ATOM     68  C   UNL A   1      47.385  33.171  29.605  1.00  0.00     0.010 A 
ATOM     69  C   UNL A   1      46.806  33.804  27.337  1.00  0.00     0.010 A 
ATOM     70  C   UNL A   1      47.887  34.456  29.835  1.00  0.00     0.020 A 
ATOM     71  C   UNL A   1      47.334  35.080  27.555  1.00  0.00     0.020 A 
ATOM     72  C   UNL A   1      47.860  35.402  28.806  1.00  0.00     0.054 A 
BRANCH  72  73
ATOM     73  S   UNL A   1      48.563  37.046  29.112  1.00  0.00     0.124 S 
ATOM     74  O   UNL A   1      47.921  37.848  28.076  1.00  0.00    -0.237 OA
ATOM     75  O   UNL A   1      48.136  37.321  30.482  1.00  0.00    -0.237 OA
ATOM     76  O   UNL A   1      50.000  36.839  28.946  1.00  0.00    -0.744 OA
ENDBRANCH  72  73
ENDBRANCH  44  67
BRANCH  56  77
ATOM     77  C   UNL A   1      49.629  26.923  25.902  1.00  0.00    -0.014 A 
ATOM     78  C   UNL A   1      49.974  27.142  24.557  1.00  0.00     0.010 A 
ATOM     79  C   UNL A   1      50.611  26.453  26.794  1.00  0.00     0.010 A 
ATOM     80  C   UNL A   1      51.272  26.880  24.110  1.00  0.00     0.020 A 
ATOM     81  C   UNL A   1      51.917  26.219  26.359  1.00  0.00     0.020 A 
ATOM     82  C   UNL A   1      52.237  26.427  25.015  1.00  0.00     0.054 A 
BRANCH  82  83
ATOM     83  S   UNL A   1      53.932  26.167  24.425  1.00  0.00     0.124 S 
ATOM     84  O   UNL A   1      54.671  27.189  25.160  1.00  0.00    -0.237 OA
ATOM     85  O   UNL A   1      54.201  24.787  24.823  1.00  0.00    -0.237 OA
ATOM     86  O   UNL A   1      53.834  26.386  22.983  1.00  0.00    -0.744 OA
ENDBRANCH  82  83
ENDBRANCH  56  77
ENDBRANCH  30  31
ENDBRANCH  22  25
ENDBRANCH  20  21
ENDBRANCH  19  20
ENDBRANCH  18  19
ENDBRANCH   1  18
TORSDOF 19
ENDMDL
