MODEL 1
REMARK VINA RESULT:     -11.2      0.000      0.000
REMARK SMILES CNC(=O)c1cccc(-c2cnc(O)c(C(=O)NCCCCCCNC(=O)c3ccc(-c4c5nc(c(-c6ccc(S(=O)(=O)[O-])cc6)c6ccc([nH]6)c(-c6ccc(S(=O)(=O)[O-])cc6)c6nc(c(-c7ccc(S(=O)(=O)[O-])cc7)c7ccc4[nH]7)C=C6)C=C5)cc3)c2)c1
REMARK SMILES IDX 22 1 21 2 20 3 19 4 18 5 16 6 17 7 15 9 10 10 11 11 88 12
REMARK SMILES IDX 12 13 13 14 9 15 5 16 6 17 89 18 7 19 8 20 3 21 1 22 2 23
REMARK SMILES IDX 4 25 14 26 23 28 24 29 25 30 26 31 27 33 28 34 29 35 87 36
REMARK SMILES IDX 30 37 86 38 31 39 32 40 33 41 80 42 34 43 85 44 79 45 81 46
REMARK SMILES IDX 35 47 84 48 78 49 77 50 36 52 66 53 47 54 65 55 48 56 51 57
REMARK SMILES IDX 64 58 82 59 49 60 50 61 63 63 83 64 52 65 37 66 38 67 46 68
REMARK SMILES IDX 39 69 45 70 40 71 41 72 42 73 43 74 44 75 67 76 68 77 76 78
REMARK SMILES IDX 69 79 75 80 70 81 71 82 72 83 73 84 74 85 53 86 54 87 62 88
REMARK SMILES IDX 55 89 61 90 56 91 57 92 58 93 59 94 60 95
REMARK H PARENT 18 8 2 24 14 27 25 32 81 51 51 62
REMARK Flexibility Score: inf
ROOT
ATOM      1  C   UNL A   1      31.423  27.538  26.032  1.00  0.00     0.002 C 
ENDROOT
BRANCH   1   2
ATOM      2  C   UNL A   1      30.782  26.802  24.849  1.00  0.00     0.002 C 
BRANCH   2   3
ATOM      3  C   UNL A   1      30.001  27.698  23.879  1.00  0.00     0.021 C 
BRANCH   3   4
ATOM      4  C   UNL A   1      30.513  27.624  22.438  1.00  0.00     0.116 C 
BRANCH   4   5
ATOM      5  N   UNL A   1      31.850  28.191  22.343  1.00  0.00    -0.352 N 
ATOM      6  C   UNL A   1      33.093  27.626  22.213  1.00  0.00     0.256 C 
ATOM      7  O   UNL A   1      34.062  28.377  22.079  1.00  0.00    -0.269 OA
ATOM      8  H   UNL A   1      31.866  29.175  22.378  1.00  0.00     0.163 HD
BRANCH   6   9
ATOM      9  C   UNL A   1      33.339  26.166  22.152  1.00  0.00     0.102 A 
ATOM     10  C   UNL A   1      34.025  24.043  23.116  1.00  0.00     0.001 A 
ATOM     11  C   UNL A   1      33.556  23.434  21.959  1.00  0.00     0.124 A 
ATOM     12  C   UNL A   1      33.967  25.442  23.163  1.00  0.00     0.029 A 
ATOM     13  N   UNL A   1      33.029  24.105  20.909  1.00  0.00    -0.221 NA
ATOM     14  C   UNL A   1      32.922  25.447  21.029  1.00  0.00     0.223 A 
BRANCH  10  15
ATOM     15  C   UNL A   1      34.473  23.286  24.287  1.00  0.00    -0.016 A 
ATOM     16  C   UNL A   1      35.549  21.294  25.194  1.00  0.00     0.040 A 
ATOM     17  C   UNL A   1      35.252  21.721  26.491  1.00  0.00     0.014 A 
ATOM     18  C   UNL A   1      35.148  22.065  24.101  1.00  0.00     0.022 A 
ATOM     19  C   UNL A   1      34.597  22.937  26.690  1.00  0.00     0.001 A 
ATOM     20  C   UNL A   1      34.215  23.718  25.595  1.00  0.00     0.009 A 
BRANCH  16  21
ATOM     21  C   UNL A   1      36.168  19.965  25.004  1.00  0.00     0.251 C 
ATOM     22  C   UNL A   1      33.970  18.732  24.626  1.00  0.00     0.143 C 
ATOM     23  N   UNL A   1      35.395  18.845  24.837  1.00  0.00    -0.355 N 
ATOM     24  H   UNL A   1      35.882  17.991  24.866  1.00  0.00     0.163 HD
ATOM     25  O   UNL A   1      37.390  19.874  25.012  1.00  0.00    -0.269 OA
ENDBRANCH  16  21
ENDBRANCH  10  15
BRANCH  14  26
ATOM     26  O   UNL A   1      32.351  26.040  19.937  1.00  0.00    -0.493 OA
ATOM     27  H   UNL A   1      31.804  26.794  20.045  1.00  0.00     0.295 HD
ENDBRANCH  14  26
ENDBRANCH   6   9
ENDBRANCH   4   5
ENDBRANCH   3   4
ENDBRANCH   2   3
ENDBRANCH   1   2
BRANCH   1  28
ATOM     28  C   UNL A   1      32.935  27.757  25.929  1.00  0.00     0.021 C 
BRANCH  28  29
ATOM     29  C   UNL A   1      33.610  28.214  27.221  1.00  0.00     0.116 C 
BRANCH  29  30
ATOM     30  N   UNL A   1      33.468  29.647  27.426  1.00  0.00    -0.352 N 
ATOM     31  C   UNL A   1      34.331  30.540  28.008  1.00  0.00     0.251 C 
ATOM     32  H   UNL A   1      32.625  30.034  27.096  1.00  0.00     0.163 HD
ATOM     33  O   UNL A   1      33.936  31.670  28.280  1.00  0.00    -0.269 OA
BRANCH  31  34
ATOM     34  C   UNL A   1      35.724  30.150  28.318  1.00  0.00     0.039 A 
ATOM     35  C   UNL A   1      36.670  30.169  27.288  1.00  0.00     0.014 A 
ATOM     36  C   UNL A   1      36.095  29.719  29.596  1.00  0.00     0.014 A 
ATOM     37  C   UNL A   1      37.991  29.798  27.550  1.00  0.00     0.010 A 
ATOM     38  C   UNL A   1      37.426  29.404  29.870  1.00  0.00     0.010 A 
ATOM     39  C   UNL A   1      38.386  29.432  28.847  1.00  0.00    -0.014 A 
BRANCH  39  40
ATOM     40  C   UNL A   1      39.800  29.086  29.136  1.00  0.00     0.031 A 
ATOM     41  C   UNL A   1      40.713  30.078  29.804  1.00  0.00     0.074 A 
ATOM     42  C   UNL A   1      40.272  27.878  28.769  1.00  0.00     0.049 A 
ATOM     43  N   UNL A   1      41.963  29.935  30.163  1.00  0.00    -0.248 NA
ATOM     44  C   UNL A   1      40.155  31.410  30.089  1.00  0.00     0.031 C 
ATOM     45  C   UNL A   1      39.504  26.849  28.066  1.00  0.00     0.029 A 
ATOM     46  N   UNL A   1      41.509  27.311  28.941  1.00  0.00    -0.354 N 
ATOM     47  C   UNL A   1      42.346  31.157  30.705  1.00  0.00     0.074 A 
ATOM     48  C   UNL A   1      41.208  32.043  30.586  1.00  0.00     0.031 C 
ATOM     49  C   UNL A   1      40.276  25.763  27.896  1.00  0.00     0.029 A 
ATOM     50  C   UNL A   1      41.598  26.028  28.457  1.00  0.00     0.049 A 
ATOM     51  H   UNL A   1      42.261  27.778  29.372  1.00  0.00     0.167 HD
ATOM     52  C   UNL A   1      43.529  31.505  31.266  1.00  0.00     0.031 A 
ATOM     53  C   UNL A   1      42.624  25.156  28.470  1.00  0.00     0.031 A 
ATOM     54  C   UNL A   1      44.659  30.622  31.388  1.00  0.00     0.049 A 
ATOM     55  C   UNL A   1      43.917  25.555  29.122  1.00  0.00     0.074 A 
ATOM     56  C   UNL A   1      45.882  30.862  31.989  1.00  0.00     0.029 A 
ATOM     57  N   UNL A   1      44.705  29.325  30.897  1.00  0.00    -0.354 N 
ATOM     58  N   UNL A   1      44.235  26.693  29.693  1.00  0.00    -0.248 NA
ATOM     59  C   UNL A   1      44.982  24.544  29.151  1.00  0.00     0.031 C 
ATOM     60  C   UNL A   1      46.682  29.724  31.829  1.00  0.00     0.029 A 
ATOM     61  C   UNL A   1      45.940  28.758  31.168  1.00  0.00     0.049 A 
ATOM     62  H   UNL A   1      43.968  28.873  30.426  1.00  0.00     0.167 HD
ATOM     63  C   UNL A   1      45.533  26.528  30.163  1.00  0.00     0.074 A 
ATOM     64  C   UNL A   1      45.930  25.174  29.829  1.00  0.00     0.031 C 
ATOM     65  C   UNL A   1      46.326  27.417  30.812  1.00  0.00     0.031 A 
BRANCH  52  66
ATOM     66  C   UNL A   1      43.657  32.912  31.789  1.00  0.00    -0.014 A 
ATOM     67  C   UNL A   1      43.280  33.231  33.108  1.00  0.00     0.010 A 
ATOM     68  C   UNL A   1      44.178  33.923  30.964  1.00  0.00     0.010 A 
ATOM     69  C   UNL A   1      43.377  34.545  33.574  1.00  0.00     0.020 A 
ATOM     70  C   UNL A   1      44.300  35.235  31.435  1.00  0.00     0.020 A 
ATOM     71  C   UNL A   1      43.879  35.541  32.731  1.00  0.00     0.054 A 
BRANCH  71  72
ATOM     72  S   UNL A   1      44.001  37.237  33.362  1.00  0.00     0.124 S 
ATOM     73  O   UNL A   1      43.889  38.022  32.135  1.00  0.00    -0.237 OA
ATOM     74  O   UNL A   1      42.862  37.328  34.271  1.00  0.00    -0.237 OA
ATOM     75  O   UNL A   1      45.312  37.273  34.006  1.00  0.00    -0.744 OA
ENDBRANCH  71  72
ENDBRANCH  52  66
BRANCH  53  76
ATOM     76  C   UNL A   1      42.450  23.802  27.880  1.00  0.00    -0.014 A 
ATOM     77  C   UNL A   1      42.742  23.575  26.524  1.00  0.00     0.010 A 
ATOM     78  C   UNL A   1      42.020  22.728  28.679  1.00  0.00     0.010 A 
ATOM     79  C   UNL A   1      42.595  22.299  25.973  1.00  0.00     0.020 A 
ATOM     80  C   UNL A   1      41.895  21.446  28.137  1.00  0.00     0.020 A 
ATOM     81  C   UNL A   1      42.175  21.241  26.784  1.00  0.00     0.054 A 
BRANCH  81  82
ATOM     82  S   UNL A   1      42.057  19.578  26.068  1.00  0.00     0.124 S 
ATOM     83  O   UNL A   1      40.644  19.499  25.713  1.00  0.00    -0.237 OA
ATOM     84  O   UNL A   1      42.991  19.648  24.946  1.00  0.00    -0.237 OA
ATOM     85  O   UNL A   1      42.480  18.707  27.163  1.00  0.00    -0.744 OA
ENDBRANCH  81  82
ENDBRANCH  53  76
BRANCH  65  86
ATOM     86  C   UNL A   1      47.695  26.939  31.213  1.00  0.00    -0.014 A 
ATOM     87  C   UNL A   1      47.915  26.332  32.462  1.00  0.00     0.010 A 
ATOM     88  C   UNL A   1      48.776  27.096  30.326  1.00  0.00     0.010 A 
ATOM     89  C   UNL A   1      49.200  25.937  32.839  1.00  0.00     0.020 A 
ATOM     90  C   UNL A   1      50.058  26.679  30.689  1.00  0.00     0.020 A 
ATOM     91  C   UNL A   1      50.266  26.122  31.954  1.00  0.00     0.054 A 
BRANCH  91  92
ATOM     92  S   UNL A   1      51.929  25.601  32.458  1.00  0.00     0.124 S 
ATOM     93  O   UNL A   1      52.775  26.364  31.544  1.00  0.00    -0.237 OA
ATOM     94  O   UNL A   1      51.987  26.013  33.859  1.00  0.00    -0.237 OA
ATOM     95  O   UNL A   1      51.919  24.156  32.241  1.00  0.00    -0.744 OA
ENDBRANCH  91  92
ENDBRANCH  65  86
ENDBRANCH  39  40
ENDBRANCH  31  34
ENDBRANCH  29  30
ENDBRANCH  28  29
ENDBRANCH   1  28
TORSDOF 19
ENDMDL
MODEL 2
REMARK VINA RESULT:     -10.9      0.658      8.049
REMARK SMILES CNC(=O)c1cccc(-c2cnc(O)c(C(=O)NCCCCCCNC(=O)c3ccc(-c4c5nc(c(-c6ccc(S(=O)(=O)[O-])cc6)c6ccc([nH]6)c(-c6ccc(S(=O)(=O)[O-])cc6)c6nc(c(-c7ccc(S(=O)(=O)[O-])cc7)c7ccc4[nH]7)C=C6)C=C5)cc3)c2)c1
REMARK SMILES IDX 22 1 21 2 20 3 19 4 18 5 16 6 17 7 15 9 10 10 11 11 88 12
REMARK SMILES IDX 12 13 13 14 9 15 5 16 6 17 89 18 7 19 8 20 3 21 1 22 2 23
REMARK SMILES IDX 4 25 14 26 23 28 24 29 25 30 26 31 27 33 28 34 29 35 87 36
REMARK SMILES IDX 30 37 86 38 31 39 32 40 33 41 80 42 34 43 85 44 79 45 81 46
REMARK SMILES IDX 35 47 84 48 78 49 77 50 36 52 66 53 47 54 65 55 48 56 51 57
REMARK SMILES IDX 64 58 82 59 49 60 50 61 63 63 83 64 52 65 37 66 38 67 46 68
REMARK SMILES IDX 39 69 45 70 40 71 41 72 42 73 43 74 44 75 67 76 68 77 76 78
REMARK SMILES IDX 69 79 75 80 70 81 71 82 72 83 73 84 74 85 53 86 54 87 62 88
REMARK SMILES IDX 55 89 61 90 56 91 57 92 58 93 59 94 60 95
REMARK H PARENT 18 8 2 24 14 27 25 32 81 51 51 62
REMARK Flexibility Score: inf
ROOT
ATOM      1  C   UNL A   1      31.936  26.444  25.928  1.00  0.00     0.002 C 
ENDROOT
BRANCH   1   2
ATOM      2  C   UNL A   1      30.785  26.469  24.915  1.00  0.00     0.002 C 
BRANCH   2   3
ATOM      3  C   UNL A   1      30.554  27.824  24.234  1.00  0.00     0.021 C 
BRANCH   3   4
ATOM      4  C   UNL A   1      30.753  27.783  22.717  1.00  0.00     0.116 C 
BRANCH   4   5
ATOM      5  N   UNL A   1      32.089  28.241  22.366  1.00  0.00    -0.352 N 
ATOM      6  C   UNL A   1      33.250  27.578  22.063  1.00  0.00     0.256 C 
ATOM      7  O   UNL A   1      34.231  28.246  21.725  1.00  0.00    -0.269 OA
ATOM      8  H   UNL A   1      32.177  29.221  22.340  1.00  0.00     0.163 HD
BRANCH   6   9
ATOM      9  C   UNL A   1      33.384  26.102  22.046  1.00  0.00     0.102 A 
ATOM     10  C   UNL A   1      33.958  23.968  23.058  1.00  0.00     0.001 A 
ATOM     11  C   UNL A   1      33.386  23.356  21.949  1.00  0.00     0.124 A 
ATOM     12  C   UNL A   1      34.007  25.368  23.053  1.00  0.00     0.029 A 
ATOM     13  N   UNL A   1      32.858  24.029  20.901  1.00  0.00    -0.221 NA
ATOM     14  C   UNL A   1      32.858  25.378  20.973  1.00  0.00     0.223 A 
BRANCH  10  15
ATOM     15  C   UNL A   1      34.407  23.220  24.234  1.00  0.00    -0.016 A 
ATOM     16  C   UNL A   1      35.425  21.206  25.161  1.00  0.00     0.040 A 
ATOM     17  C   UNL A   1      35.183  21.675  26.454  1.00  0.00     0.014 A 
ATOM     18  C   UNL A   1      35.025  21.968  24.060  1.00  0.00     0.022 A 
ATOM     19  C   UNL A   1      34.585  22.923  26.641  1.00  0.00     0.001 A 
ATOM     20  C   UNL A   1      34.205  23.693  25.538  1.00  0.00     0.009 A 
BRANCH  16  21
ATOM     21  C   UNL A   1      35.983  19.848  24.987  1.00  0.00     0.251 C 
ATOM     22  C   UNL A   1      33.725  18.699  24.716  1.00  0.00     0.143 C 
ATOM     23  N   UNL A   1      35.160  18.758  24.876  1.00  0.00    -0.355 N 
ATOM     24  H   UNL A   1      35.613  17.885  24.912  1.00  0.00     0.163 HD
ATOM     25  O   UNL A   1      37.200  19.708  24.956  1.00  0.00    -0.269 OA
ENDBRANCH  16  21
ENDBRANCH  10  15
BRANCH  14  26
ATOM     26  O   UNL A   1      32.278  25.975  19.888  1.00  0.00    -0.493 OA
ATOM     27  H   UNL A   1      32.587  26.808  19.590  1.00  0.00     0.295 HD
ENDBRANCH  14  26
ENDBRANCH   6   9
ENDBRANCH   4   5
ENDBRANCH   3   4
ENDBRANCH   2   3
ENDBRANCH   1   2
BRANCH   1  28
ATOM     28  C   UNL A   1      33.044  27.475  25.689  1.00  0.00     0.021 C 
BRANCH  28  29
ATOM     29  C   UNL A   1      33.754  27.963  26.951  1.00  0.00     0.116 C 
BRANCH  29  30
ATOM     30  N   UNL A   1      33.517  29.377  27.190  1.00  0.00    -0.352 N 
ATOM     31  C   UNL A   1      34.303  30.303  27.826  1.00  0.00     0.251 C 
ATOM     32  H   UNL A   1      32.663  29.722  26.843  1.00  0.00     0.163 HD
ATOM     33  O   UNL A   1      33.830  31.399  28.116  1.00  0.00    -0.269 OA
BRANCH  31  34
ATOM     34  C   UNL A   1      35.707  29.989  28.173  1.00  0.00     0.039 A 
ATOM     35  C   UNL A   1      36.683  30.097  27.176  1.00  0.00     0.014 A 
ATOM     36  C   UNL A   1      36.062  29.544  29.450  1.00  0.00     0.014 A 
ATOM     37  C   UNL A   1      38.015  29.799  27.473  1.00  0.00     0.010 A 
ATOM     38  C   UNL A   1      37.401  29.304  29.760  1.00  0.00     0.010 A 
ATOM     39  C   UNL A   1      38.389  29.420  28.772  1.00  0.00    -0.014 A 
BRANCH  39  40
ATOM     40  C   UNL A   1      39.812  29.152  29.099  1.00  0.00     0.031 A 
ATOM     41  C   UNL A   1      40.439  27.824  28.771  1.00  0.00     0.074 A 
ATOM     42  C   UNL A   1      40.537  30.103  29.720  1.00  0.00     0.049 A 
ATOM     43  N   UNL A   1      41.674  27.428  28.953  1.00  0.00    -0.248 NA
ATOM     44  C   UNL A   1      39.562  26.800  28.180  1.00  0.00     0.031 C 
ATOM     45  C   UNL A   1      40.031  31.411  30.142  1.00  0.00     0.029 A 
ATOM     46  N   UNL A   1      41.854  30.117  30.102  1.00  0.00    -0.354 N 
ATOM     47  C   UNL A   1      41.720  26.111  28.510  1.00  0.00     0.074 A 
ATOM     48  C   UNL A   1      40.379  25.761  28.093  1.00  0.00     0.031 C 
ATOM     49  C   UNL A   1      41.034  32.113  30.692  1.00  0.00     0.029 A 
ATOM     50  C   UNL A   1      42.245  31.299  30.684  1.00  0.00     0.049 A 
ATOM     51  H   UNL A   1      42.463  29.354  29.970  1.00  0.00     0.167 HD
ATOM     52  C   UNL A   1      42.784  25.275  28.440  1.00  0.00     0.031 A 
ATOM     53  C   UNL A   1      43.446  31.690  31.152  1.00  0.00     0.031 A 
ATOM     54  C   UNL A   1      44.118  25.625  28.851  1.00  0.00     0.049 A 
ATOM     55  C   UNL A   1      44.617  30.755  31.038  1.00  0.00     0.074 A 
ATOM     56  C   UNL A   1      45.274  24.868  28.768  1.00  0.00     0.029 A 
ATOM     57  N   UNL A   1      44.477  26.837  29.423  1.00  0.00    -0.354 N 
ATOM     58  N   UNL A   1      44.655  29.538  30.550  1.00  0.00    -0.248 NA
ATOM     59  C   UNL A   1      45.911  31.258  31.518  1.00  0.00     0.031 C 
ATOM     60  C   UNL A   1      46.324  25.608  29.326  1.00  0.00     0.029 A 
ATOM     61  C   UNL A   1      45.831  26.843  29.713  1.00  0.00     0.049 A 
ATOM     62  H   UNL A   1      43.860  27.583  29.597  1.00  0.00     0.167 HD
ATOM     63  C   UNL A   1      45.982  29.134  30.651  1.00  0.00     0.074 A 
ATOM     64  C   UNL A   1      46.715  30.245  31.224  1.00  0.00     0.031 C 
ATOM     65  C   UNL A   1      46.543  27.949  30.301  1.00  0.00     0.031 A 
BRANCH  52  66
ATOM     66  C   UNL A   1      42.539  23.891  27.898  1.00  0.00    -0.014 A 
ATOM     67  C   UNL A   1      42.005  22.877  28.716  1.00  0.00     0.010 A 
ATOM     68  C   UNL A   1      42.825  23.603  26.552  1.00  0.00     0.010 A 
ATOM     69  C   UNL A   1      41.808  21.589  28.210  1.00  0.00     0.020 A 
ATOM     70  C   UNL A   1      42.604  22.322  26.035  1.00  0.00     0.020 A 
ATOM     71  C   UNL A   1      42.117  21.317  26.874  1.00  0.00     0.054 A 
BRANCH  71  72
ATOM     72  S   UNL A   1      41.845  19.640  26.240  1.00  0.00     0.124 S 
ATOM     73  O   UNL A   1      42.323  18.819  27.350  1.00  0.00    -0.237 OA
ATOM     74  O   UNL A   1      40.403  19.609  26.012  1.00  0.00    -0.237 OA
ATOM     75  O   UNL A   1      42.665  19.590  25.031  1.00  0.00    -0.744 OA
ENDBRANCH  71  72
ENDBRANCH  52  66
BRANCH  53  76
ATOM     76  C   UNL A   1      43.606  33.050  31.732  1.00  0.00    -0.014 A 
ATOM     77  C   UNL A   1      43.911  34.144  30.905  1.00  0.00     0.010 A 
ATOM     78  C   UNL A   1      43.423  33.261  33.111  1.00  0.00     0.010 A 
ATOM     79  C   UNL A   1      44.044  35.425  31.447  1.00  0.00     0.020 A 
ATOM     80  C   UNL A   1      43.532  34.544  33.652  1.00  0.00     0.020 A 
ATOM     81  C   UNL A   1      43.851  35.618  32.818  1.00  0.00     0.054 A 
BRANCH  81  82
ATOM     82  S   UNL A   1      43.959  37.299  33.493  1.00  0.00     0.124 S 
ATOM     83  O   UNL A   1      45.169  37.223  34.305  1.00  0.00    -0.237 OA
ATOM     84  O   UNL A   1      44.053  38.120  32.288  1.00  0.00    -0.237 OA
ATOM     85  O   UNL A   1      42.710  37.446  34.238  1.00  0.00    -0.744 OA
ENDBRANCH  81  82
ENDBRANCH  53  76
BRANCH  65  86
ATOM     86  C   UNL A   1      48.024  27.809  30.518  1.00  0.00    -0.014 A 
ATOM     87  C   UNL A   1      48.541  27.398  31.760  1.00  0.00     0.010 A 
ATOM     88  C   UNL A   1      48.913  28.088  29.464  1.00  0.00     0.010 A 
ATOM     89  C   UNL A   1      49.920  27.319  31.960  1.00  0.00     0.020 A 
ATOM     90  C   UNL A   1      50.293  27.985  29.653  1.00  0.00     0.020 A 
ATOM     91  C   UNL A   1      50.789  27.622  30.907  1.00  0.00     0.054 A 
BRANCH  91  92
ATOM     92  S   UNL A   1      52.579  27.512  31.184  1.00  0.00     0.124 S 
ATOM     93  O   UNL A   1      52.993  28.905  31.038  1.00  0.00    -0.237 OA
ATOM     94  O   UNL A   1      52.665  26.970  32.538  1.00  0.00    -0.237 OA
ATOM     95  O   UNL A   1      53.036  26.610  30.129  1.00  0.00    -0.744 OA
ENDBRANCH  91  92
ENDBRANCH  65  86
ENDBRANCH  39  40
ENDBRANCH  31  34
ENDBRANCH  29  30
ENDBRANCH  28  29
ENDBRANCH   1  28
TORSDOF 19
ENDMDL
MODEL 3
REMARK VINA RESULT:     -10.9      3.886      7.103
REMARK SMILES CNC(=O)c1cccc(-c2cnc(O)c(C(=O)NCCCCCCNC(=O)c3ccc(-c4c5nc(c(-c6ccc(S(=O)(=O)[O-])cc6)c6ccc([nH]6)c(-c6ccc(S(=O)(=O)[O-])cc6)c6nc(c(-c7ccc(S(=O)(=O)[O-])cc7)c7ccc4[nH]7)C=C6)C=C5)cc3)c2)c1
REMARK SMILES IDX 22 1 21 2 20 3 19 4 18 5 16 6 17 7 15 9 10 10 11 11 88 12
REMARK SMILES IDX 12 13 13 14 9 15 5 16 6 17 89 18 7 19 8 20 3 21 1 22 2 23
REMARK SMILES IDX 4 25 14 26 23 28 24 29 25 30 26 31 27 33 28 34 29 35 87 36
REMARK SMILES IDX 30 37 86 38 31 39 32 40 33 41 80 42 34 43 85 44 79 45 81 46
REMARK SMILES IDX 35 47 84 48 78 49 77 50 36 52 66 53 47 54 65 55 48 56 51 57
REMARK SMILES IDX 64 58 82 59 49 60 50 61 63 63 83 64 52 65 37 66 38 67 46 68
REMARK SMILES IDX 39 69 45 70 40 71 41 72 42 73 43 74 44 75 67 76 68 77 76 78
REMARK SMILES IDX 69 79 75 80 70 81 71 82 72 83 73 84 74 85 53 86 54 87 62 88
REMARK SMILES IDX 55 89 61 90 56 91 57 92 58 93 59 94 60 95
REMARK H PARENT 18 8 2 24 14 27 25 32 81 51 51 62
REMARK Flexibility Score: inf
ROOT
ATOM      1  C   UNL A   1      35.954  32.381  30.847  1.00  0.00     0.002 C 
ENDROOT
BRANCH   1   2
ATOM      2  C   UNL A   1      37.280  33.060  30.481  1.00  0.00     0.002 C 
BRANCH   2   3
ATOM      3  C   UNL A   1      37.779  34.092  31.501  1.00  0.00     0.021 C 
BRANCH   3   4
ATOM      4  C   UNL A   1      38.792  33.521  32.496  1.00  0.00     0.116 C 
BRANCH   4   5
ATOM      5  N   UNL A   1      38.117  33.052  33.697  1.00  0.00    -0.352 N 
ATOM      6  C   UNL A   1      38.054  31.827  34.311  1.00  0.00     0.256 C 
ATOM      7  O   UNL A   1      37.451  31.744  35.384  1.00  0.00    -0.269 OA
ATOM      8  H   UNL A   1      37.604  33.752  34.162  1.00  0.00     0.163 HD
BRANCH   6   9
ATOM      9  C   UNL A   1      38.726  30.609  33.803  1.00  0.00     0.102 A 
ATOM     10  C   UNL A   1      40.645  29.136  33.557  1.00  0.00     0.001 A 
ATOM     11  C   UNL A   1      39.786  28.214  32.970  1.00  0.00     0.124 A 
ATOM     12  C   UNL A   1      40.096  30.375  33.911  1.00  0.00     0.029 A 
ATOM     13  N   UNL A   1      38.469  28.435  32.755  1.00  0.00    -0.221 NA
ATOM     14  C   UNL A   1      37.966  29.615  33.181  1.00  0.00     0.223 A 
BRANCH  10  15
ATOM     15  C   UNL A   1      42.035  28.824  33.894  1.00  0.00    -0.016 A 
ATOM     16  C   UNL A   1      43.802  27.158  34.119  1.00  0.00     0.040 A 
ATOM     17  C   UNL A   1      44.658  28.132  34.639  1.00  0.00     0.014 A 
ATOM     18  C   UNL A   1      42.495  27.501  33.764  1.00  0.00     0.022 A 
ATOM     19  C   UNL A   1      44.219  29.452  34.758  1.00  0.00     0.001 A 
ATOM     20  C   UNL A   1      42.918  29.797  34.382  1.00  0.00     0.009 A 
BRANCH  16  21
ATOM     21  C   UNL A   1      44.260  25.753  34.079  1.00  0.00     0.251 C 
ATOM     22  C   UNL A   1      43.165  25.086  36.281  1.00  0.00     0.143 C 
ATOM     23  N   UNL A   1      44.009  24.901  35.124  1.00  0.00    -0.355 N 
ATOM     24  H   UNL A   1      44.474  24.035  35.079  1.00  0.00     0.163 HD
ATOM     25  O   UNL A   1      44.883  25.360  33.099  1.00  0.00    -0.269 OA
ENDBRANCH  16  21
ENDBRANCH  10  15
BRANCH  14  26
ATOM     26  O   UNL A   1      36.623  29.741  32.952  1.00  0.00    -0.493 OA
ATOM     27  H   UNL A   1      36.239  29.351  32.191  1.00  0.00     0.295 HD
ENDBRANCH  14  26
ENDBRANCH   6   9
ENDBRANCH   4   5
ENDBRANCH   3   4
ENDBRANCH   2   3
ENDBRANCH   1   2
BRANCH   1  28
ATOM     28  C   UNL A   1      34.721  32.905  30.104  1.00  0.00     0.021 C 
BRANCH  28  29
ATOM     29  C   UNL A   1      34.743  32.692  28.591  1.00  0.00     0.116 C 
BRANCH  29  30
ATOM     30  N   UNL A   1      34.015  31.494  28.205  1.00  0.00    -0.352 N 
ATOM     31  C   UNL A   1      34.483  30.234  27.929  1.00  0.00     0.251 C 
ATOM     32  H   UNL A   1      33.040  31.603  28.130  1.00  0.00     0.163 HD
ATOM     33  O   UNL A   1      33.732  29.413  27.411  1.00  0.00    -0.269 OA
BRANCH  31  34
ATOM     34  C   UNL A   1      35.881  29.864  28.242  1.00  0.00     0.039 A 
ATOM     35  C   UNL A   1      36.865  30.085  27.273  1.00  0.00     0.014 A 
ATOM     36  C   UNL A   1      36.222  29.257  29.455  1.00  0.00     0.014 A 
ATOM     37  C   UNL A   1      38.191  29.738  27.537  1.00  0.00     0.010 A 
ATOM     38  C   UNL A   1      37.556  28.965  29.740  1.00  0.00     0.010 A 
ATOM     39  C   UNL A   1      38.553  29.193  28.780  1.00  0.00    -0.014 A 
BRANCH  39  40
ATOM     40  C   UNL A   1      39.970  28.871  29.080  1.00  0.00     0.031 A 
ATOM     41  C   UNL A   1      40.864  29.880  29.748  1.00  0.00     0.074 A 
ATOM     42  C   UNL A   1      40.463  27.668  28.723  1.00  0.00     0.049 A 
ATOM     43  N   UNL A   1      42.114  29.759  30.115  1.00  0.00    -0.248 NA
ATOM     44  C   UNL A   1      40.284  31.205  30.022  1.00  0.00     0.031 C 
ATOM     45  C   UNL A   1      39.715  26.623  28.020  1.00  0.00     0.029 A 
ATOM     46  N   UNL A   1      41.708  27.122  28.905  1.00  0.00    -0.354 N 
ATOM     47  C   UNL A   1      42.474  30.989  30.653  1.00  0.00     0.074 A 
ATOM     48  C   UNL A   1      41.323  31.857  30.522  1.00  0.00     0.031 C 
ATOM     49  C   UNL A   1      40.506  25.549  27.861  1.00  0.00     0.029 A 
ATOM     50  C   UNL A   1      41.819  25.837  28.428  1.00  0.00     0.049 A 
ATOM     51  H   UNL A   1      42.450  27.602  29.338  1.00  0.00     0.167 HD
ATOM     52  C   UNL A   1      43.649  31.358  31.218  1.00  0.00     0.031 A 
ATOM     53  C   UNL A   1      42.858  24.981  28.452  1.00  0.00     0.031 A 
ATOM     54  C   UNL A   1      44.791  30.494  31.352  1.00  0.00     0.049 A 
ATOM     55  C   UNL A   1      44.142  25.404  29.110  1.00  0.00     0.074 A 
ATOM     56  C   UNL A   1      46.007  30.757  31.959  1.00  0.00     0.029 A 
ATOM     57  N   UNL A   1      44.861  29.195  30.869  1.00  0.00    -0.354 N 
ATOM     58  N   UNL A   1      44.439  26.550  29.676  1.00  0.00    -0.248 NA
ATOM     59  C   UNL A   1      45.221  24.409  29.150  1.00  0.00     0.031 C 
ATOM     60  C   UNL A   1      46.825  29.630  31.810  1.00  0.00     0.029 A 
ATOM     61  C   UNL A   1      46.102  28.649  31.150  1.00  0.00     0.049 A 
ATOM     62  H   UNL A   1      44.134  28.730  30.396  1.00  0.00     0.167 HD
ATOM     63  C   UNL A   1      45.736  26.407  30.155  1.00  0.00     0.074 A 
ATOM     64  C   UNL A   1      46.156  25.058  29.831  1.00  0.00     0.031 C 
ATOM     65  C   UNL A   1      46.512  27.312  30.804  1.00  0.00     0.031 A 
BRANCH  52  66
ATOM     66  C   UNL A   1      43.752  32.770  31.735  1.00  0.00    -0.014 A 
ATOM     67  C   UNL A   1      43.382  33.087  33.056  1.00  0.00     0.010 A 
ATOM     68  C   UNL A   1      44.242  33.789  30.900  1.00  0.00     0.010 A 
ATOM     69  C   UNL A   1      43.455  34.405  33.516  1.00  0.00     0.020 A 
ATOM     70  C   UNL A   1      44.341  35.105  31.365  1.00  0.00     0.020 A 
ATOM     71  C   UNL A   1      43.927  35.408  32.664  1.00  0.00     0.054 A 
BRANCH  71  72
ATOM     72  S   UNL A   1      44.019  37.109  33.287  1.00  0.00     0.124 S 
ATOM     73  O   UNL A   1      44.152  37.873  32.049  1.00  0.00    -0.237 OA
ATOM     74  O   UNL A   1      42.748  37.267  33.988  1.00  0.00    -0.237 OA
ATOM     75  O   UNL A   1      45.203  37.099  34.143  1.00  0.00    -0.744 OA
ENDBRANCH  71  72
ENDBRANCH  52  66
BRANCH  53  76
ATOM     76  C   UNL A   1      42.709  23.622  27.869  1.00  0.00    -0.014 A 
ATOM     77  C   UNL A   1      42.170  22.575  28.635  1.00  0.00     0.010 A 
ATOM     78  C   UNL A   1      43.078  23.376  26.534  1.00  0.00     0.010 A 
ATOM     79  C   UNL A   1      42.013  21.301  28.082  1.00  0.00     0.020 A 
ATOM     80  C   UNL A   1      42.901  22.110  25.970  1.00  0.00     0.020 A 
ATOM     81  C   UNL A   1      42.378  21.077  26.751  1.00  0.00     0.054 A 
BRANCH  81  82
ATOM     82  S   UNL A   1      42.102  19.435  26.029  1.00  0.00     0.124 S 
ATOM     83  O   UNL A   1      42.923  19.492  24.824  1.00  0.00    -0.237 OA
ATOM     84  O   UNL A   1      42.580  18.541  27.081  1.00  0.00    -0.237 OA
ATOM     85  O   UNL A   1      40.659  19.401  25.805  1.00  0.00    -0.744 OA
ENDBRANCH  81  82
ENDBRANCH  53  76
BRANCH  65  86
ATOM     86  C   UNL A   1      47.885  26.858  31.216  1.00  0.00    -0.014 A 
ATOM     87  C   UNL A   1      48.182  26.571  32.560  1.00  0.00     0.010 A 
ATOM     88  C   UNL A   1      48.892  26.711  30.244  1.00  0.00     0.010 A 
ATOM     89  C   UNL A   1      49.475  26.196  32.933  1.00  0.00     0.020 A 
ATOM     90  C   UNL A   1      50.179  26.312  30.610  1.00  0.00     0.020 A 
ATOM     91  C   UNL A   1      50.468  26.078  31.957  1.00  0.00     0.054 A 
BRANCH  91  92
ATOM     92  S   UNL A   1      52.141  25.588  32.459  1.00  0.00     0.124 S 
ATOM     93  O   UNL A   1      52.970  26.332  31.514  1.00  0.00    -0.237 OA
ATOM     94  O   UNL A   1      52.209  26.042  33.846  1.00  0.00    -0.237 OA
ATOM     95  O   UNL A   1      52.143  24.138  32.284  1.00  0.00    -0.744 OA
ENDBRANCH  91  92
ENDBRANCH  65  86
ENDBRANCH  39  40
ENDBRANCH  31  34
ENDBRANCH  29  30
ENDBRANCH  28  29
ENDBRANCH   1  28
TORSDOF 19
ENDMDL
