MODEL 1
REMARK VINA RESULT:     -10.7      0.000      0.000
REMARK SMILES O=C(C[C@@H](C[NH+]1CCCCC1)C(=O)NCCCCCCNC(=O)c1ccc(-c2c3nc(c(-c4ccc(S(=O)(=O)[O-])cc4)c4ccc([nH]4)c(-c4ccc(S(=O)(=O)[O-])cc4)c4nc(c(-c5ccc(S(=O)(=O)[O-])cc5)c5ccc2[nH]5)C=C4)C=C3)cc1)Nc1ccccc1O
REMARK SMILES IDX 17 1 16 2 15 3 14 4 12 5 13 6 4 8 3 9 2 10 1 11 84 12 85 14
REMARK SMILES IDX 86 15 90 16 87 17 89 18 88 19 91 20 5 22 6 23 7 24 11 25
REMARK SMILES IDX 8 27 10 28 9 29 18 30 19 31 20 32 21 33 22 34 23 36 24 37
REMARK SMILES IDX 25 38 83 39 26 40 82 41 27 42 28 43 29 44 76 45 30 46 81 47
REMARK SMILES IDX 75 48 77 49 31 50 80 51 74 52 73 53 32 55 62 56 43 57 61 58
REMARK SMILES IDX 44 59 47 60 60 61 78 62 45 63 46 64 59 66 79 67 48 68 33 69
REMARK SMILES IDX 34 70 42 71 35 72 41 73 36 74 37 75 38 76 39 77 40 78 63 79
REMARK SMILES IDX 64 80 72 81 65 82 71 83 66 84 67 85 68 86 69 87 70 88 49 89
REMARK SMILES IDX 50 90 58 91 51 92 57 93 52 94 53 95 54 96 55 97 56 98
REMARK H PARENT 14 7 84 13 91 21 6 26 21 35 77 54 47 65
REMARK Flexibility Score: inf
ROOT
ATOM      1  C   UNL A   1      33.916  21.454  24.146  1.00  0.00     0.002 C 
ENDROOT
BRANCH   1   2
ATOM      2  C   UNL A   1      32.812  22.522  24.177  1.00  0.00     0.021 C 
BRANCH   2   3
ATOM      3  C   UNL A   1      32.152  22.829  22.832  1.00  0.00     0.116 C 
BRANCH   3   4
ATOM      4  N   UNL A   1      32.783  23.889  22.066  1.00  0.00    -0.356 N 
ATOM      5  C   UNL A   1      32.940  25.213  22.366  1.00  0.00     0.229 C 
ATOM      6  O   UNL A   1      33.815  25.828  21.743  1.00  0.00    -0.275 OA
ATOM      7  H   UNL A   1      33.155  23.612  21.198  1.00  0.00     0.163 HD
BRANCH   5   8
ATOM      8  C   UNL A   1      32.106  25.961  23.422  1.00  0.00     0.142 C 
BRANCH   8   9
ATOM      9  C   UNL A   1      30.636  25.534  23.386  1.00  0.00     0.119 C 
BRANCH   9  10
ATOM     10  C   UNL A   1      29.550  26.559  23.690  1.00  0.00     0.225 C 
ATOM     11  O   UNL A   1      28.901  26.475  24.733  1.00  0.00    -0.275 OA
ATOM     12  N   UNL A   1      29.471  27.629  22.836  1.00  0.00    -0.323 N 
ATOM     13  H   UNL A   1      29.744  27.452  21.907  1.00  0.00     0.170 HD
BRANCH  12  14
ATOM     14  C   UNL A   1      29.048  28.955  23.108  1.00  0.00     0.083 A 
ATOM     15  C   UNL A   1      30.047  29.818  23.599  1.00  0.00     0.030 A 
ATOM     16  C   UNL A   1      27.736  29.445  23.043  1.00  0.00     0.139 A 
ATOM     17  C   UNL A   1      29.747  31.123  24.003  1.00  0.00     0.002 A 
ATOM     18  C   UNL A   1      27.436  30.744  23.465  1.00  0.00     0.048 A 
ATOM     19  C   UNL A   1      28.439  31.585  23.939  1.00  0.00     0.004 A 
BRANCH  16  20
ATOM     20  O   UNL A   1      26.650  28.725  22.634  1.00  0.00    -0.506 OA
ATOM     21  H   UNL A   1      25.786  29.060  22.773  1.00  0.00     0.293 HD
ENDBRANCH  16  20
ENDBRANCH  12  14
ENDBRANCH   9  10
ENDBRANCH   8   9
BRANCH   8  22
ATOM     22  C   UNL A   1      32.844  26.010  24.778  1.00  0.00     0.276 C 
BRANCH  22  23
ATOM     23  N   UNL A   1      32.635  27.247  25.519  1.00  0.00    -0.334 N 
ATOM     24  C   UNL A   1      33.742  28.207  25.520  1.00  0.00     0.262 C 
ATOM     25  C   UNL A   1      31.958  27.062  26.798  1.00  0.00     0.262 C 
ATOM     26  H   UNL A   1      31.957  27.749  24.945  1.00  0.00     0.348 HD
ATOM     27  C   UNL A   1      33.539  29.402  26.453  1.00  0.00     0.062 C 
ATOM     28  C   UNL A   1      31.524  28.388  27.439  1.00  0.00     0.062 C 
ATOM     29  C   UNL A   1      32.058  29.617  26.707  1.00  0.00     0.012 C 
ENDBRANCH  22  23
ENDBRANCH   8  22
ENDBRANCH   5   8
ENDBRANCH   3   4
ENDBRANCH   2   3
ENDBRANCH   1   2
BRANCH   1  30
ATOM     30  C   UNL A   1      35.320  21.892  24.591  1.00  0.00     0.002 C 
BRANCH  30  31
ATOM     31  C   UNL A   1      35.659  23.374  24.422  1.00  0.00     0.021 C 
BRANCH  31  32
ATOM     32  C   UNL A   1      36.806  23.911  25.266  1.00  0.00     0.116 C 
BRANCH  32  33
ATOM     33  N   UNL A   1      37.818  22.908  25.545  1.00  0.00    -0.352 N 
ATOM     34  C   UNL A   1      39.036  23.027  26.161  1.00  0.00     0.251 C 
ATOM     35  H   UNL A   1      37.594  21.999  25.243  1.00  0.00     0.163 HD
ATOM     36  O   UNL A   1      39.806  22.058  26.154  1.00  0.00    -0.269 OA
BRANCH  34  37
ATOM     37  C   UNL A   1      39.457  24.289  26.813  1.00  0.00     0.039 A 
ATOM     38  C   UNL A   1      39.080  24.515  28.141  1.00  0.00     0.014 A 
ATOM     39  C   UNL A   1      40.179  25.269  26.126  1.00  0.00     0.014 A 
ATOM     40  C   UNL A   1      39.466  25.692  28.790  1.00  0.00     0.010 A 
ATOM     41  C   UNL A   1      40.632  26.405  26.798  1.00  0.00     0.010 A 
ATOM     42  C   UNL A   1      40.270  26.637  28.133  1.00  0.00    -0.014 A 
BRANCH  42  43
ATOM     43  C   UNL A   1      40.715  27.878  28.821  1.00  0.00     0.031 A 
ATOM     44  C   UNL A   1      42.098  27.964  29.416  1.00  0.00     0.074 A 
ATOM     45  C   UNL A   1      39.864  28.917  28.948  1.00  0.00     0.049 A 
ATOM     46  N   UNL A   1      42.652  28.948  30.075  1.00  0.00    -0.248 NA
ATOM     47  C   UNL A   1      42.961  26.780  29.269  1.00  0.00     0.031 C 
ATOM     48  C   UNL A   1      38.487  28.949  28.448  1.00  0.00     0.029 A 
ATOM     49  N   UNL A   1      40.030  30.146  29.536  1.00  0.00    -0.354 N 
ATOM     50  C   UNL A   1      43.919  28.501  30.434  1.00  0.00     0.074 A 
ATOM     51  C   UNL A   1      44.032  27.137  29.967  1.00  0.00     0.031 C 
ATOM     52  C   UNL A   1      37.947  30.148  28.724  1.00  0.00     0.029 A 
ATOM     53  C   UNL A   1      38.919  30.954  29.456  1.00  0.00     0.049 A 
ATOM     54  H   UNL A   1      40.867  30.425  29.975  1.00  0.00     0.167 HD
ATOM     55  C   UNL A   1      44.907  29.168  31.077  1.00  0.00     0.031 A 
ATOM     56  C   UNL A   1      38.702  32.199  29.923  1.00  0.00     0.031 A 
ATOM     57  C   UNL A   1      44.797  30.529  31.531  1.00  0.00     0.049 A 
ATOM     58  C   UNL A   1      39.808  32.914  30.651  1.00  0.00     0.074 A 
ATOM     59  C   UNL A   1      45.763  31.313  32.138  1.00  0.00     0.029 A 
ATOM     60  N   UNL A   1      43.654  31.307  31.432  1.00  0.00    -0.354 N 
ATOM     61  N   UNL A   1      41.023  32.497  30.914  1.00  0.00    -0.248 NA
ATOM     62  C   UNL A   1      39.517  34.270  31.137  1.00  0.00     0.031 C 
ATOM     63  C   UNL A   1      45.186  32.545  32.459  1.00  0.00     0.029 A 
ATOM     64  C   UNL A   1      43.880  32.552  31.995  1.00  0.00     0.049 A 
ATOM     65  H   UNL A   1      42.807  31.018  31.022  1.00  0.00     0.167 HD
ATOM     66  C   UNL A   1      41.649  33.549  31.575  1.00  0.00     0.074 A 
ATOM     67  C   UNL A   1      40.683  34.626  31.658  1.00  0.00     0.031 C 
ATOM     68  C   UNL A   1      42.910  33.615  32.069  1.00  0.00     0.031 A 
BRANCH  55  69
ATOM     69  C   UNL A   1      46.197  28.432  31.333  1.00  0.00    -0.014 A 
ATOM     70  C   UNL A   1      46.299  27.473  32.357  1.00  0.00     0.010 A 
ATOM     71  C   UNL A   1      47.313  28.670  30.508  1.00  0.00     0.010 A 
ATOM     72  C   UNL A   1      47.501  26.798  32.580  1.00  0.00     0.020 A 
ATOM     73  C   UNL A   1      48.509  27.975  30.708  1.00  0.00     0.020 A 
ATOM     74  C   UNL A   1      48.601  27.055  31.755  1.00  0.00     0.054 A 
BRANCH  74  75
ATOM     75  S   UNL A   1      50.142  26.148  32.055  1.00  0.00     0.124 S 
ATOM     76  O   UNL A   1      50.652  26.810  33.253  1.00  0.00    -0.237 OA
ATOM     77  O   UNL A   1      49.675  24.776  32.245  1.00  0.00    -0.237 OA
ATOM     78  O   UNL A   1      50.921  26.374  30.839  1.00  0.00    -0.744 OA
ENDBRANCH  74  75
ENDBRANCH  55  69
BRANCH  56  79
ATOM     79  C   UNL A   1      37.380  32.853  29.708  1.00  0.00    -0.014 A 
ATOM     80  C   UNL A   1      37.030  33.361  28.445  1.00  0.00     0.010 A 
ATOM     81  C   UNL A   1      36.459  32.959  30.766  1.00  0.00     0.010 A 
ATOM     82  C   UNL A   1      35.789  33.976  28.248  1.00  0.00     0.020 A 
ATOM     83  C   UNL A   1      35.207  33.548  30.566  1.00  0.00     0.020 A 
ATOM     84  C   UNL A   1      34.885  34.063  29.309  1.00  0.00     0.054 A 
BRANCH  84  85
ATOM     85  S   UNL A   1      33.261  34.818  29.017  1.00  0.00     0.124 S 
ATOM     86  O   UNL A   1      33.624  36.163  28.582  1.00  0.00    -0.237 OA
ATOM     87  O   UNL A   1      32.691  33.952  27.989  1.00  0.00    -0.237 OA
ATOM     88  O   UNL A   1      32.606  34.737  30.321  1.00  0.00    -0.744 OA
ENDBRANCH  84  85
ENDBRANCH  56  79
BRANCH  68  89
ATOM     89  C   UNL A   1      43.337  34.901  32.724  1.00  0.00    -0.014 A 
ATOM     90  C   UNL A   1      43.250  35.073  34.116  1.00  0.00     0.010 A 
ATOM     91  C   UNL A   1      43.909  35.922  31.941  1.00  0.00     0.010 A 
ATOM     92  C   UNL A   1      43.712  36.250  34.712  1.00  0.00     0.020 A 
ATOM     93  C   UNL A   1      44.398  37.087  32.536  1.00  0.00     0.020 A 
ATOM     94  C   UNL A   1      44.288  37.248  33.918  1.00  0.00     0.054 A 
BRANCH  94  95
ATOM     95  S   UNL A   1      44.942  38.735  34.726  1.00  0.00     0.124 S 
ATOM     96  O   UNL A   1      44.005  38.917  35.832  1.00  0.00    -0.237 OA
ATOM     97  O   UNL A   1      46.291  38.325  35.106  1.00  0.00    -0.237 OA
ATOM     98  O   UNL A   1      44.877  39.754  33.681  1.00  0.00    -0.744 OA
ENDBRANCH  94  95
ENDBRANCH  68  89
ENDBRANCH  42  43
ENDBRANCH  34  37
ENDBRANCH  32  33
ENDBRANCH  31  32
ENDBRANCH  30  31
ENDBRANCH   1  30
TORSDOF 22
ENDMDL
MODEL 2
REMARK VINA RESULT:     -10.4      3.854      5.960
REMARK SMILES O=C(C[C@@H](C[NH+]1CCCCC1)C(=O)NCCCCCCNC(=O)c1ccc(-c2c3nc(c(-c4ccc(S(=O)(=O)[O-])cc4)c4ccc([nH]4)c(-c4ccc(S(=O)(=O)[O-])cc4)c4nc(c(-c5ccc(S(=O)(=O)[O-])cc5)c5ccc2[nH]5)C=C4)C=C3)cc1)Nc1ccccc1O
REMARK SMILES IDX 17 1 16 2 15 3 14 4 12 5 13 6 4 8 3 9 2 10 1 11 84 12 85 14
REMARK SMILES IDX 86 15 90 16 87 17 89 18 88 19 91 20 5 22 6 23 7 24 11 25
REMARK SMILES IDX 8 27 10 28 9 29 18 30 19 31 20 32 21 33 22 34 23 36 24 37
REMARK SMILES IDX 25 38 83 39 26 40 82 41 27 42 28 43 29 44 76 45 30 46 81 47
REMARK SMILES IDX 75 48 77 49 31 50 80 51 74 52 73 53 32 55 62 56 43 57 61 58
REMARK SMILES IDX 44 59 47 60 60 61 78 62 45 63 46 64 59 66 79 67 48 68 33 69
REMARK SMILES IDX 34 70 42 71 35 72 41 73 36 74 37 75 38 76 39 77 40 78 63 79
REMARK SMILES IDX 64 80 72 81 65 82 71 83 66 84 67 85 68 86 69 87 70 88 49 89
REMARK SMILES IDX 50 90 58 91 51 92 57 93 52 94 53 95 54 96 55 97 56 98
REMARK H PARENT 14 7 84 13 91 21 6 26 21 35 77 54 47 65
REMARK Flexibility Score: inf
ROOT
ATOM      1  C   UNL A   1      38.420  21.916  25.771  1.00  0.00     0.002 C 
ENDROOT
BRANCH   1   2
ATOM      2  C   UNL A   1      37.073  22.526  25.351  1.00  0.00     0.021 C 
BRANCH   2   3
ATOM      3  C   UNL A   1      35.869  21.586  25.432  1.00  0.00     0.116 C 
BRANCH   3   4
ATOM      4  N   UNL A   1      34.691  22.150  26.067  1.00  0.00    -0.356 N 
ATOM      5  C   UNL A   1      33.541  22.631  25.508  1.00  0.00     0.229 C 
ATOM      6  O   UNL A   1      32.553  22.716  26.248  1.00  0.00    -0.275 OA
ATOM      7  H   UNL A   1      34.726  22.193  27.050  1.00  0.00     0.163 HD
BRANCH   5   8
ATOM      8  C   UNL A   1      33.413  23.060  24.035  1.00  0.00     0.142 C 
BRANCH   8   9
ATOM      9  C   UNL A   1      32.167  22.460  23.378  1.00  0.00     0.119 C 
BRANCH   9  10
ATOM     10  C   UNL A   1      32.095  20.956  23.141  1.00  0.00     0.225 C 
ATOM     11  O   UNL A   1      32.033  20.519  21.991  1.00  0.00    -0.275 OA
ATOM     12  N   UNL A   1      32.271  20.159  24.242  1.00  0.00    -0.323 N 
ATOM     13  H   UNL A   1      31.970  20.544  25.098  1.00  0.00     0.170 HD
BRANCH  12  14
ATOM     14  C   UNL A   1      32.827  18.856  24.319  1.00  0.00     0.083 A 
ATOM     15  C   UNL A   1      33.180  18.277  23.086  1.00  0.00     0.030 A 
ATOM     16  C   UNL A   1      32.949  18.066  25.471  1.00  0.00     0.139 A 
ATOM     17  C   UNL A   1      33.645  16.960  23.006  1.00  0.00     0.002 A 
ATOM     18  C   UNL A   1      33.396  16.744  25.387  1.00  0.00     0.048 A 
ATOM     19  C   UNL A   1      33.749  16.192  24.158  1.00  0.00     0.004 A 
BRANCH  16  20
ATOM     20  O   UNL A   1      32.609  18.462  26.733  1.00  0.00    -0.506 OA
ATOM     21  H   UNL A   1      32.498  19.373  26.925  1.00  0.00     0.293 HD
ENDBRANCH  16  20
ENDBRANCH  12  14
ENDBRANCH   9  10
ENDBRANCH   8   9
BRANCH   8  22
ATOM     22  C   UNL A   1      33.700  24.568  23.871  1.00  0.00     0.276 C 
BRANCH  22  23
ATOM     23  N   UNL A   1      32.500  25.386  23.736  1.00  0.00    -0.334 N 
ATOM     24  C   UNL A   1      32.342  26.115  22.475  1.00  0.00     0.262 C 
ATOM     25  C   UNL A   1      32.152  26.128  24.943  1.00  0.00     0.262 C 
ATOM     26  H   UNL A   1      31.758  24.693  23.642  1.00  0.00     0.348 HD
ATOM     27  C   UNL A   1      31.163  27.089  22.455  1.00  0.00     0.062 C 
ATOM     28  C   UNL A   1      30.762  26.775  24.863  1.00  0.00     0.062 C 
ATOM     29  C   UNL A   1      30.125  26.670  23.479  1.00  0.00     0.012 C 
ENDBRANCH  22  23
ENDBRANCH   8  22
ENDBRANCH   5   8
ENDBRANCH   3   4
ENDBRANCH   2   3
ENDBRANCH   1   2
BRANCH   1  30
ATOM     30  C   UNL A   1      39.401  22.839  26.509  1.00  0.00     0.002 C 
BRANCH  30  31
ATOM     31  C   UNL A   1      40.714  22.208  26.974  1.00  0.00     0.021 C 
BRANCH  31  32
ATOM     32  C   UNL A   1      41.894  23.152  27.166  1.00  0.00     0.116 C 
BRANCH  32  33
ATOM     33  N   UNL A   1      42.090  24.044  26.038  1.00  0.00    -0.352 N 
ATOM     34  C   UNL A   1      41.955  25.405  25.953  1.00  0.00     0.251 C 
ATOM     35  H   UNL A   1      42.363  23.602  25.202  1.00  0.00     0.163 HD
ATOM     36  O   UNL A   1      42.026  25.944  24.841  1.00  0.00    -0.269 OA
BRANCH  34  37
ATOM     37  C   UNL A   1      41.707  26.238  27.153  1.00  0.00     0.039 A 
ATOM     38  C   UNL A   1      42.567  27.310  27.414  1.00  0.00     0.014 A 
ATOM     39  C   UNL A   1      40.668  25.955  28.045  1.00  0.00     0.014 A 
ATOM     40  C   UNL A   1      42.357  28.121  28.534  1.00  0.00     0.010 A 
ATOM     41  C   UNL A   1      40.411  26.812  29.116  1.00  0.00     0.010 A 
ATOM     42  C   UNL A   1      41.261  27.897  29.381  1.00  0.00    -0.014 A 
BRANCH  42  43
ATOM     43  C   UNL A   1      41.007  28.771  30.557  1.00  0.00     0.031 A 
ATOM     44  C   UNL A   1      41.837  28.626  31.807  1.00  0.00     0.074 A 
ATOM     45  C   UNL A   1      40.002  29.670  30.519  1.00  0.00     0.049 A 
ATOM     46  N   UNL A   1      41.745  29.276  32.939  1.00  0.00    -0.248 NA
ATOM     47  C   UNL A   1      42.894  27.601  31.790  1.00  0.00     0.031 C 
ATOM     48  C   UNL A   1      39.101  29.887  29.384  1.00  0.00     0.029 A 
ATOM     49  N   UNL A   1      39.568  30.571  31.461  1.00  0.00    -0.354 N 
ATOM     50  C   UNL A   1      42.717  28.732  33.771  1.00  0.00     0.074 A 
ATOM     51  C   UNL A   1      43.352  27.662  33.033  1.00  0.00     0.031 C 
ATOM     52  C   UNL A   1      38.245  30.876  29.684  1.00  0.00     0.029 A 
ATOM     53  C   UNL A   1      38.503  31.337  31.045  1.00  0.00     0.049 A 
ATOM     54  H   UNL A   1      39.980  30.661  32.350  1.00  0.00     0.167 HD
ATOM     55  C   UNL A   1      43.065  29.100  35.027  1.00  0.00     0.031 A 
ATOM     56  C   UNL A   1      37.808  32.297  31.686  1.00  0.00     0.031 A 
ATOM     57  C   UNL A   1      42.440  30.172  35.754  1.00  0.00     0.049 A 
ATOM     58  C   UNL A   1      38.201  32.677  33.088  1.00  0.00     0.074 A 
ATOM     59  C   UNL A   1      42.762  30.661  37.008  1.00  0.00     0.029 A 
ATOM     60  N   UNL A   1      41.366  30.919  35.297  1.00  0.00    -0.354 N 
ATOM     61  N   UNL A   1      39.172  32.199  33.828  1.00  0.00    -0.248 NA
ATOM     62  C   UNL A   1      37.409  33.730  33.739  1.00  0.00     0.031 C 
ATOM     63  C   UNL A   1      41.844  31.664  37.334  1.00  0.00     0.029 A 
ATOM     64  C   UNL A   1      40.990  31.844  36.257  1.00  0.00     0.049 A 
ATOM     65  H   UNL A   1      40.932  30.808  34.420  1.00  0.00     0.167 HD
ATOM     66  C   UNL A   1      39.123  32.910  35.022  1.00  0.00     0.074 A 
ATOM     67  C   UNL A   1      38.037  33.861  34.899  1.00  0.00     0.031 C 
ATOM     68  C   UNL A   1      39.908  32.786  36.121  1.00  0.00     0.031 A 
BRANCH  55  69
ATOM     69  C   UNL A   1      44.174  28.332  35.699  1.00  0.00    -0.014 A 
ATOM     70  C   UNL A   1      45.517  28.733  35.576  1.00  0.00     0.010 A 
ATOM     71  C   UNL A   1      43.866  27.218  36.502  1.00  0.00     0.010 A 
ATOM     72  C   UNL A   1      46.533  28.012  36.207  1.00  0.00     0.020 A 
ATOM     73  C   UNL A   1      44.877  26.511  37.160  1.00  0.00     0.020 A 
ATOM     74  C   UNL A   1      46.207  26.902  36.994  1.00  0.00     0.054 A 
BRANCH  74  75
ATOM     75  S   UNL A   1      47.546  25.998  37.817  1.00  0.00     0.124 S 
ATOM     76  O   UNL A   1      47.562  26.623  39.138  1.00  0.00    -0.237 OA
ATOM     77  O   UNL A   1      47.069  24.617  37.782  1.00  0.00    -0.237 OA
ATOM     78  O   UNL A   1      48.715  26.273  36.985  1.00  0.00    -0.744 OA
ENDBRANCH  74  75
ENDBRANCH  55  69
BRANCH  56  79
ATOM     79  C   UNL A   1      36.671  32.973  31.001  1.00  0.00    -0.014 A 
ATOM     80  C   UNL A   1      35.343  32.687  31.365  1.00  0.00     0.010 A 
ATOM     81  C   UNL A   1      36.912  33.918  29.987  1.00  0.00     0.010 A 
ATOM     82  C   UNL A   1      34.278  33.322  30.717  1.00  0.00     0.020 A 
ATOM     83  C   UNL A   1      35.851  34.575  29.357  1.00  0.00     0.020 A 
ATOM     84  C   UNL A   1      34.539  34.264  29.720  1.00  0.00     0.054 A 
BRANCH  84  85
ATOM     85  S   UNL A   1      33.143  35.113  28.930  1.00  0.00     0.124 S 
ATOM     86  O   UNL A   1      33.804  36.236  28.273  1.00  0.00    -0.237 OA
ATOM     87  O   UNL A   1      32.609  34.084  28.042  1.00  0.00    -0.237 OA
ATOM     88  O   UNL A   1      32.277  35.466  30.053  1.00  0.00    -0.744 OA
ENDBRANCH  84  85
ENDBRANCH  56  79
BRANCH  68  89
ATOM     89  C   UNL A   1      39.645  33.714  37.276  1.00  0.00    -0.014 A 
ATOM     90  C   UNL A   1      38.823  33.327  38.348  1.00  0.00     0.010 A 
ATOM     91  C   UNL A   1      40.295  34.962  37.326  1.00  0.00     0.010 A 
ATOM     92  C   UNL A   1      38.643  34.178  39.442  1.00  0.00     0.020 A 
ATOM     93  C   UNL A   1      40.141  35.803  38.430  1.00  0.00     0.020 A 
ATOM     94  C   UNL A   1      39.308  35.409  39.478  1.00  0.00     0.054 A 
BRANCH  94  95
ATOM     95  S   UNL A   1      39.111  36.463  40.942  1.00  0.00     0.124 S 
ATOM     96  O   UNL A   1      40.432  36.376  41.559  1.00  0.00    -0.237 OA
ATOM     97  O   UNL A   1      38.772  37.758  40.360  1.00  0.00    -0.237 OA
ATOM     98  O   UNL A   1      38.032  35.820  41.689  1.00  0.00    -0.744 OA
ENDBRANCH  94  95
ENDBRANCH  68  89
ENDBRANCH  42  43
ENDBRANCH  34  37
ENDBRANCH  32  33
ENDBRANCH  31  32
ENDBRANCH  30  31
ENDBRANCH   1  30
TORSDOF 22
ENDMDL
MODEL 3
REMARK VINA RESULT:     -10.4      3.532      8.780
REMARK SMILES O=C(C[C@@H](C[NH+]1CCCCC1)C(=O)NCCCCCCNC(=O)c1ccc(-c2c3nc(c(-c4ccc(S(=O)(=O)[O-])cc4)c4ccc([nH]4)c(-c4ccc(S(=O)(=O)[O-])cc4)c4nc(c(-c5ccc(S(=O)(=O)[O-])cc5)c5ccc2[nH]5)C=C4)C=C3)cc1)Nc1ccccc1O
REMARK SMILES IDX 17 1 16 2 15 3 14 4 12 5 13 6 4 8 3 9 2 10 1 11 84 12 85 14
REMARK SMILES IDX 86 15 90 16 87 17 89 18 88 19 91 20 5 22 6 23 7 24 11 25
REMARK SMILES IDX 8 27 10 28 9 29 18 30 19 31 20 32 21 33 22 34 23 36 24 37
REMARK SMILES IDX 25 38 83 39 26 40 82 41 27 42 28 43 29 44 76 45 30 46 81 47
REMARK SMILES IDX 75 48 77 49 31 50 80 51 74 52 73 53 32 55 62 56 43 57 61 58
REMARK SMILES IDX 44 59 47 60 60 61 78 62 45 63 46 64 59 66 79 67 48 68 33 69
REMARK SMILES IDX 34 70 42 71 35 72 41 73 36 74 37 75 38 76 39 77 40 78 63 79
REMARK SMILES IDX 64 80 72 81 65 82 71 83 66 84 67 85 68 86 69 87 70 88 49 89
REMARK SMILES IDX 50 90 58 91 51 92 57 93 52 94 53 95 54 96 55 97 56 98
REMARK H PARENT 14 7 84 13 91 21 6 26 21 35 77 54 47 65
REMARK Flexibility Score: inf
ROOT
ATOM      1  C   UNL A   1      35.831  23.702  24.432  1.00  0.00     0.002 C 
ENDROOT
BRANCH   1   2
ATOM      2  C   UNL A   1      34.573  24.065  25.236  1.00  0.00     0.021 C 
BRANCH   2   3
ATOM      3  C   UNL A   1      33.327  23.235  24.925  1.00  0.00     0.116 C 
BRANCH   3   4
ATOM      4  N   UNL A   1      32.273  23.312  25.920  1.00  0.00    -0.356 N 
ATOM      5  C   UNL A   1      31.214  24.170  26.010  1.00  0.00     0.229 C 
ATOM      6  O   UNL A   1      30.266  23.816  26.722  1.00  0.00    -0.275 OA
ATOM      7  H   UNL A   1      32.329  22.643  26.641  1.00  0.00     0.163 HD
BRANCH   5   8
ATOM      8  C   UNL A   1      31.140  25.525  25.282  1.00  0.00     0.142 C 
BRANCH   8   9
ATOM      9  C   UNL A   1      30.252  25.449  24.037  1.00  0.00     0.119 C 
BRANCH   9  10
ATOM     10  C   UNL A   1      29.152  26.484  23.837  1.00  0.00     0.225 C 
ATOM     11  O   UNL A   1      28.080  26.365  24.431  1.00  0.00    -0.275 OA
ATOM     12  N   UNL A   1      29.492  27.598  23.112  1.00  0.00    -0.323 N 
ATOM     13  H   UNL A   1      30.181  27.461  22.422  1.00  0.00     0.170 HD
BRANCH  12  14
ATOM     14  C   UNL A   1      28.988  28.919  23.222  1.00  0.00     0.083 A 
ATOM     15  C   UNL A   1      29.926  29.892  23.616  1.00  0.00     0.030 A 
ATOM     16  C   UNL A   1      27.650  29.317  23.087  1.00  0.00     0.139 A 
ATOM     17  C   UNL A   1      29.543  31.216  23.859  1.00  0.00     0.002 A 
ATOM     18  C   UNL A   1      27.268  30.636  23.350  1.00  0.00     0.048 A 
ATOM     19  C   UNL A   1      28.211  31.587  23.730  1.00  0.00     0.004 A 
BRANCH  16  20
ATOM     20  O   UNL A   1      26.616  28.490  22.756  1.00  0.00    -0.506 OA
ATOM     21  H   UNL A   1      26.738  27.821  22.111  1.00  0.00     0.293 HD
ENDBRANCH  16  20
ENDBRANCH  12  14
ENDBRANCH   9  10
ENDBRANCH   8   9
BRANCH   8  22
ATOM     22  C   UNL A   1      30.936  26.681  26.285  1.00  0.00     0.276 C 
BRANCH  22  23
ATOM     23  N   UNL A   1      32.041  27.633  26.321  1.00  0.00    -0.334 N 
ATOM     24  C   UNL A   1      31.812  28.876  27.061  1.00  0.00     0.262 C 
ATOM     25  C   UNL A   1      32.739  27.775  25.048  1.00  0.00     0.262 C 
ATOM     26  H   UNL A   1      32.719  27.176  26.932  1.00  0.00     0.348 HD
ATOM     27  C   UNL A   1      32.931  29.908  26.920  1.00  0.00     0.062 C 
ATOM     28  C   UNL A   1      34.042  28.578  25.171  1.00  0.00     0.062 C 
ATOM     29  C   UNL A   1      34.230  29.219  26.544  1.00  0.00     0.012 C 
ENDBRANCH  22  23
ENDBRANCH   8  22
ENDBRANCH   5   8
ENDBRANCH   3   4
ENDBRANCH   2   3
ENDBRANCH   1   2
BRANCH   1  30
ATOM     30  C   UNL A   1      37.047  23.206  25.229  1.00  0.00     0.002 C 
BRANCH  30  31
ATOM     31  C   UNL A   1      37.567  24.133  26.329  1.00  0.00     0.021 C 
BRANCH  31  32
ATOM     32  C   UNL A   1      38.951  23.823  26.884  1.00  0.00     0.116 C 
BRANCH  32  33
ATOM     33  N   UNL A   1      40.021  24.326  26.042  1.00  0.00    -0.352 N 
ATOM     34  C   UNL A   1      40.748  25.483  26.132  1.00  0.00     0.251 C 
ATOM     35  H   UNL A   1      40.262  23.743  25.286  1.00  0.00     0.163 HD
ATOM     36  O   UNL A   1      41.515  25.781  25.207  1.00  0.00    -0.269 OA
BRANCH  34  37
ATOM     37  C   UNL A   1      40.622  26.392  27.295  1.00  0.00     0.039 A 
ATOM     38  C   UNL A   1      39.757  26.034  28.334  1.00  0.00     0.014 A 
ATOM     39  C   UNL A   1      41.308  27.608  27.359  1.00  0.00     0.014 A 
ATOM     40  C   UNL A   1      39.619  26.865  29.451  1.00  0.00     0.010 A 
ATOM     41  C   UNL A   1      41.233  28.396  28.508  1.00  0.00     0.010 A 
ATOM     42  C   UNL A   1      40.376  28.041  29.561  1.00  0.00    -0.014 A 
BRANCH  42  43
ATOM     43  C   UNL A   1      40.265  28.918  30.757  1.00  0.00     0.031 A 
ATOM     44  C   UNL A   1      39.238  30.021  30.800  1.00  0.00     0.074 A 
ATOM     45  C   UNL A   1      41.114  28.751  31.793  1.00  0.00     0.049 A 
ATOM     46  N   UNL A   1      39.011  30.901  31.741  1.00  0.00    -0.248 NA
ATOM     47  C   UNL A   1      38.367  30.167  29.621  1.00  0.00     0.031 C 
ATOM     48  C   UNL A   1      42.176  27.745  31.863  1.00  0.00     0.029 A 
ATOM     49  N   UNL A   1      41.218  29.425  32.984  1.00  0.00    -0.354 N 
ATOM     50  C   UNL A   1      37.987  31.712  31.265  1.00  0.00     0.074 A 
ATOM     51  C   UNL A   1      37.672  31.253  29.930  1.00  0.00     0.031 C 
ATOM     52  C   UNL A   1      42.802  27.848  33.047  1.00  0.00     0.029 A 
ATOM     53  C   UNL A   1      42.219  28.951  33.803  1.00  0.00     0.049 A 
ATOM     54  H   UNL A   1      40.632  30.176  33.232  1.00  0.00     0.167 HD
ATOM     55  C   UNL A   1      37.350  32.733  31.887  1.00  0.00     0.031 A 
ATOM     56  C   UNL A   1      42.626  29.361  35.020  1.00  0.00     0.031 A 
ATOM     57  C   UNL A   1      37.656  33.180  33.220  1.00  0.00     0.049 A 
ATOM     58  C   UNL A   1      41.916  30.509  35.684  1.00  0.00     0.074 A 
ATOM     59  C   UNL A   1      37.028  34.165  33.961  1.00  0.00     0.029 A 
ATOM     60  N   UNL A   1      38.677  32.674  34.010  1.00  0.00    -0.354 N 
ATOM     61  N   UNL A   1      40.901  31.214  35.245  1.00  0.00    -0.248 NA
ATOM     62  C   UNL A   1      42.402  30.913  37.012  1.00  0.00     0.031 C 
ATOM     63  C   UNL A   1      37.706  34.296  35.176  1.00  0.00     0.029 A 
ATOM     64  C   UNL A   1      38.717  33.349  35.218  1.00  0.00     0.049 A 
ATOM     65  H   UNL A   1      39.284  31.944  33.750  1.00  0.00     0.167 HD
ATOM     66  C   UNL A   1      40.610  32.128  36.252  1.00  0.00     0.074 A 
ATOM     67  C   UNL A   1      41.547  31.877  37.329  1.00  0.00     0.031 C 
ATOM     68  C   UNL A   1      39.654  33.088  36.282  1.00  0.00     0.031 A 
BRANCH  55  69
ATOM     69  C   UNL A   1      36.257  33.442  31.129  1.00  0.00    -0.014 A 
ATOM     70  C   UNL A   1      35.005  33.691  31.719  1.00  0.00     0.010 A 
ATOM     71  C   UNL A   1      36.500  33.906  29.823  1.00  0.00     0.010 A 
ATOM     72  C   UNL A   1      34.002  34.351  31.004  1.00  0.00     0.020 A 
ATOM     73  C   UNL A   1      35.511  34.594  29.115  1.00  0.00     0.020 A 
ATOM     74  C   UNL A   1      34.261  34.797  29.704  1.00  0.00     0.054 A 
BRANCH  74  75
ATOM     75  S   UNL A   1      32.948  35.669  28.808  1.00  0.00     0.124 S 
ATOM     76  O   UNL A   1      32.172  36.249  29.902  1.00  0.00    -0.237 OA
ATOM     77  O   UNL A   1      33.696  36.625  27.994  1.00  0.00    -0.237 OA
ATOM     78  O   UNL A   1      32.274  34.610  28.060  1.00  0.00    -0.744 OA
ENDBRANCH  74  75
ENDBRANCH  55  69
BRANCH  56  79
ATOM     79  C   UNL A   1      43.762  28.672  35.694  1.00  0.00    -0.014 A 
ATOM     80  C   UNL A   1      43.588  27.402  36.272  1.00  0.00     0.010 A 
ATOM     81  C   UNL A   1      45.030  29.278  35.748  1.00  0.00     0.010 A 
ATOM     82  C   UNL A   1      44.656  26.758  36.906  1.00  0.00     0.020 A 
ATOM     83  C   UNL A   1      46.107  28.626  36.356  1.00  0.00     0.020 A 
ATOM     84  C   UNL A   1      45.910  27.374  36.941  1.00  0.00     0.054 A 
BRANCH  84  85
ATOM     85  S   UNL A   1      47.294  26.499  37.722  1.00  0.00     0.124 S 
ATOM     86  O   UNL A   1      46.788  25.132  37.795  1.00  0.00    -0.237 OA
ATOM     87  O   UNL A   1      48.383  26.721  36.774  1.00  0.00    -0.237 OA
ATOM     88  O   UNL A   1      47.449  27.179  39.006  1.00  0.00    -0.744 OA
ENDBRANCH  84  85
ENDBRANCH  56  79
BRANCH  68  89
ATOM     89  C   UNL A   1      39.547  33.930  37.525  1.00  0.00    -0.014 A 
ATOM     90  C   UNL A   1      38.727  33.542  38.598  1.00  0.00     0.010 A 
ATOM     91  C   UNL A   1      40.343  35.084  37.652  1.00  0.00     0.010 A 
ATOM     92  C   UNL A   1      38.691  34.304  39.770  1.00  0.00     0.020 A 
ATOM     93  C   UNL A   1      40.331  35.832  38.832  1.00  0.00     0.020 A 
ATOM     94  C   UNL A   1      39.498  35.441  39.881  1.00  0.00     0.054 A 
BRANCH  94  95
ATOM     95  S   UNL A   1      39.484  36.370  41.439  1.00  0.00     0.124 S 
ATOM     96  O   UNL A   1      38.606  35.553  42.272  1.00  0.00    -0.237 OA
ATOM     97  O   UNL A   1      40.893  36.373  41.823  1.00  0.00    -0.237 OA
ATOM     98  O   UNL A   1      38.944  37.674  41.060  1.00  0.00    -0.744 OA
ENDBRANCH  94  95
ENDBRANCH  68  89
ENDBRANCH  42  43
ENDBRANCH  34  37
ENDBRANCH  32  33
ENDBRANCH  31  32
ENDBRANCH  30  31
ENDBRANCH   1  30
TORSDOF 22
ENDMDL
