MODEL 1
REMARK VINA RESULT:     -11.6      0.000      0.000
REMARK SMILES NC(=O)c1c(-c2ccc(Cl)cc2)csc1NC(=O)[C@H]1[C@@H](C(=O)NCCCCCCNC(=O)c2ccc(-c3c4nc(c(-c5ccc(S(=O)(=O)[O-])cc5)c5ccc([nH]5)c(-c5ccc(S(=O)(=O)[O-])cc5)c5nc(c(-c6ccc(S(=O)(=O)[O-])cc6)c6ccc3[nH]6)C=C5)C=C4)cc2)[C@@H]2CC[C@H]1O2
REMARK SMILES IDX 26 1 25 2 24 3 23 4 21 5 22 6 20 8 19 9 96 10 93 11 95 12
REMARK SMILES IDX 97 13 94 14 17 15 16 16 18 18 15 19 4 20 5 21 13 22 14 23
REMARK SMILES IDX 2 24 1 25 3 28 6 29 7 30 12 31 8 32 11 33 9 34 10 35 27 36
REMARK SMILES IDX 28 37 29 38 30 39 31 40 32 42 33 43 34 44 92 45 35 46 91 47
REMARK SMILES IDX 36 48 37 49 38 50 85 51 39 52 90 53 84 54 86 55 40 56 89 57
REMARK SMILES IDX 83 58 82 59 41 61 71 62 52 63 70 64 53 65 56 66 69 67 87 68
REMARK SMILES IDX 54 69 55 70 68 72 88 73 57 74 42 75 43 76 51 77 44 78 50 79
REMARK SMILES IDX 45 80 46 81 47 82 48 83 49 84 72 85 73 86 81 87 74 88 80 89
REMARK SMILES IDX 75 90 76 91 77 92 78 93 79 94 58 95 59 96 67 97 60 98 66 99
REMARK SMILES IDX 61 100 62 101 63 102 64 103 65 104
REMARK H PARENT 23 7 16 17 1 26 1 27 30 41 86 60 56 71
REMARK Flexibility Score: inf
ROOT
ATOM      1  C   UNL A   1      33.645  31.440  27.679  1.00  0.00     0.002 C 
ENDROOT
BRANCH   1   2
ATOM      2  C   UNL A   1      33.102  30.080  27.216  1.00  0.00     0.021 C 
BRANCH   2   3
ATOM      3  C   UNL A   1      31.868  30.166  26.316  1.00  0.00     0.116 C 
BRANCH   3   4
ATOM      4  N   UNL A   1      32.219  30.098  24.912  1.00  0.00    -0.356 N 
ATOM      5  C   UNL A   1      31.879  29.156  23.984  1.00  0.00     0.226 C 
ATOM      6  O   UNL A   1      32.181  29.367  22.810  1.00  0.00    -0.275 OA
ATOM      7  H   UNL A   1      32.783  30.835  24.581  1.00  0.00     0.163 HD
BRANCH   5   8
ATOM      8  C   UNL A   1      31.070  27.954  24.440  1.00  0.00     0.122 C 
ATOM      9  C   UNL A   1      31.801  26.668  24.877  1.00  0.00     0.123 C 
ATOM     10  C   UNL A   1      31.329  25.659  23.807  1.00  0.00     0.132 C 
ATOM     11  C   UNL A   1      30.205  27.439  23.283  1.00  0.00     0.132 C 
ATOM     12  C   UNL A   1      29.891  25.212  24.063  1.00  0.00     0.035 C 
ATOM     13  O   UNL A   1      31.095  26.494  22.650  1.00  0.00    -0.373 OA
ATOM     14  C   UNL A   1      29.112  26.504  23.818  1.00  0.00     0.035 C 
BRANCH   9  15
ATOM     15  C   UNL A   1      33.319  26.622  24.993  1.00  0.00     0.231 C 
ATOM     16  N   UNL A   1      34.019  25.456  25.204  1.00  0.00    -0.317 N 
ATOM     17  H   UNL A   1      34.992  25.599  25.204  1.00  0.00     0.170 HD
ATOM     18  O   UNL A   1      34.000  27.647  24.910  1.00  0.00    -0.274 OA
BRANCH  16  19
ATOM     19  C   UNL A   1      33.680  24.123  25.418  1.00  0.00     0.108 A 
ATOM     20  C   UNL A   1      33.921  23.052  24.548  1.00  0.00     0.082 A 
ATOM     21  C   UNL A   1      33.515  21.791  25.154  1.00  0.00     0.007 A 
ATOM     22  C   UNL A   1      32.941  21.984  26.393  1.00  0.00     0.076 A 
ATOM     23  S   UNL A   1      32.870  23.614  26.812  1.00  0.00    -0.125 S 
BRANCH  20  24
ATOM     24  C   UNL A   1      34.533  23.253  23.235  1.00  0.00     0.252 C 
ATOM     25  N   UNL A   1      35.856  22.949  23.111  1.00  0.00    -0.365 N 
ATOM     26  H   UNL A   1      36.309  23.069  22.246  1.00  0.00     0.159 HD
ATOM     27  H   UNL A   1      36.356  22.610  23.887  1.00  0.00     0.159 HD
ATOM     28  O   UNL A   1      33.894  23.625  22.249  1.00  0.00    -0.269 OA
ENDBRANCH  20  24
BRANCH  21  29
ATOM     29  C   UNL A   1      33.674  20.422  24.684  1.00  0.00    -0.017 A 
ATOM     30  C   UNL A   1      32.610  19.783  24.026  1.00  0.00     0.010 A 
ATOM     31  C   UNL A   1      34.858  19.715  24.928  1.00  0.00     0.010 A 
ATOM     32  C   UNL A   1      32.730  18.453  23.619  1.00  0.00     0.021 A 
ATOM     33  C   UNL A   1      34.977  18.385  24.515  1.00  0.00     0.021 A 
ATOM     34  C   UNL A   1      33.914  17.761  23.863  1.00  0.00     0.041 A 
ATOM     35  Cl  UNL A   1      34.059  16.123  23.358  1.00  0.00    -0.084 Cl
ENDBRANCH  21  29
ENDBRANCH  16  19
ENDBRANCH   9  15
ENDBRANCH   5   8
ENDBRANCH   3   4
ENDBRANCH   2   3
ENDBRANCH   1   2
BRANCH   1  36
ATOM     36  C   UNL A   1      35.170  31.586  27.646  1.00  0.00     0.002 C 
BRANCH  36  37
ATOM     37  C   UNL A   1      35.706  32.955  28.069  1.00  0.00     0.021 C 
BRANCH  37  38
ATOM     38  C   UNL A   1      36.666  32.936  29.255  1.00  0.00     0.116 C 
BRANCH  38  39
ATOM     39  N   UNL A   1      36.178  32.124  30.359  1.00  0.00    -0.352 N 
ATOM     40  C   UNL A   1      36.673  30.939  30.848  1.00  0.00     0.251 C 
ATOM     41  H   UNL A   1      35.381  32.472  30.820  1.00  0.00     0.163 HD
ATOM     42  O   UNL A   1      36.040  30.304  31.685  1.00  0.00    -0.269 OA
BRANCH  40  43
ATOM     43  C   UNL A   1      37.962  30.419  30.338  1.00  0.00     0.039 A 
ATOM     44  C   UNL A   1      38.096  30.165  28.971  1.00  0.00     0.014 A 
ATOM     45  C   UNL A   1      39.036  30.198  31.203  1.00  0.00     0.014 A 
ATOM     46  C   UNL A   1      39.330  29.751  28.463  1.00  0.00     0.010 A 
ATOM     47  C   UNL A   1      40.282  29.858  30.687  1.00  0.00     0.010 A 
ATOM     48  C   UNL A   1      40.443  29.630  29.311  1.00  0.00    -0.014 A 
BRANCH  48  49
ATOM     49  C   UNL A   1      41.783  29.270  28.779  1.00  0.00     0.031 A 
ATOM     50  C   UNL A   1      42.075  27.855  28.355  1.00  0.00     0.074 A 
ATOM     51  C   UNL A   1      42.757  30.201  28.738  1.00  0.00     0.049 A 
ATOM     52  N   UNL A   1      43.197  27.339  27.925  1.00  0.00    -0.248 NA
ATOM     53  C   UNL A   1      40.968  26.890  28.449  1.00  0.00     0.031 C 
ATOM     54  C   UNL A   1      42.612  31.599  29.156  1.00  0.00     0.029 A 
ATOM     55  N   UNL A   1      44.065  30.113  28.330  1.00  0.00    -0.354 N 
ATOM     56  C   UNL A   1      42.937  25.990  27.713  1.00  0.00     0.074 A 
ATOM     57  C   UNL A   1      41.567  25.757  28.113  1.00  0.00     0.031 C 
ATOM     58  C   UNL A   1      43.775  32.240  28.956  1.00  0.00     0.029 A 
ATOM     59  C   UNL A   1      44.761  31.295  28.442  1.00  0.00     0.049 A 
ATOM     60  H   UNL A   1      44.468  29.282  27.990  1.00  0.00     0.167 HD
ATOM     61  C   UNL A   1      43.758  25.034  27.214  1.00  0.00     0.031 A 
ATOM     62  C   UNL A   1      46.048  31.586  28.170  1.00  0.00     0.031 A 
ATOM     63  C   UNL A   1      45.120  25.272  26.813  1.00  0.00     0.049 A 
ATOM     64  C   UNL A   1      46.945  30.504  27.633  1.00  0.00     0.074 A 
ATOM     65  C   UNL A   1      46.015  24.383  26.246  1.00  0.00     0.029 A 
ATOM     66  N   UNL A   1      45.783  26.483  26.937  1.00  0.00    -0.354 N 
ATOM     67  N   UNL A   1      46.661  29.248  27.380  1.00  0.00    -0.248 NA
ATOM     68  C   UNL A   1      48.334  30.880  27.335  1.00  0.00     0.031 C 
ATOM     69  C   UNL A   1      47.239  25.040  26.082  1.00  0.00     0.029 A 
ATOM     70  C   UNL A   1      47.086  26.358  26.483  1.00  0.00     0.049 A 
ATOM     71  H   UNL A   1      45.387  27.311  27.295  1.00  0.00     0.167 HD
ATOM     72  C   UNL A   1      47.827  28.693  26.864  1.00  0.00     0.074 A 
ATOM     73  C   UNL A   1      48.815  29.752  26.830  1.00  0.00     0.031 C 
ATOM     74  C   UNL A   1      48.059  27.421  26.454  1.00  0.00     0.031 A 
BRANCH  61  75
ATOM     75  C   UNL A   1      43.206  23.638  27.084  1.00  0.00    -0.014 A 
ATOM     76  C   UNL A   1      43.162  22.767  28.188  1.00  0.00     0.010 A 
ATOM     77  C   UNL A   1      42.686  23.204  25.851  1.00  0.00     0.010 A 
ATOM     78  C   UNL A   1      42.647  21.475  28.050  1.00  0.00     0.020 A 
ATOM     79  C   UNL A   1      42.142  21.923  25.717  1.00  0.00     0.020 A 
ATOM     80  C   UNL A   1      42.143  21.060  26.815  1.00  0.00     0.054 A 
BRANCH  80  81
ATOM     81  S   UNL A   1      41.460  19.386  26.672  1.00  0.00     0.124 S 
ATOM     82  O   UNL A   1      40.876  19.187  27.997  1.00  0.00    -0.237 OA
ATOM     83  O   UNL A   1      40.502  19.524  25.579  1.00  0.00    -0.237 OA
ATOM     84  O   UNL A   1      42.626  18.559  26.375  1.00  0.00    -0.744 OA
ENDBRANCH  80  81
ENDBRANCH  61  75
BRANCH  62  85
ATOM     85  C   UNL A   1      46.562  32.966  28.391  1.00  0.00    -0.014 A 
ATOM     86  C   UNL A   1      47.234  33.298  29.580  1.00  0.00     0.010 A 
ATOM     87  C   UNL A   1      46.390  33.955  27.404  1.00  0.00     0.010 A 
ATOM     88  C   UNL A   1      47.707  34.597  29.788  1.00  0.00     0.020 A 
ATOM     89  C   UNL A   1      46.888  35.247  27.596  1.00  0.00     0.020 A 
ATOM     90  C   UNL A   1      47.534  35.563  28.792  1.00  0.00     0.054 A 
BRANCH  90  91
ATOM     91  S   UNL A   1      48.201  37.228  29.062  1.00  0.00     0.124 S 
ATOM     92  O   UNL A   1      47.039  37.938  29.589  1.00  0.00    -0.237 OA
ATOM     93  O   UNL A   1      49.281  36.985  30.013  1.00  0.00    -0.237 OA
ATOM     94  O   UNL A   1      48.636  37.643  27.730  1.00  0.00    -0.744 OA
ENDBRANCH  90  91
ENDBRANCH  62  85
BRANCH  74  95
ATOM     95  C   UNL A   1      49.421  27.107  25.894  1.00  0.00    -0.014 A 
ATOM     96  C   UNL A   1      50.462  26.642  26.718  1.00  0.00     0.010 A 
ATOM     97  C   UNL A   1      49.644  27.228  24.510  1.00  0.00     0.010 A 
ATOM     98  C   UNL A   1      51.711  26.334  26.171  1.00  0.00     0.020 A 
ATOM     99  C   UNL A   1      50.882  26.891  23.956  1.00  0.00     0.020 A 
ATOM    100  C   UNL A   1      51.912  26.458  24.792  1.00  0.00     0.054 A 
BRANCH 100 101
ATOM    101  S   UNL A   1      53.527  26.007  24.102  1.00  0.00     0.124 S 
ATOM    102  O   UNL A   1      53.735  24.674  24.660  1.00  0.00    -0.237 OA
ATOM    103  O   UNL A   1      53.284  26.054  22.662  1.00  0.00    -0.237 OA
ATOM    104  O   UNL A   1      54.424  27.043  24.611  1.00  0.00    -0.744 OA
ENDBRANCH 100 101
ENDBRANCH  74  95
ENDBRANCH  48  49
ENDBRANCH  40  43
ENDBRANCH  38  39
ENDBRANCH  37  38
ENDBRANCH  36  37
ENDBRANCH   1  36
TORSDOF 20
ENDMDL
MODEL 2
REMARK VINA RESULT:     -11.5      5.937     10.098
REMARK SMILES NC(=O)c1c(-c2ccc(Cl)cc2)csc1NC(=O)[C@H]1[C@@H](C(=O)NCCCCCCNC(=O)c2ccc(-c3c4nc(c(-c5ccc(S(=O)(=O)[O-])cc5)c5ccc([nH]5)c(-c5ccc(S(=O)(=O)[O-])cc5)c5nc(c(-c6ccc(S(=O)(=O)[O-])cc6)c6ccc3[nH]6)C=C5)C=C4)cc2)[C@@H]2CC[C@H]1O2
REMARK SMILES IDX 26 1 25 2 24 3 23 4 21 5 22 6 20 8 19 9 96 10 93 11 95 12
REMARK SMILES IDX 97 13 94 14 17 15 16 16 18 18 15 19 4 20 5 21 13 22 14 23
REMARK SMILES IDX 2 24 1 25 3 28 6 29 7 30 12 31 8 32 11 33 9 34 10 35 27 36
REMARK SMILES IDX 28 37 29 38 30 39 31 40 32 42 33 43 34 44 92 45 35 46 91 47
REMARK SMILES IDX 36 48 37 49 38 50 85 51 39 52 90 53 84 54 86 55 40 56 89 57
REMARK SMILES IDX 83 58 82 59 41 61 71 62 52 63 70 64 53 65 56 66 69 67 87 68
REMARK SMILES IDX 54 69 55 70 68 72 88 73 57 74 42 75 43 76 51 77 44 78 50 79
REMARK SMILES IDX 45 80 46 81 47 82 48 83 49 84 72 85 73 86 81 87 74 88 80 89
REMARK SMILES IDX 75 90 76 91 77 92 78 93 79 94 58 95 59 96 67 97 60 98 66 99
REMARK SMILES IDX 61 100 62 101 63 102 64 103 65 104
REMARK H PARENT 23 7 16 17 1 26 1 27 30 41 86 60 56 71
REMARK Flexibility Score: inf
ROOT
ATOM      1  C   UNL A   1      33.885  31.141  27.629  1.00  0.00     0.002 C 
ENDROOT
BRANCH   1   2
ATOM      2  C   UNL A   1      34.899  29.988  27.644  1.00  0.00     0.021 C 
BRANCH   2   3
ATOM      3  C   UNL A   1      34.466  28.756  26.848  1.00  0.00     0.116 C 
BRANCH   3   4
ATOM      4  N   UNL A   1      33.835  29.118  25.595  1.00  0.00    -0.356 N 
ATOM      5  C   UNL A   1      32.811  28.501  24.937  1.00  0.00     0.226 C 
ATOM      6  O   UNL A   1      32.343  29.059  23.945  1.00  0.00    -0.275 OA
ATOM      7  H   UNL A   1      34.197  29.922  25.156  1.00  0.00     0.163 HD
BRANCH   5   8
ATOM      8  C   UNL A   1      32.250  27.215  25.520  1.00  0.00     0.122 C 
ATOM      9  C   UNL A   1      32.758  25.857  24.991  1.00  0.00     0.123 C 
ATOM     10  C   UNL A   1      31.478  25.268  24.359  1.00  0.00     0.132 C 
ATOM     11  C   UNL A   1      30.749  27.120  25.222  1.00  0.00     0.132 C 
ATOM     12  C   UNL A   1      30.514  24.759  25.430  1.00  0.00     0.035 C 
ATOM     13  O   UNL A   1      30.745  26.443  23.947  1.00  0.00    -0.373 OA
ATOM     14  C   UNL A   1      30.101  26.058  26.122  1.00  0.00     0.035 C 
BRANCH   9  15
ATOM     15  C   UNL A   1      33.908  25.776  23.996  1.00  0.00     0.231 C 
ATOM     16  N   UNL A   1      34.707  24.664  23.865  1.00  0.00    -0.317 N 
ATOM     17  H   UNL A   1      35.369  24.761  23.144  1.00  0.00     0.170 HD
ATOM     18  O   UNL A   1      34.184  26.724  23.256  1.00  0.00    -0.274 OA
BRANCH  16  19
ATOM     19  C   UNL A   1      34.805  23.433  24.509  1.00  0.00     0.108 A 
ATOM     20  C   UNL A   1      34.074  22.277  24.210  1.00  0.00     0.082 A 
ATOM     21  C   UNL A   1      34.518  21.158  25.030  1.00  0.00     0.007 A 
ATOM     22  C   UNL A   1      35.492  21.540  25.928  1.00  0.00     0.076 A 
ATOM     23  S   UNL A   1      35.851  23.182  25.812  1.00  0.00    -0.125 S 
BRANCH  20  24
ATOM     24  C   UNL A   1      33.039  22.268  23.176  1.00  0.00     0.252 C 
ATOM     25  N   UNL A   1      31.811  21.796  23.529  1.00  0.00    -0.365 N 
ATOM     26  H   UNL A   1      31.084  21.771  22.865  1.00  0.00     0.159 HD
ATOM     27  H   UNL A   1      31.651  21.479  24.446  1.00  0.00     0.159 HD
ATOM     28  O   UNL A   1      33.223  22.715  22.042  1.00  0.00    -0.269 OA
ENDBRANCH  20  24
BRANCH  21  29
ATOM     29  C   UNL A   1      34.138  19.752  24.997  1.00  0.00    -0.017 A 
ATOM     30  C   UNL A   1      32.910  19.349  25.547  1.00  0.00     0.010 A 
ATOM     31  C   UNL A   1      35.008  18.789  24.472  1.00  0.00     0.010 A 
ATOM     32  C   UNL A   1      32.558  17.999  25.570  1.00  0.00     0.021 A 
ATOM     33  C   UNL A   1      34.651  17.437  24.491  1.00  0.00     0.021 A 
ATOM     34  C   UNL A   1      33.428  17.048  25.041  1.00  0.00     0.041 A 
ATOM     35  Cl  UNL A   1      32.991  15.385  25.070  1.00  0.00    -0.084 Cl
ENDBRANCH  21  29
ENDBRANCH  16  19
ENDBRANCH   9  15
ENDBRANCH   5   8
ENDBRANCH   3   4
ENDBRANCH   2   3
ENDBRANCH   1   2
BRANCH   1  36
ATOM     36  C   UNL A   1      34.335  32.423  28.340  1.00  0.00     0.002 C 
BRANCH  36  37
ATOM     37  C   UNL A   1      33.471  33.657  28.074  1.00  0.00     0.021 C 
BRANCH  37  38
ATOM     38  C   UNL A   1      33.955  34.941  28.740  1.00  0.00     0.116 C 
BRANCH  38  39
ATOM     39  N   UNL A   1      33.038  35.423  29.761  1.00  0.00    -0.352 N 
ATOM     40  C   UNL A   1      33.072  35.222  31.121  1.00  0.00     0.251 C 
ATOM     41  H   UNL A   1      32.288  35.970  29.433  1.00  0.00     0.163 HD
ATOM     42  O   UNL A   1      32.125  35.568  31.820  1.00  0.00    -0.269 OA
BRANCH  40  43
ATOM     43  C   UNL A   1      34.246  34.561  31.733  1.00  0.00     0.039 A 
ATOM     44  C   UNL A   1      34.101  33.277  32.261  1.00  0.00     0.014 A 
ATOM     45  C   UNL A   1      35.488  35.202  31.770  1.00  0.00     0.014 A 
ATOM     46  C   UNL A   1      35.217  32.609  32.769  1.00  0.00     0.010 A 
ATOM     47  C   UNL A   1      36.611  34.507  32.208  1.00  0.00     0.010 A 
ATOM     48  C   UNL A   1      36.489  33.203  32.714  1.00  0.00    -0.014 A 
BRANCH  48  49
ATOM     49  C   UNL A   1      37.701  32.478  33.173  1.00  0.00     0.031 A 
ATOM     50  C   UNL A   1      38.373  32.868  34.463  1.00  0.00     0.074 A 
ATOM     51  C   UNL A   1      38.235  31.512  32.399  1.00  0.00     0.049 A 
ATOM     52  N   UNL A   1      39.470  32.394  34.996  1.00  0.00    -0.248 NA
ATOM     53  C   UNL A   1      37.744  33.946  35.242  1.00  0.00     0.031 C 
ATOM     54  C   UNL A   1      37.701  31.067  31.108  1.00  0.00     0.029 A 
ATOM     55  N   UNL A   1      39.351  30.733  32.580  1.00  0.00    -0.354 N 
ATOM     56  C   UNL A   1      39.671  33.125  36.161  1.00  0.00     0.074 A 
ATOM     57  C   UNL A   1      38.612  34.108  36.230  1.00  0.00     0.031 C 
ATOM     58  C   UNL A   1      38.472  30.078  30.631  1.00  0.00     0.029 A 
ATOM     59  C   UNL A   1      39.580  29.847  31.552  1.00  0.00     0.049 A 
ATOM     60  H   UNL A   1      39.933  30.801  33.371  1.00  0.00     0.167 HD
ATOM     61  C   UNL A   1      40.637  32.980  37.100  1.00  0.00     0.031 A 
ATOM     62  C   UNL A   1      40.573  28.955  31.366  1.00  0.00     0.031 A 
ATOM     63  C   UNL A   1      41.685  31.995  37.030  1.00  0.00     0.049 A 
ATOM     64  C   UNL A   1      41.645  28.823  32.413  1.00  0.00     0.074 A 
ATOM     65  C   UNL A   1      42.679  31.733  37.956  1.00  0.00     0.029 A 
ATOM     66  N   UNL A   1      41.878  31.115  35.977  1.00  0.00    -0.354 N 
ATOM     67  N   UNL A   1      41.780  29.481  33.541  1.00  0.00    -0.248 NA
ATOM     68  C   UNL A   1      42.692  27.822  32.169  1.00  0.00     0.031 C 
ATOM     69  C   UNL A   1      43.508  30.734  37.436  1.00  0.00     0.029 A 
ATOM     70  C   UNL A   1      42.991  30.326  36.216  1.00  0.00     0.049 A 
ATOM     71  H   UNL A   1      41.307  31.058  35.176  1.00  0.00     0.167 HD
ATOM     72  C   UNL A   1      42.910  28.952  34.155  1.00  0.00     0.074 A 
ATOM     73  C   UNL A   1      43.412  27.911  33.280  1.00  0.00     0.031 C 
ATOM     74  C   UNL A   1      43.479  29.294  35.337  1.00  0.00     0.031 A 
BRANCH  61  75
ATOM     75  C   UNL A   1      40.611  33.915  38.280  1.00  0.00    -0.014 A 
ATOM     76  C   UNL A   1      39.926  33.578  39.462  1.00  0.00     0.010 A 
ATOM     77  C   UNL A   1      41.315  35.132  38.224  1.00  0.00     0.010 A 
ATOM     78  C   UNL A   1      39.910  34.457  40.548  1.00  0.00     0.020 A 
ATOM     79  C   UNL A   1      41.327  36.001  39.320  1.00  0.00     0.020 A 
ATOM     80  C   UNL A   1      40.609  35.665  40.469  1.00  0.00     0.054 A 
BRANCH  80  81
ATOM     81  S   UNL A   1      40.591  36.775  41.902  1.00  0.00     0.124 S 
ATOM     82  O   UNL A   1      41.641  36.200  42.741  1.00  0.00    -0.237 OA
ATOM     83  O   UNL A   1      40.904  38.071  41.307  1.00  0.00    -0.237 OA
ATOM     84  O   UNL A   1      39.234  36.644  42.427  1.00  0.00    -0.744 OA
ENDBRANCH  80  81
ENDBRANCH  61  75
BRANCH  62  85
ATOM     85  C   UNL A   1      40.592  28.108  30.142  1.00  0.00    -0.014 A 
ATOM     86  C   UNL A   1      41.538  28.336  29.127  1.00  0.00     0.010 A 
ATOM     87  C   UNL A   1      39.667  27.058  29.988  1.00  0.00     0.010 A 
ATOM     88  C   UNL A   1      41.548  27.545  27.975  1.00  0.00     0.020 A 
ATOM     89  C   UNL A   1      39.693  26.246  28.851  1.00  0.00     0.020 A 
ATOM     90  C   UNL A   1      40.627  26.502  27.846  1.00  0.00     0.054 A 
BRANCH  90  91
ATOM     91  S   UNL A   1      40.690  25.456  26.365  1.00  0.00     0.124 S 
ATOM     92  O   UNL A   1      41.069  26.415  25.332  1.00  0.00    -0.237 OA
ATOM     93  O   UNL A   1      41.706  24.469  26.719  1.00  0.00    -0.237 OA
ATOM     94  O   UNL A   1      39.331  24.929  26.260  1.00  0.00    -0.744 OA
ENDBRANCH  90  91
ENDBRANCH  62  85
BRANCH  74  95
ATOM     95  C   UNL A   1      44.689  28.513  35.778  1.00  0.00    -0.014 A 
ATOM     96  C   UNL A   1      44.566  27.346  36.553  1.00  0.00     0.010 A 
ATOM     97  C   UNL A   1      45.968  28.927  35.362  1.00  0.00     0.010 A 
ATOM     98  C   UNL A   1      45.702  26.624  36.928  1.00  0.00     0.020 A 
ATOM     99  C   UNL A   1      47.104  28.191  35.709  1.00  0.00     0.020 A 
ATOM    100  C   UNL A   1      46.965  27.051  36.502  1.00  0.00     0.054 A 
BRANCH 100 101
ATOM    101  S   UNL A   1      48.419  26.071  36.965  1.00  0.00     0.124 S 
ATOM    102  O   UNL A   1      48.450  25.058  35.913  1.00  0.00    -0.237 OA
ATOM    103  O   UNL A   1      49.496  27.057  36.921  1.00  0.00    -0.237 OA
ATOM    104  O   UNL A   1      48.091  25.573  38.299  1.00  0.00    -0.744 OA
ENDBRANCH 100 101
ENDBRANCH  74  95
ENDBRANCH  48  49
ENDBRANCH  40  43
ENDBRANCH  38  39
ENDBRANCH  37  38
ENDBRANCH  36  37
ENDBRANCH   1  36
TORSDOF 20
ENDMDL
MODEL 3
REMARK VINA RESULT:     -11.4      5.955      9.810
REMARK SMILES NC(=O)c1c(-c2ccc(Cl)cc2)csc1NC(=O)[C@H]1[C@@H](C(=O)NCCCCCCNC(=O)c2ccc(-c3c4nc(c(-c5ccc(S(=O)(=O)[O-])cc5)c5ccc([nH]5)c(-c5ccc(S(=O)(=O)[O-])cc5)c5nc(c(-c6ccc(S(=O)(=O)[O-])cc6)c6ccc3[nH]6)C=C5)C=C4)cc2)[C@@H]2CC[C@H]1O2
REMARK SMILES IDX 26 1 25 2 24 3 23 4 21 5 22 6 20 8 19 9 96 10 93 11 95 12
REMARK SMILES IDX 97 13 94 14 17 15 16 16 18 18 15 19 4 20 5 21 13 22 14 23
REMARK SMILES IDX 2 24 1 25 3 28 6 29 7 30 12 31 8 32 11 33 9 34 10 35 27 36
REMARK SMILES IDX 28 37 29 38 30 39 31 40 32 42 33 43 34 44 92 45 35 46 91 47
REMARK SMILES IDX 36 48 37 49 38 50 85 51 39 52 90 53 84 54 86 55 40 56 89 57
REMARK SMILES IDX 83 58 82 59 41 61 71 62 52 63 70 64 53 65 56 66 69 67 87 68
REMARK SMILES IDX 54 69 55 70 68 72 88 73 57 74 42 75 43 76 51 77 44 78 50 79
REMARK SMILES IDX 45 80 46 81 47 82 48 83 49 84 72 85 73 86 81 87 74 88 80 89
REMARK SMILES IDX 75 90 76 91 77 92 78 93 79 94 58 95 59 96 67 97 60 98 66 99
REMARK SMILES IDX 61 100 62 101 63 102 64 103 65 104
REMARK H PARENT 23 7 16 17 1 26 1 27 30 41 86 60 56 71
REMARK Flexibility Score: inf
ROOT
ATOM      1  C   UNL A   1      33.726  31.307  27.737  1.00  0.00     0.002 C 
ENDROOT
BRANCH   1   2
ATOM      2  C   UNL A   1      32.357  31.503  27.070  1.00  0.00     0.021 C 
BRANCH   2   3
ATOM      3  C   UNL A   1      31.807  30.255  26.378  1.00  0.00     0.116 C 
BRANCH   3   4
ATOM      4  N   UNL A   1      32.284  30.139  25.015  1.00  0.00    -0.356 N 
ATOM      5  C   UNL A   1      31.995  29.188  24.079  1.00  0.00     0.226 C 
ATOM      6  O   UNL A   1      32.414  29.359  22.935  1.00  0.00    -0.275 OA
ATOM      7  H   UNL A   1      32.906  30.846  24.723  1.00  0.00     0.163 HD
BRANCH   5   8
ATOM      8  C   UNL A   1      31.100  28.029  24.481  1.00  0.00     0.122 C 
ATOM      9  C   UNL A   1      31.736  26.720  24.994  1.00  0.00     0.123 C 
ATOM     10  C   UNL A   1      31.310  25.715  23.901  1.00  0.00     0.132 C 
ATOM     11  C   UNL A   1      30.312  27.533  23.263  1.00  0.00     0.132 C 
ATOM     12  C   UNL A   1      29.838  25.333  24.043  1.00  0.00     0.035 C 
ATOM     13  O   UNL A   1      31.209  26.540  22.719  1.00  0.00    -0.373 OA
ATOM     14  C   UNL A   1      29.139  26.654  23.718  1.00  0.00     0.035 C 
BRANCH   9  15
ATOM     15  C   UNL A   1      33.236  26.612  25.237  1.00  0.00     0.231 C 
ATOM     16  N   UNL A   1      33.874  25.413  25.457  1.00  0.00    -0.317 N 
ATOM     17  H   UNL A   1      34.848  25.519  25.545  1.00  0.00     0.170 HD
ATOM     18  O   UNL A   1      33.957  27.613  25.256  1.00  0.00    -0.274 OA
BRANCH  16  19
ATOM     19  C   UNL A   1      33.472  24.086  25.583  1.00  0.00     0.108 A 
ATOM     20  C   UNL A   1      33.800  23.031  24.723  1.00  0.00     0.082 A 
ATOM     21  C   UNL A   1      33.280  21.769  25.232  1.00  0.00     0.007 A 
ATOM     22  C   UNL A   1      32.548  21.948  26.386  1.00  0.00     0.076 A 
ATOM     23  S   UNL A   1      32.466  23.569  26.839  1.00  0.00    -0.125 S 
BRANCH  20  24
ATOM     24  C   UNL A   1      34.590  23.245  23.512  1.00  0.00     0.252 C 
ATOM     25  N   UNL A   1      35.838  22.698  23.477  1.00  0.00    -0.365 N 
ATOM     26  H   UNL A   1      36.405  22.817  22.683  1.00  0.00     0.159 HD
ATOM     27  H   UNL A   1      36.170  22.186  24.248  1.00  0.00     0.159 HD
ATOM     28  O   UNL A   1      34.154  23.841  22.525  1.00  0.00    -0.269 OA
ENDBRANCH  20  24
BRANCH  21  29
ATOM     29  C   UNL A   1      33.463  20.407  24.748  1.00  0.00    -0.017 A 
ATOM     30  C   UNL A   1      34.679  19.744  24.977  1.00  0.00     0.010 A 
ATOM     31  C   UNL A   1      32.458  19.771  24.008  1.00  0.00     0.010 A 
ATOM     32  C   UNL A   1      34.887  18.459  24.471  1.00  0.00     0.021 A 
ATOM     33  C   UNL A   1      32.667  18.482  23.508  1.00  0.00     0.021 A 
ATOM     34  C   UNL A   1      33.879  17.833  23.741  1.00  0.00     0.041 A 
ATOM     35  Cl  UNL A   1      34.138  16.250  23.121  1.00  0.00    -0.084 Cl
ENDBRANCH  21  29
ENDBRANCH  16  19
ENDBRANCH   9  15
ENDBRANCH   5   8
ENDBRANCH   3   4
ENDBRANCH   2   3
ENDBRANCH   1   2
BRANCH   1  36
ATOM     36  C   UNL A   1      34.332  32.561  28.377  1.00  0.00     0.002 C 
BRANCH  36  37
ATOM     37  C   UNL A   1      33.678  33.884  27.973  1.00  0.00     0.021 C 
BRANCH  37  38
ATOM     38  C   UNL A   1      34.068  35.086  28.828  1.00  0.00     0.116 C 
BRANCH  38  39
ATOM     39  N   UNL A   1      33.076  35.395  29.847  1.00  0.00    -0.352 N 
ATOM     40  C   UNL A   1      33.090  35.094  31.188  1.00  0.00     0.251 C 
ATOM     41  H   UNL A   1      32.286  35.890  29.532  1.00  0.00     0.163 HD
ATOM     42  O   UNL A   1      32.092  35.290  31.874  1.00  0.00    -0.269 OA
BRANCH  40  43
ATOM     43  C   UNL A   1      34.305  34.505  31.793  1.00  0.00     0.039 A 
ATOM     44  C   UNL A   1      34.309  33.148  32.121  1.00  0.00     0.014 A 
ATOM     45  C   UNL A   1      35.441  35.287  32.021  1.00  0.00     0.014 A 
ATOM     46  C   UNL A   1      35.475  32.560  32.618  1.00  0.00     0.010 A 
ATOM     47  C   UNL A   1      36.621  34.686  32.445  1.00  0.00     0.010 A 
ATOM     48  C   UNL A   1      36.652  33.315  32.749  1.00  0.00    -0.014 A 
BRANCH  48  49
ATOM     49  C   UNL A   1      37.923  32.692  33.198  1.00  0.00     0.031 A 
ATOM     50  C   UNL A   1      38.449  32.957  34.584  1.00  0.00     0.074 A 
ATOM     51  C   UNL A   1      38.638  31.940  32.338  1.00  0.00     0.049 A 
ATOM     52  N   UNL A   1      39.566  32.553  35.132  1.00  0.00    -0.248 NA
ATOM     53  C   UNL A   1      37.624  33.806  35.458  1.00  0.00     0.031 C 
ATOM     54  C   UNL A   1      38.256  31.638  30.955  1.00  0.00     0.029 A 
ATOM     55  N   UNL A   1      39.840  31.295  32.496  1.00  0.00    -0.354 N 
ATOM     56  C   UNL A   1      39.585  33.110  36.406  1.00  0.00     0.074 A 
ATOM     57  C   UNL A   1      38.395  33.923  36.529  1.00  0.00     0.031 C 
ATOM     58  C   UNL A   1      39.190  30.847  30.403  1.00  0.00     0.029 A 
ATOM     59  C   UNL A   1      40.258  30.621  31.371  1.00  0.00     0.049 A 
ATOM     60  H   UNL A   1      40.354  31.313  33.334  1.00  0.00     0.167 HD
ATOM     61  C   UNL A   1      40.501  32.946  37.391  1.00  0.00     0.031 A 
ATOM     62  C   UNL A   1      41.378  29.907  31.140  1.00  0.00     0.031 A 
ATOM     63  C   UNL A   1      41.681  32.131  37.266  1.00  0.00     0.049 A 
ATOM     64  C   UNL A   1      42.388  29.753  32.244  1.00  0.00     0.074 A 
ATOM     65  C   UNL A   1      42.641  31.858  38.224  1.00  0.00     0.029 A 
ATOM     66  N   UNL A   1      42.064  31.461  36.114  1.00  0.00    -0.354 N 
ATOM     67  N   UNL A   1      42.356  30.236  33.464  1.00  0.00    -0.248 NA
ATOM     68  C   UNL A   1      43.581  28.949  31.945  1.00  0.00     0.031 C 
ATOM     69  C   UNL A   1      43.635  31.071  37.634  1.00  0.00     0.029 A 
ATOM     70  C   UNL A   1      43.261  30.797  36.328  1.00  0.00     0.049 A 
ATOM     71  H   UNL A   1      41.559  31.458  35.268  1.00  0.00     0.167 HD
ATOM     72  C   UNL A   1      43.509  29.768  34.087  1.00  0.00     0.074 A 
ATOM     73  C   UNL A   1      44.209  28.954  33.113  1.00  0.00     0.031 C 
ATOM     74  C   UNL A   1      43.946  29.991  35.350  1.00  0.00     0.031 A 
BRANCH  61  75
ATOM     75  C   UNL A   1      40.266  33.671  38.691  1.00  0.00    -0.014 A 
ATOM     76  C   UNL A   1      39.584  33.055  39.756  1.00  0.00     0.010 A 
ATOM     77  C   UNL A   1      40.769  34.973  38.866  1.00  0.00     0.010 A 
ATOM     78  C   UNL A   1      39.373  33.741  40.955  1.00  0.00     0.020 A 
ATOM     79  C   UNL A   1      40.588  35.652  40.075  1.00  0.00     0.020 A 
ATOM     80  C   UNL A   1      39.874  35.037  41.106  1.00  0.00     0.054 A 
BRANCH  80  81
ATOM     81  S   UNL A   1      39.607  35.894  42.681  1.00  0.00     0.124 S 
ATOM     82  O   UNL A   1      39.838  37.288  42.307  1.00  0.00    -0.237 OA
ATOM     83  O   UNL A   1      38.223  35.553  43.000  1.00  0.00    -0.237 OA
ATOM     84  O   UNL A   1      40.610  35.314  43.569  1.00  0.00    -0.744 OA
ENDBRANCH  80  81
ENDBRANCH  61  75
BRANCH  62  85
ATOM     85  C   UNL A   1      41.596  29.275  29.810  1.00  0.00    -0.014 A 
ATOM     86  C   UNL A   1      41.128  27.975  29.548  1.00  0.00     0.010 A 
ATOM     87  C   UNL A   1      42.268  29.976  28.792  1.00  0.00     0.010 A 
ATOM     88  C   UNL A   1      41.343  27.381  28.302  1.00  0.00     0.020 A 
ATOM     89  C   UNL A   1      42.458  29.397  27.534  1.00  0.00     0.020 A 
ATOM     90  C   UNL A   1      42.004  28.098  27.300  1.00  0.00     0.054 A 
BRANCH  90  91
ATOM     91  S   UNL A   1      42.228  27.326  25.674  1.00  0.00     0.124 S 
ATOM     92  O   UNL A   1      42.233  28.485  24.786  1.00  0.00    -0.237 OA
ATOM     93  O   UNL A   1      43.506  26.636  25.825  1.00  0.00    -0.237 OA
ATOM     94  O   UNL A   1      41.066  26.448  25.549  1.00  0.00    -0.744 OA
ENDBRANCH  90  91
ENDBRANCH  62  85
BRANCH  74  95
ATOM     95  C   UNL A   1      45.225  29.316  35.773  1.00  0.00    -0.014 A 
ATOM     96  C   UNL A   1      46.473  29.943  35.610  1.00  0.00     0.010 A 
ATOM     97  C   UNL A   1      45.167  28.055  36.395  1.00  0.00     0.010 A 
ATOM     98  C   UNL A   1      47.643  29.306  36.033  1.00  0.00     0.020 A 
ATOM     99  C   UNL A   1      46.332  27.430  36.848  1.00  0.00     0.020 A 
ATOM    100  C   UNL A   1      47.565  28.054  36.652  1.00  0.00     0.054 A 
BRANCH 100 101
ATOM    101  S   UNL A   1      49.094  27.271  37.234  1.00  0.00     0.124 S 
ATOM    102  O   UNL A   1      48.645  26.588  38.443  1.00  0.00    -0.237 OA
ATOM    103  O   UNL A   1      49.452  26.401  36.117  1.00  0.00    -0.237 OA
ATOM    104  O   UNL A   1      49.999  28.397  37.453  1.00  0.00    -0.744 OA
ENDBRANCH 100 101
ENDBRANCH  74  95
ENDBRANCH  48  49
ENDBRANCH  40  43
ENDBRANCH  38  39
ENDBRANCH  37  38
ENDBRANCH  36  37
ENDBRANCH   1  36
TORSDOF 20
ENDMDL
