MODEL 1
REMARK VINA RESULT:     -12.9      0.000      0.000
REMARK SMILES Cc1ccc(C(F)(F)F)cc1/C=C/C(=O)NCCCCCCNC(=O)c1ccc(-c2c3nc(c(-c4ccc(S(=O)(=O)[O-])cc4)c4ccc([nH]4)c(-c4ccc(S(=O)(=O)[O-])cc4)c4nc(c(-c5ccc(S(=O)(=O)[O-])cc5)c5ccc2[nH]5)C=C4)C=C3)cc1
REMARK SMILES IDX 20 1 19 2 18 3 17 4 16 5 14 6 15 7 13 9 12 10 11 11 1 12
REMARK SMILES IDX 2 13 3 14 4 15 10 16 5 17 6 18 7 19 8 20 9 21 21 22 22 23
REMARK SMILES IDX 23 24 24 25 25 27 26 28 27 29 85 30 28 31 84 32 29 33 30 34
REMARK SMILES IDX 31 35 78 36 32 37 83 38 77 39 79 40 33 41 82 42 76 43 75 44
REMARK SMILES IDX 34 46 64 47 45 48 63 49 46 50 49 51 62 52 80 53 47 54 48 55
REMARK SMILES IDX 61 57 81 58 50 59 35 60 36 61 44 62 37 63 43 64 38 65 39 66
REMARK SMILES IDX 40 67 41 68 42 69 65 70 66 71 74 72 67 73 73 74 68 75 69 76
REMARK SMILES IDX 70 77 71 78 72 79 51 80 52 81 60 82 53 83 59 84 54 85 55 86
REMARK SMILES IDX 56 87 57 88 58 89
REMARK H PARENT 16 8 23 26 79 45 49 56
REMARK Flexibility Score: inf
ROOT
ATOM      1  C   UNL A   1      33.483  27.813  25.186  1.00  0.00     0.002 C 
ENDROOT
BRANCH   1   2
ATOM      2  C   UNL A   1      33.034  26.693  26.141  1.00  0.00     0.002 C 
BRANCH   2   3
ATOM      3  C   UNL A   1      31.552  26.685  26.541  1.00  0.00     0.021 C 
BRANCH   3   4
ATOM      4  C   UNL A   1      30.647  25.870  25.618  1.00  0.00     0.116 C 
BRANCH   4   5
ATOM      5  N   UNL A   1      29.947  24.819  26.334  1.00  0.00    -0.353 N 
ATOM      6  C   UNL A   1      30.404  23.623  26.790  1.00  0.00     0.243 C 
ATOM      7  O   UNL A   1      29.720  22.943  27.551  1.00  0.00    -0.270 OA
ATOM      8  H   UNL A   1      28.996  24.999  26.515  1.00  0.00     0.163 HD
BRANCH   6   9
ATOM      9  C   UNL A   1      31.767  23.163  26.446  1.00  0.00     0.072 C 
ATOM     10  C   UNL A   1      32.011  22.076  25.698  1.00  0.00     0.014 C 
BRANCH  10  11
ATOM     11  C   UNL A   1      33.375  21.588  25.437  1.00  0.00    -0.022 A 
ATOM     12  C   UNL A   1      32.551  19.238  24.823  1.00  0.00     0.045 C 
ATOM     13  C   UNL A   1      33.634  20.264  25.032  1.00  0.00    -0.044 A 
ATOM     14  C   UNL A   1      34.965  19.849  24.852  1.00  0.00     0.004 A 
ATOM     15  C   UNL A   1      36.027  20.732  25.044  1.00  0.00     0.013 A 
ATOM     16  C   UNL A   1      34.458  22.465  25.638  1.00  0.00     0.021 A 
ATOM     17  C   UNL A   1      35.785  22.054  25.433  1.00  0.00     0.056 A 
BRANCH  17  18
ATOM     18  C   UNL A   1      36.937  23.002  25.646  1.00  0.00     0.416 C 
ATOM     19  F   UNL A   1      38.068  22.369  26.064  1.00  0.00    -0.166 F 
ATOM     20  F   UNL A   1      37.285  23.665  24.507  1.00  0.00    -0.166 F 
ATOM     21  F   UNL A   1      36.688  23.970  26.573  1.00  0.00    -0.166 F 
ENDBRANCH  17  18
ENDBRANCH  10  11
ENDBRANCH   6   9
ENDBRANCH   4   5
ENDBRANCH   3   4
ENDBRANCH   2   3
ENDBRANCH   1   2
BRANCH   1  22
ATOM     22  C   UNL A   1      33.625  29.208  25.800  1.00  0.00     0.021 C 
BRANCH  22  23
ATOM     23  C   UNL A   1      34.460  29.230  27.075  1.00  0.00     0.116 C 
BRANCH  23  24
ATOM     24  N   UNL A   1      35.043  30.533  27.354  1.00  0.00    -0.352 N 
ATOM     25  C   UNL A   1      36.156  30.769  28.143  1.00  0.00     0.251 C 
ATOM     26  H   UNL A   1      34.605  31.315  26.948  1.00  0.00     0.163 HD
ATOM     27  O   UNL A   1      36.364  31.819  28.719  1.00  0.00    -0.269 OA
BRANCH  25  28
ATOM     28  C   UNL A   1      37.184  29.709  28.117  1.00  0.00     0.039 A 
ATOM     29  C   UNL A   1      37.345  28.945  29.280  1.00  0.00     0.014 A 
ATOM     30  C   UNL A   1      38.119  29.667  27.087  1.00  0.00     0.014 A 
ATOM     31  C   UNL A   1      38.526  28.231  29.470  1.00  0.00     0.010 A 
ATOM     32  C   UNL A   1      39.321  29.019  27.313  1.00  0.00     0.010 A 
ATOM     33  C   UNL A   1      39.542  28.334  28.518  1.00  0.00    -0.014 A 
BRANCH  33  34
ATOM     34  C   UNL A   1      40.893  27.817  28.726  1.00  0.00     0.031 A 
ATOM     35  C   UNL A   1      41.240  26.441  28.297  1.00  0.00     0.074 A 
ATOM     36  C   UNL A   1      41.856  28.595  29.269  1.00  0.00     0.049 A 
ATOM     37  N   UNL A   1      42.236  25.760  28.761  1.00  0.00    -0.248 NA
ATOM     38  C   UNL A   1      40.437  25.699  27.330  1.00  0.00     0.031 C 
ATOM     39  C   UNL A   1      43.293  28.332  29.271  1.00  0.00     0.029 A 
ATOM     40  N   UNL A   1      41.710  29.670  30.147  1.00  0.00    -0.354 N 
ATOM     41  C   UNL A   1      42.377  24.641  27.972  1.00  0.00     0.074 A 
ATOM     42  C   UNL A   1      41.194  24.614  27.142  1.00  0.00     0.031 C 
ATOM     43  C   UNL A   1      43.841  28.975  30.313  1.00  0.00     0.029 A 
ATOM     44  C   UNL A   1      42.753  29.549  31.084  1.00  0.00     0.049 A 
ATOM     45  H   UNL A   1      41.019  30.370  30.117  1.00  0.00     0.167 HD
ATOM     46  C   UNL A   1      43.532  23.918  28.008  1.00  0.00     0.031 A 
ATOM     47  C   UNL A   1      42.555  29.388  32.426  1.00  0.00     0.031 A 
ATOM     48  C   UNL A   1      44.470  24.398  29.020  1.00  0.00     0.049 A 
ATOM     49  C   UNL A   1      43.191  28.131  32.993  1.00  0.00     0.074 A 
ATOM     50  C   UNL A   1      45.654  25.117  28.992  1.00  0.00     0.029 A 
ATOM     51  N   UNL A   1      44.089  24.345  30.351  1.00  0.00    -0.354 N 
ATOM     52  N   UNL A   1      43.853  27.254  32.290  1.00  0.00    -0.248 NA
ATOM     53  C   UNL A   1      43.030  27.710  34.389  1.00  0.00     0.031 C 
ATOM     54  C   UNL A   1      45.982  25.488  30.328  1.00  0.00     0.029 A 
ATOM     55  C   UNL A   1      44.997  24.994  31.162  1.00  0.00     0.049 A 
ATOM     56  H   UNL A   1      43.274  23.899  30.677  1.00  0.00     0.167 HD
ATOM     57  C   UNL A   1      44.145  26.170  33.073  1.00  0.00     0.074 A 
ATOM     58  C   UNL A   1      43.627  26.506  34.384  1.00  0.00     0.031 C 
ATOM     59  C   UNL A   1      44.742  25.045  32.588  1.00  0.00     0.031 A 
BRANCH  46  60
ATOM     60  C   UNL A   1      43.895  22.902  26.949  1.00  0.00    -0.014 A 
ATOM     61  C   UNL A   1      42.991  21.868  26.633  1.00  0.00     0.010 A 
ATOM     62  C   UNL A   1      45.126  22.882  26.267  1.00  0.00     0.010 A 
ATOM     63  C   UNL A   1      43.340  20.809  25.782  1.00  0.00     0.020 A 
ATOM     64  C   UNL A   1      45.506  21.808  25.447  1.00  0.00     0.020 A 
ATOM     65  C   UNL A   1      44.613  20.766  25.222  1.00  0.00     0.054 A 
BRANCH  65  66
ATOM     66  S   UNL A   1      45.093  19.331  24.226  1.00  0.00     0.124 S 
ATOM     67  O   UNL A   1      44.529  18.217  24.985  1.00  0.00    -0.237 OA
ATOM     68  O   UNL A   1      44.453  19.611  22.945  1.00  0.00    -0.237 OA
ATOM     69  O   UNL A   1      46.555  19.389  24.218  1.00  0.00    -0.744 OA
ENDBRANCH  65  66
ENDBRANCH  46  60
BRANCH  47  70
ATOM     70  C   UNL A   1      41.296  30.006  32.929  1.00  0.00    -0.014 A 
ATOM     71  C   UNL A   1      41.284  31.406  33.112  1.00  0.00     0.010 A 
ATOM     72  C   UNL A   1      40.073  29.323  32.818  1.00  0.00     0.010 A 
ATOM     73  C   UNL A   1      40.093  32.126  33.002  1.00  0.00     0.020 A 
ATOM     74  C   UNL A   1      38.875  30.043  32.722  1.00  0.00     0.020 A 
ATOM     75  C   UNL A   1      38.906  31.442  32.742  1.00  0.00     0.054 A 
BRANCH  75  76
ATOM     76  S   UNL A   1      37.446  32.409  32.252  1.00  0.00     0.124 S 
ATOM     77  O   UNL A   1      36.497  31.371  31.865  1.00  0.00    -0.237 OA
ATOM     78  O   UNL A   1      37.124  33.128  33.485  1.00  0.00    -0.237 OA
ATOM     79  O   UNL A   1      37.946  33.244  31.164  1.00  0.00    -0.744 OA
ENDBRANCH  75  76
ENDBRANCH  47  70
BRANCH  59  80
ATOM     80  C   UNL A   1      45.096  23.865  33.444  1.00  0.00    -0.014 A 
ATOM     81  C   UNL A   1      44.158  22.868  33.759  1.00  0.00     0.010 A 
ATOM     82  C   UNL A   1      46.361  23.797  34.065  1.00  0.00     0.010 A 
ATOM     83  C   UNL A   1      44.490  21.815  34.621  1.00  0.00     0.020 A 
ATOM     84  C   UNL A   1      46.695  22.760  34.939  1.00  0.00     0.020 A 
ATOM     85  C   UNL A   1      45.760  21.762  35.199  1.00  0.00     0.054 A 
BRANCH  85  86
ATOM     86  S   UNL A   1      46.162  20.413  36.340  1.00  0.00     0.124 S 
ATOM     87  O   UNL A   1      45.739  20.946  37.633  1.00  0.00    -0.237 OA
ATOM     88  O   UNL A   1      45.345  19.323  35.814  1.00  0.00    -0.237 OA
ATOM     89  O   UNL A   1      47.605  20.245  36.185  1.00  0.00    -0.744 OA
ENDBRANCH  85  86
ENDBRANCH  59  80
ENDBRANCH  33  34
ENDBRANCH  25  28
ENDBRANCH  23  24
ENDBRANCH  22  23
ENDBRANCH   1  22
TORSDOF 18
ENDMDL
MODEL 2
REMARK VINA RESULT:     -12.7      4.794     11.208
REMARK SMILES Cc1ccc(C(F)(F)F)cc1/C=C/C(=O)NCCCCCCNC(=O)c1ccc(-c2c3nc(c(-c4ccc(S(=O)(=O)[O-])cc4)c4ccc([nH]4)c(-c4ccc(S(=O)(=O)[O-])cc4)c4nc(c(-c5ccc(S(=O)(=O)[O-])cc5)c5ccc2[nH]5)C=C4)C=C3)cc1
REMARK SMILES IDX 20 1 19 2 18 3 17 4 16 5 14 6 15 7 13 9 12 10 11 11 1 12
REMARK SMILES IDX 2 13 3 14 4 15 10 16 5 17 6 18 7 19 8 20 9 21 21 22 22 23
REMARK SMILES IDX 23 24 24 25 25 27 26 28 27 29 85 30 28 31 84 32 29 33 30 34
REMARK SMILES IDX 31 35 78 36 32 37 83 38 77 39 79 40 33 41 82 42 76 43 75 44
REMARK SMILES IDX 34 46 64 47 45 48 63 49 46 50 49 51 62 52 80 53 47 54 48 55
REMARK SMILES IDX 61 57 81 58 50 59 35 60 36 61 44 62 37 63 43 64 38 65 39 66
REMARK SMILES IDX 40 67 41 68 42 69 65 70 66 71 74 72 67 73 73 74 68 75 69 76
REMARK SMILES IDX 70 77 71 78 72 79 51 80 52 81 60 82 53 83 59 84 54 85 55 86
REMARK SMILES IDX 56 87 57 88 58 89
REMARK H PARENT 16 8 23 26 79 45 49 56
REMARK Flexibility Score: inf
ROOT
ATOM      1  C   UNL A   1      35.687  22.551  24.773  1.00  0.00     0.002 C 
ENDROOT
BRANCH   1   2
ATOM      2  C   UNL A   1      34.710  21.389  24.524  1.00  0.00     0.002 C 
BRANCH   2   3
ATOM      3  C   UNL A   1      33.619  21.171  25.583  1.00  0.00     0.021 C 
BRANCH   3   4
ATOM      4  C   UNL A   1      32.204  21.522  25.123  1.00  0.00     0.116 C 
BRANCH   4   5
ATOM      5  N   UNL A   1      31.324  21.804  26.242  1.00  0.00    -0.353 N 
ATOM      6  C   UNL A   1      30.832  22.991  26.684  1.00  0.00     0.243 C 
ATOM      7  O   UNL A   1      29.938  23.020  27.528  1.00  0.00    -0.270 OA
ATOM      8  H   UNL A   1      31.042  21.016  26.761  1.00  0.00     0.163 HD
BRANCH   6   9
ATOM      9  C   UNL A   1      31.303  24.263  26.094  1.00  0.00     0.072 C 
ATOM     10  C   UNL A   1      32.580  24.672  26.147  1.00  0.00     0.014 C 
BRANCH  10  11
ATOM     11  C   UNL A   1      33.012  25.979  25.626  1.00  0.00    -0.022 A 
ATOM     12  C   UNL A   1      33.411  25.047  23.270  1.00  0.00     0.045 C 
ATOM     13  C   UNL A   1      33.405  26.159  24.286  1.00  0.00    -0.044 A 
ATOM     14  C   UNL A   1      33.858  27.422  23.867  1.00  0.00     0.004 A 
ATOM     15  C   UNL A   1      33.901  28.501  24.751  1.00  0.00     0.013 A 
ATOM     16  C   UNL A   1      33.072  27.074  26.509  1.00  0.00     0.021 A 
ATOM     17  C   UNL A   1      33.501  28.340  26.082  1.00  0.00     0.056 A 
BRANCH  17  18
ATOM     18  C   UNL A   1      33.557  29.507  27.033  1.00  0.00     0.416 C 
ATOM     19  F   UNL A   1      32.332  29.847  27.522  1.00  0.00    -0.166 F 
ATOM     20  F   UNL A   1      34.333  29.253  28.126  1.00  0.00    -0.166 F 
ATOM     21  F   UNL A   1      34.065  30.644  26.479  1.00  0.00    -0.166 F 
ENDBRANCH  17  18
ENDBRANCH  10  11
ENDBRANCH   6   9
ENDBRANCH   4   5
ENDBRANCH   3   4
ENDBRANCH   2   3
ENDBRANCH   1   2
BRANCH   1  22
ATOM     22  C   UNL A   1      37.112  22.161  25.174  1.00  0.00     0.021 C 
BRANCH  22  23
ATOM     23  C   UNL A   1      37.905  23.307  25.792  1.00  0.00     0.116 C 
BRANCH  23  24
ATOM     24  N   UNL A   1      39.116  22.866  26.464  1.00  0.00    -0.352 N 
ATOM     25  C   UNL A   1      40.162  23.681  26.867  1.00  0.00     0.251 C 
ATOM     26  H   UNL A   1      39.202  21.902  26.647  1.00  0.00     0.163 HD
ATOM     27  O   UNL A   1      41.305  23.293  27.006  1.00  0.00    -0.269 OA
BRANCH  25  28
ATOM     28  C   UNL A   1      39.774  25.044  27.285  1.00  0.00     0.039 A 
ATOM     29  C   UNL A   1      40.307  26.113  26.556  1.00  0.00     0.014 A 
ATOM     30  C   UNL A   1      39.136  25.245  28.505  1.00  0.00     0.014 A 
ATOM     31  C   UNL A   1      40.320  27.386  27.120  1.00  0.00     0.010 A 
ATOM     32  C   UNL A   1      39.220  26.495  29.095  1.00  0.00     0.010 A 
ATOM     33  C   UNL A   1      39.845  27.557  28.422  1.00  0.00    -0.014 A 
BRANCH  33  34
ATOM     34  C   UNL A   1      40.019  28.789  29.186  1.00  0.00     0.031 A 
ATOM     35  C   UNL A   1      38.998  29.860  29.119  1.00  0.00     0.074 A 
ATOM     36  C   UNL A   1      41.087  28.954  30.000  1.00  0.00     0.049 A 
ATOM     37  N   UNL A   1      39.216  31.099  29.418  1.00  0.00    -0.248 NA
ATOM     38  C   UNL A   1      37.639  29.616  28.647  1.00  0.00     0.031 C 
ATOM     39  C   UNL A   1      41.252  29.977  31.029  1.00  0.00     0.029 A 
ATOM     40  N   UNL A   1      42.353  28.376  29.896  1.00  0.00    -0.354 N 
ATOM     41  C   UNL A   1      37.998  31.738  29.459  1.00  0.00     0.074 A 
ATOM     42  C   UNL A   1      37.058  30.791  28.904  1.00  0.00     0.031 C 
ATOM     43  C   UNL A   1      42.563  30.175  31.226  1.00  0.00     0.029 A 
ATOM     44  C   UNL A   1      43.270  29.388  30.232  1.00  0.00     0.049 A 
ATOM     45  H   UNL A   1      42.562  27.448  29.640  1.00  0.00     0.167 HD
ATOM     46  C   UNL A   1      37.880  32.952  30.069  1.00  0.00     0.031 A 
ATOM     47  C   UNL A   1      44.232  29.856  29.381  1.00  0.00     0.031 A 
ATOM     48  C   UNL A   1      39.163  33.484  30.523  1.00  0.00     0.049 A 
ATOM     49  C   UNL A   1      44.145  31.351  29.120  1.00  0.00     0.074 A 
ATOM     50  C   UNL A   1      39.781  33.624  31.755  1.00  0.00     0.029 A 
ATOM     51  N   UNL A   1      40.134  33.763  29.576  1.00  0.00    -0.354 N 
ATOM     52  N   UNL A   1      43.239  32.139  29.627  1.00  0.00    -0.248 NA
ATOM     53  C   UNL A   1      45.017  32.051  28.172  1.00  0.00     0.031 C 
ATOM     54  C   UNL A   1      41.138  33.998  31.533  1.00  0.00     0.029 A 
ATOM     55  C   UNL A   1      41.339  34.084  30.169  1.00  0.00     0.049 A 
ATOM     56  H   UNL A   1      39.984  33.737  28.603  1.00  0.00     0.167 HD
ATOM     57  C   UNL A   1      43.348  33.381  29.062  1.00  0.00     0.074 A 
ATOM     58  C   UNL A   1      44.487  33.286  28.169  1.00  0.00     0.031 C 
ATOM     59  C   UNL A   1      42.471  34.391  29.317  1.00  0.00     0.031 A 
BRANCH  46  60
ATOM     60  C   UNL A   1      36.546  33.549  30.452  1.00  0.00    -0.014 A 
ATOM     61  C   UNL A   1      35.642  33.946  29.444  1.00  0.00     0.010 A 
ATOM     62  C   UNL A   1      36.143  33.790  31.778  1.00  0.00     0.010 A 
ATOM     63  C   UNL A   1      34.466  34.652  29.737  1.00  0.00     0.020 A 
ATOM     64  C   UNL A   1      34.992  34.533  32.085  1.00  0.00     0.020 A 
ATOM     65  C   UNL A   1      34.167  34.975  31.057  1.00  0.00     0.054 A 
BRANCH  65  66
ATOM     66  S   UNL A   1      32.710  35.994  31.409  1.00  0.00     0.124 S 
ATOM     67  O   UNL A   1      31.920  35.126  32.279  1.00  0.00    -0.237 OA
ATOM     68  O   UNL A   1      33.296  37.166  32.050  1.00  0.00    -0.237 OA
ATOM     69  O   UNL A   1      32.128  36.233  30.088  1.00  0.00    -0.744 OA
ENDBRANCH  65  66
ENDBRANCH  46  60
BRANCH  47  70
ATOM     70  C   UNL A   1      44.708  28.847  28.394  1.00  0.00    -0.014 A 
ATOM     71  C   UNL A   1      44.133  28.872  27.105  1.00  0.00     0.010 A 
ATOM     72  C   UNL A   1      45.941  28.199  28.578  1.00  0.00     0.010 A 
ATOM     73  C   UNL A   1      44.855  28.425  25.997  1.00  0.00     0.020 A 
ATOM     74  C   UNL A   1      46.661  27.736  27.468  1.00  0.00     0.020 A 
ATOM     75  C   UNL A   1      46.142  27.920  26.182  1.00  0.00     0.054 A 
BRANCH  75  76
ATOM     76  S   UNL A   1      47.189  27.680  24.715  1.00  0.00     0.124 S 
ATOM     77  O   UNL A   1      46.993  26.265  24.417  1.00  0.00    -0.237 OA
ATOM     78  O   UNL A   1      46.596  28.613  23.756  1.00  0.00    -0.237 OA
ATOM     79  O   UNL A   1      48.520  28.046  25.189  1.00  0.00    -0.744 OA
ENDBRANCH  75  76
ENDBRANCH  47  70
BRANCH  59  80
ATOM     80  C   UNL A   1      42.601  35.765  28.729  1.00  0.00    -0.014 A 
ATOM     81  C   UNL A   1      42.205  36.050  27.411  1.00  0.00     0.010 A 
ATOM     82  C   UNL A   1      43.253  36.785  29.453  1.00  0.00     0.010 A 
ATOM     83  C   UNL A   1      42.405  37.321  26.859  1.00  0.00     0.020 A 
ATOM     84  C   UNL A   1      43.472  38.051  28.905  1.00  0.00     0.020 A 
ATOM     85  C   UNL A   1      43.029  38.317  27.613  1.00  0.00     0.054 A 
BRANCH  85  86
ATOM     86  S   UNL A   1      43.314  39.946  26.871  1.00  0.00     0.124 S 
ATOM     87  O   UNL A   1      42.102  40.160  26.084  1.00  0.00    -0.237 OA
ATOM     88  O   UNL A   1      43.451  40.793  28.052  1.00  0.00    -0.237 OA
ATOM     89  O   UNL A   1      44.533  39.763  26.087  1.00  0.00    -0.744 OA
ENDBRANCH  85  86
ENDBRANCH  59  80
ENDBRANCH  33  34
ENDBRANCH  25  28
ENDBRANCH  23  24
ENDBRANCH  22  23
ENDBRANCH   1  22
TORSDOF 18
ENDMDL
MODEL 3
REMARK VINA RESULT:     -12.4      1.540      2.160
REMARK SMILES Cc1ccc(C(F)(F)F)cc1/C=C/C(=O)NCCCCCCNC(=O)c1ccc(-c2c3nc(c(-c4ccc(S(=O)(=O)[O-])cc4)c4ccc([nH]4)c(-c4ccc(S(=O)(=O)[O-])cc4)c4nc(c(-c5ccc(S(=O)(=O)[O-])cc5)c5ccc2[nH]5)C=C4)C=C3)cc1
REMARK SMILES IDX 20 1 19 2 18 3 17 4 16 5 14 6 15 7 13 9 12 10 11 11 1 12
REMARK SMILES IDX 2 13 3 14 4 15 10 16 5 17 6 18 7 19 8 20 9 21 21 22 22 23
REMARK SMILES IDX 23 24 24 25 25 27 26 28 27 29 85 30 28 31 84 32 29 33 30 34
REMARK SMILES IDX 31 35 78 36 32 37 83 38 77 39 79 40 33 41 82 42 76 43 75 44
REMARK SMILES IDX 34 46 64 47 45 48 63 49 46 50 49 51 62 52 80 53 47 54 48 55
REMARK SMILES IDX 61 57 81 58 50 59 35 60 36 61 44 62 37 63 43 64 38 65 39 66
REMARK SMILES IDX 40 67 41 68 42 69 65 70 66 71 74 72 67 73 73 74 68 75 69 76
REMARK SMILES IDX 70 77 71 78 72 79 51 80 52 81 60 82 53 83 59 84 54 85 55 86
REMARK SMILES IDX 56 87 57 88 58 89
REMARK H PARENT 16 8 23 26 79 45 49 56
REMARK Flexibility Score: inf
ROOT
ATOM      1  C   UNL A   1      32.583  28.120  26.200  1.00  0.00     0.002 C 
ENDROOT
BRANCH   1   2
ATOM      2  C   UNL A   1      31.559  28.419  25.092  1.00  0.00     0.002 C 
BRANCH   2   3
ATOM      3  C   UNL A   1      32.014  28.162  23.648  1.00  0.00     0.021 C 
BRANCH   3   4
ATOM      4  C   UNL A   1      31.156  27.159  22.878  1.00  0.00     0.116 C 
BRANCH   4   5
ATOM      5  N   UNL A   1      31.746  26.810  21.599  1.00  0.00    -0.353 N 
ATOM      6  C   UNL A   1      32.737  25.924  21.310  1.00  0.00     0.243 C 
ATOM      7  O   UNL A   1      32.972  25.611  20.145  1.00  0.00    -0.270 OA
ATOM      8  H   UNL A   1      31.373  27.287  20.822  1.00  0.00     0.163 HD
BRANCH   6   9
ATOM      9  C   UNL A   1      33.488  25.261  22.397  1.00  0.00     0.072 C 
ATOM     10  C   UNL A   1      32.926  24.406  23.266  1.00  0.00     0.014 C 
BRANCH  10  11
ATOM     11  C   UNL A   1      33.672  23.821  24.392  1.00  0.00    -0.022 A 
ATOM     12  C   UNL A   1      31.895  24.529  26.100  1.00  0.00     0.045 C 
ATOM     13  C   UNL A   1      33.198  23.879  25.717  1.00  0.00    -0.044 A 
ATOM     14  C   UNL A   1      33.987  23.348  26.752  1.00  0.00     0.004 A 
ATOM     15  C   UNL A   1      35.216  22.746  26.484  1.00  0.00     0.013 A 
ATOM     16  C   UNL A   1      34.920  23.220  24.139  1.00  0.00     0.021 A 
ATOM     17  C   UNL A   1      35.694  22.668  25.171  1.00  0.00     0.056 A 
BRANCH  17  18
ATOM     18  C   UNL A   1      37.026  22.023  24.889  1.00  0.00     0.416 C 
ATOM     19  F   UNL A   1      38.065  22.688  25.467  1.00  0.00    -0.166 F 
ATOM     20  F   UNL A   1      37.097  20.746  25.360  1.00  0.00    -0.166 F 
ATOM     21  F   UNL A   1      37.327  21.942  23.562  1.00  0.00    -0.166 F 
ENDBRANCH  17  18
ENDBRANCH  10  11
ENDBRANCH   6   9
ENDBRANCH   4   5
ENDBRANCH   3   4
ENDBRANCH   2   3
ENDBRANCH   1   2
BRANCH   1  22
ATOM     22  C   UNL A   1      33.143  29.332  26.949  1.00  0.00     0.021 C 
BRANCH  22  23
ATOM     23  C   UNL A   1      34.644  29.523  26.759  1.00  0.00     0.116 C 
BRANCH  23  24
ATOM     24  N   UNL A   1      35.148  30.736  27.384  1.00  0.00    -0.352 N 
ATOM     25  C   UNL A   1      36.097  30.793  28.391  1.00  0.00     0.251 C 
ATOM     26  H   UNL A   1      34.779  31.591  27.064  1.00  0.00     0.163 HD
ATOM     27  O   UNL A   1      36.183  31.708  29.187  1.00  0.00    -0.269 OA
BRANCH  25  28
ATOM     28  C   UNL A   1      37.128  29.736  28.347  1.00  0.00     0.039 A 
ATOM     29  C   UNL A   1      37.298  28.959  29.499  1.00  0.00     0.014 A 
ATOM     30  C   UNL A   1      38.056  29.708  27.311  1.00  0.00     0.014 A 
ATOM     31  C   UNL A   1      38.481  28.246  29.674  1.00  0.00     0.010 A 
ATOM     32  C   UNL A   1      39.262  29.061  27.522  1.00  0.00     0.010 A 
ATOM     33  C   UNL A   1      39.492  28.363  28.718  1.00  0.00    -0.014 A 
BRANCH  33  34
ATOM     34  C   UNL A   1      40.845  27.847  28.911  1.00  0.00     0.031 A 
ATOM     35  C   UNL A   1      41.187  26.469  28.486  1.00  0.00     0.074 A 
ATOM     36  C   UNL A   1      41.815  28.628  29.437  1.00  0.00     0.049 A 
ATOM     37  N   UNL A   1      42.189  25.790  28.941  1.00  0.00    -0.248 NA
ATOM     38  C   UNL A   1      40.372  25.721  27.534  1.00  0.00     0.031 C 
ATOM     39  C   UNL A   1      43.252  28.366  29.423  1.00  0.00     0.029 A 
ATOM     40  N   UNL A   1      41.680  29.708  30.311  1.00  0.00    -0.354 N 
ATOM     41  C   UNL A   1      42.320  24.667  28.158  1.00  0.00     0.074 A 
ATOM     42  C   UNL A   1      41.127  24.635  27.343  1.00  0.00     0.031 C 
ATOM     43  C   UNL A   1      43.813  29.015  30.454  1.00  0.00     0.029 A 
ATOM     44  C   UNL A   1      42.735  29.594  31.235  1.00  0.00     0.049 A 
ATOM     45  H   UNL A   1      40.988  30.408  30.286  1.00  0.00     0.167 HD
ATOM     46  C   UNL A   1      43.476  23.944  28.183  1.00  0.00     0.031 A 
ATOM     47  C   UNL A   1      42.554  29.440  32.580  1.00  0.00     0.031 A 
ATOM     48  C   UNL A   1      44.426  24.431  29.180  1.00  0.00     0.049 A 
ATOM     49  C   UNL A   1      43.198  28.187  33.147  1.00  0.00     0.074 A 
ATOM     50  C   UNL A   1      45.610  25.149  29.133  1.00  0.00     0.029 A 
ATOM     51  N   UNL A   1      44.063  24.385  30.516  1.00  0.00    -0.354 N 
ATOM     52  N   UNL A   1      43.850  27.306  32.441  1.00  0.00    -0.248 NA
ATOM     53  C   UNL A   1      43.055  27.774  34.547  1.00  0.00     0.031 C 
ATOM     54  C   UNL A   1      45.955  25.528  30.462  1.00  0.00     0.029 A 
ATOM     55  C   UNL A   1      44.981  25.040  31.312  1.00  0.00     0.049 A 
ATOM     56  H   UNL A   1      43.251  23.941  30.855  1.00  0.00     0.167 HD
ATOM     57  C   UNL A   1      44.152  26.226  33.226  1.00  0.00     0.074 A 
ATOM     58  C   UNL A   1      43.651  26.570  34.542  1.00  0.00     0.031 C 
ATOM     59  C   UNL A   1      44.744  25.099  32.741  1.00  0.00     0.031 A 
BRANCH  46  60
ATOM     60  C   UNL A   1      43.826  22.922  27.126  1.00  0.00    -0.014 A 
ATOM     61  C   UNL A   1      42.915  21.888  26.824  1.00  0.00     0.010 A 
ATOM     62  C   UNL A   1      45.049  22.896  26.431  1.00  0.00     0.010 A 
ATOM     63  C   UNL A   1      43.253  20.824  25.975  1.00  0.00     0.020 A 
ATOM     64  C   UNL A   1      45.418  21.817  25.613  1.00  0.00     0.020 A 
ATOM     65  C   UNL A   1      44.520  20.776  25.403  1.00  0.00     0.054 A 
BRANCH  65  66
ATOM     66  S   UNL A   1      44.987  19.334  24.409  1.00  0.00     0.124 S 
ATOM     67  O   UNL A   1      46.434  19.274  24.599  1.00  0.00    -0.237 OA
ATOM     68  O   UNL A   1      44.223  18.261  25.037  1.00  0.00    -0.237 OA
ATOM     69  O   UNL A   1      44.560  19.694  23.057  1.00  0.00    -0.744 OA
ENDBRANCH  65  66
ENDBRANCH  46  60
BRANCH  47  70
ATOM     70  C   UNL A   1      41.301  30.061  33.096  1.00  0.00    -0.014 A 
ATOM     71  C   UNL A   1      41.362  31.412  33.502  1.00  0.00     0.010 A 
ATOM     72  C   UNL A   1      40.051  29.495  32.798  1.00  0.00     0.010 A 
ATOM     73  C   UNL A   1      40.230  32.225  33.435  1.00  0.00     0.020 A 
ATOM     74  C   UNL A   1      38.910  30.306  32.744  1.00  0.00     0.020 A 
ATOM     75  C   UNL A   1      39.025  31.679  32.992  1.00  0.00     0.054 A 
BRANCH  75  76
ATOM     76  S   UNL A   1      37.668  32.815  32.574  1.00  0.00     0.124 S 
ATOM     77  O   UNL A   1      37.747  33.806  33.642  1.00  0.00    -0.237 OA
ATOM     78  O   UNL A   1      38.061  33.289  31.246  1.00  0.00    -0.237 OA
ATOM     79  O   UNL A   1      36.491  31.954  32.597  1.00  0.00    -0.744 OA
ENDBRANCH  75  76
ENDBRANCH  47  70
BRANCH  59  80
ATOM     80  C   UNL A   1      45.109  23.924  33.598  1.00  0.00    -0.014 A 
ATOM     81  C   UNL A   1      46.371  23.811  34.206  1.00  0.00     0.010 A 
ATOM     82  C   UNL A   1      44.227  22.829  33.710  1.00  0.00     0.010 A 
ATOM     83  C   UNL A   1      46.716  22.669  34.940  1.00  0.00     0.020 A 
ATOM     84  C   UNL A   1      44.569  21.679  34.426  1.00  0.00     0.020 A 
ATOM     85  C   UNL A   1      45.809  21.614  35.054  1.00  0.00     0.054 A 
BRANCH  85  86
ATOM     86  S   UNL A   1      46.285  20.129  35.977  1.00  0.00     0.124 S 
ATOM     87  O   UNL A   1      45.612  19.061  35.241  1.00  0.00    -0.237 OA
ATOM     88  O   UNL A   1      47.740  20.153  35.855  1.00  0.00    -0.237 OA
ATOM     89  O   UNL A   1      45.766  20.374  37.320  1.00  0.00    -0.744 OA
ENDBRANCH  85  86
ENDBRANCH  59  80
ENDBRANCH  33  34
ENDBRANCH  25  28
ENDBRANCH  23  24
ENDBRANCH  22  23
ENDBRANCH   1  22
TORSDOF 18
ENDMDL
