MODEL 1
REMARK VINA RESULT:     -11.8      0.000      0.000
REMARK SMILES COc1cccc2ccc(C[N@@H+]3CC4(CC[NH2+]CC4)C[C@@H]3C(=O)NCCCCCCNC(=O)c3ccc(-c4c5nc(c(-c6ccc(S(=O)(=O)[O-])cc6)c6ccc([nH]6)c(-c6ccc(S(=O)(=O)[O-])cc6)c6nc(c(-c7ccc(S(=O)(=O)[O-])cc7)c7ccc4[nH]7)C=C6)C=C5)cc3)nc12
REMARK SMILES IDX 27 1 26 2 25 3 24 4 22 5 23 6 21 8 12 9 13 10 14 12 20 13
REMARK SMILES IDX 15 14 19 15 16 16 18 17 17 18 11 21 10 22 3 23 4 24 95 25
REMARK SMILES IDX 5 26 7 27 94 28 6 29 8 30 9 31 2 32 1 33 28 34 29 35 30 36
REMARK SMILES IDX 31 37 32 38 33 40 34 41 35 42 93 43 36 44 92 45 37 46 38 47
REMARK SMILES IDX 39 48 86 49 40 50 91 51 85 52 87 53 41 54 90 55 84 56 83 57
REMARK SMILES IDX 42 59 72 60 53 61 71 62 54 63 57 64 70 65 88 66 55 67 56 68
REMARK SMILES IDX 69 70 89 71 58 72 43 73 44 74 52 75 45 76 51 77 46 78 47 79
REMARK SMILES IDX 48 80 49 81 50 82 73 83 74 84 82 85 75 86 81 87 76 88 77 89
REMARK SMILES IDX 78 90 79 91 80 92 59 93 60 94 68 95 61 96 67 97 62 98 63 99
REMARK SMILES IDX 64 100 65 101 66 102
REMARK H PARENT 24 7 12 11 17 19 17 20 31 39 87 58 57 69
REMARK Flexibility Score: inf
ROOT
ATOM      1  C   UNL A   1      37.698  22.683  25.638  1.00  0.00     0.002 C 
ENDROOT
BRANCH   1   2
ATOM      2  C   UNL A   1      36.970  23.369  24.482  1.00  0.00     0.021 C 
BRANCH   2   3
ATOM      3  C   UNL A   1      35.618  23.999  24.834  1.00  0.00     0.116 C 
BRANCH   3   4
ATOM      4  N   UNL A   1      35.011  24.597  23.665  1.00  0.00    -0.351 N 
ATOM      5  C   UNL A   1      34.016  24.160  22.841  1.00  0.00     0.278 C 
ATOM      6  O   UNL A   1      33.656  24.953  21.960  1.00  0.00    -0.268 OA
ATOM      7  H   UNL A   1      35.381  25.476  23.420  1.00  0.00     0.163 HD
BRANCH   5   8
ATOM      8  C   UNL A   1      33.216  22.876  23.127  1.00  0.00     0.275 C 
ATOM      9  N   UNL A   1      32.065  22.885  24.051  1.00  0.00    -0.319 N 
ATOM     10  C   UNL A   1      31.864  21.501  24.459  1.00  0.00     0.270 C 
ATOM     11  H   UNL A   1      31.314  23.298  23.496  1.00  0.00     0.349 HD
ATOM     12  C   UNL A   1      33.248  20.827  24.520  1.00  0.00     0.036 C 
ATOM     13  C   UNL A   1      34.105  21.698  23.581  1.00  0.00     0.089 C 
ATOM     14  C   UNL A   1      33.146  19.350  24.087  1.00  0.00     0.074 C 
ATOM     15  C   UNL A   1      33.896  20.780  25.917  1.00  0.00     0.074 C 
ATOM     16  C   UNL A   1      32.330  18.537  25.106  1.00  0.00     0.261 C 
ATOM     17  C   UNL A   1      33.050  19.996  26.917  1.00  0.00     0.261 C 
ATOM     18  N   UNL A   1      32.864  18.614  26.471  1.00  0.00    -0.346 N 
ATOM     19  H   UNL A   1      33.766  18.137  26.498  1.00  0.00     0.346 HD
ATOM     20  H   UNL A   1      32.192  18.172  27.096  1.00  0.00     0.346 HD
BRANCH   9  21
ATOM     21  C   UNL A   1      31.874  23.875  25.111  1.00  0.00     0.320 C 
BRANCH  21  22
ATOM     22  C   UNL A   1      31.657  25.330  24.777  1.00  0.00     0.095 A 
ATOM     23  C   UNL A   1      32.557  28.549  26.237  1.00  0.00     0.145 A 
ATOM     24  C   UNL A   1      32.141  29.886  26.159  1.00  0.00     0.049 A 
ATOM     25  C   UNL A   1      31.969  27.564  25.419  1.00  0.00     0.113 A 
ATOM     26  C   UNL A   1      31.167  30.267  25.240  1.00  0.00     0.005 A 
ATOM     27  C   UNL A   1      31.049  27.985  24.435  1.00  0.00     0.004 A 
ATOM     28  N   UNL A   1      32.250  26.249  25.574  1.00  0.00    -0.243 NA
ATOM     29  C   UNL A   1      30.642  29.327  24.363  1.00  0.00     0.010 A 
ATOM     30  C   UNL A   1      30.547  27.036  23.537  1.00  0.00     0.012 A 
ATOM     31  C   UNL A   1      30.872  25.695  23.694  1.00  0.00     0.030 A 
BRANCH  23  32
ATOM     32  O   UNL A   1      33.563  28.108  27.067  1.00  0.00    -0.494 OA
ATOM     33  C   UNL A   1      34.833  28.732  26.972  1.00  0.00     0.278 C 
ENDBRANCH  23  32
ENDBRANCH  21  22
ENDBRANCH   9  21
ENDBRANCH   5   8
ENDBRANCH   3   4
ENDBRANCH   2   3
ENDBRANCH   1   2
BRANCH   1  34
ATOM     34  C   UNL A   1      38.751  23.531  26.345  1.00  0.00     0.002 C 
BRANCH  34  35
ATOM     35  C   UNL A   1      39.773  22.756  27.181  1.00  0.00     0.021 C 
BRANCH  35  36
ATOM     36  C   UNL A   1      41.163  23.381  27.280  1.00  0.00     0.116 C 
BRANCH  36  37
ATOM     37  N   UNL A   1      41.472  24.234  26.148  1.00  0.00    -0.352 N 
ATOM     38  C   UNL A   1      41.430  25.603  26.051  1.00  0.00     0.251 C 
ATOM     39  H   UNL A   1      41.755  23.763  25.330  1.00  0.00     0.163 HD
ATOM     40  O   UNL A   1      41.570  26.142  24.959  1.00  0.00    -0.269 OA
BRANCH  38  41
ATOM     41  C   UNL A   1      41.196  26.424  27.259  1.00  0.00     0.039 A 
ATOM     42  C   UNL A   1      42.075  27.474  27.532  1.00  0.00     0.014 A 
ATOM     43  C   UNL A   1      40.138  26.150  28.133  1.00  0.00     0.014 A 
ATOM     44  C   UNL A   1      41.872  28.272  28.660  1.00  0.00     0.010 A 
ATOM     45  C   UNL A   1      39.898  26.987  29.222  1.00  0.00     0.010 A 
ATOM     46  C   UNL A   1      40.772  28.048  29.504  1.00  0.00    -0.014 A 
BRANCH  46  47
ATOM     47  C   UNL A   1      40.545  28.916  30.689  1.00  0.00     0.031 A 
ATOM     48  C   UNL A   1      41.419  28.787  31.907  1.00  0.00     0.074 A 
ATOM     49  C   UNL A   1      39.545  29.819  30.669  1.00  0.00     0.049 A 
ATOM     50  N   UNL A   1      41.411  29.500  33.005  1.00  0.00    -0.248 NA
ATOM     51  C   UNL A   1      42.418  27.707  31.901  1.00  0.00     0.031 C 
ATOM     52  C   UNL A   1      38.601  30.011  29.566  1.00  0.00     0.029 A 
ATOM     53  N   UNL A   1      39.166  30.755  31.598  1.00  0.00    -0.354 N 
ATOM     54  C   UNL A   1      42.399  28.955  33.819  1.00  0.00     0.074 A 
ATOM     55  C   UNL A   1      42.943  27.816  33.112  1.00  0.00     0.031 C 
ATOM     56  C   UNL A   1      37.785  31.035  29.861  1.00  0.00     0.029 A 
ATOM     57  C   UNL A   1      38.127  31.554  31.182  1.00  0.00     0.049 A 
ATOM     58  H   UNL A   1      39.597  30.846  32.479  1.00  0.00     0.167 HD
ATOM     59  C   UNL A   1      42.832  29.376  35.032  1.00  0.00     0.031 A 
ATOM     60  C   UNL A   1      37.529  32.598  31.786  1.00  0.00     0.031 A 
ATOM     61  C   UNL A   1      42.287  30.508  35.735  1.00  0.00     0.049 A 
ATOM     62  C   UNL A   1      38.028  33.052  33.130  1.00  0.00     0.074 A 
ATOM     63  C   UNL A   1      42.678  31.038  36.952  1.00  0.00     0.029 A 
ATOM     64  N   UNL A   1      41.232  31.286  35.282  1.00  0.00    -0.354 N 
ATOM     65  N   UNL A   1      39.002  32.559  33.858  1.00  0.00    -0.248 NA
ATOM     66  C   UNL A   1      37.358  34.217  33.724  1.00  0.00     0.031 C 
ATOM     67  C   UNL A   1      41.832  32.112  37.254  1.00  0.00     0.029 A 
ATOM     68  C   UNL A   1      40.948  32.283  36.201  1.00  0.00     0.049 A 
ATOM     69  H   UNL A   1      40.753  31.149  34.432  1.00  0.00     0.167 HD
ATOM     70  C   UNL A   1      39.084  33.375  34.981  1.00  0.00     0.074 A 
ATOM     71  C   UNL A   1      38.068  34.397  34.830  1.00  0.00     0.031 C 
ATOM     72  C   UNL A   1      39.928  33.288  36.040  1.00  0.00     0.031 A 
BRANCH  59  73
ATOM     73  C   UNL A   1      43.951  28.596  35.672  1.00  0.00    -0.014 A 
ATOM     74  C   UNL A   1      45.297  28.936  35.439  1.00  0.00     0.010 A 
ATOM     75  C   UNL A   1      43.658  27.513  36.521  1.00  0.00     0.010 A 
ATOM     76  C   UNL A   1      46.328  28.175  35.995  1.00  0.00     0.020 A 
ATOM     77  C   UNL A   1      44.687  26.767  37.103  1.00  0.00     0.020 A 
ATOM     78  C   UNL A   1      46.016  27.088  36.818  1.00  0.00     0.054 A 
BRANCH  78  79
ATOM     79  S   UNL A   1      47.372  26.111  37.522  1.00  0.00     0.124 S 
ATOM     80  O   UNL A   1      47.279  24.872  36.754  1.00  0.00    -0.237 OA
ATOM     81  O   UNL A   1      48.545  26.936  37.243  1.00  0.00    -0.237 OA
ATOM     82  O   UNL A   1      47.018  25.995  38.935  1.00  0.00    -0.744 OA
ENDBRANCH  78  79
ENDBRANCH  59  73
BRANCH  60  83
ATOM     83  C   UNL A   1      36.429  33.321  31.094  1.00  0.00    -0.014 A 
ATOM     84  C   UNL A   1      35.200  33.534  31.744  1.00  0.00     0.010 A 
ATOM     85  C   UNL A   1      36.611  33.826  29.794  1.00  0.00     0.010 A 
ATOM     86  C   UNL A   1      34.170  34.229  31.104  1.00  0.00     0.020 A 
ATOM     87  C   UNL A   1      35.592  34.543  29.160  1.00  0.00     0.020 A 
ATOM     88  C   UNL A   1      34.374  34.732  29.816  1.00  0.00     0.054 A 
BRANCH  88  89
ATOM     89  S   UNL A   1      33.047  35.686  29.029  1.00  0.00     0.124 S 
ATOM     90  O   UNL A   1      33.794  36.725  28.327  1.00  0.00    -0.237 OA
ATOM     91  O   UNL A   1      32.400  34.689  28.180  1.00  0.00    -0.237 OA
ATOM     92  O   UNL A   1      32.243  36.147  30.158  1.00  0.00    -0.744 OA
ENDBRANCH  88  89
ENDBRANCH  60  83
BRANCH  72  93
ATOM     93  C   UNL A   1      39.809  34.352  37.100  1.00  0.00    -0.014 A 
ATOM     94  C   UNL A   1      38.917  34.214  38.179  1.00  0.00     0.010 A 
ATOM     95  C   UNL A   1      40.620  35.498  37.022  1.00  0.00     0.010 A 
ATOM     96  C   UNL A   1      38.805  35.226  39.135  1.00  0.00     0.020 A 
ATOM     97  C   UNL A   1      40.531  36.499  37.992  1.00  0.00     0.020 A 
ATOM     98  C   UNL A   1      39.608  36.367  39.031  1.00  0.00     0.054 A 
BRANCH  98  99
ATOM     99  S   UNL A   1      39.456  37.663  40.291  1.00  0.00     0.124 S 
ATOM    100  O   UNL A   1      38.174  38.271  39.946  1.00  0.00    -0.237 OA
ATOM    101  O   UNL A   1      39.475  36.904  41.539  1.00  0.00    -0.237 OA
ATOM    102  O   UNL A   1      40.628  38.506  40.063  1.00  0.00    -0.744 OA
ENDBRANCH  98  99
ENDBRANCH  72  93
ENDBRANCH  46  47
ENDBRANCH  38  41
ENDBRANCH  36  37
ENDBRANCH  35  36
ENDBRANCH  34  35
ENDBRANCH   1  34
TORSDOF 19
ENDMDL
MODEL 2
REMARK VINA RESULT:     -11.5      5.932     11.428
REMARK SMILES COc1cccc2ccc(C[N@@H+]3CC4(CC[NH2+]CC4)C[C@@H]3C(=O)NCCCCCCNC(=O)c3ccc(-c4c5nc(c(-c6ccc(S(=O)(=O)[O-])cc6)c6ccc([nH]6)c(-c6ccc(S(=O)(=O)[O-])cc6)c6nc(c(-c7ccc(S(=O)(=O)[O-])cc7)c7ccc4[nH]7)C=C6)C=C5)cc3)nc12
REMARK SMILES IDX 27 1 26 2 25 3 24 4 22 5 23 6 21 8 12 9 13 10 14 12 20 13
REMARK SMILES IDX 15 14 19 15 16 16 18 17 17 18 11 21 10 22 3 23 4 24 95 25
REMARK SMILES IDX 5 26 7 27 94 28 6 29 8 30 9 31 2 32 1 33 28 34 29 35 30 36
REMARK SMILES IDX 31 37 32 38 33 40 34 41 35 42 93 43 36 44 92 45 37 46 38 47
REMARK SMILES IDX 39 48 86 49 40 50 91 51 85 52 87 53 41 54 90 55 84 56 83 57
REMARK SMILES IDX 42 59 72 60 53 61 71 62 54 63 57 64 70 65 88 66 55 67 56 68
REMARK SMILES IDX 69 70 89 71 58 72 43 73 44 74 52 75 45 76 51 77 46 78 47 79
REMARK SMILES IDX 48 80 49 81 50 82 73 83 74 84 82 85 75 86 81 87 76 88 77 89
REMARK SMILES IDX 78 90 79 91 80 92 59 93 60 94 68 95 61 96 67 97 62 98 63 99
REMARK SMILES IDX 64 100 65 101 66 102
REMARK H PARENT 24 7 12 11 17 19 17 20 31 39 87 58 57 69
REMARK Flexibility Score: inf
ROOT
ATOM      1  C   UNL A   1      34.846  31.452  28.357  1.00  0.00     0.002 C 
ENDROOT
BRANCH   1   2
ATOM      2  C   UNL A   1      34.580  30.592  27.123  1.00  0.00     0.021 C 
BRANCH   2   3
ATOM      3  C   UNL A   1      34.645  29.077  27.347  1.00  0.00     0.116 C 
BRANCH   3   4
ATOM      4  N   UNL A   1      33.319  28.528  27.533  1.00  0.00    -0.351 N 
ATOM      5  C   UNL A   1      32.664  27.515  26.897  1.00  0.00     0.278 C 
ATOM      6  O   UNL A   1      31.549  27.224  27.352  1.00  0.00    -0.268 OA
ATOM      7  H   UNL A   1      32.797  28.963  28.245  1.00  0.00     0.163 HD
BRANCH   5   8
ATOM      8  C   UNL A   1      33.351  26.623  25.848  1.00  0.00     0.275 C 
ATOM      9  N   UNL A   1      32.726  26.373  24.534  1.00  0.00    -0.319 N 
ATOM     10  C   UNL A   1      33.351  25.164  24.013  1.00  0.00     0.270 C 
ATOM     11  H   UNL A   1      32.914  27.230  24.012  1.00  0.00     0.349 HD
ATOM     12  C   UNL A   1      33.666  24.249  25.212  1.00  0.00     0.036 C 
ATOM     13  C   UNL A   1      33.736  25.231  26.396  1.00  0.00     0.089 C 
ATOM     14  C   UNL A   1      34.974  23.469  24.963  1.00  0.00     0.074 C 
ATOM     15  C   UNL A   1      32.614  23.162  25.503  1.00  0.00     0.074 C 
ATOM     16  C   UNL A   1      34.802  22.468  23.809  1.00  0.00     0.261 C 
ATOM     17  C   UNL A   1      32.439  22.201  24.330  1.00  0.00     0.261 C 
ATOM     18  N   UNL A   1      33.699  21.522  24.020  1.00  0.00    -0.346 N 
ATOM     19  H   UNL A   1      33.939  20.906  24.798  1.00  0.00     0.346 HD
ATOM     20  H   UNL A   1      33.567  20.998  23.157  1.00  0.00     0.346 HD
BRANCH   9  21
ATOM     21  C   UNL A   1      31.291  26.487  24.275  1.00  0.00     0.320 C 
BRANCH  21  22
ATOM     22  C   UNL A   1      30.709  27.756  23.705  1.00  0.00     0.095 A 
ATOM     23  C   UNL A   1      30.388  31.234  24.759  1.00  0.00     0.145 A 
ATOM     24  C   UNL A   1      29.614  32.358  24.437  1.00  0.00     0.049 A 
ATOM     25  C   UNL A   1      30.248  30.032  24.037  1.00  0.00     0.113 A 
ATOM     26  C   UNL A   1      28.723  32.314  23.368  1.00  0.00     0.005 A 
ATOM     27  C   UNL A   1      29.407  30.037  22.904  1.00  0.00     0.004 A 
ATOM     28  N   UNL A   1      30.877  28.895  24.417  1.00  0.00    -0.243 NA
ATOM     29  C   UNL A   1      28.639  31.169  22.587  1.00  0.00     0.010 A 
ATOM     30  C   UNL A   1      29.349  28.887  22.107  1.00  0.00     0.012 A 
ATOM     31  C   UNL A   1      30.027  27.740  22.498  1.00  0.00     0.030 A 
BRANCH  23  32
ATOM     32  O   UNL A   1      31.341  31.221  25.753  1.00  0.00    -0.494 OA
ATOM     33  C   UNL A   1      31.288  32.231  26.747  1.00  0.00     0.278 C 
ENDBRANCH  23  32
ENDBRANCH  21  22
ENDBRANCH   9  21
ENDBRANCH   5   8
ENDBRANCH   3   4
ENDBRANCH   2   3
ENDBRANCH   1   2
BRANCH   1  34
ATOM     34  C   UNL A   1      35.334  32.870  28.076  1.00  0.00     0.002 C 
BRANCH  34  35
ATOM     35  C   UNL A   1      35.752  33.682  29.305  1.00  0.00     0.021 C 
BRANCH  35  36
ATOM     36  C   UNL A   1      36.856  33.068  30.163  1.00  0.00     0.116 C 
BRANCH  36  37
ATOM     37  N   UNL A   1      36.355  32.060  31.078  1.00  0.00    -0.352 N 
ATOM     38  C   UNL A   1      36.833  30.798  31.331  1.00  0.00     0.251 C 
ATOM     39  H   UNL A   1      35.556  32.318  31.594  1.00  0.00     0.163 HD
ATOM     40  O   UNL A   1      36.179  30.025  32.022  1.00  0.00    -0.269 OA
BRANCH  38  41
ATOM     41  C   UNL A   1      38.125  30.366  30.755  1.00  0.00     0.039 A 
ATOM     42  C   UNL A   1      38.239  30.278  29.366  1.00  0.00     0.014 A 
ATOM     43  C   UNL A   1      39.209  30.023  31.570  1.00  0.00     0.014 A 
ATOM     44  C   UNL A   1      39.450  29.883  28.793  1.00  0.00     0.010 A 
ATOM     45  C   UNL A   1      40.436  29.692  30.996  1.00  0.00     0.010 A 
ATOM     46  C   UNL A   1      40.564  29.604  29.602  1.00  0.00    -0.014 A 
BRANCH  46  47
ATOM     47  C   UNL A   1      41.858  29.209  28.987  1.00  0.00     0.031 A 
ATOM     48  C   UNL A   1      42.988  30.197  28.885  1.00  0.00     0.074 A 
ATOM     49  C   UNL A   1      42.013  27.956  28.515  1.00  0.00     0.049 A 
ATOM     50  N   UNL A   1      44.205  30.013  28.439  1.00  0.00    -0.248 NA
ATOM     51  C   UNL A   1      42.711  31.575  29.320  1.00  0.00     0.031 C 
ATOM     52  C   UNL A   1      40.980  26.918  28.516  1.00  0.00     0.029 A 
ATOM     53  N   UNL A   1      43.104  27.339  27.958  1.00  0.00    -0.354 N 
ATOM     54  C   UNL A   1      44.837  31.248  28.540  1.00  0.00     0.074 A 
ATOM     55  C   UNL A   1      43.850  32.186  29.029  1.00  0.00     0.031 C 
ATOM     56  C   UNL A   1      41.502  25.780  28.030  1.00  0.00     0.029 A 
ATOM     57  C   UNL A   1      42.894  26.013  27.659  1.00  0.00     0.049 A 
ATOM     58  H   UNL A   1      43.957  27.801  27.787  1.00  0.00     0.167 HD
ATOM     59  C   UNL A   1      46.126  31.570  28.271  1.00  0.00     0.031 A 
ATOM     60  C   UNL A   1      43.732  25.084  27.162  1.00  0.00     0.031 A 
ATOM     61  C   UNL A   1      47.105  30.637  27.780  1.00  0.00     0.049 A 
ATOM     62  C   UNL A   1      45.159  25.462  26.875  1.00  0.00     0.074 A 
ATOM     63  C   UNL A   1      48.445  30.854  27.510  1.00  0.00     0.029 A 
ATOM     64  N   UNL A   1      46.850  29.306  27.486  1.00  0.00    -0.354 N 
ATOM     65  N   UNL A   1      45.753  26.621  27.030  1.00  0.00    -0.248 NA
ATOM     66  C   UNL A   1      46.033  24.397  26.364  1.00  0.00     0.031 C 
ATOM     67  C   UNL A   1      48.990  29.664  27.013  1.00  0.00     0.029 A 
ATOM     68  C   UNL A   1      48.003  28.692  27.023  1.00  0.00     0.049 A 
ATOM     69  H   UNL A   1      45.977  28.862  27.589  1.00  0.00     0.167 HD
ATOM     70  C   UNL A   1      47.080  26.417  26.667  1.00  0.00     0.074 A 
ATOM     71  C   UNL A   1      47.201  25.021  26.296  1.00  0.00     0.031 C 
ATOM     72  C   UNL A   1      48.106  27.304  26.649  1.00  0.00     0.031 A 
BRANCH  59  73
ATOM     73  C   UNL A   1      46.540  33.001  28.502  1.00  0.00    -0.014 A 
ATOM     74  C   UNL A   1      46.476  33.950  27.464  1.00  0.00     0.010 A 
ATOM     75  C   UNL A   1      46.994  33.406  29.770  1.00  0.00     0.010 A 
ATOM     76  C   UNL A   1      46.911  35.261  27.674  1.00  0.00     0.020 A 
ATOM     77  C   UNL A   1      47.403  34.725  29.992  1.00  0.00     0.020 A 
ATOM     78  C   UNL A   1      47.381  35.638  28.936  1.00  0.00     0.054 A 
BRANCH  78  79
ATOM     79  S   UNL A   1      47.947  37.344  29.180  1.00  0.00     0.124 S 
ATOM     80  O   UNL A   1      47.381  37.663  30.488  1.00  0.00    -0.237 OA
ATOM     81  O   UNL A   1      49.402  37.211  29.141  1.00  0.00    -0.237 OA
ATOM     82  O   UNL A   1      47.361  38.068  28.055  1.00  0.00    -0.744 OA
ENDBRANCH  78  79
ENDBRANCH  59  73
BRANCH  60  83
ATOM     83  C   UNL A   1      43.253  23.691  26.958  1.00  0.00    -0.014 A 
ATOM     84  C   UNL A   1      42.959  23.223  25.665  1.00  0.00     0.010 A 
ATOM     85  C   UNL A   1      43.116  22.815  28.050  1.00  0.00     0.010 A 
ATOM     86  C   UNL A   1      42.526  21.909  25.468  1.00  0.00     0.020 A 
ATOM     87  C   UNL A   1      42.707  21.492  27.854  1.00  0.00     0.020 A 
ATOM     88  C   UNL A   1      42.406  21.050  26.565  1.00  0.00     0.054 A 
BRANCH  88  89
ATOM     89  S   UNL A   1      41.904  19.330  26.279  1.00  0.00     0.124 S 
ATOM     90  O   UNL A   1      40.458  19.456  26.129  1.00  0.00    -0.237 OA
ATOM     91  O   UNL A   1      42.638  18.984  25.065  1.00  0.00    -0.237 OA
ATOM     92  O   UNL A   1      42.352  18.640  27.486  1.00  0.00    -0.744 OA
ENDBRANCH  88  89
ENDBRANCH  60  83
BRANCH  72  93
ATOM     93  C   UNL A   1      49.459  26.779  26.247  1.00  0.00    -0.014 A 
ATOM     94  C   UNL A   1      50.251  26.036  27.141  1.00  0.00     0.010 A 
ATOM     95  C   UNL A   1      49.934  27.016  24.944  1.00  0.00     0.010 A 
ATOM     96  C   UNL A   1      51.515  25.582  26.755  1.00  0.00     0.020 A 
ATOM     97  C   UNL A   1      51.185  26.539  24.546  1.00  0.00     0.020 A 
ATOM     98  C   UNL A   1      51.976  25.843  25.461  1.00  0.00     0.054 A 
BRANCH  98  99
ATOM     99  S   UNL A   1      53.614  25.233  24.975  1.00  0.00     0.124 S 
ATOM    100  O   UNL A   1      53.814  25.893  23.689  1.00  0.00    -0.237 OA
ATOM    101  O   UNL A   1      54.469  25.704  26.062  1.00  0.00    -0.237 OA
ATOM    102  O   UNL A   1      53.438  23.784  24.912  1.00  0.00    -0.744 OA
ENDBRANCH  98  99
ENDBRANCH  72  93
ENDBRANCH  46  47
ENDBRANCH  38  41
ENDBRANCH  36  37
ENDBRANCH  35  36
ENDBRANCH  34  35
ENDBRANCH   1  34
TORSDOF 19
ENDMDL
MODEL 3
REMARK VINA RESULT:     -11.1      5.991      8.957
REMARK SMILES COc1cccc2ccc(C[N@@H+]3CC4(CC[NH2+]CC4)C[C@@H]3C(=O)NCCCCCCNC(=O)c3ccc(-c4c5nc(c(-c6ccc(S(=O)(=O)[O-])cc6)c6ccc([nH]6)c(-c6ccc(S(=O)(=O)[O-])cc6)c6nc(c(-c7ccc(S(=O)(=O)[O-])cc7)c7ccc4[nH]7)C=C6)C=C5)cc3)nc12
REMARK SMILES IDX 27 1 26 2 25 3 24 4 22 5 23 6 21 8 12 9 13 10 14 12 20 13
REMARK SMILES IDX 15 14 19 15 16 16 18 17 17 18 11 21 10 22 3 23 4 24 95 25
REMARK SMILES IDX 5 26 7 27 94 28 6 29 8 30 9 31 2 32 1 33 28 34 29 35 30 36
REMARK SMILES IDX 31 37 32 38 33 40 34 41 35 42 93 43 36 44 92 45 37 46 38 47
REMARK SMILES IDX 39 48 86 49 40 50 91 51 85 52 87 53 41 54 90 55 84 56 83 57
REMARK SMILES IDX 42 59 72 60 53 61 71 62 54 63 57 64 70 65 88 66 55 67 56 68
REMARK SMILES IDX 69 70 89 71 58 72 43 73 44 74 52 75 45 76 51 77 46 78 47 79
REMARK SMILES IDX 48 80 49 81 50 82 73 83 74 84 82 85 75 86 81 87 76 88 77 89
REMARK SMILES IDX 78 90 79 91 80 92 59 93 60 94 68 95 61 96 67 97 62 98 63 99
REMARK SMILES IDX 64 100 65 101 66 102
REMARK H PARENT 24 7 12 11 17 19 17 20 31 39 87 58 57 69
REMARK Flexibility Score: inf
ROOT
ATOM      1  C   UNL A   1      37.428  21.219  25.331  1.00  0.00     0.002 C 
ENDROOT
BRANCH   1   2
ATOM      2  C   UNL A   1      37.047  21.827  23.982  1.00  0.00     0.021 C 
BRANCH   2   3
ATOM      3  C   UNL A   1      36.067  23.004  24.041  1.00  0.00     0.116 C 
BRANCH   3   4
ATOM      4  N   UNL A   1      35.182  22.994  22.897  1.00  0.00    -0.351 N 
ATOM      5  C   UNL A   1      34.162  23.824  22.536  1.00  0.00     0.278 C 
ATOM      6  O   UNL A   1      33.641  23.594  21.436  1.00  0.00    -0.268 OA
ATOM      7  H   UNL A   1      35.345  22.256  22.265  1.00  0.00     0.163 HD
BRANCH   5   8
ATOM      8  C   UNL A   1      33.835  25.110  23.315  1.00  0.00     0.275 C 
ATOM      9  N   UNL A   1      32.992  25.074  24.526  1.00  0.00    -0.319 N 
ATOM     10  C   UNL A   1      32.496  26.431  24.714  1.00  0.00     0.270 C 
ATOM     11  H   UNL A   1      33.624  24.729  25.249  1.00  0.00     0.349 HD
ATOM     12  C   UNL A   1      32.295  27.052  23.317  1.00  0.00     0.036 C 
ATOM     13  C   UNL A   1      33.237  26.221  22.425  1.00  0.00     0.089 C 
ATOM     14  C   UNL A   1      32.622  28.559  23.346  1.00  0.00     0.074 C 
ATOM     15  C   UNL A   1      30.858  26.975  22.766  1.00  0.00     0.074 C 
ATOM     16  C   UNL A   1      31.601  29.323  24.206  1.00  0.00     0.261 C 
ATOM     17  C   UNL A   1      29.861  27.713  23.654  1.00  0.00     0.261 C 
ATOM     18  N   UNL A   1      30.213  29.130  23.768  1.00  0.00    -0.346 N 
ATOM     19  H   UNL A   1      30.092  29.572  22.856  1.00  0.00     0.346 HD
ATOM     20  H   UNL A   1      29.603  29.548  24.468  1.00  0.00     0.346 HD
BRANCH   9  21
ATOM     21  C   UNL A   1      32.023  24.017  24.818  1.00  0.00     0.320 C 
BRANCH  21  22
ATOM     22  C   UNL A   1      32.483  22.619  25.143  1.00  0.00     0.095 A 
ATOM     23  C   UNL A   1      32.404  19.355  23.516  1.00  0.00     0.145 A 
ATOM     24  C   UNL A   1      32.524  18.004  23.874  1.00  0.00     0.049 A 
ATOM     25  C   UNL A   1      32.572  20.371  24.477  1.00  0.00     0.113 A 
ATOM     26  C   UNL A   1      32.853  17.649  25.179  1.00  0.00     0.005 A 
ATOM     27  C   UNL A   1      32.992  19.994  25.771  1.00  0.00     0.004 A 
ATOM     28  N   UNL A   1      32.322  21.670  24.191  1.00  0.00    -0.243 NA
ATOM     29  C   UNL A   1      33.112  18.640  26.118  1.00  0.00     0.010 A 
ATOM     30  C   UNL A   1      33.278  21.000  26.702  1.00  0.00     0.012 A 
ATOM     31  C   UNL A   1      33.044  22.330  26.378  1.00  0.00     0.030 A 
BRANCH  23  32
ATOM     32  O   UNL A   1      32.153  19.787  22.233  1.00  0.00    -0.494 OA
ATOM     33  C   UNL A   1      32.151  18.827  21.190  1.00  0.00     0.278 C 
ENDBRANCH  23  32
ENDBRANCH  21  22
ENDBRANCH   9  21
ENDBRANCH   5   8
ENDBRANCH   3   4
ENDBRANCH   2   3
ENDBRANCH   1   2
BRANCH   1  34
ATOM     34  C   UNL A   1      38.770  20.496  25.369  1.00  0.00     0.002 C 
BRANCH  34  35
ATOM     35  C   UNL A   1      39.799  21.061  26.353  1.00  0.00     0.021 C 
BRANCH  35  36
ATOM     36  C   UNL A   1      40.668  20.032  27.071  1.00  0.00     0.116 C 
BRANCH  36  37
ATOM     37  N   UNL A   1      41.659  19.431  26.197  1.00  0.00    -0.352 N 
ATOM     38  C   UNL A   1      42.747  20.006  25.589  1.00  0.00     0.251 C 
ATOM     39  H   UNL A   1      41.532  18.472  26.014  1.00  0.00     0.163 HD
ATOM     40  O   UNL A   1      43.381  19.375  24.750  1.00  0.00    -0.269 OA
BRANCH  38  41
ATOM     41  C   UNL A   1      43.141  21.390  25.930  1.00  0.00     0.039 A 
ATOM     42  C   UNL A   1      43.594  21.655  27.225  1.00  0.00     0.014 A 
ATOM     43  C   UNL A   1      43.043  22.427  24.996  1.00  0.00     0.014 A 
ATOM     44  C   UNL A   1      43.983  22.950  27.571  1.00  0.00     0.010 A 
ATOM     45  C   UNL A   1      43.493  23.706  25.324  1.00  0.00     0.010 A 
ATOM     46  C   UNL A   1      43.954  23.983  26.619  1.00  0.00    -0.014 A 
BRANCH  46  47
ATOM     47  C   UNL A   1      44.392  25.355  26.986  1.00  0.00     0.031 A 
ATOM     48  C   UNL A   1      45.813  25.791  26.748  1.00  0.00     0.074 A 
ATOM     49  C   UNL A   1      43.509  26.209  27.539  1.00  0.00     0.049 A 
ATOM     50  N   UNL A   1      46.358  26.965  26.945  1.00  0.00    -0.248 NA
ATOM     51  C   UNL A   1      46.748  24.772  26.244  1.00  0.00     0.031 C 
ATOM     52  C   UNL A   1      42.115  25.894  27.860  1.00  0.00     0.029 A 
ATOM     53  N   UNL A   1      43.648  27.521  27.915  1.00  0.00    -0.354 N 
ATOM     54  C   UNL A   1      47.696  26.826  26.590  1.00  0.00     0.074 A 
ATOM     55  C   UNL A   1      47.892  25.440  26.226  1.00  0.00     0.031 C 
ATOM     56  C   UNL A   1      41.515  26.996  28.337  1.00  0.00     0.029 A 
ATOM     57  C   UNL A   1      42.485  28.086  28.383  1.00  0.00     0.049 A 
ATOM     58  H   UNL A   1      44.500  28.012  27.855  1.00  0.00     0.167 HD
ATOM     59  C   UNL A   1      48.668  27.769  26.548  1.00  0.00     0.031 A 
ATOM     60  C   UNL A   1      42.222  29.344  28.785  1.00  0.00     0.031 A 
ATOM     61  C   UNL A   1      48.472  29.147  26.914  1.00  0.00     0.049 A 
ATOM     62  C   UNL A   1      43.315  30.375  28.727  1.00  0.00     0.074 A 
ATOM     63  C   UNL A   1      49.383  30.189  26.874  1.00  0.00     0.029 A 
ATOM     64  N   UNL A   1      47.281  29.676  27.389  1.00  0.00    -0.354 N 
ATOM     65  N   UNL A   1      44.558  30.239  28.334  1.00  0.00    -0.248 NA
ATOM     66  C   UNL A   1      42.959  31.738  29.147  1.00  0.00     0.031 C 
ATOM     67  C   UNL A   1      48.753  31.340  27.364  1.00  0.00     0.029 A 
ATOM     68  C   UNL A   1      47.435  31.027  27.659  1.00  0.00     0.049 A 
ATOM     69  H   UNL A   1      46.448  29.167  27.517  1.00  0.00     0.167 HD
ATOM     70  C   UNL A   1      45.126  31.505  28.429  1.00  0.00     0.074 A 
ATOM     71  C   UNL A   1      44.086  32.394  28.905  1.00  0.00     0.031 C 
ATOM     72  C   UNL A   1      46.393  31.896  28.142  1.00  0.00     0.031 A 
BRANCH  59  73
ATOM     73  C   UNL A   1      50.035  27.328  26.092  1.00  0.00    -0.014 A 
ATOM     74  C   UNL A   1      50.374  27.315  24.725  1.00  0.00     0.010 A 
ATOM     75  C   UNL A   1      50.997  26.926  27.036  1.00  0.00     0.010 A 
ATOM     76  C   UNL A   1      51.625  26.855  24.309  1.00  0.00     0.020 A 
ATOM     77  C   UNL A   1      52.261  26.494  26.626  1.00  0.00     0.020 A 
ATOM     78  C   UNL A   1      52.559  26.438  25.263  1.00  0.00     0.054 A 
BRANCH  78  79
ATOM     79  S   UNL A   1      54.175  25.839  24.696  1.00  0.00     0.124 S 
ATOM     80  O   UNL A   1      55.081  26.473  25.649  1.00  0.00    -0.237 OA
ATOM     81  O   UNL A   1      54.045  24.389  24.823  1.00  0.00    -0.237 OA
ATOM     82  O   UNL A   1      54.267  26.335  23.325  1.00  0.00    -0.744 OA
ENDBRANCH  78  79
ENDBRANCH  59  73
BRANCH  60  83
ATOM     83  C   UNL A   1      40.849  29.707  29.224  1.00  0.00    -0.014 A 
ATOM     84  C   UNL A   1      39.818  29.860  28.279  1.00  0.00     0.010 A 
ATOM     85  C   UNL A   1      40.555  29.876  30.589  1.00  0.00     0.010 A 
ATOM     86  C   UNL A   1      38.522  30.184  28.689  1.00  0.00     0.020 A 
ATOM     87  C   UNL A   1      39.255  30.176  31.006  1.00  0.00     0.020 A 
ATOM     88  C   UNL A   1      38.248  30.337  30.052  1.00  0.00     0.054 A 
BRANCH  88  89
ATOM     89  S   UNL A   1      36.545  30.694  30.567  1.00  0.00     0.124 S 
ATOM     90  O   UNL A   1      36.658  32.064  31.060  1.00  0.00    -0.237 OA
ATOM     91  O   UNL A   1      35.797  30.529  29.324  1.00  0.00    -0.237 OA
ATOM     92  O   UNL A   1      36.278  29.682  31.585  1.00  0.00    -0.744 OA
ENDBRANCH  88  89
ENDBRANCH  60  83
BRANCH  72  93
ATOM     93  C   UNL A   1      46.711  33.360  28.302  1.00  0.00    -0.014 A 
ATOM     94  C   UNL A   1      47.278  33.860  29.487  1.00  0.00     0.010 A 
ATOM     95  C   UNL A   1      46.455  34.244  27.237  1.00  0.00     0.010 A 
ATOM     96  C   UNL A   1      47.539  35.226  29.623  1.00  0.00     0.020 A 
ATOM     97  C   UNL A   1      46.740  35.605  27.360  1.00  0.00     0.020 A 
ATOM     98  C   UNL A   1      47.261  36.092  28.560  1.00  0.00     0.054 A 
BRANCH  98  99
ATOM     99  S   UNL A   1      47.620  37.859  28.752  1.00  0.00     0.124 S 
ATOM    100  O   UNL A   1      47.798  38.284  27.367  1.00  0.00    -0.237 OA
ATOM    101  O   UNL A   1      46.418  38.362  29.413  1.00  0.00    -0.237 OA
ATOM    102  O   UNL A   1      48.829  37.880  29.573  1.00  0.00    -0.744 OA
ENDBRANCH  98  99
ENDBRANCH  72  93
ENDBRANCH  46  47
ENDBRANCH  38  41
ENDBRANCH  36  37
ENDBRANCH  35  36
ENDBRANCH  34  35
ENDBRANCH   1  34
TORSDOF 19
ENDMDL
