MODEL 1
REMARK VINA RESULT:     -11.3      0.000      0.000
REMARK SMILES CCc1cc(N2CCC[C@H](C(=O)NCCCCCCNC(=O)c3ccc(-c4c5nc(c(-c6ccc(S(=O)(=O)[O-])cc6)c6ccc([nH]6)c(-c6ccc(S(=O)(=O)[O-])cc6)c6nc(c(-c7ccc(S(=O)(=O)[O-])cc7)c7ccc4[nH]7)C=C6)C=C5)cc3)C2)nc(-c2ccc(Cl)cc2)n1
REMARK SMILES IDX 17 1 16 2 15 3 14 4 13 5 11 6 12 7 10 9 6 10 7 11 83 12 8 13
REMARK SMILES IDX 9 14 5 15 3 16 4 17 93 18 85 19 84 20 2 21 1 22 86 23 87 24
REMARK SMILES IDX 92 25 88 26 91 27 89 28 90 29 18 30 19 31 20 32 21 33 22 35
REMARK SMILES IDX 23 36 24 37 82 38 25 39 81 40 26 41 27 42 28 43 75 44 29 45
REMARK SMILES IDX 80 46 74 47 76 48 30 49 79 50 73 51 72 52 31 54 61 55 42 56
REMARK SMILES IDX 60 57 43 58 46 59 59 60 77 61 44 62 45 63 58 65 78 66 47 67
REMARK SMILES IDX 32 68 33 69 41 70 34 71 40 72 35 73 36 74 37 75 38 76 39 77
REMARK SMILES IDX 62 78 63 79 71 80 64 81 70 82 65 83 66 84 67 85 68 86 69 87
REMARK SMILES IDX 48 88 49 89 57 90 50 91 56 92 51 93 52 94 53 95 54 96 55 97
REMARK H PARENT 13 8 20 34 76 53 46 64
REMARK Flexibility Score: inf
ROOT
ATOM      1  C   UNL A   1      34.848  32.955  28.154  1.00  0.00     0.002 C 
ENDROOT
BRANCH   1   2
ATOM      2  C   UNL A   1      34.016  31.715  27.799  1.00  0.00     0.002 C 
BRANCH   2   3
ATOM      3  C   UNL A   1      34.823  30.447  27.517  1.00  0.00     0.021 C 
BRANCH   3   4
ATOM      4  C   UNL A   1      33.994  29.313  26.921  1.00  0.00     0.116 C 
BRANCH   4   5
ATOM      5  N   UNL A   1      34.066  29.279  25.477  1.00  0.00    -0.356 N 
ATOM      6  C   UNL A   1      33.197  28.790  24.558  1.00  0.00     0.224 C 
ATOM      7  O   UNL A   1      33.454  29.038  23.373  1.00  0.00    -0.275 OA
ATOM      8  H   UNL A   1      34.881  29.680  25.097  1.00  0.00     0.163 HD
BRANCH   6   9
ATOM      9  C   UNL A   1      31.948  27.973  24.893  1.00  0.00     0.098 C 
ATOM     10  N   UNL A   1      31.897  25.794  23.749  1.00  0.00    -0.356 N 
ATOM     11  C   UNL A   1      30.559  25.955  23.201  1.00  0.00     0.118 C 
ATOM     12  C   UNL A   1      32.213  26.478  24.994  1.00  0.00     0.131 C 
ATOM     13  C   UNL A   1      30.256  27.440  22.982  1.00  0.00     0.022 C 
ATOM     14  C   UNL A   1      30.663  28.350  24.143  1.00  0.00     0.017 C 
BRANCH  10  15
ATOM     15  C   UNL A   1      32.558  24.586  23.581  1.00  0.00     0.132 A 
ATOM     16  C   UNL A   1      32.626  22.332  22.885  1.00  0.00     0.046 A 
ATOM     17  C   UNL A   1      31.954  23.537  22.915  1.00  0.00     0.070 A 
ATOM     18  N   UNL A   1      33.837  22.184  23.449  1.00  0.00    -0.233 NA
ATOM     19  C   UNL A   1      34.353  23.254  24.079  1.00  0.00     0.161 A 
ATOM     20  N   UNL A   1      33.746  24.448  24.192  1.00  0.00    -0.211 NA
BRANCH  16  21
ATOM     21  C   UNL A   1      31.989  21.085  22.330  1.00  0.00     0.053 C 
ATOM     22  C   UNL A   1      32.201  19.846  23.185  1.00  0.00     0.011 C 
ENDBRANCH  16  21
BRANCH  19  23
ATOM     23  C   UNL A   1      35.630  23.047  24.775  1.00  0.00     0.019 A 
ATOM     24  C   UNL A   1      36.177  24.054  25.592  1.00  0.00     0.013 A 
ATOM     25  C   UNL A   1      36.379  21.870  24.593  1.00  0.00     0.013 A 
ATOM     26  C   UNL A   1      37.433  23.903  26.189  1.00  0.00     0.021 A 
ATOM     27  C   UNL A   1      37.644  21.722  25.175  1.00  0.00     0.021 A 
ATOM     28  C   UNL A   1      38.167  22.743  25.966  1.00  0.00     0.041 A 
ATOM     29  Cl  UNL A   1      39.736  22.574  26.652  1.00  0.00    -0.084 Cl
ENDBRANCH  19  23
ENDBRANCH  10  15
ENDBRANCH   6   9
ENDBRANCH   4   5
ENDBRANCH   3   4
ENDBRANCH   2   3
ENDBRANCH   1   2
BRANCH   1  30
ATOM     30  C   UNL A   1      36.360  32.735  28.267  1.00  0.00     0.021 C 
BRANCH  30  31
ATOM     31  C   UNL A   1      36.907  32.703  29.692  1.00  0.00     0.116 C 
BRANCH  31  32
ATOM     32  N   UNL A   1      36.367  31.595  30.464  1.00  0.00    -0.352 N 
ATOM     33  C   UNL A   1      36.824  30.312  30.600  1.00  0.00     0.251 C 
ATOM     34  H   UNL A   1      35.544  31.800  30.965  1.00  0.00     0.163 HD
ATOM     35  O   UNL A   1      36.110  29.465  31.140  1.00  0.00    -0.269 OA
BRANCH  33  36
ATOM     36  C   UNL A   1      38.161  29.936  30.100  1.00  0.00     0.039 A 
ATOM     37  C   UNL A   1      38.347  29.775  28.724  1.00  0.00     0.014 A 
ATOM     38  C   UNL A   1      39.218  29.704  30.983  1.00  0.00     0.014 A 
ATOM     39  C   UNL A   1      39.605  29.427  28.230  1.00  0.00     0.010 A 
ATOM     40  C   UNL A   1      40.488  29.418  30.485  1.00  0.00     0.010 A 
ATOM     41  C   UNL A   1      40.692  29.270  29.105  1.00  0.00    -0.014 A 
BRANCH  41  42
ATOM     42  C   UNL A   1      42.049  28.951  28.594  1.00  0.00     0.031 A 
ATOM     43  C   UNL A   1      42.377  27.557  28.135  1.00  0.00     0.074 A 
ATOM     44  C   UNL A   1      43.004  29.901  28.611  1.00  0.00     0.049 A 
ATOM     45  N   UNL A   1      43.519  27.075  27.713  1.00  0.00    -0.248 NA
ATOM     46  C   UNL A   1      41.288  26.567  28.182  1.00  0.00     0.031 C 
ATOM     47  C   UNL A   1      42.822  31.276  29.082  1.00  0.00     0.029 A 
ATOM     48  N   UNL A   1      44.323  29.850  28.236  1.00  0.00    -0.354 N 
ATOM     49  C   UNL A   1      43.293  25.725  27.468  1.00  0.00     0.074 A 
ATOM     50  C   UNL A   1      41.917  25.456  27.827  1.00  0.00     0.031 C 
ATOM     51  C   UNL A   1      43.981  31.941  28.953  1.00  0.00     0.029 A 
ATOM     52  C   UNL A   1      44.995  31.033  28.427  1.00  0.00     0.049 A 
ATOM     53  H   UNL A   1      44.748  29.043  27.865  1.00  0.00     0.167 HD
ATOM     54  C   UNL A   1      44.149  24.798  26.974  1.00  0.00     0.031 A 
ATOM     55  C   UNL A   1      46.287  31.352  28.214  1.00  0.00     0.031 A 
ATOM     56  C   UNL A   1      45.512  25.076  26.606  1.00  0.00     0.049 A 
ATOM     57  C   UNL A   1      47.215  30.313  27.649  1.00  0.00     0.074 A 
ATOM     58  C   UNL A   1      46.439  24.224  26.031  1.00  0.00     0.029 A 
ATOM     59  N   UNL A   1      46.146  26.296  26.784  1.00  0.00    -0.354 N 
ATOM     60  N   UNL A   1      46.961  29.062  27.346  1.00  0.00    -0.248 NA
ATOM     61  C   UNL A   1      48.598  30.732  27.382  1.00  0.00     0.031 C 
ATOM     62  C   UNL A   1      47.649  24.915  25.908  1.00  0.00     0.029 A 
ATOM     63  C   UNL A   1      47.460  26.214  26.354  1.00  0.00     0.049 A 
ATOM     64  H   UNL A   1      45.725  27.102  27.160  1.00  0.00     0.167 HD
ATOM     65  C   UNL A   1      48.147  28.549  26.834  1.00  0.00     0.074 A 
ATOM     66  C   UNL A   1      49.112  29.630  26.852  1.00  0.00     0.031 C 
ATOM     67  C   UNL A   1      48.411  27.297  26.387  1.00  0.00     0.031 A 
BRANCH  54  68
ATOM     68  C   UNL A   1      43.634  23.390  26.820  1.00  0.00    -0.014 A 
ATOM     69  C   UNL A   1      43.295  22.609  27.941  1.00  0.00     0.010 A 
ATOM     70  C   UNL A   1      43.465  22.846  25.534  1.00  0.00     0.010 A 
ATOM     71  C   UNL A   1      42.850  21.294  27.780  1.00  0.00     0.020 A 
ATOM     72  C   UNL A   1      42.993  21.541  25.368  1.00  0.00     0.020 A 
ATOM     73  C   UNL A   1      42.709  20.766  26.494  1.00  0.00     0.054 A 
BRANCH  73  74
ATOM     74  S   UNL A   1      42.128  19.057  26.312  1.00  0.00     0.124 S 
ATOM     75  O   UNL A   1      40.763  19.254  25.830  1.00  0.00    -0.237 OA
ATOM     76  O   UNL A   1      43.064  18.501  25.338  1.00  0.00    -0.237 OA
ATOM     77  O   UNL A   1      42.239  18.508  27.661  1.00  0.00    -0.744 OA
ENDBRANCH  73  74
ENDBRANCH  54  68
BRANCH  55  78
ATOM     78  C   UNL A   1      46.767  32.724  28.531  1.00  0.00    -0.014 A 
ATOM     79  C   UNL A   1      47.468  32.981  29.723  1.00  0.00     0.010 A 
ATOM     80  C   UNL A   1      46.560  33.775  27.619  1.00  0.00     0.010 A 
ATOM     81  C   UNL A   1      47.945  34.265  30.000  1.00  0.00     0.020 A 
ATOM     82  C   UNL A   1      47.058  35.055  27.882  1.00  0.00     0.020 A 
ATOM     83  C   UNL A   1      47.741  35.293  29.076  1.00  0.00     0.054 A 
BRANCH  83  84
ATOM     84  S   UNL A   1      48.429  36.936  29.423  1.00  0.00     0.124 S 
ATOM     85  O   UNL A   1      47.642  37.356  30.579  1.00  0.00    -0.237 OA
ATOM     86  O   UNL A   1      49.835  36.640  29.688  1.00  0.00    -0.237 OA
ATOM     87  O   UNL A   1      48.179  37.679  28.191  1.00  0.00    -0.744 OA
ENDBRANCH  83  84
ENDBRANCH  55  78
BRANCH  67  88
ATOM     88  C   UNL A   1      49.795  27.029  25.858  1.00  0.00    -0.014 A 
ATOM     89  C   UNL A   1      50.094  27.176  24.491  1.00  0.00     0.010 A 
ATOM     90  C   UNL A   1      50.824  26.680  26.751  1.00  0.00     0.010 A 
ATOM     91  C   UNL A   1      51.391  26.950  24.024  1.00  0.00     0.020 A 
ATOM     92  C   UNL A   1      52.128  26.478  26.291  1.00  0.00     0.020 A 
ATOM     93  C   UNL A   1      52.400  26.601  24.928  1.00  0.00     0.054 A 
BRANCH  93  94
ATOM     94  S   UNL A   1      54.086  26.357  24.303  1.00  0.00     0.124 S 
ATOM     95  O   UNL A   1      53.913  26.570  22.869  1.00  0.00    -0.237 OA
ATOM     96  O   UNL A   1      54.842  27.390  25.007  1.00  0.00    -0.237 OA
ATOM     97  O   UNL A   1      54.404  24.986  24.695  1.00  0.00    -0.744 OA
ENDBRANCH  93  94
ENDBRANCH  67  88
ENDBRANCH  41  42
ENDBRANCH  33  36
ENDBRANCH  31  32
ENDBRANCH  30  31
ENDBRANCH   1  30
TORSDOF 19
ENDMDL
MODEL 2
REMARK VINA RESULT:     -11.3      6.500     11.869
REMARK SMILES CCc1cc(N2CCC[C@H](C(=O)NCCCCCCNC(=O)c3ccc(-c4c5nc(c(-c6ccc(S(=O)(=O)[O-])cc6)c6ccc([nH]6)c(-c6ccc(S(=O)(=O)[O-])cc6)c6nc(c(-c7ccc(S(=O)(=O)[O-])cc7)c7ccc4[nH]7)C=C6)C=C5)cc3)C2)nc(-c2ccc(Cl)cc2)n1
REMARK SMILES IDX 17 1 16 2 15 3 14 4 13 5 11 6 12 7 10 9 6 10 7 11 83 12 8 13
REMARK SMILES IDX 9 14 5 15 3 16 4 17 93 18 85 19 84 20 2 21 1 22 86 23 87 24
REMARK SMILES IDX 92 25 88 26 91 27 89 28 90 29 18 30 19 31 20 32 21 33 22 35
REMARK SMILES IDX 23 36 24 37 82 38 25 39 81 40 26 41 27 42 28 43 75 44 29 45
REMARK SMILES IDX 80 46 74 47 76 48 30 49 79 50 73 51 72 52 31 54 61 55 42 56
REMARK SMILES IDX 60 57 43 58 46 59 59 60 77 61 44 62 45 63 58 65 78 66 47 67
REMARK SMILES IDX 32 68 33 69 41 70 34 71 40 72 35 73 36 74 37 75 38 76 39 77
REMARK SMILES IDX 62 78 63 79 71 80 64 81 70 82 65 83 66 84 67 85 68 86 69 87
REMARK SMILES IDX 48 88 49 89 57 90 50 91 56 92 51 93 52 94 53 95 54 96 55 97
REMARK H PARENT 13 8 20 34 76 53 46 64
REMARK Flexibility Score: inf
ROOT
ATOM      1  C   UNL A   1      36.416  23.166  26.146  1.00  0.00     0.002 C 
ENDROOT
BRANCH   1   2
ATOM      2  C   UNL A   1      35.802  22.700  24.818  1.00  0.00     0.002 C 
BRANCH   2   3
ATOM      3  C   UNL A   1      34.791  21.558  24.932  1.00  0.00     0.021 C 
BRANCH   3   4
ATOM      4  C   UNL A   1      33.594  21.704  23.998  1.00  0.00     0.116 C 
BRANCH   4   5
ATOM      5  N   UNL A   1      33.758  22.793  23.059  1.00  0.00    -0.356 N 
ATOM      6  C   UNL A   1      32.933  23.820  22.741  1.00  0.00     0.224 C 
ATOM      7  O   UNL A   1      33.405  24.696  22.005  1.00  0.00    -0.275 OA
ATOM      8  H   UNL A   1      34.613  22.788  22.571  1.00  0.00     0.163 HD
BRANCH   6   9
ATOM      9  C   UNL A   1      31.490  23.958  23.230  1.00  0.00     0.098 C 
ATOM     10  N   UNL A   1      31.179  25.859  24.762  1.00  0.00    -0.356 N 
ATOM     11  C   UNL A   1      30.519  25.090  25.806  1.00  0.00     0.118 C 
ATOM     12  C   UNL A   1      31.041  25.403  23.387  1.00  0.00     0.131 C 
ATOM     13  C   UNL A   1      30.997  23.635  25.770  1.00  0.00     0.022 C 
ATOM     14  C   UNL A   1      31.061  23.023  24.368  1.00  0.00     0.017 C 
BRANCH  10  15
ATOM     15  C   UNL A   1      31.284  27.234  24.898  1.00  0.00     0.132 A 
ATOM     16  C   UNL A   1      31.983  29.163  26.065  1.00  0.00     0.046 A 
ATOM     17  C   UNL A   1      32.017  27.791  25.929  1.00  0.00     0.070 A 
ATOM     18  N   UNL A   1      31.293  29.941  25.213  1.00  0.00    -0.233 NA
ATOM     19  C   UNL A   1      30.605  29.321  24.239  1.00  0.00     0.161 A 
ATOM     20  N   UNL A   1      30.549  27.989  24.063  1.00  0.00    -0.211 NA
BRANCH  16  21
ATOM     21  C   UNL A   1      32.611  29.855  27.246  1.00  0.00     0.053 C 
ATOM     22  C   UNL A   1      34.126  29.957  27.174  1.00  0.00     0.011 C 
ENDBRANCH  16  21
BRANCH  19  23
ATOM     23  C   UNL A   1      29.778  30.178  23.380  1.00  0.00     0.019 A 
ATOM     24  C   UNL A   1      29.669  29.923  22.000  1.00  0.00     0.013 A 
ATOM     25  C   UNL A   1      29.128  31.316  23.890  1.00  0.00     0.013 A 
ATOM     26  C   UNL A   1      28.956  30.782  21.156  1.00  0.00     0.021 A 
ATOM     27  C   UNL A   1      28.428  32.187  23.047  1.00  0.00     0.021 A 
ATOM     28  C   UNL A   1      28.350  31.918  21.683  1.00  0.00     0.041 A 
ATOM     29  Cl  UNL A   1      27.519  33.008  20.642  1.00  0.00    -0.084 Cl
ENDBRANCH  19  23
ENDBRANCH  10  15
ENDBRANCH   6   9
ENDBRANCH   4   5
ENDBRANCH   3   4
ENDBRANCH   2   3
ENDBRANCH   1   2
BRANCH   1  30
ATOM     30  C   UNL A   1      37.618  24.108  26.032  1.00  0.00     0.021 C 
BRANCH  30  31
ATOM     31  C   UNL A   1      38.838  23.708  26.858  1.00  0.00     0.116 C 
BRANCH  31  32
ATOM     32  N   UNL A   1      40.086  23.948  26.149  1.00  0.00    -0.352 N 
ATOM     33  C   UNL A   1      40.987  24.970  26.277  1.00  0.00     0.251 C 
ATOM     34  H   UNL A   1      40.316  23.271  25.473  1.00  0.00     0.163 HD
ATOM     35  O   UNL A   1      41.883  25.100  25.441  1.00  0.00    -0.269 OA
BRANCH  33  36
ATOM     36  C   UNL A   1      40.891  25.918  27.405  1.00  0.00     0.039 A 
ATOM     37  C   UNL A   1      41.773  27.001  27.453  1.00  0.00     0.014 A 
ATOM     38  C   UNL A   1      39.962  25.722  28.430  1.00  0.00     0.014 A 
ATOM     39  C   UNL A   1      41.693  27.914  28.507  1.00  0.00     0.010 A 
ATOM     40  C   UNL A   1      39.842  26.668  29.447  1.00  0.00     0.010 A 
ATOM     41  C   UNL A   1      40.710  27.768  29.498  1.00  0.00    -0.014 A 
BRANCH  41  42
ATOM     42  C   UNL A   1      40.576  28.757  30.598  1.00  0.00     0.031 A 
ATOM     43  C   UNL A   1      41.422  28.633  31.836  1.00  0.00     0.074 A 
ATOM     44  C   UNL A   1      39.643  29.725  30.509  1.00  0.00     0.049 A 
ATOM     45  N   UNL A   1      41.407  29.364  32.922  1.00  0.00    -0.248 NA
ATOM     46  C   UNL A   1      42.393  27.528  31.870  1.00  0.00     0.031 C 
ATOM     47  C   UNL A   1      38.727  29.917  29.382  1.00  0.00     0.029 A 
ATOM     48  N   UNL A   1      39.299  30.719  31.390  1.00  0.00    -0.354 N 
ATOM     49  C   UNL A   1      42.344  28.795  33.775  1.00  0.00     0.074 A 
ATOM     50  C   UNL A   1      42.881  27.633  33.098  1.00  0.00     0.031 C 
ATOM     51  C   UNL A   1      37.938  30.973  29.633  1.00  0.00     0.029 A 
ATOM     52  C   UNL A   1      38.264  31.509  30.951  1.00  0.00     0.049 A 
ATOM     53  H   UNL A   1      39.752  30.855  32.254  1.00  0.00     0.167 HD
ATOM     54  C   UNL A   1      42.734  29.209  35.005  1.00  0.00     0.031 A 
ATOM     55  C   UNL A   1      37.638  32.544  31.544  1.00  0.00     0.031 A 
ATOM     56  C   UNL A   1      42.206  30.372  35.667  1.00  0.00     0.049 A 
ATOM     57  C   UNL A   1      38.099  32.999  32.901  1.00  0.00     0.074 A 
ATOM     58  C   UNL A   1      42.585  30.917  36.882  1.00  0.00     0.029 A 
ATOM     59  N   UNL A   1      41.181  31.166  35.174  1.00  0.00    -0.354 N 
ATOM     60  N   UNL A   1      39.045  32.496  33.659  1.00  0.00    -0.248 NA
ATOM     61  C   UNL A   1      37.420  34.168  33.476  1.00  0.00     0.031 C 
ATOM     62  C   UNL A   1      41.754  32.011  37.147  1.00  0.00     0.029 A 
ATOM     63  C   UNL A   1      40.895  32.181  36.072  1.00  0.00     0.049 A 
ATOM     64  H   UNL A   1      40.724  31.028  34.314  1.00  0.00     0.167 HD
ATOM     65  C   UNL A   1      39.089  33.300  34.792  1.00  0.00     0.074 A 
ATOM     66  C   UNL A   1      38.086  34.331  34.612  1.00  0.00     0.031 C 
ATOM     67  C   UNL A   1      39.888  33.195  35.882  1.00  0.00     0.031 A 
BRANCH  54  68
ATOM     68  C   UNL A   1      43.774  28.384  35.718  1.00  0.00    -0.014 A 
ATOM     69  C   UNL A   1      43.407  27.378  36.633  1.00  0.00     0.010 A 
ATOM     70  C   UNL A   1      45.138  28.601  35.455  1.00  0.00     0.010 A 
ATOM     71  C   UNL A   1      44.387  26.645  37.310  1.00  0.00     0.020 A 
ATOM     72  C   UNL A   1      46.120  27.850  36.108  1.00  0.00     0.020 A 
ATOM     73  C   UNL A   1      45.737  26.891  37.048  1.00  0.00     0.054 A 
BRANCH  73  74
ATOM     74  S   UNL A   1      46.987  25.925  37.938  1.00  0.00     0.124 S 
ATOM     75  O   UNL A   1      47.766  26.973  38.594  1.00  0.00    -0.237 OA
ATOM     76  O   UNL A   1      46.179  25.095  38.828  1.00  0.00    -0.237 OA
ATOM     77  O   UNL A   1      47.685  25.201  36.880  1.00  0.00    -0.744 OA
ENDBRANCH  73  74
ENDBRANCH  54  68
BRANCH  55  78
ATOM     78  C   UNL A   1      36.514  33.222  30.845  1.00  0.00    -0.014 A 
ATOM     79  C   UNL A   1      35.219  33.215  31.393  1.00  0.00     0.010 A 
ATOM     80  C   UNL A   1      36.743  33.916  29.643  1.00  0.00     0.010 A 
ATOM     81  C   UNL A   1      34.173  33.881  30.748  1.00  0.00     0.020 A 
ATOM     82  C   UNL A   1      35.705  34.604  29.008  1.00  0.00     0.020 A 
ATOM     83  C   UNL A   1      34.424  34.576  29.562  1.00  0.00     0.054 A 
BRANCH  83  84
ATOM     84  S   UNL A   1      33.067  35.491  28.778  1.00  0.00     0.124 S 
ATOM     85  O   UNL A   1      32.460  34.468  27.932  1.00  0.00    -0.237 OA
ATOM     86  O   UNL A   1      32.271  35.919  29.925  1.00  0.00    -0.237 OA
ATOM     87  O   UNL A   1      33.750  36.569  28.066  1.00  0.00    -0.744 OA
ENDBRANCH  83  84
ENDBRANCH  55  78
BRANCH  67  88
ATOM     88  C   UNL A   1      39.730  34.235  36.959  1.00  0.00    -0.014 A 
ATOM     89  C   UNL A   1      38.944  33.990  38.098  1.00  0.00     0.010 A 
ATOM     90  C   UNL A   1      40.426  35.454  36.854  1.00  0.00     0.010 A 
ATOM     91  C   UNL A   1      38.832  34.957  39.100  1.00  0.00     0.020 A 
ATOM     92  C   UNL A   1      40.337  36.413  37.866  1.00  0.00     0.020 A 
ATOM     93  C   UNL A   1      39.529  36.164  38.977  1.00  0.00     0.054 A 
BRANCH  93  94
ATOM     94  S   UNL A   1      39.404  37.386  40.312  1.00  0.00     0.124 S 
ATOM     95  O   UNL A   1      40.804  37.745  40.527  1.00  0.00    -0.237 OA
ATOM     96  O   UNL A   1      38.571  38.428  39.717  1.00  0.00    -0.237 OA
ATOM     97  O   UNL A   1      38.777  36.644  41.403  1.00  0.00    -0.744 OA
ENDBRANCH  93  94
ENDBRANCH  67  88
ENDBRANCH  41  42
ENDBRANCH  33  36
ENDBRANCH  31  32
ENDBRANCH  30  31
ENDBRANCH   1  30
TORSDOF 19
ENDMDL
MODEL 3
REMARK VINA RESULT:     -10.9      1.521      2.543
REMARK SMILES CCc1cc(N2CCC[C@H](C(=O)NCCCCCCNC(=O)c3ccc(-c4c5nc(c(-c6ccc(S(=O)(=O)[O-])cc6)c6ccc([nH]6)c(-c6ccc(S(=O)(=O)[O-])cc6)c6nc(c(-c7ccc(S(=O)(=O)[O-])cc7)c7ccc4[nH]7)C=C6)C=C5)cc3)C2)nc(-c2ccc(Cl)cc2)n1
REMARK SMILES IDX 17 1 16 2 15 3 14 4 13 5 11 6 12 7 10 9 6 10 7 11 83 12 8 13
REMARK SMILES IDX 9 14 5 15 3 16 4 17 93 18 85 19 84 20 2 21 1 22 86 23 87 24
REMARK SMILES IDX 92 25 88 26 91 27 89 28 90 29 18 30 19 31 20 32 21 33 22 35
REMARK SMILES IDX 23 36 24 37 82 38 25 39 81 40 26 41 27 42 28 43 75 44 29 45
REMARK SMILES IDX 80 46 74 47 76 48 30 49 79 50 73 51 72 52 31 54 61 55 42 56
REMARK SMILES IDX 60 57 43 58 46 59 59 60 77 61 44 62 45 63 58 65 78 66 47 67
REMARK SMILES IDX 32 68 33 69 41 70 34 71 40 72 35 73 36 74 37 75 38 76 39 77
REMARK SMILES IDX 62 78 63 79 71 80 64 81 70 82 65 83 66 84 67 85 68 86 69 87
REMARK SMILES IDX 48 88 49 89 57 90 50 91 56 92 51 93 52 94 53 95 54 96 55 97
REMARK H PARENT 13 8 20 34 76 53 46 64
REMARK Flexibility Score: inf
ROOT
ATOM      1  C   UNL A   1      34.269  32.464  28.041  1.00  0.00     0.002 C 
ENDROOT
BRANCH   1   2
ATOM      2  C   UNL A   1      33.490  31.211  27.618  1.00  0.00     0.002 C 
BRANCH   2   3
ATOM      3  C   UNL A   1      34.346  29.979  27.322  1.00  0.00     0.021 C 
BRANCH   3   4
ATOM      4  C   UNL A   1      33.531  28.733  26.991  1.00  0.00     0.116 C 
BRANCH   4   5
ATOM      5  N   UNL A   1      33.572  28.407  25.582  1.00  0.00    -0.356 N 
ATOM      6  C   UNL A   1      32.856  27.511  24.859  1.00  0.00     0.224 C 
ATOM      7  O   UNL A   1      33.000  27.556  23.630  1.00  0.00    -0.275 OA
ATOM      8  H   UNL A   1      34.228  28.923  25.060  1.00  0.00     0.163 HD
BRANCH   6   9
ATOM      9  C   UNL A   1      31.902  26.475  25.459  1.00  0.00     0.098 C 
ATOM     10  N   UNL A   1      32.605  24.159  25.011  1.00  0.00    -0.356 N 
ATOM     11  C   UNL A   1      31.322  23.724  24.482  1.00  0.00     0.118 C 
ATOM     12  C   UNL A   1      32.611  25.238  25.989  1.00  0.00     0.131 C 
ATOM     13  C   UNL A   1      30.589  24.907  23.842  1.00  0.00     0.022 C 
ATOM     14  C   UNL A   1      30.616  26.194  24.671  1.00  0.00     0.017 C 
BRANCH  10  15
ATOM     15  C   UNL A   1      33.617  23.227  25.187  1.00  0.00     0.132 A 
ATOM     16  C   UNL A   1      35.896  22.638  25.355  1.00  0.00     0.046 A 
ATOM     17  C   UNL A   1      34.935  23.627  25.295  1.00  0.00     0.070 A 
ATOM     18  N   UNL A   1      35.570  21.334  25.343  1.00  0.00    -0.233 NA
ATOM     19  C   UNL A   1      34.265  21.031  25.234  1.00  0.00     0.161 A 
ATOM     20  N   UNL A   1      33.272  21.930  25.126  1.00  0.00    -0.211 NA
BRANCH  16  21
ATOM     21  C   UNL A   1      37.366  22.962  25.309  1.00  0.00     0.053 C 
ATOM     22  C   UNL A   1      38.274  21.759  25.511  1.00  0.00     0.011 C 
ENDBRANCH  16  21
BRANCH  19  23
ATOM     23  C   UNL A   1      33.936  19.604  25.122  1.00  0.00     0.019 A 
ATOM     24  C   UNL A   1      32.762  19.088  25.703  1.00  0.00     0.013 A 
ATOM     25  C   UNL A   1      34.811  18.698  24.495  1.00  0.00     0.013 A 
ATOM     26  C   UNL A   1      32.481  17.717  25.680  1.00  0.00     0.021 A 
ATOM     27  C   UNL A   1      34.542  17.324  24.484  1.00  0.00     0.021 A 
ATOM     28  C   UNL A   1      33.380  16.840  25.081  1.00  0.00     0.041 A 
ATOM     29  Cl  UNL A   1      33.068  15.148  25.097  1.00  0.00    -0.084 Cl
ENDBRANCH  19  23
ENDBRANCH  10  15
ENDBRANCH   6   9
ENDBRANCH   4   5
ENDBRANCH   3   4
ENDBRANCH   2   3
ENDBRANCH   1   2
BRANCH   1  30
ATOM     30  C   UNL A   1      35.796  32.351  27.986  1.00  0.00     0.021 C 
BRANCH  30  31
ATOM     31  C   UNL A   1      36.517  32.642  29.300  1.00  0.00     0.116 C 
BRANCH  31  32
ATOM     32  N   UNL A   1      36.138  31.712  30.353  1.00  0.00    -0.352 N 
ATOM     33  C   UNL A   1      36.721  30.536  30.739  1.00  0.00     0.251 C 
ATOM     34  H   UNL A   1      35.338  31.969  30.866  1.00  0.00     0.163 HD
ATOM     35  O   UNL A   1      36.129  29.791  31.523  1.00  0.00    -0.269 OA
BRANCH  33  36
ATOM     36  C   UNL A   1      38.048  30.151  30.221  1.00  0.00     0.039 A 
ATOM     37  C   UNL A   1      38.195  29.909  28.853  1.00  0.00     0.014 A 
ATOM     38  C   UNL A   1      39.137  29.991  31.083  1.00  0.00     0.014 A 
ATOM     39  C   UNL A   1      39.444  29.552  28.341  1.00  0.00     0.010 A 
ATOM     40  C   UNL A   1      40.395  29.696  30.564  1.00  0.00     0.010 A 
ATOM     41  C   UNL A   1      40.560  29.467  29.190  1.00  0.00    -0.014 A 
BRANCH  41  42
ATOM     42  C   UNL A   1      41.906  29.139  28.656  1.00  0.00     0.031 A 
ATOM     43  C   UNL A   1      42.225  27.737  28.214  1.00  0.00     0.074 A 
ATOM     44  C   UNL A   1      42.861  30.088  28.637  1.00  0.00     0.049 A 
ATOM     45  N   UNL A   1      43.357  27.248  27.776  1.00  0.00    -0.248 NA
ATOM     46  C   UNL A   1      41.137  26.749  28.298  1.00  0.00     0.031 C 
ATOM     47  C   UNL A   1      42.689  31.471  29.090  1.00  0.00     0.029 A 
ATOM     48  N   UNL A   1      44.172  30.031  28.237  1.00  0.00    -0.354 N 
ATOM     49  C   UNL A   1      43.127  25.895  27.558  1.00  0.00     0.074 A 
ATOM     50  C   UNL A   1      41.759  25.631  27.949  1.00  0.00     0.031 C 
ATOM     51  C   UNL A   1      43.845  32.134  28.926  1.00  0.00     0.029 A 
ATOM     52  C   UNL A   1      44.848  31.217  28.395  1.00  0.00     0.049 A 
ATOM     53  H   UNL A   1      44.590  29.218  27.871  1.00  0.00     0.167 HD
ATOM     54  C   UNL A   1      43.972  24.959  27.062  1.00  0.00     0.031 A 
ATOM     55  C   UNL A   1      46.135  31.532  28.151  1.00  0.00     0.031 A 
ATOM     56  C   UNL A   1      45.328  25.231  26.662  1.00  0.00     0.049 A 
ATOM     57  C   UNL A   1      47.052  30.484  27.584  1.00  0.00     0.074 A 
ATOM     58  C   UNL A   1      46.242  24.369  26.081  1.00  0.00     0.029 A 
ATOM     59  N   UNL A   1      45.965  26.453  26.806  1.00  0.00    -0.354 N 
ATOM     60  N   UNL A   1      46.791  29.227  27.307  1.00  0.00    -0.248 NA
ATOM     61  C   UNL A   1      48.428  30.897  27.282  1.00  0.00     0.031 C 
ATOM     62  C   UNL A   1      47.450  25.058  25.922  1.00  0.00     0.029 A 
ATOM     63  C   UNL A   1      47.270  26.364  26.351  1.00  0.00     0.049 A 
ATOM     64  H   UNL A   1      45.552  27.265  27.178  1.00  0.00     0.167 HD
ATOM     65  C   UNL A   1      47.967  28.706  26.778  1.00  0.00     0.074 A 
ATOM     66  C   UNL A   1      48.932  29.787  26.760  1.00  0.00     0.031 C 
ATOM     67  C   UNL A   1      48.222  27.447  26.347  1.00  0.00     0.031 A 
BRANCH  54  68
ATOM     68  C   UNL A   1      43.454  23.549  26.941  1.00  0.00    -0.014 A 
ATOM     69  C   UNL A   1      43.167  22.776  28.082  1.00  0.00     0.010 A 
ATOM     70  C   UNL A   1      43.230  22.995  25.668  1.00  0.00     0.010 A 
ATOM     71  C   UNL A   1      42.718  21.459  27.950  1.00  0.00     0.020 A 
ATOM     72  C   UNL A   1      42.754  21.687  25.532  1.00  0.00     0.020 A 
ATOM     73  C   UNL A   1      42.522  20.921  26.676  1.00  0.00     0.054 A 
BRANCH  73  74
ATOM     74  S   UNL A   1      41.937  19.209  26.533  1.00  0.00     0.124 S 
ATOM     75  O   UNL A   1      43.117  18.533  25.998  1.00  0.00    -0.237 OA
ATOM     76  O   UNL A   1      41.592  18.871  27.912  1.00  0.00    -0.237 OA
ATOM     77  O   UNL A   1      40.805  19.305  25.616  1.00  0.00    -0.744 OA
ENDBRANCH  73  74
ENDBRANCH  54  68
BRANCH  55  78
ATOM     78  C   UNL A   1      46.622  32.909  28.435  1.00  0.00    -0.014 A 
ATOM     79  C   UNL A   1      46.492  33.928  27.476  1.00  0.00     0.010 A 
ATOM     80  C   UNL A   1      47.183  33.216  29.689  1.00  0.00     0.010 A 
ATOM     81  C   UNL A   1      46.922  35.227  27.761  1.00  0.00     0.020 A 
ATOM     82  C   UNL A   1      47.591  34.519  29.986  1.00  0.00     0.020 A 
ATOM     83  C   UNL A   1      47.465  35.516  29.016  1.00  0.00     0.054 A 
BRANCH  83  84
ATOM     84  S   UNL A   1      47.953  37.223  29.390  1.00  0.00     0.124 S 
ATOM     85  O   UNL A   1      48.870  37.039  30.510  1.00  0.00    -0.237 OA
ATOM     86  O   UNL A   1      48.564  37.658  28.136  1.00  0.00    -0.237 OA
ATOM     87  O   UNL A   1      46.688  37.876  29.716  1.00  0.00    -0.744 OA
ENDBRANCH  83  84
ENDBRANCH  55  78
BRANCH  67  88
ATOM     88  C   UNL A   1      49.595  27.170  25.794  1.00  0.00    -0.014 A 
ATOM     89  C   UNL A   1      50.605  26.613  26.597  1.00  0.00     0.010 A 
ATOM     90  C   UNL A   1      49.858  27.419  24.434  1.00  0.00     0.010 A 
ATOM     91  C   UNL A   1      51.864  26.337  26.059  1.00  0.00     0.020 A 
ATOM     92  C   UNL A   1      51.108  27.121  23.885  1.00  0.00     0.020 A 
ATOM     93  C   UNL A   1      52.108  26.594  24.705  1.00  0.00     0.054 A 
BRANCH  93  94
ATOM     94  S   UNL A   1      53.736  26.186  24.018  1.00  0.00     0.124 S 
ATOM     95  O   UNL A   1      54.541  27.328  24.444  1.00  0.00    -0.237 OA
ATOM     96  O   UNL A   1      54.052  24.916  24.670  1.00  0.00    -0.237 OA
ATOM     97  O   UNL A   1      53.493  26.097  22.580  1.00  0.00    -0.744 OA
ENDBRANCH  93  94
ENDBRANCH  67  88
ENDBRANCH  41  42
ENDBRANCH  33  36
ENDBRANCH  31  32
ENDBRANCH  30  31
ENDBRANCH   1  30
TORSDOF 19
ENDMDL
