MODEL 1
REMARK VINA RESULT:     -12.4      0.000      0.000
REMARK SMILES COc1ccc2c(c1)c(CC(=O)NCCCCCCNC(=O)c1ccc(-c3c4nc(c(-c5ccc(S(=O)(=O)[O-])cc5)c5ccc([nH]5)c(-c5ccc(S(=O)(=O)[O-])cc5)c5nc(c(-c6ccc(S(=O)(=O)[O-])cc6)c6ccc3[nH]6)C=C5)C=C4)cc1)c(C)n2C(=O)c1ccc(Cl)cc1
REMARK SMILES IDX 16 1 15 2 14 3 13 4 11 5 12 6 10 8 9 9 3 10 4 11 8 12 5 13
REMARK SMILES IDX 7 14 6 15 85 16 83 17 84 18 2 19 1 20 86 21 87 22 88 23
REMARK SMILES IDX 89 24 94 25 90 26 93 27 91 28 92 29 17 30 18 31 19 32 20 33
REMARK SMILES IDX 21 34 22 36 23 37 24 38 82 39 25 40 81 41 26 42 27 43 28 44
REMARK SMILES IDX 75 45 29 46 80 47 74 48 76 49 30 50 79 51 73 52 72 53 31 55
REMARK SMILES IDX 61 56 42 57 60 58 43 59 46 60 59 61 77 62 44 63 45 64 58 66
REMARK SMILES IDX 78 67 47 68 32 69 33 70 41 71 34 72 40 73 35 74 36 75 37 76
REMARK SMILES IDX 38 77 39 78 62 79 63 80 71 81 64 82 70 83 65 84 66 85 67 86
REMARK SMILES IDX 68 87 69 88 48 89 49 90 57 91 50 92 56 93 51 94 52 95 53 96
REMARK SMILES IDX 54 97 55 98
REMARK H PARENT 13 7 20 35 76 54 46 65
REMARK Flexibility Score: inf
ROOT
ATOM      1  C   UNL A   1      40.469  24.534  27.386  1.00  0.00     0.002 C 
ENDROOT
BRANCH   1   2
ATOM      2  C   UNL A   1      38.957  24.454  27.632  1.00  0.00     0.021 C 
BRANCH   2   3
ATOM      3  C   UNL A   1      38.176  23.881  26.449  1.00  0.00     0.116 C 
BRANCH   3   4
ATOM      4  N   UNL A   1      38.500  22.485  26.231  1.00  0.00    -0.356 N 
ATOM      5  C   UNL A   1      37.956  21.616  25.330  1.00  0.00     0.224 C 
ATOM      6  O   UNL A   1      38.329  20.440  25.344  1.00  0.00    -0.275 OA
ATOM      7  H   UNL A   1      39.206  22.115  26.808  1.00  0.00     0.163 HD
BRANCH   5   8
ATOM      8  C   UNL A   1      36.956  22.114  24.298  1.00  0.00     0.138 C 
BRANCH   8   9
ATOM      9  C   UNL A   1      35.520  22.013  24.738  1.00  0.00    -0.009 A 
ATOM     10  C   UNL A   1      34.053  18.487  24.666  1.00  0.00     0.119 A 
ATOM     11  C   UNL A   1      32.765  18.852  25.023  1.00  0.00     0.048 A 
ATOM     12  C   UNL A   1      35.051  19.459  24.580  1.00  0.00     0.057 A 
ATOM     13  C   UNL A   1      32.447  20.190  25.280  1.00  0.00     0.031 A 
ATOM     14  C   UNL A   1      34.753  20.818  24.833  1.00  0.00     0.008 A 
ATOM     15  C   UNL A   1      33.456  21.173  25.221  1.00  0.00     0.057 A 
ATOM     16  N   UNL A   1      33.458  22.547  25.518  1.00  0.00    -0.280 N 
ATOM     17  C   UNL A   1      34.668  23.070  25.039  1.00  0.00     0.028 A 
ATOM     18  C   UNL A   1      34.968  24.533  24.926  1.00  0.00     0.065 C 
BRANCH  10  19
ATOM     19  O   UNL A   1      34.441  17.202  24.406  1.00  0.00    -0.497 OA
ATOM     20  C   UNL A   1      33.361  16.296  24.205  1.00  0.00     0.278 C 
ENDBRANCH  10  19
BRANCH  16  21
ATOM     21  C   UNL A   1      32.431  23.281  26.181  1.00  0.00     0.262 C 
ATOM     22  O   UNL A   1      32.232  23.095  27.374  1.00  0.00    -0.268 OA
BRANCH  21  23
ATOM     23  C   UNL A   1      31.554  24.276  25.538  1.00  0.00     0.040 A 
ATOM     24  C   UNL A   1      31.097  25.393  26.245  1.00  0.00     0.015 A 
ATOM     25  C   UNL A   1      31.167  24.058  24.212  1.00  0.00     0.015 A 
ATOM     26  C   UNL A   1      30.178  26.254  25.640  1.00  0.00     0.021 A 
ATOM     27  C   UNL A   1      30.255  24.926  23.610  1.00  0.00     0.021 A 
ATOM     28  C   UNL A   1      29.751  26.009  24.332  1.00  0.00     0.041 A 
ATOM     29  Cl  UNL A   1      28.572  27.035  23.612  1.00  0.00    -0.084 Cl
ENDBRANCH  21  23
ENDBRANCH  16  21
ENDBRANCH   8   9
ENDBRANCH   5   8
ENDBRANCH   3   4
ENDBRANCH   2   3
ENDBRANCH   1   2
BRANCH   1  30
ATOM     30  C   UNL A   1      41.310  23.542  28.197  1.00  0.00     0.002 C 
BRANCH  30  31
ATOM     31  C   UNL A   1      42.164  22.573  27.370  1.00  0.00     0.021 C 
BRANCH  31  32
ATOM     32  C   UNL A   1      41.961  22.685  25.857  1.00  0.00     0.116 C 
BRANCH  32  33
ATOM     33  N   UNL A   1      43.133  23.159  25.150  1.00  0.00    -0.352 N 
ATOM     34  C   UNL A   1      43.872  24.310  25.168  1.00  0.00     0.251 C 
ATOM     35  H   UNL A   1      43.478  22.498  24.506  1.00  0.00     0.163 HD
ATOM     36  O   UNL A   1      44.873  24.315  24.444  1.00  0.00    -0.269 OA
BRANCH  34  37
ATOM     37  C   UNL A   1      43.540  25.539  25.944  1.00  0.00     0.039 A 
ATOM     38  C   UNL A   1      44.015  25.854  27.216  1.00  0.00     0.014 A 
ATOM     39  C   UNL A   1      42.635  26.431  25.334  1.00  0.00     0.014 A 
ATOM     40  C   UNL A   1      43.541  26.974  27.895  1.00  0.00     0.010 A 
ATOM     41  C   UNL A   1      42.174  27.565  25.999  1.00  0.00     0.010 A 
ATOM     42  C   UNL A   1      42.597  27.815  27.301  1.00  0.00    -0.014 A 
BRANCH  42  43
ATOM     43  C   UNL A   1      42.127  28.958  28.082  1.00  0.00     0.031 A 
ATOM     44  C   UNL A   1      43.043  30.135  28.165  1.00  0.00     0.074 A 
ATOM     45  C   UNL A   1      40.905  29.032  28.644  1.00  0.00     0.049 A 
ATOM     46  N   UNL A   1      43.560  30.683  29.219  1.00  0.00    -0.248 NA
ATOM     47  C   UNL A   1      43.474  30.746  26.900  1.00  0.00     0.031 C 
ATOM     48  C   UNL A   1      39.750  28.155  28.440  1.00  0.00     0.029 A 
ATOM     49  N   UNL A   1      40.414  30.008  29.459  1.00  0.00    -0.354 N 
ATOM     50  C   UNL A   1      44.283  31.788  28.773  1.00  0.00     0.074 A 
ATOM     51  C   UNL A   1      44.264  31.729  27.330  1.00  0.00     0.031 C 
ATOM     52  C   UNL A   1      38.642  28.768  28.915  1.00  0.00     0.029 A 
ATOM     53  C   UNL A   1      39.035  29.994  29.590  1.00  0.00     0.049 A 
ATOM     54  H   UNL A   1      40.989  30.665  29.915  1.00  0.00     0.167 HD
ATOM     55  C   UNL A   1      44.764  32.757  29.603  1.00  0.00     0.031 A 
ATOM     56  C   UNL A   1      38.271  30.968  30.139  1.00  0.00     0.031 A 
ATOM     57  C   UNL A   1      44.783  32.343  30.978  1.00  0.00     0.049 A 
ATOM     58  C   UNL A   1      39.142  31.778  31.024  1.00  0.00     0.074 A 
ATOM     59  C   UNL A   1      45.446  31.355  31.678  1.00  0.00     0.029 A 
ATOM     60  N   UNL A   1      43.773  32.773  31.803  1.00  0.00    -0.354 N 
ATOM     61  N   UNL A   1      39.678  31.334  32.126  1.00  0.00    -0.248 NA
ATOM     62  C   UNL A   1      39.730  32.997  30.492  1.00  0.00     0.031 C 
ATOM     63  C   UNL A   1      44.511  30.906  32.655  1.00  0.00     0.029 A 
ATOM     64  C   UNL A   1      43.353  31.677  32.518  1.00  0.00     0.049 A 
ATOM     65  H   UNL A   1      43.417  33.688  31.870  1.00  0.00     0.167 HD
ATOM     66  C   UNL A   1      40.910  31.964  32.204  1.00  0.00     0.074 A 
ATOM     67  C   UNL A   1      40.836  33.055  31.236  1.00  0.00     0.031 C 
ATOM     68  C   UNL A   1      41.970  31.387  32.845  1.00  0.00     0.031 A 
BRANCH  55  69
ATOM     69  C   UNL A   1      45.033  34.177  29.182  1.00  0.00    -0.014 A 
ATOM     70  C   UNL A   1      46.335  34.653  28.929  1.00  0.00     0.010 A 
ATOM     71  C   UNL A   1      43.962  35.021  28.818  1.00  0.00     0.010 A 
ATOM     72  C   UNL A   1      46.570  35.920  28.389  1.00  0.00     0.020 A 
ATOM     73  C   UNL A   1      44.187  36.279  28.233  1.00  0.00     0.020 A 
ATOM     74  C   UNL A   1      45.493  36.724  28.033  1.00  0.00     0.054 A 
BRANCH  74  75
ATOM     75  S   UNL A   1      45.839  38.311  27.234  1.00  0.00     0.124 S 
ATOM     76  O   UNL A   1      44.501  38.886  27.117  1.00  0.00    -0.237 OA
ATOM     77  O   UNL A   1      46.722  38.962  28.197  1.00  0.00    -0.237 OA
ATOM     78  O   UNL A   1      46.467  37.931  25.972  1.00  0.00    -0.744 OA
ENDBRANCH  74  75
ENDBRANCH  55  69
BRANCH  56  79
ATOM     79  C   UNL A   1      36.993  31.497  29.598  1.00  0.00    -0.014 A 
ATOM     80  C   UNL A   1      36.994  32.280  28.427  1.00  0.00     0.010 A 
ATOM     81  C   UNL A   1      35.838  31.513  30.404  1.00  0.00     0.010 A 
ATOM     82  C   UNL A   1      35.925  33.126  28.120  1.00  0.00     0.020 A 
ATOM     83  C   UNL A   1      34.764  32.366  30.105  1.00  0.00     0.020 A 
ATOM     84  C   UNL A   1      34.837  33.198  28.987  1.00  0.00     0.054 A 
BRANCH  84  85
ATOM     85  S   UNL A   1      33.587  34.479  28.685  1.00  0.00     0.124 S 
ATOM     86  O   UNL A   1      33.086  34.735  30.032  1.00  0.00    -0.237 OA
ATOM     87  O   UNL A   1      34.377  35.556  28.093  1.00  0.00    -0.237 OA
ATOM     88  O   UNL A   1      32.642  33.834  27.778  1.00  0.00    -0.744 OA
ENDBRANCH  84  85
ENDBRANCH  56  79
BRANCH  68  89
ATOM     89  C   UNL A   1      41.733  30.163  33.709  1.00  0.00    -0.014 A 
ATOM     90  C   UNL A   1      41.780  30.322  35.107  1.00  0.00     0.010 A 
ATOM     91  C   UNL A   1      41.676  28.854  33.190  1.00  0.00     0.010 A 
ATOM     92  C   UNL A   1      41.811  29.214  35.959  1.00  0.00     0.020 A 
ATOM     93  C   UNL A   1      41.678  27.737  34.041  1.00  0.00     0.020 A 
ATOM     94  C   UNL A   1      41.775  27.926  35.420  1.00  0.00     0.054 A 
BRANCH  94  95
ATOM     95  S   UNL A   1      41.892  26.513  36.554  1.00  0.00     0.124 S 
ATOM     96  O   UNL A   1      40.745  26.730  37.435  1.00  0.00    -0.237 OA
ATOM     97  O   UNL A   1      41.779  25.366  35.656  1.00  0.00    -0.237 OA
ATOM     98  O   UNL A   1      43.199  26.674  37.188  1.00  0.00    -0.744 OA
ENDBRANCH  94  95
ENDBRANCH  68  89
ENDBRANCH  42  43
ENDBRANCH  34  37
ENDBRANCH  32  33
ENDBRANCH  31  32
ENDBRANCH  30  31
ENDBRANCH   1  30
TORSDOF 20
ENDMDL
MODEL 2
REMARK VINA RESULT:     -12.3      2.951      9.481
REMARK SMILES COc1ccc2c(c1)c(CC(=O)NCCCCCCNC(=O)c1ccc(-c3c4nc(c(-c5ccc(S(=O)(=O)[O-])cc5)c5ccc([nH]5)c(-c5ccc(S(=O)(=O)[O-])cc5)c5nc(c(-c6ccc(S(=O)(=O)[O-])cc6)c6ccc3[nH]6)C=C5)C=C4)cc1)c(C)n2C(=O)c1ccc(Cl)cc1
REMARK SMILES IDX 16 1 15 2 14 3 13 4 11 5 12 6 10 8 9 9 3 10 4 11 8 12 5 13
REMARK SMILES IDX 7 14 6 15 85 16 83 17 84 18 2 19 1 20 86 21 87 22 88 23
REMARK SMILES IDX 89 24 94 25 90 26 93 27 91 28 92 29 17 30 18 31 19 32 20 33
REMARK SMILES IDX 21 34 22 36 23 37 24 38 82 39 25 40 81 41 26 42 27 43 28 44
REMARK SMILES IDX 75 45 29 46 80 47 74 48 76 49 30 50 79 51 73 52 72 53 31 55
REMARK SMILES IDX 61 56 42 57 60 58 43 59 46 60 59 61 77 62 44 63 45 64 58 66
REMARK SMILES IDX 78 67 47 68 32 69 33 70 41 71 34 72 40 73 35 74 36 75 37 76
REMARK SMILES IDX 38 77 39 78 62 79 63 80 71 81 64 82 70 83 65 84 66 85 67 86
REMARK SMILES IDX 68 87 69 88 48 89 49 90 57 91 50 92 56 93 51 94 52 95 53 96
REMARK SMILES IDX 54 97 55 98
REMARK H PARENT 13 7 20 35 76 54 46 65
REMARK Flexibility Score: inf
ROOT
ATOM      1  C   UNL A   1      31.684  28.522  25.029  1.00  0.00     0.002 C 
ENDROOT
BRANCH   1   2
ATOM      2  C   UNL A   1      31.528  27.489  26.152  1.00  0.00     0.021 C 
BRANCH   2   3
ATOM      3  C   UNL A   1      30.601  26.329  25.790  1.00  0.00     0.116 C 
BRANCH   3   4
ATOM      4  N   UNL A   1      30.757  25.223  26.715  1.00  0.00    -0.356 N 
ATOM      5  C   UNL A   1      31.046  23.917  26.439  1.00  0.00     0.224 C 
ATOM      6  O   UNL A   1      31.075  23.109  27.371  1.00  0.00    -0.275 OA
ATOM      7  H   UNL A   1      30.641  25.442  27.667  1.00  0.00     0.163 HD
BRANCH   5   8
ATOM      8  C   UNL A   1      31.380  23.494  25.017  1.00  0.00     0.138 C 
BRANCH   8   9
ATOM      9  C   UNL A   1      32.739  22.867  24.866  1.00  0.00    -0.009 A 
ATOM     10  C   UNL A   1      32.779  19.050  24.972  1.00  0.00     0.119 A 
ATOM     11  C   UNL A   1      34.155  18.911  24.907  1.00  0.00     0.048 A 
ATOM     12  C   UNL A   1      32.206  20.321  24.927  1.00  0.00     0.057 A 
ATOM     13  C   UNL A   1      34.983  20.035  24.817  1.00  0.00     0.031 A 
ATOM     14  C   UNL A   1      33.023  21.473  24.839  1.00  0.00     0.008 A 
ATOM     15  C   UNL A   1      34.411  21.322  24.745  1.00  0.00     0.057 A 
ATOM     16  N   UNL A   1      34.970  22.597  24.555  1.00  0.00    -0.280 N 
ATOM     17  C   UNL A   1      33.959  23.533  24.819  1.00  0.00     0.028 A 
ATOM     18  C   UNL A   1      34.193  25.004  24.977  1.00  0.00     0.065 C 
BRANCH  10  19
ATOM     19  O   UNL A   1      31.905  18.000  25.054  1.00  0.00    -0.497 OA
ATOM     20  C   UNL A   1      32.533  16.726  25.159  1.00  0.00     0.278 C 
ENDBRANCH  10  19
BRANCH  16  21
ATOM     21  C   UNL A   1      36.309  22.896  24.165  1.00  0.00     0.262 C 
ATOM     22  O   UNL A   1      36.534  23.270  23.022  1.00  0.00    -0.268 OA
BRANCH  21  23
ATOM     23  C   UNL A   1      37.488  22.788  25.043  1.00  0.00     0.040 A 
ATOM     24  C   UNL A   1      38.190  21.584  25.155  1.00  0.00     0.015 A 
ATOM     25  C   UNL A   1      37.868  23.913  25.782  1.00  0.00     0.015 A 
ATOM     26  C   UNL A   1      39.232  21.485  26.081  1.00  0.00     0.021 A 
ATOM     27  C   UNL A   1      38.916  23.811  26.699  1.00  0.00     0.021 A 
ATOM     28  C   UNL A   1      39.580  22.594  26.857  1.00  0.00     0.041 A 
ATOM     29  Cl  UNL A   1      40.823  22.452  28.039  1.00  0.00    -0.084 Cl
ENDBRANCH  21  23
ENDBRANCH  16  21
ENDBRANCH   8   9
ENDBRANCH   5   8
ENDBRANCH   3   4
ENDBRANCH   2   3
ENDBRANCH   1   2
BRANCH   1  30
ATOM     30  C   UNL A   1      32.685  29.646  25.320  1.00  0.00     0.002 C 
BRANCH  30  31
ATOM     31  C   UNL A   1      32.727  30.131  26.774  1.00  0.00     0.021 C 
BRANCH  31  32
ATOM     32  C   UNL A   1      34.046  30.790  27.183  1.00  0.00     0.116 C 
BRANCH  32  33
ATOM     33  N   UNL A   1      33.957  31.547  28.415  1.00  0.00    -0.352 N 
ATOM     34  C   UNL A   1      34.825  31.844  29.430  1.00  0.00     0.251 C 
ATOM     35  H   UNL A   1      33.065  31.941  28.554  1.00  0.00     0.163 HD
ATOM     36  O   UNL A   1      34.387  32.597  30.305  1.00  0.00    -0.269 OA
BRANCH  34  37
ATOM     37  C   UNL A   1      36.207  31.302  29.573  1.00  0.00     0.039 A 
ATOM     38  C   UNL A   1      37.377  32.059  29.640  1.00  0.00     0.014 A 
ATOM     39  C   UNL A   1      36.322  29.898  29.603  1.00  0.00     0.014 A 
ATOM     40  C   UNL A   1      38.624  31.439  29.651  1.00  0.00     0.010 A 
ATOM     41  C   UNL A   1      37.566  29.272  29.638  1.00  0.00     0.010 A 
ATOM     42  C   UNL A   1      38.723  30.046  29.619  1.00  0.00    -0.014 A 
BRANCH  42  43
ATOM     43  C   UNL A   1      40.065  29.465  29.609  1.00  0.00     0.031 A 
ATOM     44  C   UNL A   1      40.636  29.075  30.933  1.00  0.00     0.074 A 
ATOM     45  C   UNL A   1      40.758  29.196  28.485  1.00  0.00     0.049 A 
ATOM     46  N   UNL A   1      41.722  29.497  31.500  1.00  0.00    -0.248 NA
ATOM     47  C   UNL A   1      39.865  28.125  31.747  1.00  0.00     0.031 C 
ATOM     48  C   UNL A   1      40.289  29.203  27.098  1.00  0.00     0.029 A 
ATOM     49  N   UNL A   1      42.039  28.745  28.378  1.00  0.00    -0.354 N 
ATOM     50  C   UNL A   1      41.849  28.778  32.688  1.00  0.00     0.074 A 
ATOM     51  C   UNL A   1      40.635  28.010  32.828  1.00  0.00     0.031 C 
ATOM     52  C   UNL A   1      41.188  28.552  26.326  1.00  0.00     0.029 A 
ATOM     53  C   UNL A   1      42.354  28.229  27.132  1.00  0.00     0.049 A 
ATOM     54  H   UNL A   1      42.685  28.781  29.121  1.00  0.00     0.167 HD
ATOM     55  C   UNL A   1      42.988  28.762  33.438  1.00  0.00     0.031 A 
ATOM     56  C   UNL A   1      43.459  27.512  26.815  1.00  0.00     0.031 A 
ATOM     57  C   UNL A   1      43.887  29.828  33.096  1.00  0.00     0.049 A 
ATOM     58  C   UNL A   1      44.494  27.808  27.834  1.00  0.00     0.074 A 
ATOM     59  C   UNL A   1      43.816  31.205  33.157  1.00  0.00     0.029 A 
ATOM     60  N   UNL A   1      44.958  29.544  32.285  1.00  0.00    -0.354 N 
ATOM     61  N   UNL A   1      45.072  28.968  27.972  1.00  0.00    -0.248 NA
ATOM     62  C   UNL A   1      44.634  26.903  28.964  1.00  0.00     0.031 C 
ATOM     63  C   UNL A   1      44.518  31.661  32.005  1.00  0.00     0.029 A 
ATOM     64  C   UNL A   1      45.009  30.537  31.336  1.00  0.00     0.049 A 
ATOM     65  H   UNL A   1      45.570  28.778  32.366  1.00  0.00     0.167 HD
ATOM     66  C   UNL A   1      45.290  29.099  29.335  1.00  0.00     0.074 A 
ATOM     67  C   UNL A   1      45.105  27.755  29.876  1.00  0.00     0.031 C 
ATOM     68  C   UNL A   1      45.334  30.323  29.939  1.00  0.00     0.031 A 
BRANCH  55  69
ATOM     69  C   UNL A   1      43.379  27.638  34.359  1.00  0.00    -0.014 A 
ATOM     70  C   UNL A   1      43.866  26.406  33.878  1.00  0.00     0.010 A 
ATOM     71  C   UNL A   1      43.472  27.862  35.749  1.00  0.00     0.010 A 
ATOM     72  C   UNL A   1      44.375  25.424  34.732  1.00  0.00     0.020 A 
ATOM     73  C   UNL A   1      44.023  26.899  36.612  1.00  0.00     0.020 A 
ATOM     74  C   UNL A   1      44.460  25.680  36.096  1.00  0.00     0.054 A 
BRANCH  74  75
ATOM     75  S   UNL A   1      45.228  24.426  37.154  1.00  0.00     0.124 S 
ATOM     76  O   UNL A   1      44.553  24.656  38.429  1.00  0.00    -0.237 OA
ATOM     77  O   UNL A   1      44.879  23.183  36.472  1.00  0.00    -0.237 OA
ATOM     78  O   UNL A   1      46.645  24.775  37.125  1.00  0.00    -0.744 OA
ENDBRANCH  74  75
ENDBRANCH  55  69
BRANCH  56  79
ATOM     79  C   UNL A   1      43.504  26.282  25.984  1.00  0.00    -0.014 A 
ATOM     80  C   UNL A   1      42.484  25.317  26.098  1.00  0.00     0.010 A 
ATOM     81  C   UNL A   1      44.700  25.908  25.341  1.00  0.00     0.010 A 
ATOM     82  C   UNL A   1      42.683  24.000  25.677  1.00  0.00     0.020 A 
ATOM     83  C   UNL A   1      44.909  24.585  24.922  1.00  0.00     0.020 A 
ATOM     84  C   UNL A   1      43.912  23.631  25.134  1.00  0.00     0.054 A 
BRANCH  84  85
ATOM     85  S   UNL A   1      44.216  21.869  24.825  1.00  0.00     0.124 S 
ATOM     86  O   UNL A   1      45.391  21.616  25.655  1.00  0.00    -0.237 OA
ATOM     87  O   UNL A   1      42.976  21.249  25.288  1.00  0.00    -0.237 OA
ATOM     88  O   UNL A   1      44.441  21.803  23.384  1.00  0.00    -0.744 OA
ENDBRANCH  84  85
ENDBRANCH  56  79
BRANCH  68  89
ATOM     89  C   UNL A   1      45.409  31.570  29.076  1.00  0.00    -0.014 A 
ATOM     90  C   UNL A   1      44.225  32.018  28.460  1.00  0.00     0.010 A 
ATOM     91  C   UNL A   1      46.625  32.173  28.698  1.00  0.00     0.010 A 
ATOM     92  C   UNL A   1      44.255  33.006  27.471  1.00  0.00     0.020 A 
ATOM     93  C   UNL A   1      46.660  33.184  27.726  1.00  0.00     0.020 A 
ATOM     94  C   UNL A   1      45.476  33.574  27.097  1.00  0.00     0.054 A 
BRANCH  94  95
ATOM     95  S   UNL A   1      45.484  34.798  25.758  1.00  0.00     0.124 S 
ATOM     96  O   UNL A   1      44.258  34.469  25.033  1.00  0.00    -0.237 OA
ATOM     97  O   UNL A   1      45.458  36.068  26.479  1.00  0.00    -0.237 OA
ATOM     98  O   UNL A   1      46.724  34.524  25.034  1.00  0.00    -0.744 OA
ENDBRANCH  94  95
ENDBRANCH  68  89
ENDBRANCH  42  43
ENDBRANCH  34  37
ENDBRANCH  32  33
ENDBRANCH  31  32
ENDBRANCH  30  31
ENDBRANCH   1  30
TORSDOF 20
ENDMDL
MODEL 3
REMARK VINA RESULT:     -11.9      1.885      2.610
REMARK SMILES COc1ccc2c(c1)c(CC(=O)NCCCCCCNC(=O)c1ccc(-c3c4nc(c(-c5ccc(S(=O)(=O)[O-])cc5)c5ccc([nH]5)c(-c5ccc(S(=O)(=O)[O-])cc5)c5nc(c(-c6ccc(S(=O)(=O)[O-])cc6)c6ccc3[nH]6)C=C5)C=C4)cc1)c(C)n2C(=O)c1ccc(Cl)cc1
REMARK SMILES IDX 16 1 15 2 14 3 13 4 11 5 12 6 10 8 9 9 3 10 4 11 8 12 5 13
REMARK SMILES IDX 7 14 6 15 85 16 83 17 84 18 2 19 1 20 86 21 87 22 88 23
REMARK SMILES IDX 89 24 94 25 90 26 93 27 91 28 92 29 17 30 18 31 19 32 20 33
REMARK SMILES IDX 21 34 22 36 23 37 24 38 82 39 25 40 81 41 26 42 27 43 28 44
REMARK SMILES IDX 75 45 29 46 80 47 74 48 76 49 30 50 79 51 73 52 72 53 31 55
REMARK SMILES IDX 61 56 42 57 60 58 43 59 46 60 59 61 77 62 44 63 45 64 58 66
REMARK SMILES IDX 78 67 47 68 32 69 33 70 41 71 34 72 40 73 35 74 36 75 37 76
REMARK SMILES IDX 38 77 39 78 62 79 63 80 71 81 64 82 70 83 65 84 66 85 67 86
REMARK SMILES IDX 68 87 69 88 48 89 49 90 57 91 50 92 56 93 51 94 52 95 53 96
REMARK SMILES IDX 54 97 55 98
REMARK H PARENT 13 7 20 35 76 54 46 65
REMARK Flexibility Score: inf
ROOT
ATOM      1  C   UNL A   1      40.003  21.969  26.813  1.00  0.00     0.002 C 
ENDROOT
BRANCH   1   2
ATOM      2  C   UNL A   1      39.781  23.478  26.650  1.00  0.00     0.021 C 
BRANCH   2   3
ATOM      3  C   UNL A   1      38.317  23.861  26.430  1.00  0.00     0.116 C 
BRANCH   3   4
ATOM      4  N   UNL A   1      37.889  23.547  25.080  1.00  0.00    -0.356 N 
ATOM      5  C   UNL A   1      37.062  22.545  24.661  1.00  0.00     0.224 C 
ATOM      6  O   UNL A   1      36.869  22.406  23.450  1.00  0.00    -0.275 OA
ATOM      7  H   UNL A   1      38.240  24.134  24.373  1.00  0.00     0.163 HD
BRANCH   5   8
ATOM      8  C   UNL A   1      36.354  21.664  25.679  1.00  0.00     0.138 C 
BRANCH   8   9
ATOM      9  C   UNL A   1      34.887  21.470  25.407  1.00  0.00    -0.009 A 
ATOM     10  C   UNL A   1      33.926  18.001  24.130  1.00  0.00     0.119 A 
ATOM     11  C   UNL A   1      32.585  18.282  23.926  1.00  0.00     0.048 A 
ATOM     12  C   UNL A   1      34.768  18.982  24.655  1.00  0.00     0.057 A 
ATOM     13  C   UNL A   1      32.067  19.547  24.221  1.00  0.00     0.031 A 
ATOM     14  C   UNL A   1      34.267  20.270  24.959  1.00  0.00     0.008 A 
ATOM     15  C   UNL A   1      32.905  20.535  24.776  1.00  0.00     0.057 A 
ATOM     16  N   UNL A   1      32.653  21.832  25.256  1.00  0.00    -0.280 N 
ATOM     17  C   UNL A   1      33.897  22.445  25.459  1.00  0.00     0.028 A 
ATOM     18  C   UNL A   1      34.082  23.908  25.725  1.00  0.00     0.065 C 
BRANCH  10  19
ATOM     19  O   UNL A   1      34.504  16.788  23.872  1.00  0.00    -0.497 OA
ATOM     20  C   UNL A   1      35.090  16.168  25.012  1.00  0.00     0.278 C 
ENDBRANCH  10  19
BRANCH  16  21
ATOM     21  C   UNL A   1      31.377  22.422  25.496  1.00  0.00     0.262 C 
ATOM     22  O   UNL A   1      30.575  21.848  26.221  1.00  0.00    -0.268 OA
BRANCH  21  23
ATOM     23  C   UNL A   1      30.919  23.703  24.929  1.00  0.00     0.040 A 
ATOM     24  C   UNL A   1      30.949  23.927  23.549  1.00  0.00     0.015 A 
ATOM     25  C   UNL A   1      30.479  24.698  25.809  1.00  0.00     0.015 A 
ATOM     26  C   UNL A   1      30.615  25.191  23.055  1.00  0.00     0.021 A 
ATOM     27  C   UNL A   1      30.138  25.955  25.310  1.00  0.00     0.021 A 
ATOM     28  C   UNL A   1      30.225  26.202  23.938  1.00  0.00     0.041 A 
ATOM     29  Cl  UNL A   1      29.873  27.774  23.334  1.00  0.00    -0.084 Cl
ENDBRANCH  21  23
ENDBRANCH  16  21
ENDBRANCH   8   9
ENDBRANCH   5   8
ENDBRANCH   3   4
ENDBRANCH   2   3
ENDBRANCH   1   2
BRANCH   1  30
ATOM     30  C   UNL A   1      41.045  21.580  27.868  1.00  0.00     0.002 C 
BRANCH  30  31
ATOM     31  C   UNL A   1      41.991  20.441  27.469  1.00  0.00     0.021 C 
BRANCH  31  32
ATOM     32  C   UNL A   1      42.036  20.153  25.967  1.00  0.00     0.116 C 
BRANCH  32  33
ATOM     33  N   UNL A   1      43.341  20.365  25.375  1.00  0.00    -0.352 N 
ATOM     34  C   UNL A   1      44.266  21.373  25.412  1.00  0.00     0.251 C 
ATOM     35  H   UNL A   1      43.631  19.607  24.818  1.00  0.00     0.163 HD
ATOM     36  O   UNL A   1      45.322  21.152  24.813  1.00  0.00    -0.269 OA
BRANCH  34  37
ATOM     37  C   UNL A   1      44.075  22.698  26.069  1.00  0.00     0.039 A 
ATOM     38  C   UNL A   1      44.588  23.075  27.310  1.00  0.00     0.014 A 
ATOM     39  C   UNL A   1      43.272  23.624  25.373  1.00  0.00     0.014 A 
ATOM     40  C   UNL A   1      44.243  24.299  27.878  1.00  0.00     0.010 A 
ATOM     41  C   UNL A   1      42.942  24.860  25.927  1.00  0.00     0.010 A 
ATOM     42  C   UNL A   1      43.396  25.180  27.203  1.00  0.00    -0.014 A 
BRANCH  42  43
ATOM     43  C   UNL A   1      43.059  26.437  27.872  1.00  0.00     0.031 A 
ATOM     44  C   UNL A   1      44.008  27.573  27.680  1.00  0.00     0.074 A 
ATOM     45  C   UNL A   1      41.920  26.637  28.564  1.00  0.00     0.049 A 
ATOM     46  N   UNL A   1      44.669  28.234  28.578  1.00  0.00    -0.248 NA
ATOM     47  C   UNL A   1      44.291  27.992  26.300  1.00  0.00     0.031 C 
ATOM     48  C   UNL A   1      40.727  25.791  28.625  1.00  0.00     0.029 A 
ATOM     49  N   UNL A   1      41.563  27.732  29.292  1.00  0.00    -0.354 N 
ATOM     50  C   UNL A   1      45.358  29.238  27.899  1.00  0.00     0.074 A 
ATOM     51  C   UNL A   1      45.154  28.989  26.492  1.00  0.00     0.031 C 
ATOM     52  C   UNL A   1      39.704  26.508  29.144  1.00  0.00     0.029 A 
ATOM     53  C   UNL A   1      40.212  27.794  29.591  1.00  0.00     0.049 A 
ATOM     54  H   UNL A   1      42.208  28.419  29.579  1.00  0.00     0.167 HD
ATOM     55  C   UNL A   1      45.965  30.287  28.524  1.00  0.00     0.031 A 
ATOM     56  C   UNL A   1      39.549  28.865  30.091  1.00  0.00     0.031 A 
ATOM     57  C   UNL A   1      46.148  30.058  29.930  1.00  0.00     0.049 A 
ATOM     58  C   UNL A   1      40.546  29.746  30.744  1.00  0.00     0.074 A 
ATOM     59  C   UNL A   1      46.869  29.144  30.672  1.00  0.00     0.029 A 
ATOM     60  N   UNL A   1      45.262  30.636  30.806  1.00  0.00    -0.354 N 
ATOM     61  N   UNL A   1      41.206  29.430  31.822  1.00  0.00    -0.248 NA
ATOM     62  C   UNL A   1      41.093  30.858  29.982  1.00  0.00     0.031 C 
ATOM     63  C   UNL A   1      46.054  28.870  31.808  1.00  0.00     0.029 A 
ATOM     64  C   UNL A   1      44.909  29.664  31.710  1.00  0.00     0.049 A 
ATOM     65  H   UNL A   1      44.942  31.567  30.790  1.00  0.00     0.167 HD
ATOM     66  C   UNL A   1      42.454  30.012  31.662  1.00  0.00     0.074 A 
ATOM     67  C   UNL A   1      42.286  30.967  30.569  1.00  0.00     0.031 C 
ATOM     68  C   UNL A   1      43.571  29.480  32.240  1.00  0.00     0.031 A 
BRANCH  55  69
ATOM     69  C   UNL A   1      46.215  31.625  27.883  1.00  0.00    -0.014 A 
ATOM     70  C   UNL A   1      45.393  32.743  28.130  1.00  0.00     0.010 A 
ATOM     71  C   UNL A   1      47.414  31.858  27.177  1.00  0.00     0.010 A 
ATOM     72  C   UNL A   1      45.714  34.019  27.660  1.00  0.00     0.020 A 
ATOM     73  C   UNL A   1      47.768  33.146  26.739  1.00  0.00     0.020 A 
ATOM     74  C   UNL A   1      46.907  34.216  26.975  1.00  0.00     0.054 A 
BRANCH  74  75
ATOM     75  S   UNL A   1      47.340  35.904  26.481  1.00  0.00     0.124 S 
ATOM     76  O   UNL A   1      48.274  35.666  25.383  1.00  0.00    -0.237 OA
ATOM     77  O   UNL A   1      46.046  36.461  26.097  1.00  0.00    -0.237 OA
ATOM     78  O   UNL A   1      47.928  36.475  27.689  1.00  0.00    -0.744 OA
ENDBRANCH  74  75
ENDBRANCH  55  69
BRANCH  56  79
ATOM     79  C   UNL A   1      38.227  29.372  29.643  1.00  0.00    -0.014 A 
ATOM     80  C   UNL A   1      38.007  29.661  28.282  1.00  0.00     0.010 A 
ATOM     81  C   UNL A   1      37.310  29.880  30.584  1.00  0.00     0.010 A 
ATOM     82  C   UNL A   1      36.971  30.507  27.879  1.00  0.00     0.020 A 
ATOM     83  C   UNL A   1      36.271  30.736  30.187  1.00  0.00     0.020 A 
ATOM     84  C   UNL A   1      36.138  31.077  28.840  1.00  0.00     0.054 A 
BRANCH  84  85
ATOM     85  S   UNL A   1      34.965  32.354  28.305  1.00  0.00     0.124 S 
ATOM     86  O   UNL A   1      34.007  31.575  27.526  1.00  0.00    -0.237 OA
ATOM     87  O   UNL A   1      34.465  32.875  29.575  1.00  0.00    -0.237 OA
ATOM     88  O   UNL A   1      35.789  33.282  27.536  1.00  0.00    -0.744 OA
ENDBRANCH  84  85
ENDBRANCH  56  79
BRANCH  68  89
ATOM     89  C   UNL A   1      43.415  28.392  33.286  1.00  0.00    -0.014 A 
ATOM     90  C   UNL A   1      43.318  27.059  32.843  1.00  0.00     0.010 A 
ATOM     91  C   UNL A   1      43.157  28.661  34.645  1.00  0.00     0.010 A 
ATOM     92  C   UNL A   1      42.937  26.035  33.715  1.00  0.00     0.020 A 
ATOM     93  C   UNL A   1      42.801  27.634  35.532  1.00  0.00     0.020 A 
ATOM     94  C   UNL A   1      42.665  26.330  35.053  1.00  0.00     0.054 A 
BRANCH  94  95
ATOM     95  S   UNL A   1      42.101  24.987  36.135  1.00  0.00     0.124 S 
ATOM     96  O   UNL A   1      42.626  23.803  35.456  1.00  0.00    -0.237 OA
ATOM     97  O   UNL A   1      42.740  25.307  37.410  1.00  0.00    -0.237 OA
ATOM     98  O   UNL A   1      40.645  25.112  36.126  1.00  0.00    -0.744 OA
ENDBRANCH  94  95
ENDBRANCH  68  89
ENDBRANCH  42  43
ENDBRANCH  34  37
ENDBRANCH  32  33
ENDBRANCH  31  32
ENDBRANCH  30  31
ENDBRANCH   1  30
TORSDOF 20
ENDMDL
