MODEL 1
REMARK VINA RESULT:     -10.7      0.000      0.000
REMARK SMILES O=C(NCCCCCCNC(=O)C1(CCc2ccccn2)CCCCC1)c1ccc(-c2c3nc(c(-c4ccc(S(=O)(=O)[O-])cc4)c4ccc([nH]4)c(-c4ccc(S(=O)(=O)[O-])cc4)c4nc(c(-c5ccc(S(=O)(=O)[O-])cc5)c5ccc2[nH]5)C=C4)C=C3)cc1
REMARK SMILES IDX 6 1 5 2 4 3 3 4 1 5 2 6 27 8 28 9 86 10 29 11 85 12 30 13
REMARK SMILES IDX 31 14 32 15 79 16 33 17 84 18 78 19 80 20 34 21 83 22 77 23
REMARK SMILES IDX 76 24 35 26 65 27 46 28 64 29 47 30 50 31 63 32 81 33 48 34
REMARK SMILES IDX 49 35 62 37 82 38 51 39 36 40 37 41 45 42 38 43 44 44 39 45
REMARK SMILES IDX 40 46 41 47 42 48 43 49 66 50 67 51 75 52 68 53 74 54 69 55
REMARK SMILES IDX 70 56 71 57 72 58 73 59 52 60 53 61 61 62 54 63 60 64 55 65
REMARK SMILES IDX 56 66 57 67 58 68 59 69 7 70 8 71 9 72 10 73 11 74 12 76
REMARK SMILES IDX 13 77 22 78 26 79 23 80 25 81 24 82 14 83 15 84 16 85 17 86
REMARK SMILES IDX 21 87 18 88 20 89 19 90
REMARK H PARENT 3 7 80 25 50 36 10 75
REMARK Flexibility Score: inf
ROOT
ATOM      1  C   UNL A   1      34.181  23.938  25.422  1.00  0.00     0.002 C 
ENDROOT
BRANCH   1   2
ATOM      2  C   UNL A   1      35.478  23.398  26.028  1.00  0.00     0.021 C 
BRANCH   2   3
ATOM      3  C   UNL A   1      36.756  23.751  25.280  1.00  0.00     0.116 C 
BRANCH   3   4
ATOM      4  N   UNL A   1      37.820  22.788  25.490  1.00  0.00    -0.352 N 
ATOM      5  O   UNL A   1      39.868  22.056  26.083  1.00  0.00    -0.269 OA
ATOM      6  C   UNL A   1      39.034  22.950  26.118  1.00  0.00     0.251 C 
ATOM      7  H   UNL A   1      37.650  21.885  25.133  1.00  0.00     0.163 HD
BRANCH   6   8
ATOM      8  C   UNL A   1      39.340  24.226  26.809  1.00  0.00     0.039 A 
ATOM      9  C   UNL A   1      40.065  25.234  26.169  1.00  0.00     0.014 A 
ATOM     10  C   UNL A   1      38.899  24.410  28.123  1.00  0.00     0.014 A 
ATOM     11  C   UNL A   1      40.482  26.349  26.889  1.00  0.00     0.010 A 
ATOM     12  C   UNL A   1      39.246  25.573  28.818  1.00  0.00     0.010 A 
ATOM     13  C   UNL A   1      40.076  26.534  28.221  1.00  0.00    -0.014 A 
BRANCH  13  14
ATOM     14  C   UNL A   1      40.509  27.755  28.952  1.00  0.00     0.031 A 
ATOM     15  C   UNL A   1      41.907  27.880  29.501  1.00  0.00     0.074 A 
ATOM     16  C   UNL A   1      39.640  28.777  29.085  1.00  0.00     0.049 A 
ATOM     17  N   UNL A   1      42.461  28.896  30.114  1.00  0.00    -0.248 NA
ATOM     18  C   UNL A   1      42.794  26.716  29.353  1.00  0.00     0.031 C 
ATOM     19  C   UNL A   1      38.256  28.774  28.603  1.00  0.00     0.029 A 
ATOM     20  N   UNL A   1      39.796  30.023  29.637  1.00  0.00    -0.354 N 
ATOM     21  C   UNL A   1      43.748  28.487  30.448  1.00  0.00     0.074 A 
ATOM     22  C   UNL A   1      43.886  27.122  29.988  1.00  0.00     0.031 C 
ATOM     23  C   UNL A   1      37.710  29.979  28.825  1.00  0.00     0.029 A 
ATOM     24  C   UNL A   1      38.681  30.819  29.517  1.00  0.00     0.049 A 
ATOM     25  H   UNL A   1      40.626  30.319  30.077  1.00  0.00     0.167 HD
ATOM     26  C   UNL A   1      44.725  29.185  31.077  1.00  0.00     0.031 A 
ATOM     27  C   UNL A   1      38.458  32.084  29.921  1.00  0.00     0.031 A 
ATOM     28  C   UNL A   1      44.587  30.547  31.525  1.00  0.00     0.049 A 
ATOM     29  C   UNL A   1      39.557  32.833  30.617  1.00  0.00     0.074 A 
ATOM     30  C   UNL A   1      45.533  31.352  32.140  1.00  0.00     0.029 A 
ATOM     31  N   UNL A   1      43.433  31.307  31.410  1.00  0.00    -0.354 N 
ATOM     32  N   UNL A   1      40.776  32.437  30.893  1.00  0.00    -0.248 NA
ATOM     33  C   UNL A   1      39.250  34.203  31.050  1.00  0.00     0.031 C 
ATOM     34  C   UNL A   1      44.935  32.582  32.438  1.00  0.00     0.029 A 
ATOM     35  C   UNL A   1      43.636  32.565  31.957  1.00  0.00     0.049 A 
ATOM     36  H   UNL A   1      42.593  31.000  30.999  1.00  0.00     0.167 HD
ATOM     37  C   UNL A   1      41.392  33.519  31.511  1.00  0.00     0.074 A 
ATOM     38  C   UNL A   1      40.414  34.589  31.553  1.00  0.00     0.031 C 
ATOM     39  C   UNL A   1      42.654  33.618  31.996  1.00  0.00     0.031 A 
BRANCH  26  40
ATOM     40  C   UNL A   1      46.027  28.475  31.350  1.00  0.00    -0.014 A 
ATOM     41  C   UNL A   1      47.119  28.584  30.471  1.00  0.00     0.010 A 
ATOM     42  C   UNL A   1      46.172  27.719  32.528  1.00  0.00     0.010 A 
ATOM     43  C   UNL A   1      48.317  27.916  30.744  1.00  0.00     0.020 A 
ATOM     44  C   UNL A   1      47.376  27.070  32.818  1.00  0.00     0.020 A 
ATOM     45  C   UNL A   1      48.435  27.157  31.913  1.00  0.00     0.054 A 
BRANCH  45  46
ATOM     46  S   UNL A   1      50.003  26.307  32.248  1.00  0.00     0.124 S 
ATOM     47  O   UNL A   1      49.900  26.043  33.681  1.00  0.00    -0.237 OA
ATOM     48  O   UNL A   1      49.921  25.131  31.385  1.00  0.00    -0.237 OA
ATOM     49  O   UNL A   1      51.017  27.287  31.865  1.00  0.00    -0.744 OA
ENDBRANCH  45  46
ENDBRANCH  26  40
BRANCH  27  50
ATOM     50  C   UNL A   1      37.138  32.718  29.661  1.00  0.00    -0.014 A 
ATOM     51  C   UNL A   1      36.105  32.631  30.611  1.00  0.00     0.010 A 
ATOM     52  C   UNL A   1      36.917  33.438  28.473  1.00  0.00     0.010 A 
ATOM     53  C   UNL A   1      34.870  33.240  30.370  1.00  0.00     0.020 A 
ATOM     54  C   UNL A   1      35.694  34.072  28.241  1.00  0.00     0.020 A 
ATOM     55  C   UNL A   1      34.674  33.960  29.187  1.00  0.00     0.054 A 
BRANCH  55  56
ATOM     56  S   UNL A   1      33.085  34.791  28.921  1.00  0.00     0.124 S 
ATOM     57  O   UNL A   1      32.528  34.821  30.270  1.00  0.00    -0.237 OA
ATOM     58  O   UNL A   1      33.490  36.084  28.374  1.00  0.00    -0.237 OA
ATOM     59  O   UNL A   1      32.395  33.915  27.977  1.00  0.00    -0.744 OA
ENDBRANCH  55  56
ENDBRANCH  27  50
BRANCH  39  60
ATOM     60  C   UNL A   1      43.063  34.946  32.575  1.00  0.00    -0.014 A 
ATOM     61  C   UNL A   1      42.869  35.242  33.936  1.00  0.00     0.010 A 
ATOM     62  C   UNL A   1      43.674  35.903  31.744  1.00  0.00     0.010 A 
ATOM     63  C   UNL A   1      43.240  36.489  34.446  1.00  0.00     0.020 A 
ATOM     64  C   UNL A   1      44.071  37.139  32.256  1.00  0.00     0.020 A 
ATOM     65  C   UNL A   1      43.833  37.433  33.601  1.00  0.00     0.054 A 
BRANCH  65  66
ATOM     66  S   UNL A   1      44.325  39.037  34.288  1.00  0.00     0.124 S 
ATOM     67  O   UNL A   1      44.254  38.787  35.725  1.00  0.00    -0.237 OA
ATOM     68  O   UNL A   1      45.670  39.221  33.748  1.00  0.00    -0.237 OA
ATOM     69  O   UNL A   1      43.319  39.960  33.764  1.00  0.00    -0.744 OA
ENDBRANCH  65  66
ENDBRANCH  39  60
ENDBRANCH  13  14
ENDBRANCH   6   8
ENDBRANCH   3   4
ENDBRANCH   2   3
ENDBRANCH   1   2
BRANCH   1  70
ATOM     70  C   UNL A   1      33.063  22.919  25.172  1.00  0.00     0.002 C 
BRANCH  70  71
ATOM     71  C   UNL A   1      32.647  22.705  23.716  1.00  0.00     0.021 C 
BRANCH  71  72
ATOM     72  C   UNL A   1      31.560  23.633  23.194  1.00  0.00     0.116 C 
BRANCH  72  73
ATOM     73  N   UNL A   1      32.043  24.609  22.238  1.00  0.00    -0.356 N 
ATOM     74  C   UNL A   1      32.756  25.751  22.440  1.00  0.00     0.226 C 
ATOM     75  H   UNL A   1      31.823  24.416  21.298  1.00  0.00     0.163 HD
ATOM     76  O   UNL A   1      33.661  25.957  21.619  1.00  0.00    -0.274 OA
BRANCH  74  77
ATOM     77  C   UNL A   1      32.416  26.831  23.512  1.00  0.00     0.050 C 
ATOM     78  C   UNL A   1      31.400  26.367  24.582  1.00  0.00     0.017 C 
ATOM     79  C   UNL A   1      33.760  27.142  24.238  1.00  0.00     0.017 C 
ATOM     80  C   UNL A   1      31.288  27.253  25.822  1.00  0.00     0.001 C 
ATOM     81  C   UNL A   1      33.639  28.021  25.481  1.00  0.00     0.001 C 
ATOM     82  C   UNL A   1      32.643  27.447  26.476  1.00  0.00     0.000 C 
BRANCH  77  83
ATOM     83  C   UNL A   1      31.812  28.085  22.793  1.00  0.00     0.023 C 
BRANCH  83  84
ATOM     84  C   UNL A   1      30.327  28.065  22.382  1.00  0.00     0.057 C 
BRANCH  84  85
ATOM     85  C   UNL A   1      29.573  29.356  22.571  1.00  0.00     0.040 A 
ATOM     86  C   UNL A   1      29.786  30.127  23.712  1.00  0.00     0.024 A 
ATOM     87  N   UNL A   1      28.665  29.699  21.624  1.00  0.00    -0.261 NA
ATOM     88  C   UNL A   1      29.089  31.324  23.858  1.00  0.00     0.003 A 
ATOM     89  C   UNL A   1      28.016  30.873  21.785  1.00  0.00     0.111 A 
ATOM     90  C   UNL A   1      28.194  31.713  22.870  1.00  0.00     0.020 A 
ENDBRANCH  84  85
ENDBRANCH  83  84
ENDBRANCH  77  83
ENDBRANCH  74  77
ENDBRANCH  72  73
ENDBRANCH  71  72
ENDBRANCH  70  71
ENDBRANCH   1  70
TORSDOF 19
ENDMDL
MODEL 2
REMARK VINA RESULT:     -10.6      2.913      9.616
REMARK SMILES O=C(NCCCCCCNC(=O)C1(CCc2ccccn2)CCCCC1)c1ccc(-c2c3nc(c(-c4ccc(S(=O)(=O)[O-])cc4)c4ccc([nH]4)c(-c4ccc(S(=O)(=O)[O-])cc4)c4nc(c(-c5ccc(S(=O)(=O)[O-])cc5)c5ccc2[nH]5)C=C4)C=C3)cc1
REMARK SMILES IDX 6 1 5 2 4 3 3 4 1 5 2 6 27 8 28 9 86 10 29 11 85 12 30 13
REMARK SMILES IDX 31 14 32 15 79 16 33 17 84 18 78 19 80 20 34 21 83 22 77 23
REMARK SMILES IDX 76 24 35 26 65 27 46 28 64 29 47 30 50 31 63 32 81 33 48 34
REMARK SMILES IDX 49 35 62 37 82 38 51 39 36 40 37 41 45 42 38 43 44 44 39 45
REMARK SMILES IDX 40 46 41 47 42 48 43 49 66 50 67 51 75 52 68 53 74 54 69 55
REMARK SMILES IDX 70 56 71 57 72 58 73 59 52 60 53 61 61 62 54 63 60 64 55 65
REMARK SMILES IDX 56 66 57 67 58 68 59 69 7 70 8 71 9 72 10 73 11 74 12 76
REMARK SMILES IDX 13 77 22 78 26 79 23 80 25 81 24 82 14 83 15 84 16 85 17 86
REMARK SMILES IDX 21 87 18 88 20 89 19 90
REMARK H PARENT 3 7 80 25 50 36 10 75
REMARK Flexibility Score: inf
ROOT
ATOM      1  C   UNL A   1      32.672  27.901  24.708  1.00  0.00     0.002 C 
ENDROOT
BRANCH   1   2
ATOM      2  C   UNL A   1      32.497  27.805  26.226  1.00  0.00     0.021 C 
BRANCH   2   3
ATOM      3  C   UNL A   1      33.667  28.308  27.060  1.00  0.00     0.116 C 
BRANCH   3   4
ATOM      4  N   UNL A   1      33.519  29.692  27.469  1.00  0.00    -0.352 N 
ATOM      5  O   UNL A   1      34.075  31.626  28.484  1.00  0.00    -0.269 OA
ATOM      6  C   UNL A   1      34.424  30.520  28.093  1.00  0.00     0.251 C 
ATOM      7  H   UNL A   1      32.644  30.099  27.269  1.00  0.00     0.163 HD
BRANCH   6   8
ATOM      8  C   UNL A   1      35.813  30.054  28.319  1.00  0.00     0.039 A 
ATOM      9  C   UNL A   1      36.200  29.519  29.550  1.00  0.00     0.014 A 
ATOM     10  C   UNL A   1      36.744  30.166  27.282  1.00  0.00     0.014 A 
ATOM     11  C   UNL A   1      37.542  29.245  29.793  1.00  0.00     0.010 A 
ATOM     12  C   UNL A   1      38.078  29.806  27.502  1.00  0.00     0.010 A 
ATOM     13  C   UNL A   1      38.498  29.382  28.772  1.00  0.00    -0.014 A 
BRANCH  13  14
ATOM     14  C   UNL A   1      39.918  29.046  29.054  1.00  0.00     0.031 A 
ATOM     15  C   UNL A   1      40.820  30.014  29.775  1.00  0.00     0.074 A 
ATOM     16  C   UNL A   1      40.386  27.835  28.689  1.00  0.00     0.049 A 
ATOM     17  N   UNL A   1      42.066  29.856  30.147  1.00  0.00    -0.248 NA
ATOM     18  C   UNL A   1      40.258  31.331  30.115  1.00  0.00     0.031 C 
ATOM     19  C   UNL A   1      39.613  26.813  27.978  1.00  0.00     0.029 A 
ATOM     20  N   UNL A   1      41.610  27.247  28.887  1.00  0.00    -0.354 N 
ATOM     21  C   UNL A   1      42.445  31.056  30.738  1.00  0.00     0.074 A 
ATOM     22  C   UNL A   1      41.304  31.942  30.657  1.00  0.00     0.031 C 
ATOM     23  C   UNL A   1      40.358  25.705  27.854  1.00  0.00     0.029 A 
ATOM     24  C   UNL A   1      41.679  25.955  28.421  1.00  0.00     0.049 A 
ATOM     25  H   UNL A   1      42.365  27.706  29.321  1.00  0.00     0.167 HD
ATOM     26  C   UNL A   1      43.634  31.389  31.299  1.00  0.00     0.031 A 
ATOM     27  C   UNL A   1      42.691  25.068  28.441  1.00  0.00     0.031 A 
ATOM     28  C   UNL A   1      44.765  30.502  31.386  1.00  0.00     0.049 A 
ATOM     29  C   UNL A   1      43.997  25.464  29.066  1.00  0.00     0.074 A 
ATOM     30  C   UNL A   1      46.000  30.735  31.969  1.00  0.00     0.029 A 
ATOM     31  N   UNL A   1      44.803  29.212  30.877  1.00  0.00    -0.354 N 
ATOM     32  N   UNL A   1      44.323  26.593  29.648  1.00  0.00    -0.248 NA
ATOM     33  C   UNL A   1      45.070  24.461  29.043  1.00  0.00     0.031 C 
ATOM     34  C   UNL A   1      46.800  29.603  31.771  1.00  0.00     0.029 A 
ATOM     35  C   UNL A   1      46.045  28.644  31.116  1.00  0.00     0.049 A 
ATOM     36  H   UNL A   1      44.057  28.766  30.415  1.00  0.00     0.167 HD
ATOM     37  C   UNL A   1      45.632  26.428  30.084  1.00  0.00     0.074 A 
ATOM     38  C   UNL A   1      46.031  25.085  29.711  1.00  0.00     0.031 C 
ATOM     39  C   UNL A   1      46.430  27.309  30.737  1.00  0.00     0.031 A 
BRANCH  26  40
ATOM     40  C   UNL A   1      43.786  32.790  31.837  1.00  0.00    -0.014 A 
ATOM     41  C   UNL A   1      43.756  33.051  33.218  1.00  0.00     0.010 A 
ATOM     42  C   UNL A   1      44.002  33.856  30.945  1.00  0.00     0.010 A 
ATOM     43  C   UNL A   1      43.898  34.359  33.695  1.00  0.00     0.020 A 
ATOM     44  C   UNL A   1      44.170  35.162  31.417  1.00  0.00     0.020 A 
ATOM     45  C   UNL A   1      44.097  35.406  32.790  1.00  0.00     0.054 A 
BRANCH  45  46
ATOM     46  S   UNL A   1      44.288  37.092  33.434  1.00  0.00     0.124 S 
ATOM     47  O   UNL A   1      44.814  37.800  32.271  1.00  0.00    -0.237 OA
ATOM     48  O   UNL A   1      42.923  37.445  33.819  1.00  0.00    -0.237 OA
ATOM     49  O   UNL A   1      45.223  36.935  34.545  1.00  0.00    -0.744 OA
ENDBRANCH  45  46
ENDBRANCH  26  40
BRANCH  27  50
ATOM     50  C   UNL A   1      42.496  23.714  27.856  1.00  0.00    -0.014 A 
ATOM     51  C   UNL A   1      42.590  23.516  26.468  1.00  0.00     0.010 A 
ATOM     52  C   UNL A   1      42.242  22.611  28.691  1.00  0.00     0.010 A 
ATOM     53  C   UNL A   1      42.420  22.240  25.923  1.00  0.00     0.020 A 
ATOM     54  C   UNL A   1      42.101  21.329  28.153  1.00  0.00     0.020 A 
ATOM     55  C   UNL A   1      42.180  21.154  26.770  1.00  0.00     0.054 A 
BRANCH  55  56
ATOM     56  S   UNL A   1      42.020  19.498  26.048  1.00  0.00     0.124 S 
ATOM     57  O   UNL A   1      42.562  18.652  27.107  1.00  0.00    -0.237 OA
ATOM     58  O   UNL A   1      40.581  19.388  25.821  1.00  0.00    -0.237 OA
ATOM     59  O   UNL A   1      42.828  19.577  24.833  1.00  0.00    -0.744 OA
ENDBRANCH  55  56
ENDBRANCH  27  50
BRANCH  39  60
ATOM     60  C   UNL A   1      47.801  26.829  31.128  1.00  0.00    -0.014 A 
ATOM     61  C   UNL A   1      48.915  27.036  30.295  1.00  0.00     0.010 A 
ATOM     62  C   UNL A   1      47.980  26.182  32.365  1.00  0.00     0.010 A 
ATOM     63  C   UNL A   1      50.175  26.565  30.672  1.00  0.00     0.020 A 
ATOM     64  C   UNL A   1      49.242  25.734  32.757  1.00  0.00     0.020 A 
ATOM     65  C   UNL A   1      50.330  25.911  31.900  1.00  0.00     0.054 A 
BRANCH  65  66
ATOM     66  S   UNL A   1      51.978  25.326  32.379  1.00  0.00     0.124 S 
ATOM     67  O   UNL A   1      51.765  23.886  32.500  1.00  0.00    -0.237 OA
ATOM     68  O   UNL A   1      52.809  25.746  31.254  1.00  0.00    -0.237 OA
ATOM     69  O   UNL A   1      52.240  26.025  33.635  1.00  0.00    -0.744 OA
ENDBRANCH  65  66
ENDBRANCH  39  60
ENDBRANCH  13  14
ENDBRANCH   6   8
ENDBRANCH   3   4
ENDBRANCH   2   3
ENDBRANCH   1   2
BRANCH   1  70
ATOM     70  C   UNL A   1      31.583  27.250  23.849  1.00  0.00     0.002 C 
BRANCH  70  71
ATOM     71  C   UNL A   1      30.511  26.453  24.594  1.00  0.00     0.021 C 
BRANCH  71  72
ATOM     72  C   UNL A   1      30.439  24.969  24.263  1.00  0.00     0.116 C 
BRANCH  72  73
ATOM     73  N   UNL A   1      30.558  24.111  25.424  1.00  0.00    -0.356 N 
ATOM     74  C   UNL A   1      31.656  23.777  26.156  1.00  0.00     0.226 C 
ATOM     75  H   UNL A   1      29.714  23.708  25.733  1.00  0.00     0.163 HD
ATOM     76  O   UNL A   1      31.483  23.755  27.383  1.00  0.00    -0.274 OA
BRANCH  74  77
ATOM     77  C   UNL A   1      33.013  23.304  25.552  1.00  0.00     0.050 C 
ATOM     78  C   UNL A   1      33.849  24.433  24.904  1.00  0.00     0.017 C 
ATOM     79  C   UNL A   1      33.832  22.736  26.751  1.00  0.00     0.017 C 
ATOM     80  C   UNL A   1      35.307  24.091  24.601  1.00  0.00     0.001 C 
ATOM     81  C   UNL A   1      35.291  22.405  26.442  1.00  0.00     0.001 C 
ATOM     82  C   UNL A   1      36.020  23.598  25.846  1.00  0.00     0.000 C 
BRANCH  77  83
ATOM     83  C   UNL A   1      32.728  22.228  24.450  1.00  0.00     0.023 C 
BRANCH  83  84
ATOM     84  C   UNL A   1      32.091  20.887  24.863  1.00  0.00     0.057 C 
BRANCH  84  85
ATOM     85  C   UNL A   1      32.721  19.649  24.278  1.00  0.00     0.040 A 
ATOM     86  C   UNL A   1      33.934  19.180  24.779  1.00  0.00     0.024 A 
ATOM     87  N   UNL A   1      32.091  19.055  23.235  1.00  0.00    -0.261 NA
ATOM     88  C   UNL A   1      34.489  18.026  24.234  1.00  0.00     0.003 A 
ATOM     89  C   UNL A   1      32.644  17.928  22.736  1.00  0.00     0.111 A 
ATOM     90  C   UNL A   1      33.826  17.378  23.199  1.00  0.00     0.020 A 
ENDBRANCH  84  85
ENDBRANCH  83  84
ENDBRANCH  77  83
ENDBRANCH  74  77
ENDBRANCH  72  73
ENDBRANCH  71  72
ENDBRANCH  70  71
ENDBRANCH   1  70
TORSDOF 19
ENDMDL
MODEL 3
REMARK VINA RESULT:     -10.5      2.644      9.497
REMARK SMILES O=C(NCCCCCCNC(=O)C1(CCc2ccccn2)CCCCC1)c1ccc(-c2c3nc(c(-c4ccc(S(=O)(=O)[O-])cc4)c4ccc([nH]4)c(-c4ccc(S(=O)(=O)[O-])cc4)c4nc(c(-c5ccc(S(=O)(=O)[O-])cc5)c5ccc2[nH]5)C=C4)C=C3)cc1
REMARK SMILES IDX 6 1 5 2 4 3 3 4 1 5 2 6 27 8 28 9 86 10 29 11 85 12 30 13
REMARK SMILES IDX 31 14 32 15 79 16 33 17 84 18 78 19 80 20 34 21 83 22 77 23
REMARK SMILES IDX 76 24 35 26 65 27 46 28 64 29 47 30 50 31 63 32 81 33 48 34
REMARK SMILES IDX 49 35 62 37 82 38 51 39 36 40 37 41 45 42 38 43 44 44 39 45
REMARK SMILES IDX 40 46 41 47 42 48 43 49 66 50 67 51 75 52 68 53 74 54 69 55
REMARK SMILES IDX 70 56 71 57 72 58 73 59 52 60 53 61 61 62 54 63 60 64 55 65
REMARK SMILES IDX 56 66 57 67 58 68 59 69 7 70 8 71 9 72 10 73 11 74 12 76
REMARK SMILES IDX 13 77 22 78 26 79 23 80 25 81 24 82 14 83 15 84 16 85 17 86
REMARK SMILES IDX 21 87 18 88 20 89 19 90
REMARK H PARENT 3 7 80 25 50 36 10 75
REMARK Flexibility Score: inf
ROOT
ATOM      1  C   UNL A   1      34.041  28.003  24.433  1.00  0.00     0.002 C 
ENDROOT
BRANCH   1   2
ATOM      2  C   UNL A   1      33.119  28.086  25.652  1.00  0.00     0.021 C 
BRANCH   2   3
ATOM      3  C   UNL A   1      33.807  28.340  26.986  1.00  0.00     0.116 C 
BRANCH   3   4
ATOM      4  N   UNL A   1      33.657  29.707  27.451  1.00  0.00    -0.352 N 
ATOM      5  O   UNL A   1      34.202  31.593  28.557  1.00  0.00    -0.269 OA
ATOM      6  C   UNL A   1      34.554  30.504  28.125  1.00  0.00     0.251 C 
ATOM      7  H   UNL A   1      32.787  30.126  27.254  1.00  0.00     0.163 HD
BRANCH   6   8
ATOM      8  C   UNL A   1      35.937  30.022  28.355  1.00  0.00     0.039 A 
ATOM      9  C   UNL A   1      36.321  29.503  29.593  1.00  0.00     0.014 A 
ATOM     10  C   UNL A   1      36.866  30.103  27.312  1.00  0.00     0.014 A 
ATOM     11  C   UNL A   1      37.660  29.216  29.836  1.00  0.00     0.010 A 
ATOM     12  C   UNL A   1      38.195  29.729  27.534  1.00  0.00     0.010 A 
ATOM     13  C   UNL A   1      38.614  29.321  28.810  1.00  0.00    -0.014 A 
BRANCH  13  14
ATOM     14  C   UNL A   1      40.031  28.971  29.092  1.00  0.00     0.031 A 
ATOM     15  C   UNL A   1      40.938  29.923  29.828  1.00  0.00     0.074 A 
ATOM     16  C   UNL A   1      40.491  27.761  28.714  1.00  0.00     0.049 A 
ATOM     17  N   UNL A   1      42.181  29.751  30.201  1.00  0.00    -0.248 NA
ATOM     18  C   UNL A   1      40.385  31.240  30.181  1.00  0.00     0.031 C 
ATOM     19  C   UNL A   1      39.712  26.753  27.989  1.00  0.00     0.029 A 
ATOM     20  N   UNL A   1      41.708  27.161  28.909  1.00  0.00    -0.354 N 
ATOM     21  C   UNL A   1      42.568  30.941  30.808  1.00  0.00     0.074 A 
ATOM     22  C   UNL A   1      41.434  31.837  30.734  1.00  0.00     0.031 C 
ATOM     23  C   UNL A   1      40.448  25.640  27.854  1.00  0.00     0.029 A 
ATOM     24  C   UNL A   1      41.769  25.873  28.428  1.00  0.00     0.049 A 
ATOM     25  H   UNL A   1      42.466  27.608  29.351  1.00  0.00     0.167 HD
ATOM     26  C   UNL A   1      43.757  31.258  31.377  1.00  0.00     0.031 A 
ATOM     27  C   UNL A   1      42.774  24.978  28.441  1.00  0.00     0.031 A 
ATOM     28  C   UNL A   1      44.881  30.360  31.458  1.00  0.00     0.049 A 
ATOM     29  C   UNL A   1      44.081  25.356  29.076  1.00  0.00     0.074 A 
ATOM     30  C   UNL A   1      46.116  30.576  32.047  1.00  0.00     0.029 A 
ATOM     31  N   UNL A   1      44.911  29.077  30.934  1.00  0.00    -0.354 N 
ATOM     32  N   UNL A   1      44.414  26.476  29.672  1.00  0.00    -0.248 NA
ATOM     33  C   UNL A   1      45.146  24.345  29.044  1.00  0.00     0.031 C 
ATOM     34  C   UNL A   1      46.907  29.441  31.838  1.00  0.00     0.029 A 
ATOM     35  C   UNL A   1      46.147  28.496  31.170  1.00  0.00     0.049 A 
ATOM     36  H   UNL A   1      44.163  28.641  30.463  1.00  0.00     0.167 HD
ATOM     37  C   UNL A   1      45.720  26.295  30.110  1.00  0.00     0.074 A 
ATOM     38  C   UNL A   1      46.109  24.954  29.723  1.00  0.00     0.031 C 
ATOM     39  C   UNL A   1      46.523  27.162  30.776  1.00  0.00     0.031 A 
BRANCH  26  40
ATOM     40  C   UNL A   1      43.918  32.650  31.932  1.00  0.00    -0.014 A 
ATOM     41  C   UNL A   1      43.652  32.936  33.283  1.00  0.00     0.010 A 
ATOM     42  C   UNL A   1      44.383  33.682  31.095  1.00  0.00     0.010 A 
ATOM     43  C   UNL A   1      43.807  34.236  33.776  1.00  0.00     0.020 A 
ATOM     44  C   UNL A   1      44.565  34.977  31.589  1.00  0.00     0.020 A 
ATOM     45  C   UNL A   1      44.256  35.249  32.923  1.00  0.00     0.054 A 
BRANCH  45  46
ATOM     46  S   UNL A   1      44.458  36.925  33.590  1.00  0.00     0.124 S 
ATOM     47  O   UNL A   1      45.531  37.454  32.752  1.00  0.00    -0.237 OA
ATOM     48  O   UNL A   1      43.141  37.519  33.371  1.00  0.00    -0.237 OA
ATOM     49  O   UNL A   1      44.813  36.701  34.989  1.00  0.00    -0.744 OA
ENDBRANCH  45  46
ENDBRANCH  26  40
BRANCH  27  50
ATOM     50  C   UNL A   1      42.570  23.633  27.840  1.00  0.00    -0.014 A 
ATOM     51  C   UNL A   1      42.876  23.402  26.488  1.00  0.00     0.010 A 
ATOM     52  C   UNL A   1      42.095  22.569  28.627  1.00  0.00     0.010 A 
ATOM     53  C   UNL A   1      42.697  22.133  25.929  1.00  0.00     0.020 A 
ATOM     54  C   UNL A   1      41.941  21.292  28.080  1.00  0.00     0.020 A 
ATOM     55  C   UNL A   1      42.233  21.085  26.731  1.00  0.00     0.054 A 
BRANCH  55  56
ATOM     56  S   UNL A   1      42.063  19.434  26.001  1.00  0.00     0.124 S 
ATOM     57  O   UNL A   1      42.595  18.579  27.059  1.00  0.00    -0.237 OA
ATOM     58  O   UNL A   1      40.623  19.335  25.771  1.00  0.00    -0.237 OA
ATOM     59  O   UNL A   1      42.875  19.511  24.789  1.00  0.00    -0.744 OA
ENDBRANCH  55  56
ENDBRANCH  27  50
BRANCH  39  60
ATOM     60  C   UNL A   1      47.889  26.667  31.167  1.00  0.00    -0.014 A 
ATOM     61  C   UNL A   1      48.085  25.900  32.329  1.00  0.00     0.010 A 
ATOM     62  C   UNL A   1      48.990  26.954  30.340  1.00  0.00     0.010 A 
ATOM     63  C   UNL A   1      49.366  25.467  32.681  1.00  0.00     0.020 A 
ATOM     64  C   UNL A   1      50.268  26.500  30.674  1.00  0.00     0.020 A 
ATOM     65  C   UNL A   1      50.451  25.775  31.853  1.00  0.00     0.054 A 
BRANCH  65  66
ATOM     66  S   UNL A   1      52.102  25.187  32.317  1.00  0.00     0.124 S 
ATOM     67  O   UNL A   1      52.359  25.938  33.542  1.00  0.00    -0.237 OA
ATOM     68  O   UNL A   1      51.896  23.751  32.491  1.00  0.00    -0.237 OA
ATOM     69  O   UNL A   1      52.934  25.555  31.172  1.00  0.00    -0.744 OA
ENDBRANCH  65  66
ENDBRANCH  39  60
ENDBRANCH  13  14
ENDBRANCH   6   8
ENDBRANCH   3   4
ENDBRANCH   2   3
ENDBRANCH   1   2
BRANCH   1  70
ATOM     70  C   UNL A   1      33.412  28.325  23.074  1.00  0.00     0.002 C 
BRANCH  70  71
ATOM     71  C   UNL A   1      31.899  28.130  22.957  1.00  0.00     0.021 C 
BRANCH  71  72
ATOM     72  C   UNL A   1      31.446  26.969  22.084  1.00  0.00     0.116 C 
BRANCH  72  73
ATOM     73  N   UNL A   1      32.542  26.192  21.542  1.00  0.00    -0.356 N 
ATOM     74  C   UNL A   1      32.867  24.884  21.737  1.00  0.00     0.226 C 
ATOM     75  H   UNL A   1      33.145  26.685  20.939  1.00  0.00     0.163 HD
ATOM     76  O   UNL A   1      33.232  24.277  20.720  1.00  0.00    -0.274 OA
BRANCH  74  77
ATOM     77  C   UNL A   1      32.937  24.186  23.129  1.00  0.00     0.050 C 
ATOM     78  C   UNL A   1      32.001  24.801  24.197  1.00  0.00     0.017 C 
ATOM     79  C   UNL A   1      32.479  22.716  22.887  1.00  0.00     0.017 C 
ATOM     80  C   UNL A   1      31.787  23.962  25.456  1.00  0.00     0.001 C 
ATOM     81  C   UNL A   1      32.260  21.887  24.151  1.00  0.00     0.001 C 
ATOM     82  C   UNL A   1      31.294  22.571  25.106  1.00  0.00     0.000 C 
BRANCH  77  83
ATOM     83  C   UNL A   1      34.404  24.282  23.669  1.00  0.00     0.023 C 
BRANCH  83  84
ATOM     84  C   UNL A   1      35.407  23.170  23.306  1.00  0.00     0.057 C 
BRANCH  84  85
ATOM     85  C   UNL A   1      36.500  22.913  24.312  1.00  0.00     0.040 A 
ATOM     86  C   UNL A   1      36.860  23.906  25.220  1.00  0.00     0.024 A 
ATOM     87  N   UNL A   1      37.133  21.715  24.260  1.00  0.00    -0.261 NA
ATOM     88  C   UNL A   1      37.861  23.640  26.150  1.00  0.00     0.003 A 
ATOM     89  C   UNL A   1      38.090  21.479  25.185  1.00  0.00     0.111 A 
ATOM     90  C   UNL A   1      38.482  22.398  26.143  1.00  0.00     0.020 A 
ENDBRANCH  84  85
ENDBRANCH  83  84
ENDBRANCH  77  83
ENDBRANCH  74  77
ENDBRANCH  72  73
ENDBRANCH  71  72
ENDBRANCH  70  71
ENDBRANCH   1  70
TORSDOF 19
ENDMDL
