MODEL 1
REMARK VINA RESULT:     -10.4      0.000      0.000
REMARK SMILES O=C(NCCCCCCNC(=O)[C@@H]1C[NH2+]CCN1C(=O)N[C@@H]1CCOC1)c1ccc(-c2c3nc(c(-c4ccc(S(=O)(=O)[O-])cc4)c4ccc([nH]4)c(-c4ccc(S(=O)(=O)[O-])cc4)c4nc(c(-c5ccc(S(=O)(=O)[O-])cc5)c5ccc2[nH]5)C=C4)C=C3)cc1
REMARK SMILES IDX 6 1 5 2 4 3 3 4 1 5 2 6 27 8 28 9 86 10 29 11 85 12 30 13
REMARK SMILES IDX 31 14 32 15 79 16 33 17 84 18 78 19 80 20 34 21 83 22 77 23
REMARK SMILES IDX 76 24 35 26 65 27 46 28 64 29 47 30 50 31 63 32 81 33 48 34
REMARK SMILES IDX 49 35 62 37 82 38 51 39 36 40 37 41 45 42 38 43 44 44 39 45
REMARK SMILES IDX 40 46 41 47 42 48 43 49 66 50 67 51 75 52 68 53 74 54 69 55
REMARK SMILES IDX 70 56 71 57 72 58 73 59 52 60 53 61 61 62 54 63 60 64 55 65
REMARK SMILES IDX 56 66 57 67 58 68 59 69 7 70 8 71 9 72 10 73 11 74 12 76
REMARK SMILES IDX 13 77 14 78 18 79 15 80 17 81 16 82 19 85 20 86 21 87 22 89
REMARK SMILES IDX 23 90 26 91 24 92 25 93
REMARK H PARENT 3 7 80 25 50 36 10 75 15 83 15 84 21 88
REMARK Flexibility Score: inf
ROOT
ATOM      1  C   UNL A   1      35.182  23.099  23.987  1.00  0.00     0.002 C 
ENDROOT
BRANCH   1   2
ATOM      2  C   UNL A   1      35.463  24.342  24.829  1.00  0.00     0.021 C 
BRANCH   2   3
ATOM      3  C   UNL A   1      36.324  24.099  26.057  1.00  0.00     0.116 C 
BRANCH   3   4
ATOM      4  N   UNL A   1      37.285  23.031  25.868  1.00  0.00    -0.352 N 
ATOM      5  O   UNL A   1      39.350  22.112  25.830  1.00  0.00    -0.269 OA
ATOM      6  C   UNL A   1      38.625  23.043  26.173  1.00  0.00     0.251 C 
ATOM      7  H   UNL A   1      36.937  22.199  25.474  1.00  0.00     0.163 HD
BRANCH   6   8
ATOM      8  C   UNL A   1      39.188  24.212  26.885  1.00  0.00     0.039 A 
ATOM      9  C   UNL A   1      38.922  24.410  28.243  1.00  0.00     0.014 A 
ATOM     10  C   UNL A   1      39.949  25.144  26.175  1.00  0.00     0.014 A 
ATOM     11  C   UNL A   1      39.291  25.603  28.851  1.00  0.00     0.010 A 
ATOM     12  C   UNL A   1      40.403  26.300  26.816  1.00  0.00     0.010 A 
ATOM     13  C   UNL A   1      40.055  26.554  28.152  1.00  0.00    -0.014 A 
BRANCH  13  14
ATOM     14  C   UNL A   1      40.540  27.762  28.870  1.00  0.00     0.031 A 
ATOM     15  C   UNL A   1      41.935  27.838  29.430  1.00  0.00     0.074 A 
ATOM     16  C   UNL A   1      39.706  28.815  28.984  1.00  0.00     0.049 A 
ATOM     17  N   UNL A   1      42.511  28.830  30.062  1.00  0.00    -0.248 NA
ATOM     18  C   UNL A   1      42.795  26.655  29.266  1.00  0.00     0.031 C 
ATOM     19  C   UNL A   1      38.327  28.855  28.487  1.00  0.00     0.029 A 
ATOM     20  N   UNL A   1      39.897  30.058  29.527  1.00  0.00    -0.354 N 
ATOM     21  C   UNL A   1      43.791  28.392  30.380  1.00  0.00     0.074 A 
ATOM     22  C   UNL A   1      43.899  27.032  29.899  1.00  0.00     0.031 C 
ATOM     23  C   UNL A   1      37.816  30.075  28.702  1.00  0.00     0.029 A 
ATOM     24  C   UNL A   1      38.800  30.880  29.413  1.00  0.00     0.049 A 
ATOM     25  H   UNL A   1      40.737  30.337  29.958  1.00  0.00     0.167 HD
ATOM     26  C   UNL A   1      44.787  29.066  31.008  1.00  0.00     0.031 A 
ATOM     27  C   UNL A   1      38.595  32.136  29.849  1.00  0.00     0.031 A 
ATOM     28  C   UNL A   1      44.669  30.417  31.496  1.00  0.00     0.049 A 
ATOM     29  C   UNL A   1      39.701  32.842  30.577  1.00  0.00     0.074 A 
ATOM     30  C   UNL A   1      45.622  31.186  32.142  1.00  0.00     0.029 A 
ATOM     31  N   UNL A   1      43.529  31.202  31.392  1.00  0.00    -0.354 N 
ATOM     32  N   UNL A   1      40.910  32.413  30.851  1.00  0.00    -0.248 NA
ATOM     33  C   UNL A   1      39.416  34.202  31.053  1.00  0.00     0.031 C 
ATOM     34  C   UNL A   1      45.045  32.418  32.469  1.00  0.00     0.029 A 
ATOM     35  C   UNL A   1      43.751  32.439  31.975  1.00  0.00     0.049 A 
ATOM     36  H   UNL A   1      42.688  30.921  30.966  1.00  0.00     0.167 HD
ATOM     37  C   UNL A   1      41.536  33.459  31.517  1.00  0.00     0.074 A 
ATOM     38  C   UNL A   1      40.582  34.547  31.581  1.00  0.00     0.031 C 
ATOM     39  C   UNL A   1      42.788  33.511  32.035  1.00  0.00     0.031 A 
BRANCH  26  40
ATOM     40  C   UNL A   1      46.096  28.347  31.218  1.00  0.00    -0.014 A 
ATOM     41  C   UNL A   1      46.257  27.432  32.274  1.00  0.00     0.010 A 
ATOM     42  C   UNL A   1      47.159  28.542  30.316  1.00  0.00     0.010 A 
ATOM     43  C   UNL A   1      47.466  26.751  32.444  1.00  0.00     0.020 A 
ATOM     44  C   UNL A   1      48.361  27.845  30.468  1.00  0.00     0.020 A 
ATOM     45  C   UNL A   1      48.513  26.965  31.541  1.00  0.00     0.054 A 
BRANCH  45  46
ATOM     46  S   UNL A   1      50.061  26.049  31.774  1.00  0.00     0.124 S 
ATOM     47  O   UNL A   1      49.890  24.929  30.852  1.00  0.00    -0.237 OA
ATOM     48  O   UNL A   1      51.074  27.029  31.389  1.00  0.00    -0.237 OA
ATOM     49  O   UNL A   1      50.047  25.696  33.191  1.00  0.00    -0.744 OA
ENDBRANCH  45  46
ENDBRANCH  26  40
BRANCH  27  50
ATOM     50  C   UNL A   1      37.276  32.789  29.631  1.00  0.00    -0.014 A 
ATOM     51  C   UNL A   1      36.945  33.348  28.385  1.00  0.00     0.010 A 
ATOM     52  C   UNL A   1      36.335  32.843  30.677  1.00  0.00     0.010 A 
ATOM     53  C   UNL A   1      35.709  33.973  28.198  1.00  0.00     0.020 A 
ATOM     54  C   UNL A   1      35.086  33.436  30.483  1.00  0.00     0.020 A 
ATOM     55  C   UNL A   1      34.788  34.014  29.249  1.00  0.00     0.054 A 
BRANCH  55  56
ATOM     56  S   UNL A   1      33.177  34.801  28.975  1.00  0.00     0.124 S 
ATOM     57  O   UNL A   1      32.583  33.930  27.966  1.00  0.00    -0.237 OA
ATOM     58  O   UNL A   1      32.568  34.745  30.301  1.00  0.00    -0.237 OA
ATOM     59  O   UNL A   1      33.528  36.144  28.517  1.00  0.00    -0.744 OA
ENDBRANCH  55  56
ENDBRANCH  27  50
BRANCH  39  60
ATOM     60  C   UNL A   1      43.204  34.802  32.688  1.00  0.00    -0.014 A 
ATOM     61  C   UNL A   1      43.023  35.013  34.066  1.00  0.00     0.010 A 
ATOM     62  C   UNL A   1      43.806  35.808  31.912  1.00  0.00     0.010 A 
ATOM     63  C   UNL A   1      43.400  36.225  34.649  1.00  0.00     0.020 A 
ATOM     64  C   UNL A   1      44.210  37.010  32.496  1.00  0.00     0.020 A 
ATOM     65  C   UNL A   1      43.988  37.218  33.860  1.00  0.00     0.054 A 
BRANCH  65  66
ATOM     66  S   UNL A   1      44.494  38.772  34.645  1.00  0.00     0.124 S 
ATOM     67  O   UNL A   1      45.939  38.761  34.435  1.00  0.00    -0.237 OA
ATOM     68  O   UNL A   1      43.755  39.774  33.880  1.00  0.00    -0.237 OA
ATOM     69  O   UNL A   1      44.064  38.615  36.032  1.00  0.00    -0.744 OA
ENDBRANCH  65  66
ENDBRANCH  39  60
ENDBRANCH  13  14
ENDBRANCH   6   8
ENDBRANCH   3   4
ENDBRANCH   2   3
ENDBRANCH   1   2
BRANCH   1  70
ATOM     70  C   UNL A   1      34.333  23.332  22.733  1.00  0.00     0.002 C 
BRANCH  70  71
ATOM     71  C   UNL A   1      33.081  24.186  22.940  1.00  0.00     0.021 C 
BRANCH  71  72
ATOM     72  C   UNL A   1      32.909  25.280  21.897  1.00  0.00     0.116 C 
BRANCH  72  73
ATOM     73  N   UNL A   1      32.932  26.613  22.441  1.00  0.00    -0.354 N 
ATOM     74  C   UNL A   1      31.722  27.154  22.841  1.00  0.00     0.248 C 
ATOM     75  H   UNL A   1      33.772  27.118  22.525  1.00  0.00     0.163 HD
ATOM     76  O   UNL A   1      30.730  27.176  22.118  1.00  0.00    -0.272 OA
BRANCH  74  77
ATOM     77  C   UNL A   1      31.636  27.311  24.342  1.00  0.00     0.231 C 
ATOM     78  C   UNL A   1      30.620  26.385  25.036  1.00  0.00     0.296 C 
ATOM     79  N   UNL A   1      31.782  28.592  25.044  1.00  0.00    -0.302 N 
ATOM     80  N   UNL A   1      31.006  26.112  26.449  1.00  0.00    -0.343 N 
ATOM     81  C   UNL A   1      32.253  28.329  26.427  1.00  0.00     0.183 C 
ATOM     82  C   UNL A   1      31.269  27.381  27.161  1.00  0.00     0.282 C 
ATOM     83  H   UNL A   1      31.848  25.536  26.464  1.00  0.00     0.346 HD
ATOM     84  H   UNL A   1      30.241  25.623  26.914  1.00  0.00     0.346 HD
BRANCH  79  85
ATOM     85  C   UNL A   1      31.182  29.781  24.867  1.00  0.00     0.318 C 
ATOM     86  O   UNL A   1      31.525  30.759  25.553  1.00  0.00    -0.249 OA
ATOM     87  N   UNL A   1      30.255  30.150  24.009  1.00  0.00    -0.333 N 
ATOM     88  H   UNL A   1      29.994  31.033  24.359  1.00  0.00     0.165 HD
BRANCH  87  89
ATOM     89  C   UNL A   1      29.372  30.017  22.822  1.00  0.00     0.112 C 
ATOM     90  C   UNL A   1      28.854  31.438  22.550  1.00  0.00     0.056 C 
ATOM     91  C   UNL A   1      28.021  29.315  22.798  1.00  0.00     0.185 C 
ATOM     92  C   UNL A   1      27.623  31.490  23.439  1.00  0.00     0.162 C 
ATOM     93  O   UNL A   1      27.062  30.176  23.424  1.00  0.00    -0.379 OA
ENDBRANCH  87  89
ENDBRANCH  79  85
ENDBRANCH  74  77
ENDBRANCH  72  73
ENDBRANCH  71  72
ENDBRANCH  70  71
ENDBRANCH   1  70
TORSDOF 18
ENDMDL
MODEL 2
REMARK VINA RESULT:     -10.4      3.786      9.245
REMARK SMILES O=C(NCCCCCCNC(=O)[C@@H]1C[NH2+]CCN1C(=O)N[C@@H]1CCOC1)c1ccc(-c2c3nc(c(-c4ccc(S(=O)(=O)[O-])cc4)c4ccc([nH]4)c(-c4ccc(S(=O)(=O)[O-])cc4)c4nc(c(-c5ccc(S(=O)(=O)[O-])cc5)c5ccc2[nH]5)C=C4)C=C3)cc1
REMARK SMILES IDX 6 1 5 2 4 3 3 4 1 5 2 6 27 8 28 9 86 10 29 11 85 12 30 13
REMARK SMILES IDX 31 14 32 15 79 16 33 17 84 18 78 19 80 20 34 21 83 22 77 23
REMARK SMILES IDX 76 24 35 26 65 27 46 28 64 29 47 30 50 31 63 32 81 33 48 34
REMARK SMILES IDX 49 35 62 37 82 38 51 39 36 40 37 41 45 42 38 43 44 44 39 45
REMARK SMILES IDX 40 46 41 47 42 48 43 49 66 50 67 51 75 52 68 53 74 54 69 55
REMARK SMILES IDX 70 56 71 57 72 58 73 59 52 60 53 61 61 62 54 63 60 64 55 65
REMARK SMILES IDX 56 66 57 67 58 68 59 69 7 70 8 71 9 72 10 73 11 74 12 76
REMARK SMILES IDX 13 77 14 78 18 79 15 80 17 81 16 82 19 85 20 86 21 87 22 89
REMARK SMILES IDX 23 90 26 91 24 92 25 93
REMARK H PARENT 3 7 80 25 50 36 10 75 15 83 15 84 21 88
REMARK Flexibility Score: inf
ROOT
ATOM      1  C   UNL A   1      31.780  30.889  26.361  1.00  0.00     0.002 C 
ENDROOT
BRANCH   1   2
ATOM      2  C   UNL A   1      31.505  32.296  26.887  1.00  0.00     0.021 C 
BRANCH   2   3
ATOM      3  C   UNL A   1      32.684  32.961  27.576  1.00  0.00     0.116 C 
BRANCH   3   4
ATOM      4  N   UNL A   1      32.451  34.363  27.862  1.00  0.00    -0.352 N 
ATOM      5  O   UNL A   1      32.682  36.285  29.029  1.00  0.00    -0.269 OA
ATOM      6  C   UNL A   1      33.078  35.144  28.803  1.00  0.00     0.251 C 
ATOM      7  H   UNL A   1      31.762  34.808  27.318  1.00  0.00     0.163 HD
BRANCH   6   8
ATOM      8  C   UNL A   1      34.212  34.577  29.566  1.00  0.00     0.039 A 
ATOM      9  C   UNL A   1      35.502  34.580  29.027  1.00  0.00     0.014 A 
ATOM     10  C   UNL A   1      33.973  33.992  30.812  1.00  0.00     0.014 A 
ATOM     11  C   UNL A   1      36.516  33.875  29.663  1.00  0.00     0.010 A 
ATOM     12  C   UNL A   1      35.020  33.368  31.497  1.00  0.00     0.010 A 
ATOM     13  C   UNL A   1      36.295  33.279  30.916  1.00  0.00    -0.014 A 
BRANCH  13  14
ATOM     14  C   UNL A   1      37.434  32.642  31.626  1.00  0.00     0.031 A 
ATOM     15  C   UNL A   1      37.918  33.153  32.956  1.00  0.00     0.074 A 
ATOM     16  C   UNL A   1      38.014  31.562  31.064  1.00  0.00     0.049 A 
ATOM     17  N   UNL A   1      38.886  32.692  33.709  1.00  0.00    -0.248 NA
ATOM     18  C   UNL A   1      37.237  34.332  33.516  1.00  0.00     0.031 C 
ATOM     19  C   UNL A   1      37.636  30.979  29.773  1.00  0.00     0.029 A 
ATOM     20  N   UNL A   1      39.022  30.749  31.510  1.00  0.00    -0.354 N 
ATOM     21  C   UNL A   1      38.939  33.524  34.821  1.00  0.00     0.074 A 
ATOM     22  C   UNL A   1      37.925  34.539  34.632  1.00  0.00     0.031 C 
ATOM     23  C   UNL A   1      38.365  29.876  29.557  1.00  0.00     0.029 A 
ATOM     24  C   UNL A   1      39.309  29.712  30.654  1.00  0.00     0.049 A 
ATOM     25  H   UNL A   1      39.497  30.893  32.360  1.00  0.00     0.167 HD
ATOM     26  C   UNL A   1      39.751  33.443  35.904  1.00  0.00     0.031 A 
ATOM     27  C   UNL A   1      40.241  28.744  30.727  1.00  0.00     0.031 A 
ATOM     28  C   UNL A   1      40.767  32.435  36.080  1.00  0.00     0.049 A 
ATOM     29  C   UNL A   1      41.154  28.704  31.917  1.00  0.00     0.074 A 
ATOM     30  C   UNL A   1      41.638  32.268  37.143  1.00  0.00     0.029 A 
ATOM     31  N   UNL A   1      41.049  31.424  35.173  1.00  0.00    -0.354 N 
ATOM     32  N   UNL A   1      41.173  29.492  32.965  1.00  0.00    -0.248 NA
ATOM     33  C   UNL A   1      42.169  27.644  31.935  1.00  0.00     0.031 C 
ATOM     34  C   UNL A   1      42.477  31.185  36.858  1.00  0.00     0.029 A 
ATOM     35  C   UNL A   1      42.090  30.640  35.645  1.00  0.00     0.049 A 
ATOM     36  H   UNL A   1      40.579  31.284  34.320  1.00  0.00     0.167 HD
ATOM     37  C   UNL A   1      42.193  29.011  33.777  1.00  0.00     0.074 A 
ATOM     38  C   UNL A   1      42.747  27.850  33.111  1.00  0.00     0.031 C 
ATOM     39  C   UNL A   1      42.634  29.491  34.966  1.00  0.00     0.031 A 
BRANCH  26  40
ATOM     40  C   UNL A   1      39.587  34.483  36.983  1.00  0.00    -0.014 A 
ATOM     41  C   UNL A   1      38.852  34.205  38.150  1.00  0.00     0.010 A 
ATOM     42  C   UNL A   1      40.224  35.732  36.860  1.00  0.00     0.010 A 
ATOM     43  C   UNL A   1      38.729  35.168  39.156  1.00  0.00     0.020 A 
ATOM     44  C   UNL A   1      40.125  36.688  37.875  1.00  0.00     0.020 A 
ATOM     45  C   UNL A   1      39.363  36.405  39.011  1.00  0.00     0.054 A 
BRANCH  45  46
ATOM     46  S   UNL A   1      39.205  37.625  40.344  1.00  0.00     0.124 S 
ATOM     47  O   UNL A   1      40.533  38.233  40.354  1.00  0.00    -0.237 OA
ATOM     48  O   UNL A   1      38.126  38.485  39.865  1.00  0.00    -0.237 OA
ATOM     49  O   UNL A   1      38.881  36.818  41.517  1.00  0.00    -0.744 OA
ENDBRANCH  45  46
ENDBRANCH  26  40
BRANCH  27  50
ATOM     50  C   UNL A   1      40.371  27.757  29.621  1.00  0.00    -0.014 A 
ATOM     51  C   UNL A   1      39.518  26.644  29.546  1.00  0.00     0.010 A 
ATOM     52  C   UNL A   1      41.352  27.937  28.628  1.00  0.00     0.010 A 
ATOM     53  C   UNL A   1      39.660  25.714  28.512  1.00  0.00     0.020 A 
ATOM     54  C   UNL A   1      41.475  27.029  27.574  1.00  0.00     0.020 A 
ATOM     55  C   UNL A   1      40.639  25.913  27.533  1.00  0.00     0.054 A 
BRANCH  55  56
ATOM     56  S   UNL A   1      40.788  24.712  26.182  1.00  0.00     0.124 S 
ATOM     57  O   UNL A   1      41.205  25.560  25.070  1.00  0.00    -0.237 OA
ATOM     58  O   UNL A   1      41.797  23.787  26.690  1.00  0.00    -0.237 OA
ATOM     59  O   UNL A   1      39.441  24.153  26.074  1.00  0.00    -0.744 OA
ENDBRANCH  55  56
ENDBRANCH  27  50
BRANCH  39  60
ATOM     60  C   UNL A   1      43.752  28.737  35.634  1.00  0.00    -0.014 A 
ATOM     61  C   UNL A   1      45.097  29.077  35.407  1.00  0.00     0.010 A 
ATOM     62  C   UNL A   1      43.449  27.687  36.520  1.00  0.00     0.010 A 
ATOM     63  C   UNL A   1      46.121  28.353  36.023  1.00  0.00     0.020 A 
ATOM     64  C   UNL A   1      44.469  26.980  37.160  1.00  0.00     0.020 A 
ATOM     65  C   UNL A   1      45.801  27.307  36.893  1.00  0.00     0.054 A 
BRANCH  65  66
ATOM     66  S   UNL A   1      47.146  26.400  37.703  1.00  0.00     0.124 S 
ATOM     67  O   UNL A   1      48.201  26.458  36.694  1.00  0.00    -0.237 OA
ATOM     68  O   UNL A   1      47.386  27.189  38.909  1.00  0.00    -0.237 OA
ATOM     69  O   UNL A   1      46.578  25.074  37.936  1.00  0.00    -0.744 OA
ENDBRANCH  65  66
ENDBRANCH  39  60
ENDBRANCH  13  14
ENDBRANCH   6   8
ENDBRANCH   3   4
ENDBRANCH   2   3
ENDBRANCH   1   2
BRANCH   1  70
ATOM     70  C   UNL A   1      32.630  30.000  27.275  1.00  0.00     0.002 C 
BRANCH  70  71
ATOM     71  C   UNL A   1      34.007  29.623  26.725  1.00  0.00     0.021 C 
BRANCH  71  72
ATOM     72  C   UNL A   1      34.057  28.237  26.102  1.00  0.00     0.116 C 
BRANCH  72  73
ATOM     73  N   UNL A   1      33.529  28.181  24.763  1.00  0.00    -0.354 N 
ATOM     74  C   UNL A   1      33.277  26.926  24.235  1.00  0.00     0.248 C 
ATOM     75  H   UNL A   1      33.354  28.999  24.246  1.00  0.00     0.163 HD
ATOM     76  O   UNL A   1      34.109  26.024  24.234  1.00  0.00    -0.272 OA
BRANCH  74  77
ATOM     77  C   UNL A   1      31.798  26.666  24.065  1.00  0.00     0.231 C 
ATOM     78  C   UNL A   1      31.448  25.402  23.256  1.00  0.00     0.296 C 
ATOM     79  N   UNL A   1      30.792  27.721  23.899  1.00  0.00    -0.302 N 
ATOM     80  N   UNL A   1      30.116  24.857  23.644  1.00  0.00    -0.343 N 
ATOM     81  C   UNL A   1      29.479  27.210  24.368  1.00  0.00     0.183 C 
ATOM     82  C   UNL A   1      29.093  25.923  23.594  1.00  0.00     0.282 C 
ATOM     83  H   UNL A   1      30.168  24.483  24.592  1.00  0.00     0.346 HD
ATOM     84  H   UNL A   1      29.857  24.117  22.991  1.00  0.00     0.346 HD
BRANCH  79  85
ATOM     85  C   UNL A   1      30.724  28.767  23.057  1.00  0.00     0.318 C 
ATOM     86  O   UNL A   1      31.730  29.116  22.418  1.00  0.00    -0.249 OA
ATOM     87  N   UNL A   1      29.704  29.526  22.720  1.00  0.00    -0.333 N 
ATOM     88  H   UNL A   1      30.147  30.259  22.234  1.00  0.00     0.165 HD
BRANCH  87  89
ATOM     89  C   UNL A   1      28.276  29.927  22.642  1.00  0.00     0.112 C 
ATOM     90  C   UNL A   1      28.125  30.597  21.268  1.00  0.00     0.056 C 
ATOM     91  C   UNL A   1      27.619  31.028  23.463  1.00  0.00     0.185 C 
ATOM     92  C   UNL A   1      28.493  32.036  21.587  1.00  0.00     0.162 C 
ATOM     93  O   UNL A   1      28.010  32.289  22.908  1.00  0.00    -0.379 OA
ENDBRANCH  87  89
ENDBRANCH  79  85
ENDBRANCH  74  77
ENDBRANCH  72  73
ENDBRANCH  71  72
ENDBRANCH  70  71
ENDBRANCH   1  70
TORSDOF 18
ENDMDL
MODEL 3
REMARK VINA RESULT:     -10.4      3.384      9.504
REMARK SMILES O=C(NCCCCCCNC(=O)[C@@H]1C[NH2+]CCN1C(=O)N[C@@H]1CCOC1)c1ccc(-c2c3nc(c(-c4ccc(S(=O)(=O)[O-])cc4)c4ccc([nH]4)c(-c4ccc(S(=O)(=O)[O-])cc4)c4nc(c(-c5ccc(S(=O)(=O)[O-])cc5)c5ccc2[nH]5)C=C4)C=C3)cc1
REMARK SMILES IDX 6 1 5 2 4 3 3 4 1 5 2 6 27 8 28 9 86 10 29 11 85 12 30 13
REMARK SMILES IDX 31 14 32 15 79 16 33 17 84 18 78 19 80 20 34 21 83 22 77 23
REMARK SMILES IDX 76 24 35 26 65 27 46 28 64 29 47 30 50 31 63 32 81 33 48 34
REMARK SMILES IDX 49 35 62 37 82 38 51 39 36 40 37 41 45 42 38 43 44 44 39 45
REMARK SMILES IDX 40 46 41 47 42 48 43 49 66 50 67 51 75 52 68 53 74 54 69 55
REMARK SMILES IDX 70 56 71 57 72 58 73 59 52 60 53 61 61 62 54 63 60 64 55 65
REMARK SMILES IDX 56 66 57 67 58 68 59 69 7 70 8 71 9 72 10 73 11 74 12 76
REMARK SMILES IDX 13 77 14 78 18 79 15 80 17 81 16 82 19 85 20 86 21 87 22 89
REMARK SMILES IDX 23 90 26 91 24 92 25 93
REMARK H PARENT 3 7 80 25 50 36 10 75 15 83 15 84 21 88
REMARK Flexibility Score: inf
ROOT
ATOM      1  C   UNL A   1      31.943  28.159  26.083  1.00  0.00     0.002 C 
ENDROOT
BRANCH   1   2
ATOM      2  C   UNL A   1      33.360  27.761  26.490  1.00  0.00     0.021 C 
BRANCH   2   3
ATOM      3  C   UNL A   1      34.396  28.865  26.353  1.00  0.00     0.116 C 
BRANCH   3   4
ATOM      4  N   UNL A   1      33.860  30.179  26.644  1.00  0.00    -0.352 N 
ATOM      5  O   UNL A   1      33.677  32.110  27.805  1.00  0.00    -0.269 OA
ATOM      6  C   UNL A   1      34.315  31.086  27.570  1.00  0.00     0.251 C 
ATOM      7  H   UNL A   1      33.076  30.455  26.116  1.00  0.00     0.163 HD
BRANCH   6   8
ATOM      8  C   UNL A   1      35.565  30.794  28.307  1.00  0.00     0.039 A 
ATOM      9  C   UNL A   1      36.757  31.440  27.966  1.00  0.00     0.014 A 
ATOM     10  C   UNL A   1      35.554  29.827  29.314  1.00  0.00     0.014 A 
ATOM     11  C   UNL A   1      37.954  31.019  28.529  1.00  0.00     0.010 A 
ATOM     12  C   UNL A   1      36.748  29.474  29.949  1.00  0.00     0.010 A 
ATOM     13  C   UNL A   1      37.964  30.046  29.543  1.00  0.00    -0.014 A 
BRANCH  13  14
ATOM     14  C   UNL A   1      39.248  29.710  30.211  1.00  0.00     0.031 A 
ATOM     15  C   UNL A   1      39.713  30.446  31.439  1.00  0.00     0.074 A 
ATOM     16  C   UNL A   1      39.983  28.697  29.710  1.00  0.00     0.049 A 
ATOM     17  N   UNL A   1      40.799  30.254  32.147  1.00  0.00    -0.248 NA
ATOM     18  C   UNL A   1      38.861  31.537  31.936  1.00  0.00     0.031 C 
ATOM     19  C   UNL A   1      39.637  27.914  28.519  1.00  0.00     0.029 A 
ATOM     20  N   UNL A   1      41.154  28.135  30.145  1.00  0.00    -0.354 N 
ATOM     21  C   UNL A   1      40.767  31.202  33.163  1.00  0.00     0.074 A 
ATOM     22  C   UNL A   1      39.569  31.989  32.963  1.00  0.00     0.031 C 
ATOM     23  C   UNL A   1      40.546  26.943  28.350  1.00  0.00     0.029 A 
ATOM     24  C   UNL A   1      41.574  27.077  29.373  1.00  0.00     0.049 A 
ATOM     25  H   UNL A   1      41.648  28.456  30.933  1.00  0.00     0.167 HD
ATOM     26  C   UNL A   1      41.650  31.391  34.175  1.00  0.00     0.031 A 
ATOM     27  C   UNL A   1      42.676  26.309  29.460  1.00  0.00     0.031 A 
ATOM     28  C   UNL A   1      42.848  30.610  34.361  1.00  0.00     0.049 A 
ATOM     29  C   UNL A   1      43.656  26.568  30.565  1.00  0.00     0.074 A 
ATOM     30  C   UNL A   1      43.803  30.724  35.357  1.00  0.00     0.029 A 
ATOM     31  N   UNL A   1      43.255  29.572  33.537  1.00  0.00    -0.354 N 
ATOM     32  N   UNL A   1      43.596  27.459  31.526  1.00  0.00    -0.248 NA
ATOM     33  C   UNL A   1      44.853  25.718  30.600  1.00  0.00     0.031 C 
ATOM     34  C   UNL A   1      44.811  29.785  35.108  1.00  0.00     0.029 A 
ATOM     35  C   UNL A   1      44.454  29.047  33.991  1.00  0.00     0.049 A 
ATOM     36  H   UNL A   1      42.764  29.254  32.745  1.00  0.00     0.167 HD
ATOM     37  C   UNL A   1      44.739  27.264  32.290  1.00  0.00     0.074 A 
ATOM     38  C   UNL A   1      45.457  26.155  31.695  1.00  0.00     0.031 C 
ATOM     39  C   UNL A   1      45.160  27.946  33.384  1.00  0.00     0.031 A 
BRANCH  26  40
ATOM     40  C   UNL A   1      41.364  32.498  35.158  1.00  0.00    -0.014 A 
ATOM     41  C   UNL A   1      40.535  32.280  36.273  1.00  0.00     0.010 A 
ATOM     42  C   UNL A   1      41.978  33.755  35.000  1.00  0.00     0.010 A 
ATOM     43  C   UNL A   1      40.298  33.307  37.192  1.00  0.00     0.020 A 
ATOM     44  C   UNL A   1      41.765  34.777  35.930  1.00  0.00     0.020 A 
ATOM     45  C   UNL A   1      40.912  34.551  37.013  1.00  0.00     0.054 A 
BRANCH  45  46
ATOM     46  S   UNL A   1      40.605  35.855  38.235  1.00  0.00     0.124 S 
ATOM     47  O   UNL A   1      39.723  36.756  37.497  1.00  0.00    -0.237 OA
ATOM     48  O   UNL A   1      39.977  35.125  39.333  1.00  0.00    -0.237 OA
ATOM     49  O   UNL A   1      41.935  36.384  38.522  1.00  0.00    -0.744 OA
ENDBRANCH  45  46
ENDBRANCH  26  40
BRANCH  27  50
ATOM     50  C   UNL A   1      42.916  25.244  28.449  1.00  0.00    -0.014 A 
ATOM     51  C   UNL A   1      42.563  23.909  28.711  1.00  0.00     0.010 A 
ATOM     52  C   UNL A   1      43.495  25.568  27.208  1.00  0.00     0.010 A 
ATOM     53  C   UNL A   1      42.810  22.915  27.760  1.00  0.00     0.020 A 
ATOM     54  C   UNL A   1      43.712  24.583  26.242  1.00  0.00     0.020 A 
ATOM     55  C   UNL A   1      43.384  23.258  26.532  1.00  0.00     0.054 A 
BRANCH  55  56
ATOM     56  S   UNL A   1      43.666  21.958  25.300  1.00  0.00     0.124 S 
ATOM     57  O   UNL A   1      43.623  22.713  24.051  1.00  0.00    -0.237 OA
ATOM     58  O   UNL A   1      44.976  21.438  25.683  1.00  0.00    -0.237 OA
ATOM     59  O   UNL A   1      42.551  21.037  25.515  1.00  0.00    -0.744 OA
ENDBRANCH  55  56
ENDBRANCH  27  50
BRANCH  39  60
ATOM     60  C   UNL A   1      46.442  27.487  34.024  1.00  0.00    -0.014 A 
ATOM     61  C   UNL A   1      47.680  28.041  33.654  1.00  0.00     0.010 A 
ATOM     62  C   UNL A   1      46.403  26.502  35.027  1.00  0.00     0.010 A 
ATOM     63  C   UNL A   1      48.861  27.588  34.247  1.00  0.00     0.020 A 
ATOM     64  C   UNL A   1      47.578  26.068  35.643  1.00  0.00     0.020 A 
ATOM     65  C   UNL A   1      48.803  26.602  35.236  1.00  0.00     0.054 A 
BRANCH  65  66
ATOM     66  S   UNL A   1      50.346  26.050  36.012  1.00  0.00     0.124 S 
ATOM     67  O   UNL A   1      49.879  25.574  37.311  1.00  0.00    -0.237 OA
ATOM     68  O   UNL A   1      50.816  25.015  35.094  1.00  0.00    -0.237 OA
ATOM     69  O   UNL A   1      51.166  27.259  36.049  1.00  0.00    -0.744 OA
ENDBRANCH  65  66
ENDBRANCH  39  60
ENDBRANCH  13  14
ENDBRANCH   6   8
ENDBRANCH   3   4
ENDBRANCH   2   3
ENDBRANCH   1   2
BRANCH   1  70
ATOM     70  C   UNL A   1      31.357  27.383  24.898  1.00  0.00     0.002 C 
BRANCH  70  71
ATOM     71  C   UNL A   1      30.264  26.375  25.252  1.00  0.00     0.021 C 
BRANCH  71  72
ATOM     72  C   UNL A   1      30.594  24.947  24.846  1.00  0.00     0.116 C 
BRANCH  72  73
ATOM     73  N   UNL A   1      31.889  24.499  25.289  1.00  0.00    -0.354 N 
ATOM     74  C   UNL A   1      31.921  23.587  26.329  1.00  0.00     0.248 C 
ATOM     75  H   UNL A   1      32.716  24.828  24.870  1.00  0.00     0.163 HD
ATOM     76  O   UNL A   1      31.320  23.758  27.386  1.00  0.00    -0.272 OA
BRANCH  74  77
ATOM     77  C   UNL A   1      32.395  22.224  25.877  1.00  0.00     0.231 C 
ATOM     78  C   UNL A   1      33.439  21.561  26.795  1.00  0.00     0.296 C 
ATOM     79  N   UNL A   1      32.576  21.842  24.472  1.00  0.00    -0.302 N 
ATOM     80  N   UNL A   1      33.389  20.075  26.695  1.00  0.00    -0.343 N 
ATOM     81  C   UNL A   1      32.438  20.368  24.355  1.00  0.00     0.183 C 
ATOM     82  C   UNL A   1      33.458  19.655  25.280  1.00  0.00     0.282 C 
ATOM     83  H   UNL A   1      32.516  19.739  27.104  1.00  0.00     0.346 HD
ATOM     84  H   UNL A   1      34.184  19.680  27.198  1.00  0.00     0.346 HD
BRANCH  79  85
ATOM     85  C   UNL A   1      33.246  22.429  23.465  1.00  0.00     0.318 C 
ATOM     86  O   UNL A   1      32.710  22.551  22.351  1.00  0.00    -0.249 OA
ATOM     87  N   UNL A   1      34.440  22.982  23.442  1.00  0.00    -0.333 N 
ATOM     88  H   UNL A   1      34.586  23.110  22.477  1.00  0.00     0.165 HD
BRANCH  87  89
ATOM     89  C   UNL A   1      35.696  23.526  24.018  1.00  0.00     0.112 C 
ATOM     90  C   UNL A   1      36.817  22.673  23.403  1.00  0.00     0.056 C 
ATOM     91  C   UNL A   1      36.134  23.395  25.470  1.00  0.00     0.185 C 
ATOM     92  C   UNL A   1      36.891  21.513  24.382  1.00  0.00     0.162 C 
ATOM     93  O   UNL A   1      36.611  22.060  25.672  1.00  0.00    -0.379 OA
ENDBRANCH  87  89
ENDBRANCH  79  85
ENDBRANCH  74  77
ENDBRANCH  72  73
ENDBRANCH  71  72
ENDBRANCH  70  71
ENDBRANCH   1  70
TORSDOF 18
ENDMDL
