MODEL 1
REMARK VINA RESULT:     -13.0      0.000      0.000
REMARK SMILES CS(=O)(=O)c1ccc(-n2nc(C(F)(F)F)cc2-c2ccc(CC(=O)NCCCCCCNC(=O)c3ccc(-c4c5nc(c(-c6ccc(S(=O)(=O)[O-])cc6)c6ccc([nH]6)c(-c6ccc(S(=O)(=O)[O-])cc6)c6nc(c(-c7ccc(S(=O)(=O)[O-])cc7)c7ccc4[nH]7)C=C6)C=C5)cc3)cc2)cc1
REMARK SMILES IDX 28 1 27 2 26 3 25 4 23 5 24 6 22 8 21 9 18 10 19 11 96 12
REMARK SMILES IDX 20 13 95 14 17 15 9 16 10 17 11 18 16 19 8 20 5 21 6 22
REMARK SMILES IDX 98 23 7 24 97 25 2 26 1 27 3 28 4 29 12 30 13 31 14 32 15 33
REMARK SMILES IDX 29 34 30 35 31 36 32 37 33 38 34 40 35 41 36 42 94 43 37 44
REMARK SMILES IDX 93 45 38 46 39 47 40 48 87 49 41 50 92 51 86 52 88 53 42 54
REMARK SMILES IDX 91 55 85 56 84 57 43 59 73 60 54 61 72 62 55 63 58 64 71 65
REMARK SMILES IDX 89 66 56 67 57 68 70 70 90 71 59 72 44 73 45 74 53 75 46 76
REMARK SMILES IDX 52 77 47 78 48 79 49 80 50 81 51 82 74 83 75 84 83 85 76 86
REMARK SMILES IDX 82 87 77 88 78 89 79 90 80 91 81 92 60 93 61 94 69 95 62 96
REMARK SMILES IDX 68 97 63 98 64 99 65 100 66 101 67 102
REMARK H PARENT 25 7 32 39 88 58 58 69
REMARK Flexibility Score: inf
ROOT
ATOM      1  C   UNL A   1      31.228  27.078  25.335  1.00  0.00     0.002 C 
ENDROOT
BRANCH   1   2
ATOM      2  C   UNL A   1      31.506  27.947  24.100  1.00  0.00     0.021 C 
BRANCH   2   3
ATOM      3  C   UNL A   1      30.796  27.473  22.832  1.00  0.00     0.116 C 
BRANCH   3   4
ATOM      4  N   UNL A   1      31.735  27.244  21.752  1.00  0.00    -0.356 N 
ATOM      5  C   UNL A   1      32.509  26.150  21.491  1.00  0.00     0.224 C 
ATOM      6  O   UNL A   1      33.285  26.200  20.534  1.00  0.00    -0.275 OA
ATOM      7  H   UNL A   1      31.829  27.987  21.112  1.00  0.00     0.163 HD
BRANCH   5   8
ATOM      8  C   UNL A   1      32.350  24.883  22.312  1.00  0.00     0.135 C 
BRANCH   8   9
ATOM      9  C   UNL A   1      33.589  24.460  23.061  1.00  0.00    -0.039 A 
ATOM     10  C   UNL A   1      35.826  23.553  24.487  1.00  0.00     0.000 A 
ATOM     11  C   UNL A   1      34.975  24.510  25.048  1.00  0.00     0.010 A 
ATOM     12  C   UNL A   1      35.587  23.095  23.189  1.00  0.00     0.010 A 
ATOM     13  C   UNL A   1      33.857  24.955  24.343  1.00  0.00     0.005 A 
ATOM     14  C   UNL A   1      34.487  23.558  22.474  1.00  0.00     0.005 A 
BRANCH  10  15
ATOM     15  C   UNL A   1      36.925  22.973  25.238  1.00  0.00     0.075 A 
ATOM     16  N   UNL A   1      37.067  21.628  25.527  1.00  0.00    -0.233 N 
ATOM     17  N   UNL A   1      38.331  21.327  25.897  1.00  0.00    -0.163 NA
ATOM     18  C   UNL A   1      38.875  22.516  26.234  1.00  0.00     0.167 A 
ATOM     19  C   UNL A   1      38.042  23.573  25.784  1.00  0.00     0.064 A 
BRANCH  16  20
ATOM     20  C   UNL A   1      36.161  20.587  25.218  1.00  0.00     0.065 A 
ATOM     21  C   UNL A   1      34.357  18.549  24.666  1.00  0.00     0.067 A 
ATOM     22  C   UNL A   1      35.728  18.330  24.491  1.00  0.00     0.022 A 
ATOM     23  C   UNL A   1      33.884  19.787  25.111  1.00  0.00     0.022 A 
ATOM     24  C   UNL A   1      36.640  19.351  24.779  1.00  0.00     0.030 A 
ATOM     25  C   UNL A   1      34.788  20.819  25.354  1.00  0.00     0.030 A 
BRANCH  21  26
ATOM     26  S   UNL A   1      33.144  17.298  24.317  1.00  0.00     0.175 S 
ATOM     27  C   UNL A   1      33.386  15.995  25.487  1.00  0.00     0.163 C 
ATOM     28  O   UNL A   1      33.477  16.765  23.005  1.00  0.00    -0.224 OA
ATOM     29  O   UNL A   1      31.846  17.876  24.585  1.00  0.00    -0.224 OA
ENDBRANCH  21  26
ENDBRANCH  16  20
BRANCH  18  30
ATOM     30  C   UNL A   1      40.244  22.671  26.854  1.00  0.00     0.435 C 
ATOM     31  F   UNL A   1      40.407  22.036  28.035  1.00  0.00    -0.164 F 
ATOM     32  F   UNL A   1      41.211  22.192  26.017  1.00  0.00    -0.164 F 
ATOM     33  F   UNL A   1      40.555  23.986  27.051  1.00  0.00    -0.164 F 
ENDBRANCH  18  30
ENDBRANCH  10  15
ENDBRANCH   8   9
ENDBRANCH   5   8
ENDBRANCH   3   4
ENDBRANCH   2   3
ENDBRANCH   1   2
BRANCH   1  34
ATOM     34  C   UNL A   1      32.339  27.042  26.397  1.00  0.00     0.002 C 
BRANCH  34  35
ATOM     35  C   UNL A   1      32.396  28.233  27.366  1.00  0.00     0.021 C 
BRANCH  35  36
ATOM     36  C   UNL A   1      33.667  29.059  27.250  1.00  0.00     0.116 C 
BRANCH  36  37
ATOM     37  N   UNL A   1      33.427  30.492  27.433  1.00  0.00    -0.352 N 
ATOM     38  C   UNL A   1      34.207  31.420  28.106  1.00  0.00     0.251 C 
ATOM     39  H   UNL A   1      32.603  30.843  27.025  1.00  0.00     0.163 HD
ATOM     40  O   UNL A   1      33.725  32.468  28.502  1.00  0.00    -0.269 OA
BRANCH  38  41
ATOM     41  C   UNL A   1      35.637  31.121  28.312  1.00  0.00     0.039 A 
ATOM     42  C   UNL A   1      36.563  32.103  28.679  1.00  0.00     0.014 A 
ATOM     43  C   UNL A   1      36.042  29.803  28.133  1.00  0.00     0.014 A 
ATOM     44  C   UNL A   1      37.883  31.722  28.926  1.00  0.00     0.010 A 
ATOM     45  C   UNL A   1      37.272  29.401  28.569  1.00  0.00     0.010 A 
ATOM     46  C   UNL A   1      38.225  30.362  28.876  1.00  0.00    -0.014 A 
BRANCH  46  47
ATOM     47  C   UNL A   1      39.552  29.872  29.223  1.00  0.00     0.031 A 
ATOM     48  C   UNL A   1      39.824  29.818  30.683  1.00  0.00     0.074 A 
ATOM     49  C   UNL A   1      40.348  29.258  28.316  1.00  0.00     0.049 A 
ATOM     50  N   UNL A   1      40.641  30.557  31.357  1.00  0.00    -0.248 NA
ATOM     51  C   UNL A   1      38.976  28.955  31.523  1.00  0.00     0.031 C 
ATOM     52  C   UNL A   1      40.063  28.950  26.909  1.00  0.00     0.029 A 
ATOM     53  N   UNL A   1      41.548  28.651  28.504  1.00  0.00    -0.354 N 
ATOM     54  C   UNL A   1      40.588  30.090  32.666  1.00  0.00     0.074 A 
ATOM     55  C   UNL A   1      39.408  29.266  32.746  1.00  0.00     0.031 C 
ATOM     56  C   UNL A   1      40.933  28.014  26.462  1.00  0.00     0.029 A 
ATOM     57  C   UNL A   1      41.937  27.778  27.487  1.00  0.00     0.049 A 
ATOM     58  H   UNL A   1      42.103  28.815  29.300  1.00  0.00     0.167 HD
ATOM     59  C   UNL A   1      41.654  30.205  33.508  1.00  0.00     0.031 A 
ATOM     60  C   UNL A   1      42.987  26.909  27.514  1.00  0.00     0.031 A 
ATOM     61  C   UNL A   1      42.665  31.076  32.961  1.00  0.00     0.049 A 
ATOM     62  C   UNL A   1      43.892  27.390  28.589  1.00  0.00     0.074 A 
ATOM     63  C   UNL A   1      42.690  32.394  32.553  1.00  0.00     0.029 A 
ATOM     64  N   UNL A   1      43.748  30.471  32.360  1.00  0.00    -0.354 N 
ATOM     65  N   UNL A   1      44.543  28.518  28.515  1.00  0.00    -0.248 NA
ATOM     66  C   UNL A   1      43.687  26.876  29.937  1.00  0.00     0.031 C 
ATOM     67  C   UNL A   1      43.464  32.387  31.354  1.00  0.00     0.029 A 
ATOM     68  C   UNL A   1      43.942  31.090  31.151  1.00  0.00     0.049 A 
ATOM     69  H   UNL A   1      44.283  29.732  32.730  1.00  0.00     0.167 HD
ATOM     70  C   UNL A   1      44.445  29.070  29.784  1.00  0.00     0.074 A 
ATOM     71  C   UNL A   1      43.992  27.972  30.640  1.00  0.00     0.031 C 
ATOM     72  C   UNL A   1      44.452  30.424  29.972  1.00  0.00     0.031 A 
BRANCH  59  73
ATOM     73  C   UNL A   1      41.973  29.233  34.617  1.00  0.00    -0.014 A 
ATOM     74  C   UNL A   1      42.641  29.712  35.764  1.00  0.00     0.010 A 
ATOM     75  C   UNL A   1      41.891  27.833  34.466  1.00  0.00     0.010 A 
ATOM     76  C   UNL A   1      43.263  28.838  36.664  1.00  0.00     0.020 A 
ATOM     77  C   UNL A   1      42.467  26.952  35.383  1.00  0.00     0.020 A 
ATOM     78  C   UNL A   1      43.184  27.461  36.456  1.00  0.00     0.054 A 
BRANCH  78  79
ATOM     79  S   UNL A   1      44.079  26.345  37.563  1.00  0.00     0.124 S 
ATOM     80  O   UNL A   1      45.394  26.975  37.625  1.00  0.00    -0.237 OA
ATOM     81  O   UNL A   1      43.282  26.417  38.784  1.00  0.00    -0.237 OA
ATOM     82  O   UNL A   1      44.028  25.062  36.867  1.00  0.00    -0.744 OA
ENDBRANCH  78  79
ENDBRANCH  59  73
BRANCH  60  83
ATOM     83  C   UNL A   1      43.150  25.577  26.862  1.00  0.00    -0.014 A 
ATOM     84  C   UNL A   1      43.108  25.415  25.458  1.00  0.00     0.010 A 
ATOM     85  C   UNL A   1      43.637  24.493  27.601  1.00  0.00     0.010 A 
ATOM     86  C   UNL A   1      43.622  24.257  24.823  1.00  0.00     0.020 A 
ATOM     87  C   UNL A   1      44.126  23.340  26.974  1.00  0.00     0.020 A 
ATOM     88  C   UNL A   1      44.157  23.232  25.593  1.00  0.00     0.054 A 
BRANCH  88  89
ATOM     89  S   UNL A   1      45.076  21.831  24.878  1.00  0.00     0.124 S 
ATOM     90  O   UNL A   1      45.573  22.394  23.626  1.00  0.00    -0.237 OA
ATOM     91  O   UNL A   1      46.092  21.533  25.881  1.00  0.00    -0.237 OA
ATOM     92  O   UNL A   1      44.050  20.797  24.719  1.00  0.00    -0.744 OA
ENDBRANCH  88  89
ENDBRANCH  60  83
BRANCH  72  93
ATOM     93  C   UNL A   1      44.796  31.321  28.800  1.00  0.00    -0.014 A 
ATOM     94  C   UNL A   1      43.853  31.779  27.857  1.00  0.00     0.010 A 
ATOM     95  C   UNL A   1      46.092  31.861  28.762  1.00  0.00     0.010 A 
ATOM     96  C   UNL A   1      44.210  32.735  26.891  1.00  0.00     0.020 A 
ATOM     97  C   UNL A   1      46.448  32.824  27.817  1.00  0.00     0.020 A 
ATOM     98  C   UNL A   1      45.509  33.252  26.879  1.00  0.00     0.054 A 
BRANCH  98  99
ATOM     99  S   UNL A   1      45.959  34.521  25.662  1.00  0.00     0.124 S 
ATOM    100  O   UNL A   1      45.129  34.169  24.513  1.00  0.00    -0.237 OA
ATOM    101  O   UNL A   1      45.601  35.765  26.340  1.00  0.00    -0.237 OA
ATOM    102  O   UNL A   1      47.396  34.325  25.469  1.00  0.00    -0.744 OA
ENDBRANCH  98  99
ENDBRANCH  72  93
ENDBRANCH  46  47
ENDBRANCH  38  41
ENDBRANCH  36  37
ENDBRANCH  35  36
ENDBRANCH  34  35
ENDBRANCH   1  34
TORSDOF 21
ENDMDL
MODEL 2
REMARK VINA RESULT:     -11.8      3.514      6.202
REMARK SMILES CS(=O)(=O)c1ccc(-n2nc(C(F)(F)F)cc2-c2ccc(CC(=O)NCCCCCCNC(=O)c3ccc(-c4c5nc(c(-c6ccc(S(=O)(=O)[O-])cc6)c6ccc([nH]6)c(-c6ccc(S(=O)(=O)[O-])cc6)c6nc(c(-c7ccc(S(=O)(=O)[O-])cc7)c7ccc4[nH]7)C=C6)C=C5)cc3)cc2)cc1
REMARK SMILES IDX 28 1 27 2 26 3 25 4 23 5 24 6 22 8 21 9 18 10 19 11 96 12
REMARK SMILES IDX 20 13 95 14 17 15 9 16 10 17 11 18 16 19 8 20 5 21 6 22
REMARK SMILES IDX 98 23 7 24 97 25 2 26 1 27 3 28 4 29 12 30 13 31 14 32 15 33
REMARK SMILES IDX 29 34 30 35 31 36 32 37 33 38 34 40 35 41 36 42 94 43 37 44
REMARK SMILES IDX 93 45 38 46 39 47 40 48 87 49 41 50 92 51 86 52 88 53 42 54
REMARK SMILES IDX 91 55 85 56 84 57 43 59 73 60 54 61 72 62 55 63 58 64 71 65
REMARK SMILES IDX 89 66 56 67 57 68 70 70 90 71 59 72 44 73 45 74 53 75 46 76
REMARK SMILES IDX 52 77 47 78 48 79 49 80 50 81 51 82 74 83 75 84 83 85 76 86
REMARK SMILES IDX 82 87 77 88 78 89 79 90 80 91 81 92 60 93 61 94 69 95 62 96
REMARK SMILES IDX 68 97 63 98 64 99 65 100 66 101 67 102
REMARK H PARENT 25 7 32 39 88 58 58 69
REMARK Flexibility Score: inf
ROOT
ATOM      1  C   UNL A   1      36.025  33.089  30.429  1.00  0.00     0.002 C 
ENDROOT
BRANCH   1   2
ATOM      2  C   UNL A   1      35.765  33.815  29.102  1.00  0.00     0.021 C 
BRANCH   2   3
ATOM      3  C   UNL A   1      35.652  32.885  27.894  1.00  0.00     0.116 C 
BRANCH   3   4
ATOM      4  N   UNL A   1      36.060  31.533  28.225  1.00  0.00    -0.356 N 
ATOM      5  C   UNL A   1      35.346  30.372  28.161  1.00  0.00     0.224 C 
ATOM      6  O   UNL A   1      35.887  29.334  28.550  1.00  0.00    -0.275 OA
ATOM      7  H   UNL A   1      36.988  31.440  28.542  1.00  0.00     0.163 HD
BRANCH   5   8
ATOM      8  C   UNL A   1      33.956  30.355  27.550  1.00  0.00     0.135 C 
BRANCH   8   9
ATOM      9  C   UNL A   1      33.547  29.031  26.957  1.00  0.00    -0.039 A 
ATOM     10  C   UNL A   1      32.734  26.639  25.742  1.00  0.00     0.000 A 
ATOM     11  C   UNL A   1      31.988  27.183  26.790  1.00  0.00     0.010 A 
ATOM     12  C   UNL A   1      33.919  27.262  25.342  1.00  0.00     0.010 A 
ATOM     13  C   UNL A   1      32.387  28.378  27.389  1.00  0.00     0.005 A 
ATOM     14  C   UNL A   1      34.331  28.440  25.956  1.00  0.00     0.005 A 
BRANCH  10  15
ATOM     15  C   UNL A   1      32.284  25.467  25.010  1.00  0.00     0.075 A 
ATOM     16  N   UNL A   1      31.294  25.466  24.044  1.00  0.00    -0.233 N 
ATOM     17  N   UNL A   1      31.340  24.351  23.284  1.00  0.00    -0.163 NA
ATOM     18  C   UNL A   1      32.073  23.479  24.007  1.00  0.00     0.167 A 
ATOM     19  C   UNL A   1      32.725  24.160  25.068  1.00  0.00     0.064 A 
BRANCH  16  20
ATOM     20  C   UNL A   1      30.497  26.560  23.637  1.00  0.00     0.065 A 
ATOM     21  C   UNL A   1      28.970  28.749  22.866  1.00  0.00     0.067 A 
ATOM     22  C   UNL A   1      28.356  27.659  23.495  1.00  0.00     0.022 A 
ATOM     23  C   UNL A   1      30.345  28.745  22.617  1.00  0.00     0.022 A 
ATOM     24  C   UNL A   1      29.125  26.560  23.894  1.00  0.00     0.030 A 
ATOM     25  C   UNL A   1      31.103  27.632  22.972  1.00  0.00     0.030 A 
BRANCH  21  26
ATOM     26  S   UNL A   1      28.054  30.174  22.331  1.00  0.00     0.175 S 
ATOM     27  C   UNL A   1      29.035  31.596  22.706  1.00  0.00     0.163 C 
ATOM     28  O   UNL A   1      26.869  30.235  23.173  1.00  0.00    -0.224 OA
ATOM     29  O   UNL A   1      27.948  30.097  20.892  1.00  0.00    -0.224 OA
ENDBRANCH  21  26
ENDBRANCH  16  20
BRANCH  18  30
ATOM     30  C   UNL A   1      32.279  22.032  23.627  1.00  0.00     0.435 C 
ATOM     31  F   UNL A   1      31.962  21.140  24.592  1.00  0.00    -0.164 F 
ATOM     32  F   UNL A   1      31.528  21.707  22.534  1.00  0.00    -0.164 F 
ATOM     33  F   UNL A   1      33.573  21.793  23.260  1.00  0.00    -0.164 F 
ENDBRANCH  18  30
ENDBRANCH  10  15
ENDBRANCH   8   9
ENDBRANCH   5   8
ENDBRANCH   3   4
ENDBRANCH   2   3
ENDBRANCH   1   2
BRANCH   1  34
ATOM     34  C   UNL A   1      34.790  32.826  31.306  1.00  0.00     0.002 C 
BRANCH  34  35
ATOM     35  C   UNL A   1      34.171  34.049  31.999  1.00  0.00     0.021 C 
BRANCH  35  36
ATOM     36  C   UNL A   1      35.196  35.011  32.579  1.00  0.00     0.116 C 
BRANCH  36  37
ATOM     37  N   UNL A   1      35.372  34.844  34.023  1.00  0.00    -0.352 N 
ATOM     38  C   UNL A   1      36.141  33.909  34.698  1.00  0.00     0.251 C 
ATOM     39  H   UNL A   1      34.878  35.479  34.590  1.00  0.00     0.163 HD
ATOM     40  O   UNL A   1      35.911  33.639  35.865  1.00  0.00    -0.269 OA
BRANCH  38  41
ATOM     41  C   UNL A   1      37.257  33.264  33.979  1.00  0.00     0.039 A 
ATOM     42  C   UNL A   1      38.318  33.994  33.434  1.00  0.00     0.014 A 
ATOM     43  C   UNL A   1      37.223  31.879  33.865  1.00  0.00     0.014 A 
ATOM     44  C   UNL A   1      39.371  33.301  32.834  1.00  0.00     0.010 A 
ATOM     45  C   UNL A   1      38.338  31.199  33.466  1.00  0.00     0.010 A 
ATOM     46  C   UNL A   1      39.374  31.898  32.864  1.00  0.00    -0.014 A 
BRANCH  46  47
ATOM     47  C   UNL A   1      40.483  31.103  32.356  1.00  0.00     0.031 A 
ATOM     48  C   UNL A   1      41.467  30.690  33.390  1.00  0.00     0.074 A 
ATOM     49  C   UNL A   1      40.464  30.556  31.117  1.00  0.00     0.049 A 
ATOM     50  N   UNL A   1      42.684  31.101  33.524  1.00  0.00    -0.248 NA
ATOM     51  C   UNL A   1      41.001  29.846  34.503  1.00  0.00     0.031 C 
ATOM     52  C   UNL A   1      39.398  30.614  30.108  1.00  0.00     0.029 A 
ATOM     53  N   UNL A   1      41.355  29.707  30.544  1.00  0.00    -0.354 N 
ATOM     54  C   UNL A   1      43.213  30.385  34.594  1.00  0.00     0.074 A 
ATOM     55  C   UNL A   1      42.087  29.802  35.278  1.00  0.00     0.031 C 
ATOM     56  C   UNL A   1      39.595  29.646  29.182  1.00  0.00     0.029 A 
ATOM     57  C   UNL A   1      40.880  29.012  29.431  1.00  0.00     0.049 A 
ATOM     58  H   UNL A   1      42.269  29.590  30.888  1.00  0.00     0.167 HD
ATOM     59  C   UNL A   1      44.547  30.115  34.681  1.00  0.00     0.031 A 
ATOM     60  C   UNL A   1      41.493  27.975  28.794  1.00  0.00     0.031 A 
ATOM     61  C   UNL A   1      45.301  30.874  33.714  1.00  0.00     0.049 A 
ATOM     62  C   UNL A   1      42.923  28.036  29.187  1.00  0.00     0.074 A 
ATOM     63  C   UNL A   1      45.467  32.220  33.456  1.00  0.00     0.029 A 
ATOM     64  N   UNL A   1      45.678  30.217  32.563  1.00  0.00    -0.354 N 
ATOM     65  N   UNL A   1      43.715  29.009  28.831  1.00  0.00    -0.248 NA
ATOM     66  C   UNL A   1      43.339  27.297  30.371  1.00  0.00     0.031 C 
ATOM     67  C   UNL A   1      45.442  32.321  32.033  1.00  0.00     0.029 A 
ATOM     68  C   UNL A   1      45.356  31.030  31.506  1.00  0.00     0.049 A 
ATOM     69  H   UNL A   1      46.098  29.328  32.509  1.00  0.00     0.167 HD
ATOM     70  C   UNL A   1      44.468  29.288  29.963  1.00  0.00     0.074 A 
ATOM     71  C   UNL A   1      44.261  28.140  30.847  1.00  0.00     0.031 C 
ATOM     72  C   UNL A   1      44.948  30.545  30.204  1.00  0.00     0.031 A 
BRANCH  59  73
ATOM     73  C   UNL A   1      45.126  28.887  35.339  1.00  0.00    -0.014 A 
ATOM     74  C   UNL A   1      45.032  27.651  34.665  1.00  0.00     0.010 A 
ATOM     75  C   UNL A   1      45.510  28.845  36.695  1.00  0.00     0.010 A 
ATOM     76  C   UNL A   1      45.231  26.437  35.335  1.00  0.00     0.020 A 
ATOM     77  C   UNL A   1      45.756  27.643  37.361  1.00  0.00     0.020 A 
ATOM     78  C   UNL A   1      45.577  26.444  36.686  1.00  0.00     0.054 A 
BRANCH  78  79
ATOM     79  S   UNL A   1      45.727  24.872  37.569  1.00  0.00     0.124 S 
ATOM     80  O   UNL A   1      46.709  25.198  38.598  1.00  0.00    -0.237 OA
ATOM     81  O   UNL A   1      44.362  24.654  38.041  1.00  0.00    -0.237 OA
ATOM     82  O   UNL A   1      46.181  23.943  36.538  1.00  0.00    -0.744 OA
ENDBRANCH  78  79
ENDBRANCH  59  73
BRANCH  60  83
ATOM     83  C   UNL A   1      40.906  26.806  28.076  1.00  0.00    -0.014 A 
ATOM     84  C   UNL A   1      41.416  26.345  26.841  1.00  0.00     0.010 A 
ATOM     85  C   UNL A   1      40.018  25.952  28.742  1.00  0.00     0.010 A 
ATOM     86  C   UNL A   1      41.124  25.049  26.347  1.00  0.00     0.020 A 
ATOM     87  C   UNL A   1      39.714  24.679  28.244  1.00  0.00     0.020 A 
ATOM     88  C   UNL A   1      40.289  24.209  27.074  1.00  0.00     0.054 A 
BRANCH  88  89
ATOM     89  S   UNL A   1      40.063  22.447  26.672  1.00  0.00     0.124 S 
ATOM     90  O   UNL A   1      38.686  22.415  26.187  1.00  0.00    -0.237 OA
ATOM     91  O   UNL A   1      41.090  22.184  25.670  1.00  0.00    -0.237 OA
ATOM     92  O   UNL A   1      40.275  21.775  27.957  1.00  0.00    -0.744 OA
ENDBRANCH  88  89
ENDBRANCH  60  83
BRANCH  72  93
ATOM     93  C   UNL A   1      44.844  31.588  29.111  1.00  0.00    -0.014 A 
ATOM     94  C   UNL A   1      43.755  32.473  28.969  1.00  0.00     0.010 A 
ATOM     95  C   UNL A   1      45.978  31.794  28.307  1.00  0.00     0.010 A 
ATOM     96  C   UNL A   1      43.797  33.519  28.033  1.00  0.00     0.020 A 
ATOM     97  C   UNL A   1      46.033  32.842  27.387  1.00  0.00     0.020 A 
ATOM     98  C   UNL A   1      44.939  33.696  27.246  1.00  0.00     0.054 A 
BRANCH  98  99
ATOM     99  S   UNL A   1      45.015  35.075  26.068  1.00  0.00     0.124 S 
ATOM    100  O   UNL A   1      43.606  35.310  25.764  1.00  0.00    -0.237 OA
ATOM    101  O   UNL A   1      45.676  36.126  26.837  1.00  0.00    -0.237 OA
ATOM    102  O   UNL A   1      45.806  34.542  24.959  1.00  0.00    -0.744 OA
ENDBRANCH  98  99
ENDBRANCH  72  93
ENDBRANCH  46  47
ENDBRANCH  38  41
ENDBRANCH  36  37
ENDBRANCH  35  36
ENDBRANCH  34  35
ENDBRANCH   1  34
TORSDOF 21
ENDMDL
MODEL 3
REMARK VINA RESULT:     -11.2      3.014      8.047
REMARK SMILES CS(=O)(=O)c1ccc(-n2nc(C(F)(F)F)cc2-c2ccc(CC(=O)NCCCCCCNC(=O)c3ccc(-c4c5nc(c(-c6ccc(S(=O)(=O)[O-])cc6)c6ccc([nH]6)c(-c6ccc(S(=O)(=O)[O-])cc6)c6nc(c(-c7ccc(S(=O)(=O)[O-])cc7)c7ccc4[nH]7)C=C6)C=C5)cc3)cc2)cc1
REMARK SMILES IDX 28 1 27 2 26 3 25 4 23 5 24 6 22 8 21 9 18 10 19 11 96 12
REMARK SMILES IDX 20 13 95 14 17 15 9 16 10 17 11 18 16 19 8 20 5 21 6 22
REMARK SMILES IDX 98 23 7 24 97 25 2 26 1 27 3 28 4 29 12 30 13 31 14 32 15 33
REMARK SMILES IDX 29 34 30 35 31 36 32 37 33 38 34 40 35 41 36 42 94 43 37 44
REMARK SMILES IDX 93 45 38 46 39 47 40 48 87 49 41 50 92 51 86 52 88 53 42 54
REMARK SMILES IDX 91 55 85 56 84 57 43 59 73 60 54 61 72 62 55 63 58 64 71 65
REMARK SMILES IDX 89 66 56 67 57 68 70 70 90 71 59 72 44 73 45 74 53 75 46 76
REMARK SMILES IDX 52 77 47 78 48 79 49 80 50 81 51 82 74 83 75 84 83 85 76 86
REMARK SMILES IDX 82 87 77 88 78 89 79 90 80 91 81 92 60 93 61 94 69 95 62 96
REMARK SMILES IDX 68 97 63 98 64 99 65 100 66 101 67 102
REMARK H PARENT 25 7 32 39 88 58 58 69
REMARK Flexibility Score: inf
ROOT
ATOM      1  C   UNL A   1      33.266  29.069  25.054  1.00  0.00     0.002 C 
ENDROOT
BRANCH   1   2
ATOM      2  C   UNL A   1      31.759  28.907  25.298  1.00  0.00     0.021 C 
BRANCH   2   3
ATOM      3  C   UNL A   1      30.973  28.462  24.065  1.00  0.00     0.116 C 
BRANCH   3   4
ATOM      4  N   UNL A   1      30.491  27.101  24.205  1.00  0.00    -0.356 N 
ATOM      5  C   UNL A   1      30.982  25.947  23.666  1.00  0.00     0.224 C 
ATOM      6  O   UNL A   1      30.369  24.898  23.880  1.00  0.00    -0.275 OA
ATOM      7  H   UNL A   1      29.692  26.995  24.771  1.00  0.00     0.163 HD
BRANCH   5   8
ATOM      8  C   UNL A   1      32.292  25.953  22.899  1.00  0.00     0.135 C 
BRANCH   8   9
ATOM      9  C   UNL A   1      33.404  25.169  23.548  1.00  0.00    -0.039 A 
ATOM     10  C   UNL A   1      35.555  23.828  24.747  1.00  0.00     0.000 A 
ATOM     11  C   UNL A   1      35.234  23.587  23.409  1.00  0.00     0.010 A 
ATOM     12  C   UNL A   1      34.761  24.697  25.500  1.00  0.00     0.010 A 
ATOM     13  C   UNL A   1      34.169  24.260  22.809  1.00  0.00     0.005 A 
ATOM     14  C   UNL A   1      33.684  25.350  24.910  1.00  0.00     0.005 A 
BRANCH  10  15
ATOM     15  C   UNL A   1      36.729  23.243  25.369  1.00  0.00     0.075 A 
ATOM     16  N   UNL A   1      36.926  21.890  25.580  1.00  0.00    -0.233 N 
ATOM     17  N   UNL A   1      38.225  21.606  25.822  1.00  0.00    -0.163 NA
ATOM     18  C   UNL A   1      38.771  22.792  26.166  1.00  0.00     0.167 A 
ATOM     19  C   UNL A   1      37.878  23.847  25.843  1.00  0.00     0.064 A 
BRANCH  16  20
ATOM     20  C   UNL A   1      36.020  20.842  25.302  1.00  0.00     0.065 A 
ATOM     21  C   UNL A   1      34.261  18.778  24.698  1.00  0.00     0.067 A 
ATOM     22  C   UNL A   1      33.769  19.983  25.211  1.00  0.00     0.022 A 
ATOM     23  C   UNL A   1      35.631  18.600  24.490  1.00  0.00     0.022 A 
ATOM     24  C   UNL A   1      34.651  21.028  25.506  1.00  0.00     0.030 A 
ATOM     25  C   UNL A   1      36.515  19.623  24.826  1.00  0.00     0.030 A 
BRANCH  21  26
ATOM     26  S   UNL A   1      33.198  17.410  24.305  1.00  0.00     0.175 S 
ATOM     27  C   UNL A   1      33.791  16.011  25.209  1.00  0.00     0.163 C 
ATOM     28  O   UNL A   1      33.404  17.127  22.893  1.00  0.00    -0.224 OA
ATOM     29  O   UNL A   1      31.886  17.727  24.823  1.00  0.00    -0.224 OA
ENDBRANCH  21  26
ENDBRANCH  16  20
BRANCH  18  30
ATOM     30  C   UNL A   1      40.185  22.954  26.669  1.00  0.00     0.435 C 
ATOM     31  F   UNL A   1      40.678  24.209  26.583  1.00  0.00    -0.164 F 
ATOM     32  F   UNL A   1      40.277  22.589  27.981  1.00  0.00    -0.164 F 
ATOM     33  F   UNL A   1      41.048  22.131  26.003  1.00  0.00    -0.164 F 
ENDBRANCH  18  30
ENDBRANCH  10  15
ENDBRANCH   8   9
ENDBRANCH   5   8
ENDBRANCH   3   4
ENDBRANCH   2   3
ENDBRANCH   1   2
BRANCH   1  34
ATOM     34  C   UNL A   1      34.181  28.730  26.242  1.00  0.00     0.002 C 
BRANCH  34  35
ATOM     35  C   UNL A   1      34.576  29.901  27.155  1.00  0.00     0.021 C 
BRANCH  35  36
ATOM     36  C   UNL A   1      35.742  29.593  28.081  1.00  0.00     0.116 C 
BRANCH  36  37
ATOM     37  N   UNL A   1      35.528  30.089  29.442  1.00  0.00    -0.352 N 
ATOM     38  C   UNL A   1      36.366  29.986  30.541  1.00  0.00     0.251 C 
ATOM     39  H   UNL A   1      34.676  30.557  29.596  1.00  0.00     0.163 HD
ATOM     40  O   UNL A   1      35.925  30.097  31.673  1.00  0.00    -0.269 OA
BRANCH  38  41
ATOM     41  C   UNL A   1      37.806  29.760  30.310  1.00  0.00     0.039 A 
ATOM     42  C   UNL A   1      38.671  30.784  29.914  1.00  0.00     0.014 A 
ATOM     43  C   UNL A   1      38.286  28.471  30.511  1.00  0.00     0.014 A 
ATOM     44  C   UNL A   1      40.033  30.502  29.788  1.00  0.00     0.010 A 
ATOM     45  C   UNL A   1      39.631  28.247  30.587  1.00  0.00     0.010 A 
ATOM     46  C   UNL A   1      40.504  29.228  30.138  1.00  0.00    -0.014 A 
BRANCH  46  47
ATOM     47  C   UNL A   1      41.919  28.885  30.137  1.00  0.00     0.031 A 
ATOM     48  C   UNL A   1      42.386  28.202  28.903  1.00  0.00     0.074 A 
ATOM     49  C   UNL A   1      42.779  29.395  31.050  1.00  0.00     0.049 A 
ATOM     50  N   UNL A   1      42.764  26.974  28.780  1.00  0.00    -0.248 NA
ATOM     51  C   UNL A   1      42.268  28.916  27.620  1.00  0.00     0.031 C 
ATOM     52  C   UNL A   1      42.505  30.350  32.132  1.00  0.00     0.029 A 
ATOM     53  N   UNL A   1      44.129  29.268  31.117  1.00  0.00    -0.354 N 
ATOM     54  C   UNL A   1      43.161  26.826  27.455  1.00  0.00     0.074 A 
ATOM     55  C   UNL A   1      42.637  27.971  26.754  1.00  0.00     0.031 C 
ATOM     56  C   UNL A   1      43.666  30.894  32.566  1.00  0.00     0.029 A 
ATOM     57  C   UNL A   1      44.775  30.211  31.918  1.00  0.00     0.049 A 
ATOM     58  H   UNL A   1      44.617  28.562  30.636  1.00  0.00     0.167 HD
ATOM     59  C   UNL A   1      44.105  25.913  27.091  1.00  0.00     0.031 A 
ATOM     60  C   UNL A   1      46.118  30.425  32.006  1.00  0.00     0.031 A 
ATOM     61  C   UNL A   1      44.396  25.000  28.169  1.00  0.00     0.049 A 
ATOM     62  C   UNL A   1      46.766  29.196  31.481  1.00  0.00     0.074 A 
ATOM     63  C   UNL A   1      43.648  24.109  28.913  1.00  0.00     0.029 A 
ATOM     64  N   UNL A   1      45.534  25.248  28.906  1.00  0.00    -0.354 N 
ATOM     65  N   UNL A   1      46.689  28.042  32.083  1.00  0.00    -0.248 NA
ATOM     66  C   UNL A   1      47.068  29.137  30.058  1.00  0.00     0.031 C 
ATOM     67  C   UNL A   1      44.120  24.268  30.249  1.00  0.00     0.029 A 
ATOM     68  C   UNL A   1      45.186  25.172  30.231  1.00  0.00     0.049 A 
ATOM     69  H   UNL A   1      46.430  25.445  28.548  1.00  0.00     0.167 HD
ATOM     70  C   UNL A   1      46.494  27.121  31.064  1.00  0.00     0.074 A 
ATOM     71  C   UNL A   1      46.832  27.839  29.835  1.00  0.00     0.031 C 
ATOM     72  C   UNL A   1      45.798  25.964  31.277  1.00  0.00     0.031 A 
BRANCH  59  73
ATOM     73  C   UNL A   1      45.054  26.085  25.931  1.00  0.00    -0.014 A 
ATOM     74  C   UNL A   1      45.918  25.018  25.601  1.00  0.00     0.010 A 
ATOM     75  C   UNL A   1      45.324  27.332  25.331  1.00  0.00     0.010 A 
ATOM     76  C   UNL A   1      47.036  25.213  24.781  1.00  0.00     0.020 A 
ATOM     77  C   UNL A   1      46.409  27.525  24.474  1.00  0.00     0.020 A 
ATOM     78  C   UNL A   1      47.281  26.472  24.235  1.00  0.00     0.054 A 
BRANCH  78  79
ATOM     79  S   UNL A   1      48.785  26.740  23.266  1.00  0.00     0.124 S 
ATOM     80  O   UNL A   1      48.718  28.173  22.997  1.00  0.00    -0.237 OA
ATOM     81  O   UNL A   1      49.829  26.316  24.194  1.00  0.00    -0.237 OA
ATOM     82  O   UNL A   1      48.601  25.873  22.105  1.00  0.00    -0.744 OA
ENDBRANCH  78  79
ENDBRANCH  59  73
BRANCH  60  83
ATOM     83  C   UNL A   1      46.876  31.681  32.275  1.00  0.00    -0.014 A 
ATOM     84  C   UNL A   1      46.619  32.883  31.576  1.00  0.00     0.010 A 
ATOM     85  C   UNL A   1      47.666  31.787  33.427  1.00  0.00     0.010 A 
ATOM     86  C   UNL A   1      47.052  34.140  32.064  1.00  0.00     0.020 A 
ATOM     87  C   UNL A   1      48.111  33.028  33.897  1.00  0.00     0.020 A 
ATOM     88  C   UNL A   1      47.778  34.205  33.247  1.00  0.00     0.054 A 
BRANCH  88  89
ATOM     89  S   UNL A   1      48.152  35.773  34.095  1.00  0.00     0.124 S 
ATOM     90  O   UNL A   1      46.824  36.348  34.282  1.00  0.00    -0.237 OA
ATOM     91  O   UNL A   1      48.835  35.355  35.315  1.00  0.00    -0.237 OA
ATOM     92  O   UNL A   1      48.998  36.486  33.134  1.00  0.00    -0.744 OA
ENDBRANCH  88  89
ENDBRANCH  60  83
BRANCH  72  93
ATOM     93  C   UNL A   1      45.430  25.584  32.697  1.00  0.00    -0.014 A 
ATOM     94  C   UNL A   1      46.230  24.770  33.525  1.00  0.00     0.010 A 
ATOM     95  C   UNL A   1      44.317  26.225  33.267  1.00  0.00     0.010 A 
ATOM     96  C   UNL A   1      45.908  24.590  34.881  1.00  0.00     0.020 A 
ATOM     97  C   UNL A   1      44.002  26.065  34.617  1.00  0.00     0.020 A 
ATOM     98  C   UNL A   1      44.793  25.241  35.418  1.00  0.00     0.054 A 
BRANCH  98  99
ATOM     99  S   UNL A   1      44.400  25.047  37.180  1.00  0.00     0.124 S 
ATOM    100  O   UNL A   1      45.124  23.829  37.534  1.00  0.00    -0.237 OA
ATOM    101  O   UNL A   1      44.919  26.280  37.767  1.00  0.00    -0.237 OA
ATOM    102  O   UNL A   1      42.943  24.929  37.201  1.00  0.00    -0.744 OA
ENDBRANCH  98  99
ENDBRANCH  72  93
ENDBRANCH  46  47
ENDBRANCH  38  41
ENDBRANCH  36  37
ENDBRANCH  35  36
ENDBRANCH  34  35
ENDBRANCH   1  34
TORSDOF 21
ENDMDL
