MODEL 1
REMARK VINA RESULT:     -10.8      0.000      0.000
REMARK SMILES Cc1cc2c(c(C)c1Br)C=C(C(=O)NCCCCCCNC(=O)c1ccc(-c3c4nc(c(-c5ccc(S(=O)(=O)[O-])cc5)c5ccc([nH]5)c(-c5ccc(S(=O)(=O)[O-])cc5)c5nc(c(-c6ccc(S(=O)(=O)[O-])cc6)c6ccc3[nH]6)C=C5)C=C4)cc1)[C@@H](C(F)(F)F)O2
REMARK SMILES IDX 18 1 17 2 16 3 15 4 14 5 12 6 13 7 11 9 1 10 2 11 3 12 8 13
REMARK SMILES IDX 4 14 6 15 9 16 5 17 89 18 7 19 10 20 84 21 85 22 86 23 87 24
REMARK SMILES IDX 88 25 19 26 20 27 21 28 22 29 23 31 24 32 25 33 83 34 26 35
REMARK SMILES IDX 82 36 27 37 28 38 29 39 76 40 30 41 81 42 75 43 77 44 31 45
REMARK SMILES IDX 80 46 74 47 73 48 32 50 62 51 43 52 61 53 44 54 47 55 60 56
REMARK SMILES IDX 78 57 45 58 46 59 59 61 79 62 48 63 33 64 34 65 42 66 35 67
REMARK SMILES IDX 41 68 36 69 37 70 38 71 39 72 40 73 63 74 64 75 72 76 65 77
REMARK SMILES IDX 71 78 66 79 67 80 68 81 69 82 70 83 49 84 50 85 58 86 51 87
REMARK SMILES IDX 57 88 52 89 53 90 54 91 55 92 56 93
REMARK H PARENT 14 8 21 30 77 49 47 60
REMARK Flexibility Score: inf
ROOT
ATOM      1  C   UNL A   1      35.126  21.753  25.485  1.00  0.00     0.002 C 
ENDROOT
BRANCH   1   2
ATOM      2  C   UNL A   1      33.710  21.322  25.081  1.00  0.00     0.002 C 
BRANCH   2   3
ATOM      3  C   UNL A   1      32.584  22.200  25.631  1.00  0.00     0.021 C 
BRANCH   3   4
ATOM      4  C   UNL A   1      31.786  22.920  24.548  1.00  0.00     0.116 C 
BRANCH   4   5
ATOM      5  N   UNL A   1      32.652  23.470  23.521  1.00  0.00    -0.352 N 
ATOM      6  C   UNL A   1      32.975  24.696  23.050  1.00  0.00     0.251 C 
ATOM      7  O   UNL A   1      33.811  24.707  22.140  1.00  0.00    -0.270 OA
ATOM      8  H   UNL A   1      33.133  22.760  23.036  1.00  0.00     0.163 HD
BRANCH   6   9
ATOM      9  C   UNL A   1      32.404  25.987  23.542  1.00  0.00     0.067 C 
ATOM     10  C   UNL A   1      31.195  31.837  26.133  1.00  0.00     0.046 C 
ATOM     11  C   UNL A   1      31.751  30.487  25.769  1.00  0.00    -0.033 A 
ATOM     12  C   UNL A   1      31.085  29.754  24.784  1.00  0.00     0.051 A 
ATOM     13  C   UNL A   1      32.904  29.934  26.364  1.00  0.00     0.024 A 
ATOM     14  C   UNL A   1      31.554  28.507  24.389  1.00  0.00     0.128 A 
ATOM     15  C   UNL A   1      33.395  28.662  25.969  1.00  0.00    -0.026 A 
ATOM     16  Br  UNL A   1      33.802  30.957  27.711  1.00  0.00    -0.050 Br
ATOM     17  C   UNL A   1      32.708  27.955  24.950  1.00  0.00     0.021 A 
ATOM     18  O   UNL A   1      30.831  27.917  23.398  1.00  0.00    -0.475 OA
ATOM     19  C   UNL A   1      34.628  28.041  26.584  1.00  0.00     0.046 C 
ATOM     20  C   UNL A   1      33.177  26.678  24.401  1.00  0.00     0.026 C 
ATOM     21  C   UNL A   1      31.052  26.507  23.158  1.00  0.00     0.314 C 
BRANCH  21  22
ATOM     22  C   UNL A   1      29.903  25.700  23.787  1.00  0.00     0.429 C 
ATOM     23  F   UNL A   1      28.736  26.384  23.693  1.00  0.00    -0.167 F 
ATOM     24  F   UNL A   1      29.700  24.512  23.170  1.00  0.00    -0.167 F 
ATOM     25  F   UNL A   1      30.116  25.432  25.095  1.00  0.00    -0.167 F 
ENDBRANCH  21  22
ENDBRANCH   6   9
ENDBRANCH   4   5
ENDBRANCH   3   4
ENDBRANCH   2   3
ENDBRANCH   1   2
BRANCH   1  26
ATOM     26  C   UNL A   1      35.237  23.163  26.072  1.00  0.00     0.021 C 
BRANCH  26  27
ATOM     27  C   UNL A   1      36.593  23.827  25.859  1.00  0.00     0.116 C 
BRANCH  27  28
ATOM     28  N   UNL A   1      37.676  22.859  25.897  1.00  0.00    -0.352 N 
ATOM     29  C   UNL A   1      38.988  23.046  26.246  1.00  0.00     0.251 C 
ATOM     30  H   UNL A   1      37.435  21.942  25.634  1.00  0.00     0.163 HD
ATOM     31  O   UNL A   1      39.822  22.179  25.998  1.00  0.00    -0.269 OA
BRANCH  29  32
ATOM     32  C   UNL A   1      39.391  24.300  26.914  1.00  0.00     0.039 A 
ATOM     33  C   UNL A   1      39.046  24.498  28.251  1.00  0.00     0.014 A 
ATOM     34  C   UNL A   1      40.104  25.279  26.213  1.00  0.00     0.014 A 
ATOM     35  C   UNL A   1      39.453  25.663  28.902  1.00  0.00     0.010 A 
ATOM     36  C   UNL A   1      40.572  26.404  26.882  1.00  0.00     0.010 A 
ATOM     37  C   UNL A   1      40.238  26.614  28.228  1.00  0.00    -0.014 A 
BRANCH  37  38
ATOM     38  C   UNL A   1      40.683  27.854  28.909  1.00  0.00     0.031 A 
ATOM     39  C   UNL A   1      42.093  27.958  29.425  1.00  0.00     0.074 A 
ATOM     40  C   UNL A   1      39.818  28.871  29.082  1.00  0.00     0.049 A 
ATOM     41  N   UNL A   1      42.666  28.948  30.058  1.00  0.00    -0.248 NA
ATOM     42  C   UNL A   1      42.968  26.791  29.219  1.00  0.00     0.031 C 
ATOM     43  C   UNL A   1      38.420  28.878  28.645  1.00  0.00     0.029 A 
ATOM     44  N   UNL A   1      39.988  30.102  29.666  1.00  0.00    -0.354 N 
ATOM     45  C   UNL A   1      43.962  28.524  30.325  1.00  0.00     0.074 A 
ATOM     46  C   UNL A   1      44.074  27.166  29.844  1.00  0.00     0.031 C 
ATOM     47  C   UNL A   1      37.874  30.070  28.938  1.00  0.00     0.029 A 
ATOM     48  C   UNL A   1      38.866  30.896  29.620  1.00  0.00     0.049 A 
ATOM     49  H   UNL A   1      40.835  30.390  30.080  1.00  0.00     0.167 HD
ATOM     50  C   UNL A   1      44.979  29.214  30.893  1.00  0.00     0.031 A 
ATOM     51  C   UNL A   1      38.660  32.147  30.074  1.00  0.00     0.031 A 
ATOM     52  C   UNL A   1      44.866  30.568  31.364  1.00  0.00     0.049 A 
ATOM     53  C   UNL A   1      39.793  32.876  30.746  1.00  0.00     0.074 A 
ATOM     54  C   UNL A   1      45.848  31.367  31.921  1.00  0.00     0.029 A 
ATOM     55  N   UNL A   1      43.704  31.323  31.331  1.00  0.00    -0.354 N 
ATOM     56  N   UNL A   1      41.026  32.476  30.944  1.00  0.00    -0.248 NA
ATOM     57  C   UNL A   1      39.506  34.225  31.254  1.00  0.00     0.031 C 
ATOM     58  C   UNL A   1      45.265  32.586  32.278  1.00  0.00     0.029 A 
ATOM     59  C   UNL A   1      43.935  32.569  31.886  1.00  0.00     0.049 A 
ATOM     60  H   UNL A   1      42.842  31.016  30.965  1.00  0.00     0.167 HD
ATOM     61  C   UNL A   1      41.668  33.530  31.583  1.00  0.00     0.074 A 
ATOM     62  C   UNL A   1      40.692  34.592  31.721  1.00  0.00     0.031 C 
ATOM     63  C   UNL A   1      42.948  33.610  32.022  1.00  0.00     0.031 A 
BRANCH  50  64
ATOM     64  C   UNL A   1      46.306  28.516  31.029  1.00  0.00    -0.014 A 
ATOM     65  C   UNL A   1      47.293  28.643  30.034  1.00  0.00     0.010 A 
ATOM     66  C   UNL A   1      46.593  27.768  32.186  1.00  0.00     0.010 A 
ATOM     67  C   UNL A   1      48.529  28.008  30.177  1.00  0.00     0.020 A 
ATOM     68  C   UNL A   1      47.839  27.155  32.346  1.00  0.00     0.020 A 
ATOM     69  C   UNL A   1      48.795  27.269  31.333  1.00  0.00     0.054 A 
BRANCH  69  70
ATOM     70  S   UNL A   1      50.422  26.487  31.504  1.00  0.00     0.124 S 
ATOM     71  O   UNL A   1      50.229  25.229  30.786  1.00  0.00    -0.237 OA
ATOM     72  O   UNL A   1      51.307  27.451  30.856  1.00  0.00    -0.237 OA
ATOM     73  O   UNL A   1      50.596  26.357  32.949  1.00  0.00    -0.744 OA
ENDBRANCH  69  70
ENDBRANCH  50  64
BRANCH  51  74
ATOM     74  C   UNL A   1      37.333  32.796  29.889  1.00  0.00    -0.014 A 
ATOM     75  C   UNL A   1      36.295  32.571  30.810  1.00  0.00     0.010 A 
ATOM     76  C   UNL A   1      37.106  33.661  28.802  1.00  0.00     0.010 A 
ATOM     77  C   UNL A   1      35.053  33.190  30.644  1.00  0.00     0.020 A 
ATOM     78  C   UNL A   1      35.873  34.303  28.647  1.00  0.00     0.020 A 
ATOM     79  C   UNL A   1      34.851  34.057  29.566  1.00  0.00     0.054 A 
BRANCH  79  80
ATOM     80  S   UNL A   1      33.248  34.891  29.406  1.00  0.00     0.124 S 
ATOM     81  O   UNL A   1      32.523  33.989  28.517  1.00  0.00    -0.237 OA
ATOM     82  O   UNL A   1      32.777  34.931  30.788  1.00  0.00    -0.237 OA
ATOM     83  O   UNL A   1      33.593  36.190  28.835  1.00  0.00    -0.744 OA
ENDBRANCH  79  80
ENDBRANCH  51  74
BRANCH  63  84
ATOM     84  C   UNL A   1      43.377  34.887  32.692  1.00  0.00    -0.014 A 
ATOM     85  C   UNL A   1      43.798  35.993  31.933  1.00  0.00     0.010 A 
ATOM     86  C   UNL A   1      43.275  35.013  34.090  1.00  0.00     0.010 A 
ATOM     87  C   UNL A   1      44.126  37.196  32.561  1.00  0.00     0.020 A 
ATOM     88  C   UNL A   1      43.573  36.224  34.720  1.00  0.00     0.020 A 
ATOM     89  C   UNL A   1      44.005  37.307  33.951  1.00  0.00     0.054 A 
BRANCH  89  90
ATOM     90  S   UNL A   1      44.375  38.902  34.731  1.00  0.00     0.124 S 
ATOM     91  O   UNL A   1      43.444  39.797  34.048  1.00  0.00    -0.237 OA
ATOM     92  O   UNL A   1      44.079  38.643  36.138  1.00  0.00    -0.237 OA
ATOM     93  O   UNL A   1      45.786  39.120  34.425  1.00  0.00    -0.744 OA
ENDBRANCH  89  90
ENDBRANCH  63  84
ENDBRANCH  37  38
ENDBRANCH  29  32
ENDBRANCH  27  28
ENDBRANCH  26  27
ENDBRANCH   1  26
TORSDOF 17
ENDMDL
MODEL 2
REMARK VINA RESULT:     -10.6      3.885      4.984
REMARK SMILES Cc1cc2c(c(C)c1Br)C=C(C(=O)NCCCCCCNC(=O)c1ccc(-c3c4nc(c(-c5ccc(S(=O)(=O)[O-])cc5)c5ccc([nH]5)c(-c5ccc(S(=O)(=O)[O-])cc5)c5nc(c(-c6ccc(S(=O)(=O)[O-])cc6)c6ccc3[nH]6)C=C5)C=C4)cc1)[C@@H](C(F)(F)F)O2
REMARK SMILES IDX 18 1 17 2 16 3 15 4 14 5 12 6 13 7 11 9 1 10 2 11 3 12 8 13
REMARK SMILES IDX 4 14 6 15 9 16 5 17 89 18 7 19 10 20 84 21 85 22 86 23 87 24
REMARK SMILES IDX 88 25 19 26 20 27 21 28 22 29 23 31 24 32 25 33 83 34 26 35
REMARK SMILES IDX 82 36 27 37 28 38 29 39 76 40 30 41 81 42 75 43 77 44 31 45
REMARK SMILES IDX 80 46 74 47 73 48 32 50 62 51 43 52 61 53 44 54 47 55 60 56
REMARK SMILES IDX 78 57 45 58 46 59 59 61 79 62 48 63 33 64 34 65 42 66 35 67
REMARK SMILES IDX 41 68 36 69 37 70 38 71 39 72 40 73 63 74 64 75 72 76 65 77
REMARK SMILES IDX 71 78 66 79 67 80 68 81 69 82 70 83 49 84 50 85 58 86 51 87
REMARK SMILES IDX 57 88 52 89 53 90 54 91 55 92 56 93
REMARK H PARENT 14 8 21 30 77 49 47 60
REMARK Flexibility Score: inf
ROOT
ATOM      1  C   UNL A   1      39.316  22.043  26.233  1.00  0.00     0.002 C 
ENDROOT
BRANCH   1   2
ATOM      2  C   UNL A   1      38.539  23.363  26.326  1.00  0.00     0.002 C 
BRANCH   2   3
ATOM      3  C   UNL A   1      37.113  23.316  25.774  1.00  0.00     0.021 C 
BRANCH   3   4
ATOM      4  C   UNL A   1      37.004  22.614  24.424  1.00  0.00     0.116 C 
BRANCH   4   5
ATOM      5  N   UNL A   1      36.274  21.363  24.527  1.00  0.00    -0.352 N 
ATOM      6  C   UNL A   1      34.992  20.977  24.720  1.00  0.00     0.251 C 
ATOM      7  O   UNL A   1      34.804  19.755  24.716  1.00  0.00    -0.270 OA
ATOM      8  H   UNL A   1      36.873  20.588  24.432  1.00  0.00     0.163 HD
BRANCH   6   9
ATOM      9  C   UNL A   1      33.835  21.900  24.931  1.00  0.00     0.067 C 
ATOM     10  C   UNL A   1      29.071  26.324  24.570  1.00  0.00     0.046 C 
ATOM     11  C   UNL A   1      30.320  25.503  24.391  1.00  0.00    -0.033 A 
ATOM     12  C   UNL A   1      30.487  24.386  25.211  1.00  0.00     0.051 A 
ATOM     13  C   UNL A   1      31.317  25.802  23.439  1.00  0.00     0.024 A 
ATOM     14  C   UNL A   1      31.608  23.576  25.088  1.00  0.00     0.128 A 
ATOM     15  C   UNL A   1      32.468  24.982  23.302  1.00  0.00    -0.026 A 
ATOM     16  Br  UNL A   1      31.067  27.338  22.323  1.00  0.00    -0.050 Br
ATOM     17  C   UNL A   1      32.594  23.842  24.135  1.00  0.00     0.021 A 
ATOM     18  O   UNL A   1      31.629  22.503  25.925  1.00  0.00    -0.475 OA
ATOM     19  C   UNL A   1      33.555  25.272  22.292  1.00  0.00     0.046 C 
ATOM     20  C   UNL A   1      33.693  22.878  24.017  1.00  0.00     0.026 C 
ATOM     21  C   UNL A   1      32.886  21.804  26.088  1.00  0.00     0.314 C 
BRANCH  21  22
ATOM     22  C   UNL A   1      33.528  22.221  27.422  1.00  0.00     0.429 C 
ATOM     23  F   UNL A   1      34.285  23.333  27.258  1.00  0.00    -0.167 F 
ATOM     24  F   UNL A   1      32.610  22.520  28.372  1.00  0.00    -0.167 F 
ATOM     25  F   UNL A   1      34.324  21.256  27.936  1.00  0.00    -0.167 F 
ENDBRANCH  21  22
ENDBRANCH   6   9
ENDBRANCH   4   5
ENDBRANCH   3   4
ENDBRANCH   2   3
ENDBRANCH   1   2
BRANCH   1  26
ATOM     26  C   UNL A   1      40.580  21.968  27.095  1.00  0.00     0.021 C 
BRANCH  26  27
ATOM     27  C   UNL A   1      41.155  23.324  27.485  1.00  0.00     0.116 C 
BRANCH  27  28
ATOM     28  N   UNL A   1      41.513  24.111  26.318  1.00  0.00    -0.352 N 
ATOM     29  C   UNL A   1      41.475  25.471  26.149  1.00  0.00     0.251 C 
ATOM     30  H   UNL A   1      41.825  23.597  25.539  1.00  0.00     0.163 HD
ATOM     31  O   UNL A   1      41.586  25.956  25.026  1.00  0.00    -0.269 OA
BRANCH  29  32
ATOM     32  C   UNL A   1      41.292  26.345  27.325  1.00  0.00     0.039 A 
ATOM     33  C   UNL A   1      42.196  27.385  27.545  1.00  0.00     0.014 A 
ATOM     34  C   UNL A   1      40.230  26.129  28.210  1.00  0.00     0.014 A 
ATOM     35  C   UNL A   1      42.011  28.238  28.632  1.00  0.00     0.010 A 
ATOM     36  C   UNL A   1      40.005  27.024  29.250  1.00  0.00     0.010 A 
ATOM     37  C   UNL A   1      40.902  28.077  29.480  1.00  0.00    -0.014 A 
BRANCH  37  38
ATOM     38  C   UNL A   1      40.689  28.981  30.637  1.00  0.00     0.031 A 
ATOM     39  C   UNL A   1      41.565  28.855  31.855  1.00  0.00     0.074 A 
ATOM     40  C   UNL A   1      39.700  29.895  30.600  1.00  0.00     0.049 A 
ATOM     41  N   UNL A   1      41.527  29.539  32.969  1.00  0.00    -0.248 NA
ATOM     42  C   UNL A   1      42.605  27.812  31.825  1.00  0.00     0.031 C 
ATOM     43  C   UNL A   1      38.774  30.096  29.483  1.00  0.00     0.029 A 
ATOM     44  N   UNL A   1      39.313  30.833  31.525  1.00  0.00    -0.354 N 
ATOM     45  C   UNL A   1      42.533  29.011  33.768  1.00  0.00     0.074 A 
ATOM     46  C   UNL A   1      43.122  27.910  33.041  1.00  0.00     0.031 C 
ATOM     47  C   UNL A   1      37.955  31.120  29.771  1.00  0.00     0.029 A 
ATOM     48  C   UNL A   1      38.268  31.622  31.106  1.00  0.00     0.049 A 
ATOM     49  H   UNL A   1      39.743  30.930  32.405  1.00  0.00     0.167 HD
ATOM     50  C   UNL A   1      42.951  29.425  34.987  1.00  0.00     0.031 A 
ATOM     51  C   UNL A   1      37.635  32.636  31.726  1.00  0.00     0.031 A 
ATOM     52  C   UNL A   1      42.368  30.527  35.705  1.00  0.00     0.049 A 
ATOM     53  C   UNL A   1      38.086  33.046  33.103  1.00  0.00     0.074 A 
ATOM     54  C   UNL A   1      42.742  31.048  36.930  1.00  0.00     0.029 A 
ATOM     55  N   UNL A   1      41.289  31.277  35.262  1.00  0.00    -0.354 N 
ATOM     56  N   UNL A   1      39.074  32.568  33.821  1.00  0.00    -0.248 NA
ATOM     57  C   UNL A   1      37.340  34.135  33.750  1.00  0.00     0.031 C 
ATOM     58  C   UNL A   1      41.854  32.077  37.254  1.00  0.00     0.029 A 
ATOM     59  C   UNL A   1      40.964  32.237  36.203  1.00  0.00     0.049 A 
ATOM     60  H   UNL A   1      40.824  31.145  34.404  1.00  0.00     0.167 HD
ATOM     61  C   UNL A   1      39.078  33.308  34.999  1.00  0.00     0.074 A 
ATOM     62  C   UNL A   1      38.009  34.279  34.886  1.00  0.00     0.031 C 
ATOM     63  C   UNL A   1      39.891  33.190  36.077  1.00  0.00     0.031 A 
BRANCH  50  64
ATOM     64  C   UNL A   1      44.101  28.687  35.619  1.00  0.00    -0.014 A 
ATOM     65  C   UNL A   1      43.875  27.571  36.445  1.00  0.00     0.010 A 
ATOM     66  C   UNL A   1      45.424  29.078  35.343  1.00  0.00     0.010 A 
ATOM     67  C   UNL A   1      44.950  26.880  37.011  1.00  0.00     0.020 A 
ATOM     68  C   UNL A   1      46.503  28.371  35.884  1.00  0.00     0.020 A 
ATOM     69  C   UNL A   1      46.256  27.283  36.725  1.00  0.00     0.054 A 
BRANCH  69  70
ATOM     70  S   UNL A   1      47.629  26.342  37.447  1.00  0.00     0.124 S 
ATOM     71  O   UNL A   1      48.637  26.423  36.392  1.00  0.00    -0.237 OA
ATOM     72  O   UNL A   1      47.928  27.097  38.661  1.00  0.00    -0.237 OA
ATOM     73  O   UNL A   1      47.064  25.013  37.664  1.00  0.00    -0.744 OA
ENDBRANCH  69  70
ENDBRANCH  50  64
BRANCH  51  74
ATOM     74  C   UNL A   1      36.519  33.347  31.042  1.00  0.00    -0.014 A 
ATOM     75  C   UNL A   1      35.284  33.522  31.689  1.00  0.00     0.010 A 
ATOM     76  C   UNL A   1      36.693  33.871  29.747  1.00  0.00     0.010 A 
ATOM     77  C   UNL A   1      34.240  34.200  31.053  1.00  0.00     0.020 A 
ATOM     78  C   UNL A   1      35.660  34.572  29.118  1.00  0.00     0.020 A 
ATOM     79  C   UNL A   1      34.437  34.726  29.773  1.00  0.00     0.054 A 
BRANCH  79  80
ATOM     80  S   UNL A   1      33.084  35.649  28.993  1.00  0.00     0.124 S 
ATOM     81  O   UNL A   1      32.310  36.090  30.149  1.00  0.00    -0.237 OA
ATOM     82  O   UNL A   1      33.798  36.700  28.271  1.00  0.00    -0.237 OA
ATOM     83  O   UNL A   1      32.433  34.654  28.145  1.00  0.00    -0.744 OA
ENDBRANCH  79  80
ENDBRANCH  51  74
BRANCH  63  84
ATOM     84  C   UNL A   1      39.664  34.134  37.227  1.00  0.00    -0.014 A 
ATOM     85  C   UNL A   1      38.810  33.784  38.288  1.00  0.00     0.010 A 
ATOM     86  C   UNL A   1      40.378  35.344  37.291  1.00  0.00     0.010 A 
ATOM     87  C   UNL A   1      38.662  34.636  39.385  1.00  0.00     0.020 A 
ATOM     88  C   UNL A   1      40.256  36.185  38.400  1.00  0.00     0.020 A 
ATOM     89  C   UNL A   1      39.391  35.829  39.437  1.00  0.00     0.054 A 
BRANCH  89  90
ATOM     90  S   UNL A   1      39.227  36.882  40.905  1.00  0.00     0.124 S 
ATOM     91  O   UNL A   1      38.576  35.984  41.853  1.00  0.00    -0.237 OA
ATOM     92  O   UNL A   1      40.616  37.218  41.210  1.00  0.00    -0.237 OA
ATOM     93  O   UNL A   1      38.409  38.000  40.441  1.00  0.00    -0.744 OA
ENDBRANCH  89  90
ENDBRANCH  63  84
ENDBRANCH  37  38
ENDBRANCH  29  32
ENDBRANCH  27  28
ENDBRANCH  26  27
ENDBRANCH   1  26
TORSDOF 17
ENDMDL
MODEL 3
REMARK VINA RESULT:     -10.6      4.235      9.547
REMARK SMILES Cc1cc2c(c(C)c1Br)C=C(C(=O)NCCCCCCNC(=O)c1ccc(-c3c4nc(c(-c5ccc(S(=O)(=O)[O-])cc5)c5ccc([nH]5)c(-c5ccc(S(=O)(=O)[O-])cc5)c5nc(c(-c6ccc(S(=O)(=O)[O-])cc6)c6ccc3[nH]6)C=C5)C=C4)cc1)[C@@H](C(F)(F)F)O2
REMARK SMILES IDX 18 1 17 2 16 3 15 4 14 5 12 6 13 7 11 9 1 10 2 11 3 12 8 13
REMARK SMILES IDX 4 14 6 15 9 16 5 17 89 18 7 19 10 20 84 21 85 22 86 23 87 24
REMARK SMILES IDX 88 25 19 26 20 27 21 28 22 29 23 31 24 32 25 33 83 34 26 35
REMARK SMILES IDX 82 36 27 37 28 38 29 39 76 40 30 41 81 42 75 43 77 44 31 45
REMARK SMILES IDX 80 46 74 47 73 48 32 50 62 51 43 52 61 53 44 54 47 55 60 56
REMARK SMILES IDX 78 57 45 58 46 59 59 61 79 62 48 63 33 64 34 65 42 66 35 67
REMARK SMILES IDX 41 68 36 69 37 70 38 71 39 72 40 73 63 74 64 75 72 76 65 77
REMARK SMILES IDX 71 78 66 79 67 80 68 81 69 82 70 83 49 84 50 85 58 86 51 87
REMARK SMILES IDX 57 88 52 89 53 90 54 91 55 92 56 93
REMARK H PARENT 14 8 21 30 77 49 47 60
REMARK Flexibility Score: inf
ROOT
ATOM      1  C   UNL A   1      40.758  22.209  27.765  1.00  0.00     0.002 C 
ENDROOT
BRANCH   1   2
ATOM      2  C   UNL A   1      40.360  23.066  26.556  1.00  0.00     0.002 C 
BRANCH   2   3
ATOM      3  C   UNL A   1      38.908  23.548  26.552  1.00  0.00     0.021 C 
BRANCH   3   4
ATOM      4  C   UNL A   1      37.920  22.507  26.038  1.00  0.00     0.116 C 
BRANCH   4   5
ATOM      5  N   UNL A   1      37.695  22.640  24.610  1.00  0.00    -0.352 N 
ATOM      6  C   UNL A   1      36.650  22.906  23.792  1.00  0.00     0.251 C 
ATOM      7  O   UNL A   1      36.923  22.949  22.587  1.00  0.00    -0.270 OA
ATOM      8  H   UNL A   1      38.525  22.500  24.099  1.00  0.00     0.163 HD
BRANCH   6   9
ATOM      9  C   UNL A   1      35.243  23.139  24.238  1.00  0.00     0.067 C 
ATOM     10  C   UNL A   1      29.466  25.479  26.125  1.00  0.00     0.046 C 
ATOM     11  C   UNL A   1      30.922  25.257  25.811  1.00  0.00    -0.033 A 
ATOM     12  C   UNL A   1      31.286  24.035  25.243  1.00  0.00     0.051 A 
ATOM     13  C   UNL A   1      31.926  26.218  26.057  1.00  0.00     0.024 A 
ATOM     14  C   UNL A   1      32.609  23.771  24.914  1.00  0.00     0.128 A 
ATOM     15  C   UNL A   1      33.282  25.962  25.725  1.00  0.00    -0.026 A 
ATOM     16  Br  UNL A   1      31.404  27.887  26.836  1.00  0.00    -0.050 Br
ATOM     17  C   UNL A   1      33.612  24.719  25.127  1.00  0.00     0.021 A 
ATOM     18  O   UNL A   1      32.820  22.557  24.336  1.00  0.00    -0.475 OA
ATOM     19  C   UNL A   1      34.382  26.969  25.972  1.00  0.00     0.046 C 
ATOM     20  C   UNL A   1      34.962  24.386  24.661  1.00  0.00     0.026 C 
ATOM     21  C   UNL A   1      34.184  22.078  24.261  1.00  0.00     0.314 C 
BRANCH  21  22
ATOM     22  C   UNL A   1      34.413  21.031  25.364  1.00  0.00     0.429 C 
ATOM     23  F   UNL A   1      35.364  20.143  24.984  1.00  0.00    -0.167 F 
ATOM     24  F   UNL A   1      34.845  21.580  26.524  1.00  0.00    -0.167 F 
ATOM     25  F   UNL A   1      33.293  20.331  25.654  1.00  0.00    -0.167 F 
ENDBRANCH  21  22
ENDBRANCH   6   9
ENDBRANCH   4   5
ENDBRANCH   3   4
ENDBRANCH   2   3
ENDBRANCH   1   2
BRANCH   1  26
ATOM     26  C   UNL A   1      40.844  20.704  27.499  1.00  0.00     0.021 C 
BRANCH  26  27
ATOM     27  C   UNL A   1      40.863  20.328  26.022  1.00  0.00     0.116 C 
BRANCH  27  28
ATOM     28  N   UNL A   1      42.057  19.574  25.675  1.00  0.00    -0.352 N 
ATOM     29  C   UNL A   1      43.320  20.034  25.407  1.00  0.00     0.251 C 
ATOM     30  H   UNL A   1      41.942  18.598  25.625  1.00  0.00     0.163 HD
ATOM     31  O   UNL A   1      44.154  19.286  24.902  1.00  0.00    -0.269 OA
BRANCH  29  32
ATOM     32  C   UNL A   1      43.666  21.435  25.721  1.00  0.00     0.039 A 
ATOM     33  C   UNL A   1      44.166  21.743  26.987  1.00  0.00     0.014 A 
ATOM     34  C   UNL A   1      43.489  22.440  24.764  1.00  0.00     0.014 A 
ATOM     35  C   UNL A   1      44.530  23.056  27.281  1.00  0.00     0.010 A 
ATOM     36  C   UNL A   1      43.921  23.734  25.034  1.00  0.00     0.010 A 
ATOM     37  C   UNL A   1      44.430  24.057  26.300  1.00  0.00    -0.014 A 
BRANCH  37  38
ATOM     38  C   UNL A   1      44.820  25.457  26.597  1.00  0.00     0.031 A 
ATOM     39  C   UNL A   1      43.783  26.435  27.083  1.00  0.00     0.074 A 
ATOM     40  C   UNL A   1      46.094  25.852  26.410  1.00  0.00     0.049 A 
ATOM     41  N   UNL A   1      43.922  27.700  27.381  1.00  0.00    -0.248 NA
ATOM     42  C   UNL A   1      42.408  25.929  27.234  1.00  0.00     0.031 C 
ATOM     43  C   UNL A   1      47.182  25.001  25.924  1.00  0.00     0.029 A 
ATOM     44  N   UNL A   1      46.693  27.071  26.616  1.00  0.00    -0.354 N 
ATOM     45  C   UNL A   1      42.658  28.140  27.753  1.00  0.00     0.074 A 
ATOM     46  C   UNL A   1      41.752  27.026  27.584  1.00  0.00     0.031 C 
ATOM     47  C   UNL A   1      48.322  25.711  25.908  1.00  0.00     0.029 A 
ATOM     48  C   UNL A   1      48.041  27.076  26.342  1.00  0.00     0.049 A 
ATOM     49  H   UNL A   1      46.203  27.866  26.929  1.00  0.00     0.167 HD
ATOM     50  C   UNL A   1      42.288  29.354  28.224  1.00  0.00     0.031 A 
ATOM     51  C   UNL A   1      48.947  28.069  26.432  1.00  0.00     0.031 A 
ATOM     52  C   UNL A   1      43.193  30.457  28.400  1.00  0.00     0.049 A 
ATOM     53  C   UNL A   1      48.501  29.424  26.913  1.00  0.00     0.074 A 
ATOM     54  C   UNL A   1      42.925  31.716  28.905  1.00  0.00     0.029 A 
ATOM     55  N   UNL A   1      44.542  30.432  28.079  1.00  0.00    -0.354 N 
ATOM     56  N   UNL A   1      47.310  29.806  27.309  1.00  0.00    -0.248 NA
ATOM     57  C   UNL A   1      49.521  30.481  26.961  1.00  0.00     0.031 C 
ATOM     58  C   UNL A   1      44.098  32.472  28.835  1.00  0.00     0.029 A 
ATOM     59  C   UNL A   1      45.112  31.665  28.344  1.00  0.00     0.049 A 
ATOM     60  H   UNL A   1      45.021  29.653  27.715  1.00  0.00     0.167 HD
ATOM     61  C   UNL A   1      47.442  31.142  27.670  1.00  0.00     0.074 A 
ATOM     62  C   UNL A   1      48.832  31.496  27.464  1.00  0.00     0.031 C 
ATOM     63  C   UNL A   1      46.496  32.000  28.125  1.00  0.00     0.031 A 
BRANCH  50  64
ATOM     64  C   UNL A   1      40.841  29.549  28.592  1.00  0.00    -0.014 A 
ATOM     65  C   UNL A   1      39.850  29.638  27.597  1.00  0.00     0.010 A 
ATOM     66  C   UNL A   1      40.458  29.590  29.945  1.00  0.00     0.010 A 
ATOM     67  C   UNL A   1      38.507  29.799  27.948  1.00  0.00     0.020 A 
ATOM     68  C   UNL A   1      39.112  29.721  30.300  1.00  0.00     0.020 A 
ATOM     69  C   UNL A   1      38.147  29.837  29.297  1.00  0.00     0.054 A 
BRANCH  69  70
ATOM     70  S   UNL A   1      36.391  30.011  29.718  1.00  0.00     0.124 S 
ATOM     71  O   UNL A   1      35.744  29.328  28.600  1.00  0.00    -0.237 OA
ATOM     72  O   UNL A   1      36.304  29.328  31.006  1.00  0.00    -0.237 OA
ATOM     73  O   UNL A   1      36.185  31.456  29.765  1.00  0.00    -0.744 OA
ENDBRANCH  69  70
ENDBRANCH  50  64
BRANCH  51  74
ATOM     74  C   UNL A   1      50.370  27.810  26.080  1.00  0.00    -0.014 A 
ATOM     75  C   UNL A   1      51.282  27.391  27.064  1.00  0.00     0.010 A 
ATOM     76  C   UNL A   1      50.817  27.961  24.754  1.00  0.00     0.010 A 
ATOM     77  C   UNL A   1      52.616  27.136  26.732  1.00  0.00     0.020 A 
ATOM     78  C   UNL A   1      52.144  27.681  24.414  1.00  0.00     0.020 A 
ATOM     79  C   UNL A   1      53.038  27.278  25.407  1.00  0.00     0.054 A 
BRANCH  79  80
ATOM     80  S   UNL A   1      54.760  26.887  24.994  1.00  0.00     0.124 S 
ATOM     81  O   UNL A   1      55.249  26.309  26.242  1.00  0.00    -0.237 OA
ATOM     82  O   UNL A   1      54.610  25.953  23.881  1.00  0.00    -0.237 OA
ATOM     83  O   UNL A   1      55.331  28.184  24.639  1.00  0.00    -0.744 OA
ENDBRANCH  79  80
ENDBRANCH  51  74
BRANCH  63  84
ATOM     84  C   UNL A   1      46.925  33.409  28.436  1.00  0.00    -0.014 A 
ATOM     85  C   UNL A   1      46.841  34.419  27.462  1.00  0.00     0.010 A 
ATOM     86  C   UNL A   1      47.333  33.744  29.740  1.00  0.00     0.010 A 
ATOM     87  C   UNL A   1      47.174  35.737  27.783  1.00  0.00     0.020 A 
ATOM     88  C   UNL A   1      47.638  35.066  30.073  1.00  0.00     0.020 A 
ATOM     89  C   UNL A   1      47.564  36.054  29.088  1.00  0.00     0.054 A 
BRANCH  89  90
ATOM     90  S   UNL A   1      47.926  37.785  29.490  1.00  0.00     0.124 S 
ATOM     91  O   UNL A   1      46.686  38.215  30.130  1.00  0.00    -0.237 OA
ATOM     92  O   UNL A   1      49.083  37.670  30.375  1.00  0.00    -0.237 OA
ATOM     93  O   UNL A   1      48.200  38.394  28.191  1.00  0.00    -0.744 OA
ENDBRANCH  89  90
ENDBRANCH  63  84
ENDBRANCH  37  38
ENDBRANCH  29  32
ENDBRANCH  27  28
ENDBRANCH  26  27
ENDBRANCH   1  26
TORSDOF 17
ENDMDL
