MODEL 1
REMARK VINA RESULT:     -10.5      0.000      0.000
REMARK SMILES C[C@@H](C(=O)NCCCCCCNC(=O)c1ccc(-c2c3nc(c(-c4ccc(S(=O)(=O)[O-])cc4)c4ccc([nH]4)c(-c4ccc(S(=O)(=O)[O-])cc4)c4nc(c(-c5ccc(S(=O)(=O)[O-])cc5)c5ccc2[nH]5)C=C4)C=C3)cc1)c1ccc(C[C@H]2CCC[C@@H]2O)cc1F
REMARK SMILES IDX 8 1 7 2 6 3 5 4 3 5 4 6 2 8 1 9 75 10 76 11 87 12 77 13
REMARK SMILES IDX 86 14 88 15 78 16 79 17 80 18 81 19 84 20 82 21 83 22 85 23
REMARK SMILES IDX 9 25 10 26 11 27 12 28 13 29 14 31 15 32 16 33 74 34 17 35
REMARK SMILES IDX 73 36 18 37 19 38 20 39 67 40 21 41 72 42 66 43 68 44 22 45
REMARK SMILES IDX 71 46 65 47 64 48 23 50 53 51 34 52 52 53 35 54 38 55 51 56
REMARK SMILES IDX 69 57 36 58 37 59 50 61 70 62 39 63 24 64 25 65 33 66 26 67
REMARK SMILES IDX 32 68 27 69 28 70 29 71 30 72 31 73 54 74 55 75 63 76 56 77
REMARK SMILES IDX 62 78 57 79 58 80 59 81 60 82 61 83 40 84 41 85 49 86 42 87
REMARK SMILES IDX 48 88 43 89 44 90 45 91 46 92 47 93
REMARK H PARENT 5 7 85 24 12 30 68 49 38 60
REMARK Flexibility Score: inf
ROOT
ATOM      1  C   UNL A   1      33.936  26.721  23.317  1.00  0.00     0.002 C 
ENDROOT
BRANCH   1   2
ATOM      2  C   UNL A   1      33.984  28.235  23.062  1.00  0.00     0.021 C 
BRANCH   2   3
ATOM      3  C   UNL A   1      32.708  28.810  22.431  1.00  0.00     0.116 C 
BRANCH   3   4
ATOM      4  N   UNL A   1      31.841  29.323  23.469  1.00  0.00    -0.356 N 
ATOM      5  C   UNL A   1      30.485  29.198  23.564  1.00  0.00     0.227 C 
ATOM      6  O   UNL A   1      29.904  30.147  24.093  1.00  0.00    -0.274 OA
ATOM      7  H   UNL A   1      32.281  29.823  24.194  1.00  0.00     0.163 HD
BRANCH   5   8
ATOM      8  C   UNL A   1      29.798  27.929  23.023  1.00  0.00     0.108 C 
ATOM      9  C   UNL A   1      28.277  28.117  23.006  1.00  0.00     0.023 C 
BRANCH   8  10
ATOM     10  C   UNL A   1      30.146  26.615  23.725  1.00  0.00    -0.000 A 
ATOM     11  C   UNL A   1      29.848  26.334  25.063  1.00  0.00     0.008 A 
ATOM     12  C   UNL A   1      30.772  25.596  22.991  1.00  0.00     0.127 A 
ATOM     13  C   UNL A   1      30.157  25.101  25.636  1.00  0.00     0.004 A 
ATOM     14  C   UNL A   1      31.097  24.363  23.559  1.00  0.00     0.043 A 
ATOM     15  F   UNL A   1      31.089  25.797  21.703  1.00  0.00    -0.207 F 
ATOM     16  C   UNL A   1      30.816  24.114  24.905  1.00  0.00    -0.045 A 
BRANCH  16  17
ATOM     17  C   UNL A   1      31.257  22.838  25.574  1.00  0.00     0.041 C 
BRANCH  17  18
ATOM     18  C   UNL A   1      32.352  22.054  24.828  1.00  0.00     0.022 C 
ATOM     19  C   UNL A   1      33.650  22.832  24.553  1.00  0.00     0.007 C 
ATOM     20  C   UNL A   1      32.824  20.752  25.486  1.00  0.00     0.117 C 
ATOM     21  C   UNL A   1      34.787  21.814  24.670  1.00  0.00     0.003 C 
ATOM     22  C   UNL A   1      34.115  20.453  24.738  1.00  0.00     0.032 C 
BRANCH  20  23
ATOM     23  O   UNL A   1      31.889  19.702  25.319  1.00  0.00    -0.393 OA
ATOM     24  H   UNL A   1      31.077  19.912  25.807  1.00  0.00     0.210 HD
ENDBRANCH  20  23
ENDBRANCH  17  18
ENDBRANCH  16  17
ENDBRANCH   8  10
ENDBRANCH   5   8
ENDBRANCH   3   4
ENDBRANCH   2   3
ENDBRANCH   1   2
BRANCH   1  25
ATOM     25  C   UNL A   1      34.024  26.314  24.790  1.00  0.00     0.002 C 
BRANCH  25  26
ATOM     26  C   UNL A   1      33.216  27.200  25.740  1.00  0.00     0.021 C 
BRANCH  26  27
ATOM     27  C   UNL A   1      34.044  27.867  26.832  1.00  0.00     0.116 C 
BRANCH  27  28
ATOM     28  N   UNL A   1      33.645  29.250  27.047  1.00  0.00    -0.352 N 
ATOM     29  C   UNL A   1      34.317  30.247  27.705  1.00  0.00     0.251 C 
ATOM     30  H   UNL A   1      32.772  29.503  26.667  1.00  0.00     0.163 HD
ATOM     31  O   UNL A   1      33.741  31.297  27.984  1.00  0.00    -0.269 OA
BRANCH  29  32
ATOM     32  C   UNL A   1      35.728  30.045  28.096  1.00  0.00     0.039 A 
ATOM     33  C   UNL A   1      36.018  29.647  29.403  1.00  0.00     0.014 A 
ATOM     34  C   UNL A   1      36.760  30.240  27.172  1.00  0.00     0.014 A 
ATOM     35  C   UNL A   1      37.341  29.387  29.765  1.00  0.00     0.010 A 
ATOM     36  C   UNL A   1      38.067  29.905  27.513  1.00  0.00     0.010 A 
ATOM     37  C   UNL A   1      38.373  29.479  28.815  1.00  0.00    -0.014 A 
BRANCH  37  38
ATOM     38  C   UNL A   1      39.772  29.118  29.165  1.00  0.00     0.031 A 
ATOM     39  C   UNL A   1      40.670  30.123  29.835  1.00  0.00     0.074 A 
ATOM     40  C   UNL A   1      40.246  27.901  28.833  1.00  0.00     0.049 A 
ATOM     41  N   UNL A   1      41.926  29.997  30.186  1.00  0.00    -0.248 NA
ATOM     42  C   UNL A   1      40.095  31.446  30.130  1.00  0.00     0.031 C 
ATOM     43  C   UNL A   1      39.486  26.854  28.144  1.00  0.00     0.029 A 
ATOM     44  N   UNL A   1      41.481  27.336  29.029  1.00  0.00    -0.354 N 
ATOM     45  C   UNL A   1      42.291  31.223  30.732  1.00  0.00     0.074 A 
ATOM     46  C   UNL A   1      41.142  32.095  30.617  1.00  0.00     0.031 C 
ATOM     47  C   UNL A   1      40.260  25.766  28.005  1.00  0.00     0.029 A 
ATOM     48  C   UNL A   1      41.583  26.050  28.550  1.00  0.00     0.049 A 
ATOM     49  H   UNL A   1      42.225  27.807  29.470  1.00  0.00     0.167 HD
ATOM     50  C   UNL A   1      43.467  31.583  31.298  1.00  0.00     0.031 A 
ATOM     51  C   UNL A   1      42.625  25.196  28.543  1.00  0.00     0.031 A 
ATOM     52  C   UNL A   1      44.606  30.710  31.414  1.00  0.00     0.049 A 
ATOM     53  C   UNL A   1      43.929  25.630  29.156  1.00  0.00     0.074 A 
ATOM     54  C   UNL A   1      45.826  30.965  32.017  1.00  0.00     0.029 A 
ATOM     55  N   UNL A   1      44.669  29.417  30.916  1.00  0.00    -0.354 N 
ATOM     56  N   UNL A   1      44.231  26.769  29.733  1.00  0.00    -0.248 NA
ATOM     57  C   UNL A   1      45.029  24.656  29.131  1.00  0.00     0.031 C 
ATOM     58  C   UNL A   1      46.648  29.849  31.828  1.00  0.00     0.029 A 
ATOM     59  C   UNL A   1      45.918  28.873  31.170  1.00  0.00     0.049 A 
ATOM     60  H   UNL A   1      43.935  28.955  30.449  1.00  0.00     0.167 HD
ATOM     61  C   UNL A   1      45.547  26.639  30.161  1.00  0.00     0.074 A 
ATOM     62  C   UNL A   1      45.975  25.304  29.798  1.00  0.00     0.031 C 
ATOM     63  C   UNL A   1      46.331  27.543  30.799  1.00  0.00     0.031 A 
BRANCH  50  64
ATOM     64  C   UNL A   1      43.587  32.987  31.832  1.00  0.00    -0.014 A 
ATOM     65  C   UNL A   1      44.000  34.048  31.005  1.00  0.00     0.010 A 
ATOM     66  C   UNL A   1      43.228  33.262  33.164  1.00  0.00     0.010 A 
ATOM     67  C   UNL A   1      44.085  35.349  31.509  1.00  0.00     0.020 A 
ATOM     68  C   UNL A   1      43.281  34.567  33.664  1.00  0.00     0.020 A 
ATOM     69  C   UNL A   1      43.723  35.599  32.836  1.00  0.00     0.054 A 
BRANCH  69  70
ATOM     70  S   UNL A   1      43.810  37.304  33.451  1.00  0.00     0.124 S 
ATOM     71  O   UNL A   1      43.955  38.064  32.212  1.00  0.00    -0.237 OA
ATOM     72  O   UNL A   1      42.531  37.461  34.137  1.00  0.00    -0.237 OA
ATOM     73  O   UNL A   1      44.985  37.300  34.320  1.00  0.00    -0.744 OA
ENDBRANCH  69  70
ENDBRANCH  50  64
BRANCH  51  74
ATOM     74  C   UNL A   1      42.479  23.843  27.938  1.00  0.00    -0.014 A 
ATOM     75  C   UNL A   1      41.998  22.763  28.700  1.00  0.00     0.010 A 
ATOM     76  C   UNL A   1      42.824  23.626  26.591  1.00  0.00     0.010 A 
ATOM     77  C   UNL A   1      41.892  21.488  28.136  1.00  0.00     0.020 A 
ATOM     78  C   UNL A   1      42.688  22.361  26.014  1.00  0.00     0.020 A 
ATOM     79  C   UNL A   1      42.237  21.295  26.795  1.00  0.00     0.054 A 
BRANCH  79  80
ATOM     80  S   UNL A   1      42.056  19.641  26.074  1.00  0.00     0.124 S 
ATOM     81  O   UNL A   1      42.969  19.706  24.936  1.00  0.00    -0.237 OA
ATOM     82  O   UNL A   1      42.473  18.772  27.171  1.00  0.00    -0.237 OA
ATOM     83  O   UNL A   1      40.637  19.569  25.736  1.00  0.00    -0.744 OA
ENDBRANCH  79  80
ENDBRANCH  51  74
BRANCH  63  84
ATOM     84  C   UNL A   1      47.724  27.109  31.177  1.00  0.00    -0.014 A 
ATOM     85  C   UNL A   1      48.824  27.373  30.343  1.00  0.00     0.010 A 
ATOM     86  C   UNL A   1      47.938  26.465  32.411  1.00  0.00     0.010 A 
ATOM     87  C   UNL A   1      50.109  26.969  30.719  1.00  0.00     0.020 A 
ATOM     88  C   UNL A   1      49.224  26.089  32.804  1.00  0.00     0.020 A 
ATOM     89  C   UNL A   1      50.300  26.329  31.948  1.00  0.00     0.054 A 
BRANCH  89  90
ATOM     90  S   UNL A   1      51.981  25.848  32.428  1.00  0.00     0.124 S 
ATOM     91  O   UNL A   1      52.063  26.354  33.796  1.00  0.00    -0.237 OA
ATOM     92  O   UNL A   1      51.947  24.394  32.297  1.00  0.00    -0.237 OA
ATOM     93  O   UNL A   1      52.830  26.536  31.457  1.00  0.00    -0.744 OA
ENDBRANCH  89  90
ENDBRANCH  63  84
ENDBRANCH  37  38
ENDBRANCH  29  32
ENDBRANCH  27  28
ENDBRANCH  26  27
ENDBRANCH  25  26
ENDBRANCH   1  25
TORSDOF 20
ENDMDL
MODEL 2
REMARK VINA RESULT:     -10.1      2.163      2.753
REMARK SMILES C[C@@H](C(=O)NCCCCCCNC(=O)c1ccc(-c2c3nc(c(-c4ccc(S(=O)(=O)[O-])cc4)c4ccc([nH]4)c(-c4ccc(S(=O)(=O)[O-])cc4)c4nc(c(-c5ccc(S(=O)(=O)[O-])cc5)c5ccc2[nH]5)C=C4)C=C3)cc1)c1ccc(C[C@H]2CCC[C@@H]2O)cc1F
REMARK SMILES IDX 8 1 7 2 6 3 5 4 3 5 4 6 2 8 1 9 75 10 76 11 87 12 77 13
REMARK SMILES IDX 86 14 88 15 78 16 79 17 80 18 81 19 84 20 82 21 83 22 85 23
REMARK SMILES IDX 9 25 10 26 11 27 12 28 13 29 14 31 15 32 16 33 74 34 17 35
REMARK SMILES IDX 73 36 18 37 19 38 20 39 67 40 21 41 72 42 66 43 68 44 22 45
REMARK SMILES IDX 71 46 65 47 64 48 23 50 53 51 34 52 52 53 35 54 38 55 51 56
REMARK SMILES IDX 69 57 36 58 37 59 50 61 70 62 39 63 24 64 25 65 33 66 26 67
REMARK SMILES IDX 32 68 27 69 28 70 29 71 30 72 31 73 54 74 55 75 63 76 56 77
REMARK SMILES IDX 62 78 57 79 58 80 59 81 60 82 61 83 40 84 41 85 49 86 42 87
REMARK SMILES IDX 48 88 43 89 44 90 45 91 46 92 47 93
REMARK H PARENT 5 7 85 24 12 30 68 49 38 60
REMARK Flexibility Score: inf
ROOT
ATOM      1  C   UNL A   1      33.848  26.754  23.940  1.00  0.00     0.002 C 
ENDROOT
BRANCH   1   2
ATOM      2  C   UNL A   1      33.963  28.209  23.462  1.00  0.00     0.021 C 
BRANCH   2   3
ATOM      3  C   UNL A   1      32.749  28.711  22.668  1.00  0.00     0.116 C 
BRANCH   3   4
ATOM      4  N   UNL A   1      31.811  29.348  23.566  1.00  0.00    -0.356 N 
ATOM      5  C   UNL A   1      30.449  29.261  23.551  1.00  0.00     0.227 C 
ATOM      6  O   UNL A   1      29.852  30.272  23.925  1.00  0.00    -0.274 OA
ATOM      7  H   UNL A   1      32.201  29.913  24.271  1.00  0.00     0.163 HD
BRANCH   5   8
ATOM      8  C   UNL A   1      29.774  27.957  23.086  1.00  0.00     0.108 C 
ATOM      9  C   UNL A   1      28.252  28.128  23.060  1.00  0.00     0.023 C 
BRANCH   8  10
ATOM     10  C   UNL A   1      30.135  26.688  23.862  1.00  0.00    -0.000 A 
ATOM     11  C   UNL A   1      29.871  26.496  25.223  1.00  0.00     0.008 A 
ATOM     12  C   UNL A   1      30.740  25.621  23.180  1.00  0.00     0.127 A 
ATOM     13  C   UNL A   1      30.190  25.301  25.867  1.00  0.00     0.004 A 
ATOM     14  C   UNL A   1      31.075  24.426  23.819  1.00  0.00     0.043 A 
ATOM     15  F   UNL A   1      31.025  25.737  21.875  1.00  0.00    -0.207 F 
ATOM     16  C   UNL A   1      30.828  24.266  25.185  1.00  0.00    -0.045 A 
BRANCH  16  17
ATOM     17  C   UNL A   1      31.281  23.033  25.923  1.00  0.00     0.041 C 
BRANCH  17  18
ATOM     18  C   UNL A   1      32.763  22.665  25.731  1.00  0.00     0.022 C 
ATOM     19  C   UNL A   1      33.638  22.762  26.992  1.00  0.00     0.007 C 
ATOM     20  C   UNL A   1      33.050  21.263  25.180  1.00  0.00     0.117 C 
ATOM     21  C   UNL A   1      34.662  21.629  26.887  1.00  0.00     0.003 C 
ATOM     22  C   UNL A   1      34.532  21.089  25.472  1.00  0.00     0.032 C 
BRANCH  20  23
ATOM     23  O   UNL A   1      32.795  21.175  23.790  1.00  0.00    -0.393 OA
ATOM     24  H   UNL A   1      33.319  21.846  23.323  1.00  0.00     0.210 HD
ENDBRANCH  20  23
ENDBRANCH  17  18
ENDBRANCH  16  17
ENDBRANCH   8  10
ENDBRANCH   5   8
ENDBRANCH   3   4
ENDBRANCH   2   3
ENDBRANCH   1   2
BRANCH   1  25
ATOM     25  C   UNL A   1      33.741  26.582  25.457  1.00  0.00     0.002 C 
BRANCH  25  26
ATOM     26  C   UNL A   1      33.291  27.838  26.205  1.00  0.00     0.021 C 
BRANCH  26  27
ATOM     27  C   UNL A   1      34.432  28.678  26.765  1.00  0.00     0.116 C 
BRANCH  27  28
ATOM     28  N   UNL A   1      34.057  30.076  26.910  1.00  0.00    -0.352 N 
ATOM     29  C   UNL A   1      34.580  31.025  27.751  1.00  0.00     0.251 C 
ATOM     30  H   UNL A   1      33.327  30.382  26.324  1.00  0.00     0.163 HD
ATOM     31  O   UNL A   1      34.000  32.099  27.901  1.00  0.00    -0.269 OA
BRANCH  29  32
ATOM     32  C   UNL A   1      35.828  30.742  28.489  1.00  0.00     0.039 A 
ATOM     33  C   UNL A   1      35.828  29.738  29.460  1.00  0.00     0.014 A 
ATOM     34  C   UNL A   1      36.997  31.459  28.216  1.00  0.00     0.014 A 
ATOM     35  C   UNL A   1      37.017  29.415  30.116  1.00  0.00     0.010 A 
ATOM     36  C   UNL A   1      38.196  31.083  28.814  1.00  0.00     0.010 A 
ATOM     37  C   UNL A   1      38.219  30.059  29.774  1.00  0.00    -0.014 A 
BRANCH  37  38
ATOM     38  C   UNL A   1      39.507  29.662  30.400  1.00  0.00     0.031 A 
ATOM     39  C   UNL A   1      40.040  30.420  31.587  1.00  0.00     0.074 A 
ATOM     40  C   UNL A   1      40.219  28.649  29.867  1.00  0.00     0.049 A 
ATOM     41  N   UNL A   1      41.158  30.237  32.244  1.00  0.00    -0.248 NA
ATOM     42  C   UNL A   1      39.227  31.540  32.088  1.00  0.00     0.031 C 
ATOM     43  C   UNL A   1      39.829  27.864  28.693  1.00  0.00     0.029 A 
ATOM     44  N   UNL A   1      41.422  28.105  30.243  1.00  0.00    -0.354 N 
ATOM     45  C   UNL A   1      41.186  31.221  33.225  1.00  0.00     0.074 A 
ATOM     46  C   UNL A   1      40.001  32.031  33.044  1.00  0.00     0.031 C 
ATOM     47  C   UNL A   1      40.757  26.921  28.465  1.00  0.00     0.029 A 
ATOM     48  C   UNL A   1      41.830  27.061  29.444  1.00  0.00     0.049 A 
ATOM     49  H   UNL A   1      41.945  28.431  31.011  1.00  0.00     0.167 HD
ATOM     50  C   UNL A   1      42.102  31.420  34.202  1.00  0.00     0.031 A 
ATOM     51  C   UNL A   1      42.943  26.305  29.489  1.00  0.00     0.031 A 
ATOM     52  C   UNL A   1      43.278  30.608  34.381  1.00  0.00     0.049 A 
ATOM     53  C   UNL A   1      43.959  26.562  30.570  1.00  0.00     0.074 A 
ATOM     54  C   UNL A   1      44.240  30.698  35.372  1.00  0.00     0.029 A 
ATOM     55  N   UNL A   1      43.655  29.563  33.551  1.00  0.00    -0.354 N 
ATOM     56  N   UNL A   1      43.930  27.452  31.533  1.00  0.00    -0.248 NA
ATOM     57  C   UNL A   1      45.150  25.702  30.578  1.00  0.00     0.031 C 
ATOM     58  C   UNL A   1      45.232  29.747  35.105  1.00  0.00     0.029 A 
ATOM     59  C   UNL A   1      44.851  29.019  33.989  1.00  0.00     0.049 A 
ATOM     60  H   UNL A   1      43.147  29.254  32.766  1.00  0.00     0.167 HD
ATOM     61  C   UNL A   1      45.086  27.241  32.277  1.00  0.00     0.074 A 
ATOM     62  C   UNL A   1      45.779  26.127  31.666  1.00  0.00     0.031 C 
ATOM     63  C   UNL A   1      45.532  27.911  33.369  1.00  0.00     0.031 A 
BRANCH  50  64
ATOM     64  C   UNL A   1      41.875  32.565  35.155  1.00  0.00    -0.014 A 
ATOM     65  C   UNL A   1      42.451  33.829  34.925  1.00  0.00     0.010 A 
ATOM     66  C   UNL A   1      41.027  32.395  36.264  1.00  0.00     0.010 A 
ATOM     67  C   UNL A   1      42.213  34.888  35.805  1.00  0.00     0.020 A 
ATOM     68  C   UNL A   1      40.761  33.461  37.130  1.00  0.00     0.020 A 
ATOM     69  C   UNL A   1      41.367  34.696  36.902  1.00  0.00     0.054 A 
BRANCH  69  70
ATOM     70  S   UNL A   1      41.049  36.100  38.006  1.00  0.00     0.124 S 
ATOM     71  O   UNL A   1      40.961  35.446  39.308  1.00  0.00    -0.237 OA
ATOM     72  O   UNL A   1      42.227  36.939  37.803  1.00  0.00    -0.237 OA
ATOM     73  O   UNL A   1      39.796  36.659  37.505  1.00  0.00    -0.744 OA
ENDBRANCH  69  70
ENDBRANCH  50  64
BRANCH  51  74
ATOM     74  C   UNL A   1      43.158  25.229  28.481  1.00  0.00    -0.014 A 
ATOM     75  C   UNL A   1      43.867  25.487  27.294  1.00  0.00     0.010 A 
ATOM     76  C   UNL A   1      42.651  23.935  28.704  1.00  0.00     0.010 A 
ATOM     77  C   UNL A   1      44.040  24.481  26.338  1.00  0.00     0.020 A 
ATOM     78  C   UNL A   1      42.850  22.919  27.767  1.00  0.00     0.020 A 
ATOM     79  C   UNL A   1      43.531  23.203  26.581  1.00  0.00     0.054 A 
BRANCH  79  80
ATOM     80  S   UNL A   1      43.798  21.904  25.344  1.00  0.00     0.124 S 
ATOM     81  O   UNL A   1      43.598  22.631  24.093  1.00  0.00    -0.237 OA
ATOM     82  O   UNL A   1      45.169  21.484  25.620  1.00  0.00    -0.237 OA
ATOM     83  O   UNL A   1      42.774  20.913  25.663  1.00  0.00    -0.744 OA
ENDBRANCH  79  80
ENDBRANCH  51  74
BRANCH  63  84
ATOM     84  C   UNL A   1      46.817  27.435  33.996  1.00  0.00    -0.014 A 
ATOM     85  C   UNL A   1      46.826  26.420  34.968  1.00  0.00     0.010 A 
ATOM     86  C   UNL A   1      48.041  27.986  33.569  1.00  0.00     0.010 A 
ATOM     87  C   UNL A   1      48.032  25.988  35.528  1.00  0.00     0.020 A 
ATOM     88  C   UNL A   1      49.250  27.535  34.104  1.00  0.00     0.020 A 
ATOM     89  C   UNL A   1      49.236  26.549  35.092  1.00  0.00     0.054 A 
BRANCH  89  90
ATOM     90  S   UNL A   1      50.788  25.946  35.809  1.00  0.00     0.124 S 
ATOM     91  O   UNL A   1      50.910  24.623  35.203  1.00  0.00    -0.237 OA
ATOM     92  O   UNL A   1      51.758  26.937  35.352  1.00  0.00    -0.237 OA
ATOM     93  O   UNL A   1      50.532  25.950  37.248  1.00  0.00    -0.744 OA
ENDBRANCH  89  90
ENDBRANCH  63  84
ENDBRANCH  37  38
ENDBRANCH  29  32
ENDBRANCH  27  28
ENDBRANCH  26  27
ENDBRANCH  25  26
ENDBRANCH   1  25
TORSDOF 20
ENDMDL
MODEL 3
REMARK VINA RESULT:      -9.9      3.540      9.086
REMARK SMILES C[C@@H](C(=O)NCCCCCCNC(=O)c1ccc(-c2c3nc(c(-c4ccc(S(=O)(=O)[O-])cc4)c4ccc([nH]4)c(-c4ccc(S(=O)(=O)[O-])cc4)c4nc(c(-c5ccc(S(=O)(=O)[O-])cc5)c5ccc2[nH]5)C=C4)C=C3)cc1)c1ccc(C[C@H]2CCC[C@@H]2O)cc1F
REMARK SMILES IDX 8 1 7 2 6 3 5 4 3 5 4 6 2 8 1 9 75 10 76 11 87 12 77 13
REMARK SMILES IDX 86 14 88 15 78 16 79 17 80 18 81 19 84 20 82 21 83 22 85 23
REMARK SMILES IDX 9 25 10 26 11 27 12 28 13 29 14 31 15 32 16 33 74 34 17 35
REMARK SMILES IDX 73 36 18 37 19 38 20 39 67 40 21 41 72 42 66 43 68 44 22 45
REMARK SMILES IDX 71 46 65 47 64 48 23 50 53 51 34 52 52 53 35 54 38 55 51 56
REMARK SMILES IDX 69 57 36 58 37 59 50 61 70 62 39 63 24 64 25 65 33 66 26 67
REMARK SMILES IDX 32 68 27 69 28 70 29 71 30 72 31 73 54 74 55 75 63 76 56 77
REMARK SMILES IDX 62 78 57 79 58 80 59 81 60 82 61 83 40 84 41 85 49 86 42 87
REMARK SMILES IDX 48 88 43 89 44 90 45 91 46 92 47 93
REMARK H PARENT 5 7 85 24 12 30 68 49 38 60
REMARK Flexibility Score: inf
ROOT
ATOM      1  C   UNL A   1      31.946  30.070  26.639  1.00  0.00     0.002 C 
ENDROOT
BRANCH   1   2
ATOM      2  C   UNL A   1      32.170  29.688  25.168  1.00  0.00     0.021 C 
BRANCH   2   3
ATOM      3  C   UNL A   1      30.881  29.390  24.389  1.00  0.00     0.116 C 
BRANCH   3   4
ATOM      4  N   UNL A   1      30.584  27.976  24.465  1.00  0.00    -0.356 N 
ATOM      5  C   UNL A   1      31.240  26.950  23.848  1.00  0.00     0.227 C 
ATOM      6  O   UNL A   1      30.536  25.991  23.527  1.00  0.00    -0.274 OA
ATOM      7  H   UNL A   1      29.818  27.723  25.028  1.00  0.00     0.163 HD
BRANCH   5   8
ATOM      8  C   UNL A   1      32.757  27.055  23.602  1.00  0.00     0.108 C 
ATOM      9  C   UNL A   1      33.031  27.540  22.174  1.00  0.00     0.023 C 
BRANCH   8  10
ATOM     10  C   UNL A   1      33.582  25.797  23.883  1.00  0.00    -0.000 A 
ATOM     11  C   UNL A   1      33.981  24.882  22.903  1.00  0.00     0.008 A 
ATOM     12  C   UNL A   1      34.005  25.540  25.196  1.00  0.00     0.127 A 
ATOM     13  C   UNL A   1      34.765  23.773  23.216  1.00  0.00     0.004 A 
ATOM     14  C   UNL A   1      34.779  24.425  25.522  1.00  0.00     0.043 A 
ATOM     15  F   UNL A   1      33.657  26.374  26.187  1.00  0.00    -0.207 F 
ATOM     16  C   UNL A   1      35.144  23.509  24.532  1.00  0.00    -0.045 A 
BRANCH  16  17
ATOM     17  C   UNL A   1      35.881  22.240  24.872  1.00  0.00     0.041 C 
BRANCH  17  18
ATOM     18  C   UNL A   1      37.402  22.395  25.049  1.00  0.00     0.022 C 
ATOM     19  C   UNL A   1      37.857  23.682  25.758  1.00  0.00     0.007 C 
ATOM     20  C   UNL A   1      38.117  21.272  25.809  1.00  0.00     0.117 C 
ATOM     21  C   UNL A   1      39.086  23.299  26.586  1.00  0.00     0.003 C 
ATOM     22  C   UNL A   1      39.465  21.898  26.134  1.00  0.00     0.032 C 
BRANCH  20  23
ATOM     23  O   UNL A   1      38.278  20.111  25.016  1.00  0.00    -0.393 OA
ATOM     24  H   UNL A   1      38.577  19.377  25.576  1.00  0.00     0.210 HD
ENDBRANCH  20  23
ENDBRANCH  17  18
ENDBRANCH  16  17
ENDBRANCH   8  10
ENDBRANCH   5   8
ENDBRANCH   3   4
ENDBRANCH   2   3
ENDBRANCH   1   2
BRANCH   1  25
ATOM     25  C   UNL A   1      33.222  30.380  27.424  1.00  0.00     0.002 C 
BRANCH  25  26
ATOM     26  C   UNL A   1      34.379  29.416  27.157  1.00  0.00     0.021 C 
BRANCH  26  27
ATOM     27  C   UNL A   1      35.697  29.824  27.804  1.00  0.00     0.116 C 
BRANCH  27  28
ATOM     28  N   UNL A   1      35.611  29.825  29.257  1.00  0.00    -0.352 N 
ATOM     29  C   UNL A   1      36.585  29.532  30.176  1.00  0.00     0.251 C 
ATOM     30  H   UNL A   1      34.734  30.070  29.629  1.00  0.00     0.163 HD
ATOM     31  O   UNL A   1      36.286  29.369  31.358  1.00  0.00    -0.269 OA
BRANCH  29  32
ATOM     32  C   UNL A   1      37.989  29.392  29.738  1.00  0.00     0.039 A 
ATOM     33  C   UNL A   1      38.957  29.018  30.672  1.00  0.00     0.014 A 
ATOM     34  C   UNL A   1      38.348  29.622  28.405  1.00  0.00     0.014 A 
ATOM     35  C   UNL A   1      40.274  28.816  30.256  1.00  0.00     0.010 A 
ATOM     36  C   UNL A   1      39.643  29.345  27.979  1.00  0.00     0.010 A 
ATOM     37  C   UNL A   1      40.622  28.942  28.900  1.00  0.00    -0.014 A 
BRANCH  37  38
ATOM     38  C   UNL A   1      42.000  28.643  28.431  1.00  0.00     0.031 A 
ATOM     39  C   UNL A   1      42.368  27.251  27.994  1.00  0.00     0.074 A 
ATOM     40  C   UNL A   1      42.932  29.617  28.446  1.00  0.00     0.049 A 
ATOM     41  N   UNL A   1      43.527  26.797  27.585  1.00  0.00    -0.248 NA
ATOM     42  C   UNL A   1      41.309  26.230  28.044  1.00  0.00     0.031 C 
ATOM     43  C   UNL A   1      42.709  30.997  28.886  1.00  0.00     0.029 A 
ATOM     44  N   UNL A   1      44.254  29.597  28.081  1.00  0.00    -0.354 N 
ATOM     45  C   UNL A   1      43.337  25.442  27.338  1.00  0.00     0.074 A 
ATOM     46  C   UNL A   1      41.968  25.135  27.695  1.00  0.00     0.031 C 
ATOM     47  C   UNL A   1      43.844  31.697  28.735  1.00  0.00     0.029 A 
ATOM     48  C   UNL A   1      44.888  30.810  28.233  1.00  0.00     0.049 A 
ATOM     49  H   UNL A   1      44.708  28.792  27.743  1.00  0.00     0.167 HD
ATOM     50  C   UNL A   1      44.214  24.539  26.840  1.00  0.00     0.031 A 
ATOM     51  C   UNL A   1      46.166  31.167  28.002  1.00  0.00     0.031 A 
ATOM     52  C   UNL A   1      45.574  24.850  26.481  1.00  0.00     0.049 A 
ATOM     53  C   UNL A   1      47.128  30.138  27.471  1.00  0.00     0.074 A 
ATOM     54  C   UNL A   1      46.526  24.016  25.920  1.00  0.00     0.029 A 
ATOM     55  N   UNL A   1      46.176  26.087  26.652  1.00  0.00    -0.354 N 
ATOM     56  N   UNL A   1      46.909  28.879  27.176  1.00  0.00    -0.248 NA
ATOM     57  C   UNL A   1      48.507  30.584  27.227  1.00  0.00     0.031 C 
ATOM     58  C   UNL A   1      47.723  24.733  25.810  1.00  0.00     0.029 A 
ATOM     59  C   UNL A   1      47.497  26.032  26.236  1.00  0.00     0.049 A 
ATOM     60  H   UNL A   1      45.732  26.887  27.016  1.00  0.00     0.167 HD
ATOM     61  C   UNL A   1      48.116  28.389  26.688  1.00  0.00     0.074 A 
ATOM     62  C   UNL A   1      49.052  29.494  26.706  1.00  0.00     0.031 C 
ATOM     63  C   UNL A   1      48.419  27.138  26.263  1.00  0.00     0.031 A 
BRANCH  50  64
ATOM     64  C   UNL A   1      43.735  23.123  26.655  1.00  0.00    -0.014 A 
ATOM     65  C   UNL A   1      43.944  22.435  25.444  1.00  0.00     0.010 A 
ATOM     66  C   UNL A   1      43.117  22.448  27.723  1.00  0.00     0.010 A 
ATOM     67  C   UNL A   1      43.513  21.114  25.295  1.00  0.00     0.020 A 
ATOM     68  C   UNL A   1      42.713  21.115  27.589  1.00  0.00     0.020 A 
ATOM     69  C   UNL A   1      42.901  20.462  26.371  1.00  0.00     0.054 A 
BRANCH  69  70
ATOM     70  S   UNL A   1      42.386  18.736  26.157  1.00  0.00     0.124 S 
ATOM     71  O   UNL A   1      43.294  18.277  25.110  1.00  0.00    -0.237 OA
ATOM     72  O   UNL A   1      42.617  18.168  27.482  1.00  0.00    -0.237 OA
ATOM     73  O   UNL A   1      40.983  18.839  25.763  1.00  0.00    -0.744 OA
ENDBRANCH  69  70
ENDBRANCH  50  64
BRANCH  51  74
ATOM     74  C   UNL A   1      46.612  32.563  28.268  1.00  0.00    -0.014 A 
ATOM     75  C   UNL A   1      46.903  32.989  29.576  1.00  0.00     0.010 A 
ATOM     76  C   UNL A   1      46.747  33.479  27.207  1.00  0.00     0.010 A 
ATOM     77  C   UNL A   1      47.293  34.309  29.823  1.00  0.00     0.020 A 
ATOM     78  C   UNL A   1      47.167  34.790  27.445  1.00  0.00     0.020 A 
ATOM     79  C   UNL A   1      47.423  35.201  28.755  1.00  0.00     0.054 A 
BRANCH  79  80
ATOM     80  S   UNL A   1      47.965  36.899  29.094  1.00  0.00     0.124 S 
ATOM     81  O   UNL A   1      49.372  36.851  28.706  1.00  0.00    -0.237 OA
ATOM     82  O   UNL A   1      47.095  37.686  28.225  1.00  0.00    -0.237 OA
ATOM     83  O   UNL A   1      47.715  37.057  30.524  1.00  0.00    -0.744 OA
ENDBRANCH  79  80
ENDBRANCH  51  74
BRANCH  63  84
ATOM     84  C   UNL A   1      49.816  26.901  25.749  1.00  0.00    -0.014 A 
ATOM     85  C   UNL A   1      50.143  27.102  24.396  1.00  0.00     0.010 A 
ATOM     86  C   UNL A   1      50.828  26.514  26.648  1.00  0.00     0.010 A 
ATOM     87  C   UNL A   1      51.448  26.885  23.945  1.00  0.00     0.020 A 
ATOM     88  C   UNL A   1      52.140  26.327  26.206  1.00  0.00     0.020 A 
ATOM     89  C   UNL A   1      52.438  26.499  24.854  1.00  0.00     0.054 A 
BRANCH  89  90
ATOM     90  S   UNL A   1      54.131  26.259  24.249  1.00  0.00     0.124 S 
ATOM     91  O   UNL A   1      54.836  27.379  24.867  1.00  0.00    -0.237 OA
ATOM     92  O   UNL A   1      54.472  24.938  24.768  1.00  0.00    -0.237 OA
ATOM     93  O   UNL A   1      53.995  26.336  22.795  1.00  0.00    -0.744 OA
ENDBRANCH  89  90
ENDBRANCH  63  84
ENDBRANCH  37  38
ENDBRANCH  29  32
ENDBRANCH  27  28
ENDBRANCH  26  27
ENDBRANCH  25  26
ENDBRANCH   1  25
TORSDOF 20
ENDMDL
