MODEL 1
REMARK VINA RESULT:      -8.7      0.000      0.000
REMARK SMILES CC1(C)[C@@H](C(=O)NCCCCCCNC(=O)c2ccc(-c3c4nc(c(-c5ccc(S(=O)(=O)[O-])cc5)c5ccc([nH]5)c(-c5ccc(S(=O)(=O)[O-])cc5)c5nc(c(-c6ccc(S(=O)(=O)[O-])cc6)c6ccc3[nH]6)C=C5)C=C4)cc2)[C@@H]1C(=O)NCCc1ccc(S(N)(=O)=O)cc1
REMARK SMILES IDX 9 1 8 2 7 3 5 4 6 5 4 7 1 8 2 9 3 10 77 11 78 12 79 13 80 14
REMARK SMILES IDX 81 16 82 17 83 18 84 19 92 20 85 21 91 22 86 23 87 24 89 25
REMARK SMILES IDX 90 26 88 27 10 30 11 31 12 32 13 33 14 34 15 35 16 37 17 38
REMARK SMILES IDX 18 39 76 40 19 41 75 42 20 43 21 44 22 45 69 46 23 47 74 48
REMARK SMILES IDX 68 49 70 50 24 51 73 52 67 53 66 54 25 56 55 57 36 58 54 59
REMARK SMILES IDX 37 60 40 61 53 62 71 63 38 64 39 65 52 67 72 68 41 69 26 70
REMARK SMILES IDX 27 71 35 72 28 73 34 74 29 75 30 76 31 77 32 78 33 79 56 80
REMARK SMILES IDX 57 81 65 82 58 83 64 84 59 85 60 86 61 87 62 88 63 89 42 90
REMARK SMILES IDX 43 91 51 92 44 93 50 94 45 95 46 96 47 97 48 98 49 99
REMARK H PARENT 7 6 80 15 88 28 88 29 14 36 70 55 40 66
REMARK Flexibility Score: inf
ROOT
ATOM      1  C   UNL A   1      47.225  24.940  27.872  1.00  0.00     0.021 C 
ENDROOT
BRANCH   1   2
ATOM      2  C   UNL A   1      45.880  25.121  27.173  1.00  0.00     0.116 C 
BRANCH   2   3
ATOM      3  N   UNL A   1      45.953  26.085  26.097  1.00  0.00    -0.356 N 
ATOM      4  C   UNL A   1      44.992  26.903  25.567  1.00  0.00     0.224 C 
ATOM      5  O   UNL A   1      45.269  27.613  24.606  1.00  0.00    -0.275 OA
ATOM      6  H   UNL A   1      46.839  26.165  25.676  1.00  0.00     0.163 HD
BRANCH   4   7
ATOM      7  C   UNL A   1      43.604  26.912  26.103  1.00  0.00     0.098 C 
ATOM      8  C   UNL A   1      43.894  29.416  26.768  1.00  0.00     0.013 C 
ATOM      9  C   UNL A   1      43.007  28.198  26.662  1.00  0.00    -0.011 C 
ATOM     10  C   UNL A   1      41.586  28.525  26.266  1.00  0.00     0.013 C 
ATOM     11  C   UNL A   1      43.284  27.008  27.577  1.00  0.00     0.098 C 
BRANCH  11  12
ATOM     12  C   UNL A   1      42.161  26.296  28.244  1.00  0.00     0.224 C 
ATOM     13  O   UNL A   1      41.731  26.742  29.303  1.00  0.00    -0.275 OA
ATOM     14  N   UNL A   1      41.622  25.141  27.744  1.00  0.00    -0.355 N 
ATOM     15  H   UNL A   1      40.879  24.785  28.285  1.00  0.00     0.163 HD
BRANCH  14  16
ATOM     16  C   UNL A   1      41.929  24.337  26.573  1.00  0.00     0.120 C 
BRANCH  16  17
ATOM     17  C   UNL A   1      41.700  22.841  26.791  1.00  0.00     0.056 C 
BRANCH  17  18
ATOM     18  C   UNL A   1      42.745  21.943  26.190  1.00  0.00    -0.046 A 
ATOM     19  C   UNL A   1      42.482  20.581  25.993  1.00  0.00     0.005 A 
ATOM     20  C   UNL A   1      44.010  22.457  25.869  1.00  0.00     0.005 A 
ATOM     21  C   UNL A   1      43.474  19.739  25.492  1.00  0.00     0.022 A 
ATOM     22  C   UNL A   1      45.009  21.619  25.378  1.00  0.00     0.022 A 
ATOM     23  C   UNL A   1      44.737  20.262  25.199  1.00  0.00     0.082 A 
BRANCH  23  24
ATOM     24  S   UNL A   1      46.003  19.181  24.603  1.00  0.00     0.238 S 
ATOM     25  O   UNL A   1      47.238  19.927  24.538  1.00  0.00    -0.207 OA
ATOM     26  O   UNL A   1      45.895  17.912  25.284  1.00  0.00    -0.207 OA
BRANCH  24  27
ATOM     27  N   UNL A   1      45.512  18.905  23.025  1.00  0.00    -0.225 NA
ATOM     28  H   UNL A   1      46.290  18.518  22.490  1.00  0.00     0.137 HD
ATOM     29  H   UNL A   1      45.213  19.783  22.603  1.00  0.00     0.137 HD
ENDBRANCH  24  27
ENDBRANCH  23  24
ENDBRANCH  17  18
ENDBRANCH  16  17
ENDBRANCH  14  16
ENDBRANCH  11  12
ENDBRANCH   4   7
ENDBRANCH   2   3
ENDBRANCH   1   2
BRANCH   1  30
ATOM     30  C   UNL A   1      48.448  25.095  26.972  1.00  0.00     0.002 C 
BRANCH  30  31
ATOM     31  C   UNL A   1      49.782  25.219  27.714  1.00  0.00     0.002 C 
BRANCH  31  32
ATOM     32  C   UNL A   1      51.003  25.525  26.838  1.00  0.00     0.021 C 
BRANCH  32  33
ATOM     33  C   UNL A   1      50.683  26.025  25.432  1.00  0.00     0.116 C 
BRANCH  33  34
ATOM     34  N   UNL A   1      51.339  27.287  25.141  1.00  0.00    -0.352 N 
ATOM     35  C   UNL A   1      50.973  28.565  25.480  1.00  0.00     0.251 C 
ATOM     36  H   UNL A   1      52.173  27.216  24.621  1.00  0.00     0.163 HD
ATOM     37  O   UNL A   1      51.538  29.519  24.953  1.00  0.00    -0.269 OA
BRANCH  35  38
ATOM     38  C   UNL A   1      49.895  28.795  26.468  1.00  0.00     0.039 A 
ATOM     39  C   UNL A   1      50.242  29.189  27.764  1.00  0.00     0.014 A 
ATOM     40  C   UNL A   1      48.553  28.596  26.133  1.00  0.00     0.014 A 
ATOM     41  C   UNL A   1      49.240  29.429  28.706  1.00  0.00     0.010 A 
ATOM     42  C   UNL A   1      47.553  28.912  27.051  1.00  0.00     0.010 A 
ATOM     43  C   UNL A   1      47.884  29.322  28.350  1.00  0.00    -0.014 A 
BRANCH  43  44
ATOM     44  C   UNL A   1      46.809  29.633  29.328  1.00  0.00     0.031 A 
ATOM     45  C   UNL A   1      46.425  28.627  30.382  1.00  0.00     0.074 A 
ATOM     46  C   UNL A   1      46.145  30.803  29.239  1.00  0.00     0.049 A 
ATOM     47  N   UNL A   1      45.492  28.709  31.297  1.00  0.00    -0.248 NA
ATOM     48  C   UNL A   1      47.168  27.357  30.397  1.00  0.00     0.031 C 
ATOM     49  C   UNL A   1      46.396  31.845  28.240  1.00  0.00     0.029 A 
ATOM     50  N   UNL A   1      45.124  31.316  30.000  1.00  0.00    -0.354 N 
ATOM     51  C   UNL A   1      45.530  27.502  31.986  1.00  0.00     0.074 A 
ATOM     52  C   UNL A   1      46.537  26.684  31.348  1.00  0.00     0.031 C 
ATOM     53  C   UNL A   1      45.575  32.882  28.470  1.00  0.00     0.029 A 
ATOM     54  C   UNL A   1      44.709  32.564  29.600  1.00  0.00     0.049 A 
ATOM     55  H   UNL A   1      44.726  30.834  30.761  1.00  0.00     0.167 HD
ATOM     56  C   UNL A   1      44.805  27.117  33.065  1.00  0.00     0.031 A 
ATOM     57  C   UNL A   1      43.737  33.363  30.082  1.00  0.00     0.031 A 
ATOM     58  C   UNL A   1      43.808  27.937  33.700  1.00  0.00     0.049 A 
ATOM     59  C   UNL A   1      42.933  32.903  31.268  1.00  0.00     0.074 A 
ATOM     60  C   UNL A   1      43.057  27.657  34.829  1.00  0.00     0.029 A 
ATOM     61  N   UNL A   1      43.419  29.196  33.265  1.00  0.00    -0.354 N 
ATOM     62  N   UNL A   1      43.029  31.783  31.944  1.00  0.00    -0.248 NA
ATOM     63  C   UNL A   1      41.902  33.823  31.766  1.00  0.00     0.031 C 
ATOM     64  C   UNL A   1      42.168  28.716  35.038  1.00  0.00     0.029 A 
ATOM     65  C   UNL A   1      42.418  29.691  34.085  1.00  0.00     0.049 A 
ATOM     66  H   UNL A   1      43.799  29.667  32.489  1.00  0.00     0.167 HD
ATOM     67  C   UNL A   1      42.092  31.880  32.968  1.00  0.00     0.074 A 
ATOM     68  C   UNL A   1      41.455  33.173  32.832  1.00  0.00     0.031 C 
ATOM     69  C   UNL A   1      41.789  30.979  33.937  1.00  0.00     0.031 A 
BRANCH  56  70
ATOM     70  C   UNL A   1      45.056  25.738  33.622  1.00  0.00    -0.014 A 
ATOM     71  C   UNL A   1      46.026  25.518  34.617  1.00  0.00     0.010 A 
ATOM     72  C   UNL A   1      44.271  24.655  33.184  1.00  0.00     0.010 A 
ATOM     73  C   UNL A   1      46.233  24.236  35.134  1.00  0.00     0.020 A 
ATOM     74  C   UNL A   1      44.453  23.377  33.721  1.00  0.00     0.020 A 
ATOM     75  C   UNL A   1      45.445  23.174  34.683  1.00  0.00     0.054 A 
BRANCH  75  76
ATOM     76  S   UNL A   1      45.716  21.528  35.396  1.00  0.00     0.124 S 
ATOM     77  O   UNL A   1      45.549  21.788  36.823  1.00  0.00    -0.237 OA
ATOM     78  O   UNL A   1      44.660  20.734  34.774  1.00  0.00    -0.237 OA
ATOM     79  O   UNL A   1      47.075  21.189  34.980  1.00  0.00    -0.744 OA
ENDBRANCH  75  76
ENDBRANCH  56  70
BRANCH  57  80
ATOM     80  C   UNL A   1      43.473  34.684  29.445  1.00  0.00    -0.014 A 
ATOM     81  C   UNL A   1      44.081  35.853  29.938  1.00  0.00     0.010 A 
ATOM     82  C   UNL A   1      42.610  34.780  28.338  1.00  0.00     0.010 A 
ATOM     83  C   UNL A   1      43.810  37.094  29.353  1.00  0.00     0.020 A 
ATOM     84  C   UNL A   1      42.363  36.013  27.730  1.00  0.00     0.020 A 
ATOM     85  C   UNL A   1      42.954  37.165  28.250  1.00  0.00     0.054 A 
BRANCH  85  86
ATOM     86  S   UNL A   1      42.650  38.780  27.481  1.00  0.00     0.124 S 
ATOM     87  O   UNL A   1      41.510  38.495  26.616  1.00  0.00    -0.237 OA
ATOM     88  O   UNL A   1      42.374  39.630  28.636  1.00  0.00    -0.237 OA
ATOM     89  O   UNL A   1      43.904  39.070  26.790  1.00  0.00    -0.744 OA
ENDBRANCH  85  86
ENDBRANCH  57  80
BRANCH  69  90
ATOM     90  C   UNL A   1      40.753  31.378  34.956  1.00  0.00    -0.014 A 
ATOM     91  C   UNL A   1      41.094  32.118  36.103  1.00  0.00     0.010 A 
ATOM     92  C   UNL A   1      39.404  31.041  34.736  1.00  0.00     0.010 A 
ATOM     93  C   UNL A   1      40.112  32.474  37.031  1.00  0.00     0.020 A 
ATOM     94  C   UNL A   1      38.414  31.425  35.644  1.00  0.00     0.020 A 
ATOM     95  C   UNL A   1      38.778  32.125  36.796  1.00  0.00     0.054 A 
BRANCH  95  96
ATOM     96  S   UNL A   1      37.520  32.626  38.002  1.00  0.00     0.124 S 
ATOM     97  O   UNL A   1      36.504  33.232  37.147  1.00  0.00    -0.237 OA
ATOM     98  O   UNL A   1      37.147  31.357  38.621  1.00  0.00    -0.237 OA
ATOM     99  O   UNL A   1      38.231  33.556  38.878  1.00  0.00    -0.744 OA
ENDBRANCH  95  96
ENDBRANCH  69  90
ENDBRANCH  43  44
ENDBRANCH  35  38
ENDBRANCH  33  34
ENDBRANCH  32  33
ENDBRANCH  31  32
ENDBRANCH  30  31
ENDBRANCH   1  30
TORSDOF 22
ENDMDL
MODEL 2
REMARK VINA RESULT:      -8.4      2.507      5.138
REMARK SMILES CC1(C)[C@@H](C(=O)NCCCCCCNC(=O)c2ccc(-c3c4nc(c(-c5ccc(S(=O)(=O)[O-])cc5)c5ccc([nH]5)c(-c5ccc(S(=O)(=O)[O-])cc5)c5nc(c(-c6ccc(S(=O)(=O)[O-])cc6)c6ccc3[nH]6)C=C5)C=C4)cc2)[C@@H]1C(=O)NCCc1ccc(S(N)(=O)=O)cc1
REMARK SMILES IDX 9 1 8 2 7 3 5 4 6 5 4 7 1 8 2 9 3 10 77 11 78 12 79 13 80 14
REMARK SMILES IDX 81 16 82 17 83 18 84 19 92 20 85 21 91 22 86 23 87 24 89 25
REMARK SMILES IDX 90 26 88 27 10 30 11 31 12 32 13 33 14 34 15 35 16 37 17 38
REMARK SMILES IDX 18 39 76 40 19 41 75 42 20 43 21 44 22 45 69 46 23 47 74 48
REMARK SMILES IDX 68 49 70 50 24 51 73 52 67 53 66 54 25 56 55 57 36 58 54 59
REMARK SMILES IDX 37 60 40 61 53 62 71 63 38 64 39 65 52 67 72 68 41 69 26 70
REMARK SMILES IDX 27 71 35 72 28 73 34 74 29 75 30 76 31 77 32 78 33 79 56 80
REMARK SMILES IDX 57 81 65 82 58 83 64 84 59 85 60 86 61 87 62 88 63 89 42 90
REMARK SMILES IDX 43 91 51 92 44 93 50 94 45 95 46 96 47 97 48 98 49 99
REMARK H PARENT 7 6 80 15 88 28 88 29 14 36 70 55 40 66
REMARK Flexibility Score: inf
ROOT
ATOM      1  C   UNL A   1      47.144  25.329  28.032  1.00  0.00     0.021 C 
ENDROOT
BRANCH   1   2
ATOM      2  C   UNL A   1      45.758  25.473  27.407  1.00  0.00     0.116 C 
BRANCH   2   3
ATOM      3  N   UNL A   1      45.755  26.411  26.305  1.00  0.00    -0.356 N 
ATOM      4  C   UNL A   1      44.762  27.224  25.831  1.00  0.00     0.224 C 
ATOM      5  O   UNL A   1      44.969  27.908  24.834  1.00  0.00    -0.275 OA
ATOM      6  H   UNL A   1      46.607  26.473  25.815  1.00  0.00     0.163 HD
BRANCH   4   7
ATOM      7  C   UNL A   1      43.419  27.258  26.471  1.00  0.00     0.098 C 
ATOM      8  C   UNL A   1      43.625  29.843  26.728  1.00  0.00     0.013 C 
ATOM      9  C   UNL A   1      42.798  28.588  26.878  1.00  0.00    -0.011 C 
ATOM     10  C   UNL A   1      41.336  28.792  26.555  1.00  0.00     0.013 C 
ATOM     11  C   UNL A   1      43.205  27.565  27.935  1.00  0.00     0.098 C 
BRANCH  11  12
ATOM     12  C   UNL A   1      42.175  26.918  28.790  1.00  0.00     0.224 C 
ATOM     13  O   UNL A   1      41.891  25.743  28.577  1.00  0.00    -0.275 OA
ATOM     14  N   UNL A   1      41.502  27.594  29.771  1.00  0.00    -0.355 N 
ATOM     15  H   UNL A   1      40.854  27.038  30.262  1.00  0.00     0.163 HD
BRANCH  14  16
ATOM     16  C   UNL A   1      41.554  28.973  30.231  1.00  0.00     0.120 C 
BRANCH  16  17
ATOM     17  C   UNL A   1      40.422  29.331  31.193  1.00  0.00     0.056 C 
BRANCH  17  18
ATOM     18  C   UNL A   1      39.382  30.263  30.634  1.00  0.00    -0.046 A 
ATOM     19  C   UNL A   1      38.801  31.246  31.444  1.00  0.00     0.005 A 
ATOM     20  C   UNL A   1      38.953  30.117  29.306  1.00  0.00     0.005 A 
ATOM     21  C   UNL A   1      37.794  32.067  30.940  1.00  0.00     0.022 A 
ATOM     22  C   UNL A   1      37.939  30.927  28.798  1.00  0.00     0.022 A 
ATOM     23  C   UNL A   1      37.360  31.894  29.622  1.00  0.00     0.082 A 
BRANCH  23  24
ATOM     24  S   UNL A   1      36.054  32.911  29.001  1.00  0.00     0.238 S 
ATOM     25  O   UNL A   1      35.768  32.499  27.647  1.00  0.00    -0.207 OA
ATOM     26  O   UNL A   1      35.030  33.028  30.012  1.00  0.00    -0.207 OA
BRANCH  24  27
ATOM     27  N   UNL A   1      36.792  34.412  28.912  1.00  0.00    -0.225 NA
ATOM     28  H   UNL A   1      37.805  34.293  28.890  1.00  0.00     0.137 HD
ATOM     29  H   UNL A   1      36.534  34.968  29.727  1.00  0.00     0.137 HD
ENDBRANCH  24  27
ENDBRANCH  23  24
ENDBRANCH  17  18
ENDBRANCH  16  17
ENDBRANCH  14  16
ENDBRANCH  11  12
ENDBRANCH   4   7
ENDBRANCH   2   3
ENDBRANCH   1   2
BRANCH   1  30
ATOM     30  C   UNL A   1      48.276  25.059  27.043  1.00  0.00     0.002 C 
BRANCH  30  31
ATOM     31  C   UNL A   1      49.660  24.898  27.677  1.00  0.00     0.002 C 
BRANCH  31  32
ATOM     32  C   UNL A   1      50.738  25.863  27.171  1.00  0.00     0.021 C 
BRANCH  32  33
ATOM     33  C   UNL A   1      50.581  26.307  25.719  1.00  0.00     0.116 C 
BRANCH  33  34
ATOM     34  N   UNL A   1      51.250  27.570  25.462  1.00  0.00    -0.352 N 
ATOM     35  C   UNL A   1      50.888  28.845  25.821  1.00  0.00     0.251 C 
ATOM     36  H   UNL A   1      52.090  27.504  24.952  1.00  0.00     0.163 HD
ATOM     37  O   UNL A   1      51.467  29.804  25.320  1.00  0.00    -0.269 OA
BRANCH  35  38
ATOM     38  C   UNL A   1      49.799  29.063  26.798  1.00  0.00     0.039 A 
ATOM     39  C   UNL A   1      50.125  29.503  28.084  1.00  0.00     0.014 A 
ATOM     40  C   UNL A   1      48.465  28.809  26.464  1.00  0.00     0.014 A 
ATOM     41  C   UNL A   1      49.111  29.734  29.015  1.00  0.00     0.010 A 
ATOM     42  C   UNL A   1      47.451  29.114  27.368  1.00  0.00     0.010 A 
ATOM     43  C   UNL A   1      47.762  29.570  28.658  1.00  0.00    -0.014 A 
BRANCH  43  44
ATOM     44  C   UNL A   1      46.672  29.870  29.623  1.00  0.00     0.031 A 
ATOM     45  C   UNL A   1      46.297  28.866  30.682  1.00  0.00     0.074 A 
ATOM     46  C   UNL A   1      45.988  31.027  29.517  1.00  0.00     0.049 A 
ATOM     47  N   UNL A   1      45.354  28.939  31.588  1.00  0.00    -0.248 NA
ATOM     48  C   UNL A   1      47.063  27.611  30.716  1.00  0.00     0.031 C 
ATOM     49  C   UNL A   1      46.228  32.064  28.511  1.00  0.00     0.029 A 
ATOM     50  N   UNL A   1      44.950  31.527  30.264  1.00  0.00    -0.354 N 
ATOM     51  C   UNL A   1      45.408  27.739  32.288  1.00  0.00     0.074 A 
ATOM     52  C   UNL A   1      46.436  26.934  31.667  1.00  0.00     0.031 C 
ATOM     53  C   UNL A   1      45.387  33.088  28.724  1.00  0.00     0.029 A 
ATOM     54  C   UNL A   1      44.516  32.764  29.849  1.00  0.00     0.049 A 
ATOM     55  H   UNL A   1      44.554  31.045  31.026  1.00  0.00     0.167 HD
ATOM     56  C   UNL A   1      44.680  27.350  33.363  1.00  0.00     0.031 A 
ATOM     57  C   UNL A   1      43.524  33.549  30.315  1.00  0.00     0.031 A 
ATOM     58  C   UNL A   1      43.662  28.158  33.982  1.00  0.00     0.049 A 
ATOM     59  C   UNL A   1      42.719  33.085  31.498  1.00  0.00     0.074 A 
ATOM     60  C   UNL A   1      42.906  27.873  35.107  1.00  0.00     0.029 A 
ATOM     61  N   UNL A   1      43.254  29.405  33.532  1.00  0.00    -0.354 N 
ATOM     62  N   UNL A   1      42.828  31.973  32.184  1.00  0.00    -0.248 NA
ATOM     63  C   UNL A   1      41.666  33.990  31.978  1.00  0.00     0.031 C 
ATOM     64  C   UNL A   1      41.996  28.918  35.298  1.00  0.00     0.029 A 
ATOM     65  C   UNL A   1      42.236  29.889  34.339  1.00  0.00     0.049 A 
ATOM     66  H   UNL A   1      43.632  29.877  32.755  1.00  0.00     0.167 HD
ATOM     67  C   UNL A   1      41.880  32.061  33.199  1.00  0.00     0.074 A 
ATOM     68  C   UNL A   1      41.221  33.342  33.045  1.00  0.00     0.031 C 
ATOM     69  C   UNL A   1      41.586  31.164  34.174  1.00  0.00     0.031 A 
BRANCH  56  70
ATOM     70  C   UNL A   1      44.951  25.981  33.935  1.00  0.00    -0.014 A 
ATOM     71  C   UNL A   1      44.216  24.857  33.517  1.00  0.00     0.010 A 
ATOM     72  C   UNL A   1      45.994  25.807  34.863  1.00  0.00     0.010 A 
ATOM     73  C   UNL A   1      44.492  23.593  34.045  1.00  0.00     0.020 A 
ATOM     74  C   UNL A   1      46.295  24.539  35.370  1.00  0.00     0.020 A 
ATOM     75  C   UNL A   1      45.530  23.442  34.968  1.00  0.00     0.054 A 
BRANCH  75  76
ATOM     76  S   UNL A   1      45.885  21.784  35.612  1.00  0.00     0.124 S 
ATOM     77  O   UNL A   1      47.322  21.671  35.376  1.00  0.00    -0.237 OA
ATOM     78  O   UNL A   1      45.485  21.893  37.012  1.00  0.00    -0.237 OA
ATOM     79  O   UNL A   1      45.050  20.907  34.794  1.00  0.00    -0.744 OA
ENDBRANCH  75  76
ENDBRANCH  56  70
BRANCH  57  80
ATOM     80  C   UNL A   1      43.243  34.860  29.664  1.00  0.00    -0.014 A 
ATOM     81  C   UNL A   1      44.017  35.994  29.968  1.00  0.00     0.010 A 
ATOM     82  C   UNL A   1      42.195  34.980  28.732  1.00  0.00     0.010 A 
ATOM     83  C   UNL A   1      43.731  37.227  29.374  1.00  0.00     0.020 A 
ATOM     84  C   UNL A   1      41.928  36.202  28.111  1.00  0.00     0.020 A 
ATOM     85  C   UNL A   1      42.690  37.322  28.446  1.00  0.00     0.054 A 
BRANCH  85  86
ATOM     86  S   UNL A   1      42.365  38.923  27.657  1.00  0.00     0.124 S 
ATOM     87  O   UNL A   1      41.664  39.646  28.713  1.00  0.00    -0.237 OA
ATOM     88  O   UNL A   1      43.711  39.399  27.347  1.00  0.00    -0.237 OA
ATOM     89  O   UNL A   1      41.554  38.572  26.493  1.00  0.00    -0.744 OA
ENDBRANCH  85  86
ENDBRANCH  57  80
BRANCH  69  90
ATOM     90  C   UNL A   1      40.532  31.553  35.179  1.00  0.00    -0.014 A 
ATOM     91  C   UNL A   1      40.854  32.283  36.337  1.00  0.00     0.010 A 
ATOM     92  C   UNL A   1      39.188  31.216  34.935  1.00  0.00     0.010 A 
ATOM     93  C   UNL A   1      39.857  32.629  37.253  1.00  0.00     0.020 A 
ATOM     94  C   UNL A   1      38.183  31.591  35.830  1.00  0.00     0.020 A 
ATOM     95  C   UNL A   1      38.527  32.280  36.994  1.00  0.00     0.054 A 
BRANCH  95  96
ATOM     96  S   UNL A   1      37.250  32.770  38.184  1.00  0.00     0.124 S 
ATOM     97  O   UNL A   1      36.248  33.384  37.318  1.00  0.00    -0.237 OA
ATOM     98  O   UNL A   1      36.867  31.494  38.784  1.00  0.00    -0.237 OA
ATOM     99  O   UNL A   1      37.946  33.691  39.081  1.00  0.00    -0.744 OA
ENDBRANCH  95  96
ENDBRANCH  69  90
ENDBRANCH  43  44
ENDBRANCH  35  38
ENDBRANCH  33  34
ENDBRANCH  32  33
ENDBRANCH  31  32
ENDBRANCH  30  31
ENDBRANCH   1  30
TORSDOF 22
ENDMDL
MODEL 3
REMARK VINA RESULT:      -8.2      4.824     12.421
REMARK SMILES CC1(C)[C@@H](C(=O)NCCCCCCNC(=O)c2ccc(-c3c4nc(c(-c5ccc(S(=O)(=O)[O-])cc5)c5ccc([nH]5)c(-c5ccc(S(=O)(=O)[O-])cc5)c5nc(c(-c6ccc(S(=O)(=O)[O-])cc6)c6ccc3[nH]6)C=C5)C=C4)cc2)[C@@H]1C(=O)NCCc1ccc(S(N)(=O)=O)cc1
REMARK SMILES IDX 9 1 8 2 7 3 5 4 6 5 4 7 1 8 2 9 3 10 77 11 78 12 79 13 80 14
REMARK SMILES IDX 81 16 82 17 83 18 84 19 92 20 85 21 91 22 86 23 87 24 89 25
REMARK SMILES IDX 90 26 88 27 10 30 11 31 12 32 13 33 14 34 15 35 16 37 17 38
REMARK SMILES IDX 18 39 76 40 19 41 75 42 20 43 21 44 22 45 69 46 23 47 74 48
REMARK SMILES IDX 68 49 70 50 24 51 73 52 67 53 66 54 25 56 55 57 36 58 54 59
REMARK SMILES IDX 37 60 40 61 53 62 71 63 38 64 39 65 52 67 72 68 41 69 26 70
REMARK SMILES IDX 27 71 35 72 28 73 34 74 29 75 30 76 31 77 32 78 33 79 56 80
REMARK SMILES IDX 57 81 65 82 58 83 64 84 59 85 60 86 61 87 62 88 63 89 42 90
REMARK SMILES IDX 43 91 51 92 44 93 50 94 45 95 46 96 47 97 48 98 49 99
REMARK H PARENT 7 6 80 15 88 28 88 29 14 36 70 55 40 66
REMARK Flexibility Score: inf
ROOT
ATOM      1  C   UNL A   1      39.192  34.579  32.932  1.00  0.00     0.021 C 
ENDROOT
BRANCH   1   2
ATOM      2  C   UNL A   1      38.030  34.631  31.943  1.00  0.00     0.116 C 
BRANCH   2   3
ATOM      3  N   UNL A   1      38.486  34.763  30.576  1.00  0.00    -0.356 N 
ATOM      4  C   UNL A   1      38.160  34.049  29.456  1.00  0.00     0.224 C 
ATOM      5  O   UNL A   1      38.719  34.305  28.394  1.00  0.00    -0.275 OA
ATOM      6  H   UNL A   1      39.139  35.485  30.428  1.00  0.00     0.163 HD
BRANCH   4   7
ATOM      7  C   UNL A   1      37.175  32.935  29.508  1.00  0.00     0.098 C 
ATOM      8  C   UNL A   1      35.266  34.615  28.939  1.00  0.00     0.013 C 
ATOM      9  C   UNL A   1      35.709  33.192  29.188  1.00  0.00    -0.011 C 
ATOM     10  C   UNL A   1      35.010  32.185  28.305  1.00  0.00     0.013 C 
ATOM     11  C   UNL A   1      36.138  32.795  30.599  1.00  0.00     0.098 C 
BRANCH  11  12
ATOM     12  C   UNL A   1      35.696  31.500  31.181  1.00  0.00     0.224 C 
ATOM     13  O   UNL A   1      34.965  31.520  32.166  1.00  0.00    -0.275 OA
ATOM     14  N   UNL A   1      36.111  30.292  30.689  1.00  0.00    -0.355 N 
ATOM     15  H   UNL A   1      35.732  29.519  31.167  1.00  0.00     0.163 HD
BRANCH  14  16
ATOM     16  C   UNL A   1      37.000  29.925  29.598  1.00  0.00     0.120 C 
BRANCH  16  17
ATOM     17  C   UNL A   1      37.922  28.755  29.939  1.00  0.00     0.056 C 
BRANCH  17  18
ATOM     18  C   UNL A   1      38.967  28.446  28.902  1.00  0.00    -0.046 A 
ATOM     19  C   UNL A   1      39.127  29.277  27.786  1.00  0.00     0.005 A 
ATOM     20  C   UNL A   1      39.753  27.290  29.023  1.00  0.00     0.005 A 
ATOM     21  C   UNL A   1      40.054  28.953  26.796  1.00  0.00     0.022 A 
ATOM     22  C   UNL A   1      40.673  26.955  28.033  1.00  0.00     0.022 A 
ATOM     23  C   UNL A   1      40.813  27.786  26.920  1.00  0.00     0.082 A 
BRANCH  23  24
ATOM     24  S   UNL A   1      41.957  27.360  25.641  1.00  0.00     0.238 S 
ATOM     25  O   UNL A   1      41.527  26.115  25.049  1.00  0.00    -0.207 OA
ATOM     26  O   UNL A   1      42.243  28.537  24.856  1.00  0.00    -0.207 OA
BRANCH  24  27
ATOM     27  N   UNL A   1      43.350  27.033  26.513  1.00  0.00    -0.225 NA
ATOM     28  H   UNL A   1      43.295  26.092  26.902  1.00  0.00     0.137 HD
ATOM     29  H   UNL A   1      43.445  27.709  27.270  1.00  0.00     0.137 HD
ENDBRANCH  24  27
ENDBRANCH  23  24
ENDBRANCH  17  18
ENDBRANCH  16  17
ENDBRANCH  14  16
ENDBRANCH  11  12
ENDBRANCH   4   7
ENDBRANCH   2   3
ENDBRANCH   1   2
BRANCH   1  30
ATOM     30  C   UNL A   1      38.796  34.674  34.403  1.00  0.00     0.002 C 
BRANCH  30  31
ATOM     31  C   UNL A   1      39.462  33.643  35.318  1.00  0.00     0.002 C 
BRANCH  31  32
ATOM     32  C   UNL A   1      38.601  32.430  35.688  1.00  0.00     0.021 C 
BRANCH  32  33
ATOM     33  C   UNL A   1      37.611  31.986  34.615  1.00  0.00     0.116 C 
BRANCH  33  34
ATOM     34  N   UNL A   1      37.697  30.560  34.351  1.00  0.00    -0.352 N 
ATOM     35  C   UNL A   1      38.508  29.877  33.479  1.00  0.00     0.251 C 
ATOM     36  H   UNL A   1      37.081  29.999  34.876  1.00  0.00     0.163 HD
ATOM     37  O   UNL A   1      38.279  28.695  33.238  1.00  0.00    -0.269 OA
BRANCH  35  38
ATOM     38  C   UNL A   1      39.645  30.561  32.825  1.00  0.00     0.039 A 
ATOM     39  C   UNL A   1      40.872  30.617  33.493  1.00  0.00     0.014 A 
ATOM     40  C   UNL A   1      39.500  31.171  31.576  1.00  0.00     0.014 A 
ATOM     41  C   UNL A   1      41.962  31.241  32.885  1.00  0.00     0.010 A 
ATOM     42  C   UNL A   1      40.609  31.724  30.939  1.00  0.00     0.010 A 
ATOM     43  C   UNL A   1      41.850  31.775  31.590  1.00  0.00    -0.014 A 
BRANCH  43  44
ATOM     44  C   UNL A   1      43.020  32.389  30.910  1.00  0.00     0.031 A 
ATOM     45  C   UNL A   1      43.291  33.865  31.045  1.00  0.00     0.074 A 
ATOM     46  C   UNL A   1      43.815  31.626  30.132  1.00  0.00     0.049 A 
ATOM     47  N   UNL A   1      44.243  34.581  30.501  1.00  0.00    -0.248 NA
ATOM     48  C   UNL A   1      42.362  34.641  31.881  1.00  0.00     0.031 C 
ATOM     49  C   UNL A   1      43.638  30.193  29.888  1.00  0.00     0.029 A 
ATOM     50  N   UNL A   1      44.932  31.948  29.402  1.00  0.00    -0.354 N 
ATOM     51  C   UNL A   1      44.020  35.888  30.919  1.00  0.00     0.074 A 
ATOM     52  C   UNL A   1      42.812  35.876  31.715  1.00  0.00     0.031 C 
ATOM     53  C   UNL A   1      44.627  29.755  29.094  1.00  0.00     0.029 A 
ATOM     54  C   UNL A   1      45.483  30.880  28.734  1.00  0.00     0.049 A 
ATOM     55  H   UNL A   1      45.304  32.859  29.360  1.00  0.00     0.167 HD
ATOM     56  C   UNL A   1      44.764  36.995  30.678  1.00  0.00     0.031 A 
ATOM     57  C   UNL A   1      46.552  30.812  27.916  1.00  0.00     0.031 A 
ATOM     58  C   UNL A   1      45.968  37.001  29.890  1.00  0.00     0.049 A 
ATOM     59  C   UNL A   1      47.350  32.060  27.650  1.00  0.00     0.074 A 
ATOM     60  C   UNL A   1      46.820  38.061  29.632  1.00  0.00     0.029 A 
ATOM     61  N   UNL A   1      46.493  35.897  29.233  1.00  0.00    -0.354 N 
ATOM     62  N   UNL A   1      47.158  33.274  28.106  1.00  0.00    -0.248 NA
ATOM     63  C   UNL A   1      48.518  31.923  26.770  1.00  0.00     0.031 C 
ATOM     64  C   UNL A   1      47.823  37.615  28.765  1.00  0.00     0.029 A 
ATOM     65  C   UNL A   1      47.640  36.259  28.544  1.00  0.00     0.049 A 
ATOM     66  H   UNL A   1      46.108  34.992  29.253  1.00  0.00     0.167 HD
ATOM     67  C   UNL A   1      48.202  34.039  27.595  1.00  0.00     0.074 A 
ATOM     68  C   UNL A   1      49.029  33.146  26.811  1.00  0.00     0.031 C 
ATOM     69  C   UNL A   1      48.454  35.361  27.764  1.00  0.00     0.031 A 
BRANCH  56  70
ATOM     70  C   UNL A   1      44.288  38.300  31.265  1.00  0.00    -0.014 A 
ATOM     71  C   UNL A   1      44.566  38.644  32.600  1.00  0.00     0.010 A 
ATOM     72  C   UNL A   1      43.603  39.222  30.452  1.00  0.00     0.010 A 
ATOM     73  C   UNL A   1      44.132  39.865  33.123  1.00  0.00     0.020 A 
ATOM     74  C   UNL A   1      43.196  40.459  30.962  1.00  0.00     0.020 A 
ATOM     75  C   UNL A   1      43.450  40.765  32.300  1.00  0.00     0.054 A 
BRANCH  75  76
ATOM     76  S   UNL A   1      42.928  42.356  32.998  1.00  0.00     0.124 S 
ATOM     77  O   UNL A   1      41.839  41.953  33.883  1.00  0.00    -0.237 OA
ATOM     78  O   UNL A   1      44.141  42.824  33.665  1.00  0.00    -0.237 OA
ATOM     79  O   UNL A   1      42.524  43.133  31.829  1.00  0.00    -0.744 OA
ENDBRANCH  75  76
ENDBRANCH  56  70
BRANCH  57  80
ATOM     80  C   UNL A   1      46.935  29.513  27.295  1.00  0.00    -0.014 A 
ATOM     81  C   UNL A   1      47.829  28.642  27.944  1.00  0.00     0.010 A 
ATOM     82  C   UNL A   1      46.403  29.138  26.047  1.00  0.00     0.010 A 
ATOM     83  C   UNL A   1      48.204  27.436  27.345  1.00  0.00     0.020 A 
ATOM     84  C   UNL A   1      46.750  27.918  25.461  1.00  0.00     0.020 A 
ATOM     85  C   UNL A   1      47.659  27.080  26.107  1.00  0.00     0.054 A 
BRANCH  85  86
ATOM     86  S   UNL A   1      48.128  25.491  25.369  1.00  0.00     0.124 S 
ATOM     87  O   UNL A   1      49.485  25.761  24.904  1.00  0.00    -0.237 OA
ATOM     88  O   UNL A   1      48.017  24.574  26.500  1.00  0.00    -0.237 OA
ATOM     89  O   UNL A   1      47.133  25.295  24.318  1.00  0.00    -0.744 OA
ENDBRANCH  85  86
ENDBRANCH  57  80
BRANCH  69  90
ATOM     90  C   UNL A   1      49.701  35.917  27.125  1.00  0.00    -0.014 A 
ATOM     91  C   UNL A   1      49.669  36.532  25.861  1.00  0.00     0.010 A 
ATOM     92  C   UNL A   1      50.920  35.859  27.827  1.00  0.00     0.010 A 
ATOM     93  C   UNL A   1      50.841  37.038  25.292  1.00  0.00     0.020 A 
ATOM     94  C   UNL A   1      52.087  36.395  27.277  1.00  0.00     0.020 A 
ATOM     95  C   UNL A   1      52.043  36.966  26.005  1.00  0.00     0.054 A 
BRANCH  95  96
ATOM     96  S   UNL A   1      53.543  37.658  25.256  1.00  0.00     0.124 S 
ATOM     97  O   UNL A   1      54.583  37.183  26.164  1.00  0.00    -0.237 OA
ATOM     98  O   UNL A   1      53.544  37.055  23.926  1.00  0.00    -0.237 OA
ATOM     99  O   UNL A   1      53.307  39.101  25.280  1.00  0.00    -0.744 OA
ENDBRANCH  95  96
ENDBRANCH  69  90
ENDBRANCH  43  44
ENDBRANCH  35  38
ENDBRANCH  33  34
ENDBRANCH  32  33
ENDBRANCH  31  32
ENDBRANCH  30  31
ENDBRANCH   1  30
TORSDOF 22
ENDMDL
