MODEL 1
REMARK VINA RESULT:     -10.2      0.000      0.000
REMARK SMILES O=C(C[C@@H]1C[N@@H+](C[C@H]2CCOC2)CCO1)NCCCCCCNC(=O)c1ccc(-c2c3nc(c(-c4ccc(S(=O)(=O)[O-])cc4)c4ccc([nH]4)c(-c4ccc(S(=O)(=O)[O-])cc4)c4nc(c(-c5ccc(S(=O)(=O)[O-])cc5)c5ccc2[nH]5)C=C4)C=C3)cc1
REMARK SMILES IDX 19 1 18 2 17 3 16 4 1 5 2 6 3 8 4 9 5 10 15 11 6 12 14 13
REMARK SMILES IDX 13 14 7 16 8 17 9 18 12 19 10 20 11 21 20 22 21 23 22 24
REMARK SMILES IDX 23 25 24 26 25 28 26 29 27 30 85 31 28 32 84 33 29 34 30 35
REMARK SMILES IDX 31 36 78 37 32 38 83 39 77 40 79 41 33 42 82 43 76 44 75 45
REMARK SMILES IDX 34 47 64 48 45 49 63 50 46 51 49 52 62 53 80 54 47 55 48 56
REMARK SMILES IDX 61 58 81 59 50 60 35 61 36 62 44 63 37 64 43 65 38 66 39 67
REMARK SMILES IDX 40 68 41 69 42 70 65 71 66 72 74 73 67 74 73 75 68 76 69 77
REMARK SMILES IDX 70 78 71 79 72 80 51 81 52 82 60 83 53 84 59 85 54 86 55 87
REMARK SMILES IDX 56 88 57 89 58 90
REMARK H PARENT 16 7 6 15 23 27 79 46 49 57
REMARK Flexibility Score: inf
ROOT
ATOM      1  C   UNL A   1      35.691  21.803  25.571  1.00  0.00     0.002 C 
ENDROOT
BRANCH   1   2
ATOM      2  C   UNL A   1      34.161  21.959  25.619  1.00  0.00     0.021 C 
BRANCH   2   3
ATOM      3  C   UNL A   1      33.443  21.705  24.297  1.00  0.00     0.116 C 
BRANCH   3   4
ATOM      4  N   UNL A   1      33.051  22.949  23.694  1.00  0.00    -0.356 N 
ATOM      5  O   UNL A   1      34.950  23.458  22.502  1.00  0.00    -0.275 OA
ATOM      6  C   UNL A   1      33.810  23.724  22.859  1.00  0.00     0.222 C 
ATOM      7  H   UNL A   1      32.146  23.276  23.902  1.00  0.00     0.163 HD
BRANCH   6   8
ATOM      8  C   UNL A   1      33.137  25.039  22.521  1.00  0.00     0.138 C 
BRANCH   8   9
ATOM      9  C   UNL A   1      32.713  25.902  23.722  1.00  0.00     0.182 C 
ATOM     10  C   UNL A   1      33.926  26.150  24.644  1.00  0.00     0.295 C 
ATOM     11  O   UNL A   1      31.681  25.276  24.507  1.00  0.00    -0.366 OA
ATOM     12  N   UNL A   1      33.608  26.963  25.821  1.00  0.00    -0.331 N 
ATOM     13  C   UNL A   1      31.234  26.118  25.575  1.00  0.00     0.222 C 
ATOM     14  C   UNL A   1      32.390  26.511  26.500  1.00  0.00     0.291 C 
ATOM     15  H   UNL A   1      34.349  26.767  26.494  1.00  0.00     0.348 HD
BRANCH  12  16
ATOM     16  C   UNL A   1      33.823  28.398  25.697  1.00  0.00     0.268 C 
BRANCH  16  17
ATOM     17  C   UNL A   1      33.751  29.304  26.933  1.00  0.00     0.072 C 
ATOM     18  C   UNL A   1      35.040  29.950  27.395  1.00  0.00     0.040 C 
ATOM     19  C   UNL A   1      32.896  30.535  26.652  1.00  0.00     0.169 C 
ATOM     20  C   UNL A   1      34.551  31.165  28.155  1.00  0.00     0.160 C 
ATOM     21  O   UNL A   1      33.302  31.552  27.573  1.00  0.00    -0.381 OA
ENDBRANCH  16  17
ENDBRANCH  12  16
ENDBRANCH   8   9
ENDBRANCH   6   8
ENDBRANCH   3   4
ENDBRANCH   2   3
ENDBRANCH   1   2
BRANCH   1  22
ATOM     22  C   UNL A   1      36.502  23.091  25.750  1.00  0.00     0.002 C 
BRANCH  22  23
ATOM     23  C   UNL A   1      37.978  22.888  26.090  1.00  0.00     0.021 C 
BRANCH  23  24
ATOM     24  C   UNL A   1      38.732  24.159  26.467  1.00  0.00     0.116 C 
BRANCH  24  25
ATOM     25  N   UNL A   1      40.136  24.105  26.097  1.00  0.00    -0.352 N 
ATOM     26  C   UNL A   1      41.163  24.941  26.471  1.00  0.00     0.251 C 
ATOM     27  H   UNL A   1      40.388  23.368  25.495  1.00  0.00     0.163 HD
ATOM     28  O   UNL A   1      42.259  24.844  25.933  1.00  0.00    -0.269 OA
BRANCH  26  29
ATOM     29  C   UNL A   1      40.929  25.976  27.505  1.00  0.00     0.039 A 
ATOM     30  C   UNL A   1      39.965  25.742  28.487  1.00  0.00     0.014 A 
ATOM     31  C   UNL A   1      41.660  27.167  27.511  1.00  0.00     0.014 A 
ATOM     32  C   UNL A   1      39.776  26.677  29.509  1.00  0.00     0.010 A 
ATOM     33  C   UNL A   1      41.528  28.058  28.573  1.00  0.00     0.010 A 
ATOM     34  C   UNL A   1      40.580  27.827  29.581  1.00  0.00    -0.014 A 
BRANCH  34  35
ATOM     35  C   UNL A   1      40.444  28.788  30.706  1.00  0.00     0.031 A 
ATOM     36  C   UNL A   1      41.336  28.684  31.913  1.00  0.00     0.074 A 
ATOM     37  C   UNL A   1      39.479  29.730  30.661  1.00  0.00     0.049 A 
ATOM     38  N   UNL A   1      41.363  29.434  32.986  1.00  0.00    -0.248 NA
ATOM     39  C   UNL A   1      42.309  27.581  31.930  1.00  0.00     0.031 C 
ATOM     40  C   UNL A   1      38.524  29.913  29.565  1.00  0.00     0.029 A 
ATOM     41  N   UNL A   1      39.146  30.715  31.557  1.00  0.00    -0.354 N 
ATOM     42  C   UNL A   1      42.338  28.883  33.810  1.00  0.00     0.074 A 
ATOM     43  C   UNL A   1      42.842  27.706  33.136  1.00  0.00     0.031 C 
ATOM     44  C   UNL A   1      37.748  30.976  29.830  1.00  0.00     0.029 A 
ATOM     45  C   UNL A   1      38.116  31.522  31.133  1.00  0.00     0.049 A 
ATOM     46  H   UNL A   1      39.602  30.833  32.422  1.00  0.00     0.167 HD
ATOM     47  C   UNL A   1      42.787  29.324  35.011  1.00  0.00     0.031 A 
ATOM     48  C   UNL A   1      37.534  32.585  31.722  1.00  0.00     0.031 A 
ATOM     49  C   UNL A   1      42.281  30.497  35.678  1.00  0.00     0.049 A 
ATOM     50  C   UNL A   1      38.034  33.042  33.065  1.00  0.00     0.074 A 
ATOM     51  C   UNL A   1      42.713  31.065  36.864  1.00  0.00     0.029 A 
ATOM     52  N   UNL A   1      41.223  31.271  35.226  1.00  0.00    -0.354 N 
ATOM     53  N   UNL A   1      39.014  32.558  33.791  1.00  0.00    -0.248 NA
ATOM     54  C   UNL A   1      37.353  34.198  33.663  1.00  0.00     0.031 C 
ATOM     55  C   UNL A   1      41.872  32.141  37.164  1.00  0.00     0.029 A 
ATOM     56  C   UNL A   1      40.963  32.291  36.129  1.00  0.00     0.049 A 
ATOM     57  H   UNL A   1      40.730  31.120  34.387  1.00  0.00     0.167 HD
ATOM     58  C   UNL A   1      39.088  33.371  34.917  1.00  0.00     0.074 A 
ATOM     59  C   UNL A   1      38.064  34.385  34.767  1.00  0.00     0.031 C 
ATOM     60  C   UNL A   1      39.931  33.287  35.976  1.00  0.00     0.031 A 
BRANCH  47  61
ATOM     61  C   UNL A   1      43.861  28.513  35.693  1.00  0.00    -0.014 A 
ATOM     62  C   UNL A   1      43.540  27.472  36.585  1.00  0.00     0.010 A 
ATOM     63  C   UNL A   1      45.215  28.785  35.424  1.00  0.00     0.010 A 
ATOM     64  C   UNL A   1      44.552  26.763  37.241  1.00  0.00     0.020 A 
ATOM     65  C   UNL A   1      46.229  28.055  36.050  1.00  0.00     0.020 A 
ATOM     66  C   UNL A   1      45.890  27.065  36.973  1.00  0.00     0.054 A 
BRANCH  66  67
ATOM     67  S   UNL A   1      47.182  26.133  37.842  1.00  0.00     0.124 S 
ATOM     68  O   UNL A   1      48.231  27.139  37.988  1.00  0.00    -0.237 OA
ATOM     69  O   UNL A   1      46.515  25.739  39.079  1.00  0.00    -0.237 OA
ATOM     70  O   UNL A   1      47.495  25.037  36.929  1.00  0.00    -0.744 OA
ENDBRANCH  66  67
ENDBRANCH  47  61
BRANCH  48  71
ATOM     71  C   UNL A   1      36.440  33.315  31.024  1.00  0.00    -0.014 A 
ATOM     72  C   UNL A   1      35.174  33.435  31.625  1.00  0.00     0.010 A 
ATOM     73  C   UNL A   1      36.659  33.909  29.769  1.00  0.00     0.010 A 
ATOM     74  C   UNL A   1      34.144  34.125  30.978  1.00  0.00     0.020 A 
ATOM     75  C   UNL A   1      35.641  34.626  29.132  1.00  0.00     0.020 A 
ATOM     76  C   UNL A   1      34.387  34.722  29.739  1.00  0.00     0.054 A 
BRANCH  76  77
ATOM     77  S   UNL A   1      33.054  35.668  28.949  1.00  0.00     0.124 S 
ATOM     78  O   UNL A   1      32.306  36.161  30.103  1.00  0.00    -0.237 OA
ATOM     79  O   UNL A   1      33.790  36.677  28.194  1.00  0.00    -0.237 OA
ATOM     80  O   UNL A   1      32.363  34.670  28.135  1.00  0.00    -0.744 OA
ENDBRANCH  76  77
ENDBRANCH  48  71
BRANCH  60  81
ATOM     81  C   UNL A   1      39.805  34.344  37.044  1.00  0.00    -0.014 A 
ATOM     82  C   UNL A   1      40.474  35.577  36.940  1.00  0.00     0.010 A 
ATOM     83  C   UNL A   1      38.973  34.109  38.154  1.00  0.00     0.010 A 
ATOM     84  C   UNL A   1      40.349  36.536  37.950  1.00  0.00     0.020 A 
ATOM     85  C   UNL A   1      38.819  35.078  39.149  1.00  0.00     0.020 A 
ATOM     86  C   UNL A   1      39.524  36.279  39.049  1.00  0.00     0.054 A 
BRANCH  86  87
ATOM     87  S   UNL A   1      39.358  37.549  40.333  1.00  0.00     0.124 S 
ATOM     88  O   UNL A   1      38.269  38.371  39.809  1.00  0.00    -0.237 OA
ATOM     89  O   UNL A   1      39.036  36.763  41.522  1.00  0.00    -0.237 OA
ATOM     90  O   UNL A   1      40.668  38.193  40.356  1.00  0.00    -0.744 OA
ENDBRANCH  86  87
ENDBRANCH  60  81
ENDBRANCH  34  35
ENDBRANCH  26  29
ENDBRANCH  24  25
ENDBRANCH  23  24
ENDBRANCH  22  23
ENDBRANCH   1  22
TORSDOF 19
ENDMDL
MODEL 2
REMARK VINA RESULT:     -10.2      2.862      9.758
REMARK SMILES O=C(C[C@@H]1C[N@@H+](C[C@H]2CCOC2)CCO1)NCCCCCCNC(=O)c1ccc(-c2c3nc(c(-c4ccc(S(=O)(=O)[O-])cc4)c4ccc([nH]4)c(-c4ccc(S(=O)(=O)[O-])cc4)c4nc(c(-c5ccc(S(=O)(=O)[O-])cc5)c5ccc2[nH]5)C=C4)C=C3)cc1
REMARK SMILES IDX 19 1 18 2 17 3 16 4 1 5 2 6 3 8 4 9 5 10 15 11 6 12 14 13
REMARK SMILES IDX 13 14 7 16 8 17 9 18 12 19 10 20 11 21 20 22 21 23 22 24
REMARK SMILES IDX 23 25 24 26 25 28 26 29 27 30 85 31 28 32 84 33 29 34 30 35
REMARK SMILES IDX 31 36 78 37 32 38 83 39 77 40 79 41 33 42 82 43 76 44 75 45
REMARK SMILES IDX 34 47 64 48 45 49 63 50 46 51 49 52 62 53 80 54 47 55 48 56
REMARK SMILES IDX 61 58 81 59 50 60 35 61 36 62 44 63 37 64 43 65 38 66 39 67
REMARK SMILES IDX 40 68 41 69 42 70 65 71 66 72 74 73 67 74 73 75 68 76 69 77
REMARK SMILES IDX 70 78 71 79 72 80 51 81 52 82 60 83 53 84 59 85 54 86 55 87
REMARK SMILES IDX 56 88 57 89 58 90
REMARK H PARENT 16 7 6 15 23 27 79 46 49 57
REMARK Flexibility Score: inf
ROOT
ATOM      1  C   UNL A   1      31.485  27.763  24.249  1.00  0.00     0.002 C 
ENDROOT
BRANCH   1   2
ATOM      2  C   UNL A   1      30.098  27.097  24.279  1.00  0.00     0.021 C 
BRANCH   2   3
ATOM      3  C   UNL A   1      30.092  25.602  23.973  1.00  0.00     0.116 C 
BRANCH   3   4
ATOM      4  N   UNL A   1      31.069  24.923  24.780  1.00  0.00    -0.356 N 
ATOM      5  O   UNL A   1      29.866  24.594  26.712  1.00  0.00    -0.275 OA
ATOM      6  C   UNL A   1      30.897  24.476  26.062  1.00  0.00     0.222 C 
ATOM      7  H   UNL A   1      31.949  24.763  24.369  1.00  0.00     0.163 HD
BRANCH   6   8
ATOM      8  C   UNL A   1      32.178  23.932  26.661  1.00  0.00     0.138 C 
BRANCH   8   9
ATOM      9  C   UNL A   1      32.916  22.878  25.817  1.00  0.00     0.182 C 
ATOM     10  C   UNL A   1      33.356  21.702  26.716  1.00  0.00     0.295 C 
ATOM     11  O   UNL A   1      34.091  23.412  25.180  1.00  0.00    -0.366 OA
ATOM     12  N   UNL A   1      34.074  20.650  25.991  1.00  0.00    -0.331 N 
ATOM     13  C   UNL A   1      34.728  22.450  24.334  1.00  0.00     0.222 C 
ATOM     14  C   UNL A   1      35.116  21.189  25.112  1.00  0.00     0.291 C 
ATOM     15  H   UNL A   1      34.597  20.138  26.702  1.00  0.00     0.348 HD
BRANCH  12  16
ATOM     16  C   UNL A   1      33.273  19.541  25.492  1.00  0.00     0.268 C 
BRANCH  16  17
ATOM     17  C   UNL A   1      33.722  18.752  24.255  1.00  0.00     0.072 C 
ATOM     18  C   UNL A   1      34.290  17.368  24.484  1.00  0.00     0.040 C 
ATOM     19  C   UNL A   1      32.533  18.431  23.357  1.00  0.00     0.169 C 
ATOM     20  C   UNL A   1      34.049  16.683  23.155  1.00  0.00     0.160 C 
ATOM     21  O   UNL A   1      32.889  17.288  22.574  1.00  0.00    -0.381 OA
ENDBRANCH  16  17
ENDBRANCH  12  16
ENDBRANCH   8   9
ENDBRANCH   6   8
ENDBRANCH   3   4
ENDBRANCH   2   3
ENDBRANCH   1   2
BRANCH   1  22
ATOM     22  C   UNL A   1      31.989  28.320  25.584  1.00  0.00     0.002 C 
BRANCH  22  23
ATOM     23  C   UNL A   1      33.282  27.692  26.104  1.00  0.00     0.021 C 
BRANCH  23  24
ATOM     24  C   UNL A   1      34.420  28.676  26.354  1.00  0.00     0.116 C 
BRANCH  24  25
ATOM     25  N   UNL A   1      33.946  30.026  26.606  1.00  0.00    -0.352 N 
ATOM     26  C   UNL A   1      34.395  30.944  27.526  1.00  0.00     0.251 C 
ATOM     27  H   UNL A   1      33.199  30.326  26.039  1.00  0.00     0.163 HD
ATOM     28  O   UNL A   1      33.770  31.981  27.713  1.00  0.00    -0.269 OA
BRANCH  26  29
ATOM     29  C   UNL A   1      35.620  30.660  28.311  1.00  0.00     0.039 A 
ATOM     30  C   UNL A   1      35.569  29.688  29.312  1.00  0.00     0.014 A 
ATOM     31  C   UNL A   1      36.813  31.343  28.057  1.00  0.00     0.014 A 
ATOM     32  C   UNL A   1      36.730  29.359  30.017  1.00  0.00     0.010 A 
ATOM     33  C   UNL A   1      37.985  30.958  28.704  1.00  0.00     0.010 A 
ATOM     34  C   UNL A   1      37.955  29.966  29.696  1.00  0.00    -0.014 A 
BRANCH  34  35
ATOM     35  C   UNL A   1      39.211  29.568  30.384  1.00  0.00     0.031 A 
ATOM     36  C   UNL A   1      39.643  30.262  31.649  1.00  0.00     0.074 A 
ATOM     37  C   UNL A   1      39.991  28.611  29.842  1.00  0.00     0.049 A 
ATOM     38  N   UNL A   1      40.703  30.047  32.386  1.00  0.00    -0.248 NA
ATOM     39  C   UNL A   1      38.786  31.354  32.136  1.00  0.00     0.031 C 
ATOM     40  C   UNL A   1      39.705  27.888  28.600  1.00  0.00     0.029 A 
ATOM     41  N   UNL A   1      41.181  28.075  30.269  1.00  0.00    -0.354 N 
ATOM     42  C   UNL A   1      40.649  30.987  33.410  1.00  0.00     0.074 A 
ATOM     43  C   UNL A   1      39.481  31.806  33.169  1.00  0.00     0.031 C 
ATOM     44  C   UNL A   1      40.664  26.972  28.393  1.00  0.00     0.029 A 
ATOM     45  C   UNL A   1      41.656  27.071  29.459  1.00  0.00     0.049 A 
ATOM     46  H   UNL A   1      41.649  28.381  31.080  1.00  0.00     0.167 HD
ATOM     47  C   UNL A   1      41.486  31.145  34.465  1.00  0.00     0.031 A 
ATOM     48  C   UNL A   1      42.764  26.311  29.562  1.00  0.00     0.031 A 
ATOM     49  C   UNL A   1      42.648  30.327  34.700  1.00  0.00     0.049 A 
ATOM     50  C   UNL A   1      43.690  26.520  30.730  1.00  0.00     0.074 A 
ATOM     51  C   UNL A   1      43.521  30.363  35.773  1.00  0.00     0.029 A 
ATOM     52  N   UNL A   1      43.107  29.337  33.844  1.00  0.00    -0.354 N 
ATOM     53  N   UNL A   1      43.578  27.358  31.733  1.00  0.00    -0.248 NA
ATOM     54  C   UNL A   1      44.887  25.670  30.782  1.00  0.00     0.031 C 
ATOM     55  C   UNL A   1      44.547  29.443  35.532  1.00  0.00     0.029 A 
ATOM     56  C   UNL A   1      44.274  28.780  34.346  1.00  0.00     0.049 A 
ATOM     57  H   UNL A   1      42.669  29.068  33.005  1.00  0.00     0.167 HD
ATOM     58  C   UNL A   1      44.674  27.114  32.554  1.00  0.00     0.074 A 
ATOM     59  C   UNL A   1      45.426  26.040  31.936  1.00  0.00     0.031 C 
ATOM     60  C   UNL A   1      45.022  27.721  33.716  1.00  0.00     0.031 A 
BRANCH  47  61
ATOM     61  C   UNL A   1      41.186  32.267  35.428  1.00  0.00    -0.014 A 
ATOM     62  C   UNL A   1      40.315  32.086  36.519  1.00  0.00     0.010 A 
ATOM     63  C   UNL A   1      41.800  33.521  35.248  1.00  0.00     0.010 A 
ATOM     64  C   UNL A   1      40.016  33.153  37.372  1.00  0.00     0.020 A 
ATOM     65  C   UNL A   1      41.530  34.580  36.120  1.00  0.00     0.020 A 
ATOM     66  C   UNL A   1      40.621  34.395  37.162  1.00  0.00     0.054 A 
BRANCH  66  67
ATOM     67  S   UNL A   1      40.211  35.763  38.281  1.00  0.00     0.124 S 
ATOM     68  O   UNL A   1      41.483  35.985  38.963  1.00  0.00    -0.237 OA
ATOM     69  O   UNL A   1      39.802  36.819  37.358  1.00  0.00    -0.237 OA
ATOM     70  O   UNL A   1      39.142  35.222  39.116  1.00  0.00    -0.744 OA
ENDBRANCH  66  67
ENDBRANCH  47  61
BRANCH  48  71
ATOM     71  C   UNL A   1      43.037  25.253  28.551  1.00  0.00    -0.014 A 
ATOM     72  C   UNL A   1      43.868  25.524  27.449  1.00  0.00     0.010 A 
ATOM     73  C   UNL A   1      42.486  23.967  28.690  1.00  0.00     0.010 A 
ATOM     74  C   UNL A   1      44.133  24.533  26.499  1.00  0.00     0.020 A 
ATOM     75  C   UNL A   1      42.773  22.964  27.759  1.00  0.00     0.020 A 
ATOM     76  C   UNL A   1      43.590  23.257  26.664  1.00  0.00     0.054 A 
BRANCH  76  77
ATOM     77  S   UNL A   1      44.002  21.970  25.453  1.00  0.00     0.124 S 
ATOM     78  O   UNL A   1      43.212  20.838  25.930  1.00  0.00    -0.237 OA
ATOM     79  O   UNL A   1      43.556  22.568  24.197  1.00  0.00    -0.237 OA
ATOM     80  O   UNL A   1      45.450  21.825  25.586  1.00  0.00    -0.744 OA
ENDBRANCH  76  77
ENDBRANCH  48  71
BRANCH  60  81
ATOM     81  C   UNL A   1      46.258  27.215  34.416  1.00  0.00    -0.014 A 
ATOM     82  C   UNL A   1      46.194  26.167  35.352  1.00  0.00     0.010 A 
ATOM     83  C   UNL A   1      47.509  27.776  34.103  1.00  0.00     0.010 A 
ATOM     84  C   UNL A   1      47.352  25.723  35.997  1.00  0.00     0.020 A 
ATOM     85  C   UNL A   1      48.674  27.312  34.720  1.00  0.00     0.020 A 
ATOM     86  C   UNL A   1      48.585  26.300  35.677  1.00  0.00     0.054 A 
BRANCH  86  87
ATOM     87  S   UNL A   1      50.077  25.688  36.507  1.00  0.00     0.124 S 
ATOM     88  O   UNL A   1      49.580  24.493  37.184  1.00  0.00    -0.237 OA
ATOM     89  O   UNL A   1      50.988  25.445  35.391  1.00  0.00    -0.237 OA
ATOM     90  O   UNL A   1      50.460  26.788  37.388  1.00  0.00    -0.744 OA
ENDBRANCH  86  87
ENDBRANCH  60  81
ENDBRANCH  34  35
ENDBRANCH  26  29
ENDBRANCH  24  25
ENDBRANCH  23  24
ENDBRANCH  22  23
ENDBRANCH   1  22
TORSDOF 19
ENDMDL
MODEL 3
REMARK VINA RESULT:     -10.2      4.511     10.639
REMARK SMILES O=C(C[C@@H]1C[N@@H+](C[C@H]2CCOC2)CCO1)NCCCCCCNC(=O)c1ccc(-c2c3nc(c(-c4ccc(S(=O)(=O)[O-])cc4)c4ccc([nH]4)c(-c4ccc(S(=O)(=O)[O-])cc4)c4nc(c(-c5ccc(S(=O)(=O)[O-])cc5)c5ccc2[nH]5)C=C4)C=C3)cc1
REMARK SMILES IDX 19 1 18 2 17 3 16 4 1 5 2 6 3 8 4 9 5 10 15 11 6 12 14 13
REMARK SMILES IDX 13 14 7 16 8 17 9 18 12 19 10 20 11 21 20 22 21 23 22 24
REMARK SMILES IDX 23 25 24 26 25 28 26 29 27 30 85 31 28 32 84 33 29 34 30 35
REMARK SMILES IDX 31 36 78 37 32 38 83 39 77 40 79 41 33 42 82 43 76 44 75 45
REMARK SMILES IDX 34 47 64 48 45 49 63 50 46 51 49 52 62 53 80 54 47 55 48 56
REMARK SMILES IDX 61 58 81 59 50 60 35 61 36 62 44 63 37 64 43 65 38 66 39 67
REMARK SMILES IDX 40 68 41 69 42 70 65 71 66 72 74 73 67 74 73 75 68 76 69 77
REMARK SMILES IDX 70 78 71 79 72 80 51 81 52 82 60 83 53 84 59 85 54 86 55 87
REMARK SMILES IDX 56 88 57 89 58 90
REMARK H PARENT 16 7 6 15 23 27 79 46 49 57
REMARK Flexibility Score: inf
ROOT
ATOM      1  C   UNL A   1      31.966  26.824  24.554  1.00  0.00     0.002 C 
ENDROOT
BRANCH   1   2
ATOM      2  C   UNL A   1      30.478  26.514  24.314  1.00  0.00     0.021 C 
BRANCH   2   3
ATOM      3  C   UNL A   1      30.145  25.034  24.147  1.00  0.00     0.116 C 
BRANCH   3   4
ATOM      4  N   UNL A   1      30.937  24.239  25.044  1.00  0.00    -0.356 N 
ATOM      5  O   UNL A   1      29.713  24.438  26.980  1.00  0.00    -0.275 OA
ATOM      6  C   UNL A   1      30.677  24.000  26.366  1.00  0.00     0.222 C 
ATOM      7  H   UNL A   1      31.747  23.824  24.669  1.00  0.00     0.163 HD
BRANCH   6   8
ATOM      8  C   UNL A   1      31.795  23.235  27.046  1.00  0.00     0.138 C 
BRANCH   8   9
ATOM      9  C   UNL A   1      33.085  23.066  26.226  1.00  0.00     0.182 C 
ATOM     10  C   UNL A   1      33.919  21.899  26.796  1.00  0.00     0.295 C 
ATOM     11  O   UNL A   1      33.906  24.249  26.248  1.00  0.00    -0.366 OA
ATOM     12  N   UNL A   1      35.174  21.670  26.074  1.00  0.00    -0.331 N 
ATOM     13  C   UNL A   1      35.065  24.114  25.419  1.00  0.00     0.222 C 
ATOM     14  C   UNL A   1      35.917  22.911  25.838  1.00  0.00     0.291 C 
ATOM     15  H   UNL A   1      35.768  21.150  26.720  1.00  0.00     0.348 HD
BRANCH  12  16
ATOM     16  C   UNL A   1      35.136  20.688  24.999  1.00  0.00     0.268 C 
BRANCH  16  17
ATOM     17  C   UNL A   1      34.002  19.658  24.925  1.00  0.00     0.072 C 
ATOM     18  C   UNL A   1      32.896  19.915  23.925  1.00  0.00     0.040 C 
ATOM     19  C   UNL A   1      34.526  18.312  24.438  1.00  0.00     0.169 C 
ATOM     20  C   UNL A   1      32.342  18.528  23.675  1.00  0.00     0.160 C 
ATOM     21  O   UNL A   1      33.415  17.603  23.879  1.00  0.00    -0.381 OA
ENDBRANCH  16  17
ENDBRANCH  12  16
ENDBRANCH   8   9
ENDBRANCH   6   8
ENDBRANCH   3   4
ENDBRANCH   2   3
ENDBRANCH   1   2
BRANCH   1  22
ATOM     22  C   UNL A   1      32.270  28.155  25.249  1.00  0.00     0.002 C 
BRANCH  22  23
ATOM     23  C   UNL A   1      33.705  28.315  25.750  1.00  0.00     0.021 C 
BRANCH  23  24
ATOM     24  C   UNL A   1      33.843  28.504  27.256  1.00  0.00     0.116 C 
BRANCH  24  25
ATOM     25  N   UNL A   1      33.732  29.897  27.657  1.00  0.00    -0.352 N 
ATOM     26  C   UNL A   1      34.650  30.685  28.312  1.00  0.00     0.251 C 
ATOM     27  H   UNL A   1      32.883  30.337  27.428  1.00  0.00     0.163 HD
ATOM     28  O   UNL A   1      34.326  31.795  28.716  1.00  0.00    -0.269 OA
BRANCH  26  29
ATOM     29  C   UNL A   1      36.020  30.175  28.552  1.00  0.00     0.039 A 
ATOM     30  C   UNL A   1      36.963  30.267  27.527  1.00  0.00     0.014 A 
ATOM     31  C   UNL A   1      36.375  29.614  29.782  1.00  0.00     0.014 A 
ATOM     32  C   UNL A   1      38.278  29.852  27.756  1.00  0.00     0.010 A 
ATOM     33  C   UNL A   1      37.703  29.276  30.035  1.00  0.00     0.010 A 
ATOM     34  C   UNL A   1      38.668  29.386  29.023  1.00  0.00    -0.014 A 
BRANCH  34  35
ATOM     35  C   UNL A   1      40.080  29.016  29.302  1.00  0.00     0.031 A 
ATOM     36  C   UNL A   1      41.004  29.989  29.984  1.00  0.00     0.074 A 
ATOM     37  C   UNL A   1      40.545  27.818  28.895  1.00  0.00     0.049 A 
ATOM     38  N   UNL A   1      42.263  29.840  30.311  1.00  0.00    -0.248 NA
ATOM     39  C   UNL A   1      40.451  31.309  30.324  1.00  0.00     0.031 C 
ATOM     40  C   UNL A   1      39.763  26.800  28.189  1.00  0.00     0.029 A 
ATOM     41  N   UNL A   1      41.789  27.249  29.023  1.00  0.00    -0.354 N 
ATOM     42  C   UNL A   1      42.655  31.049  30.874  1.00  0.00     0.074 A 
ATOM     43  C   UNL A   1      41.516  31.938  30.798  1.00  0.00     0.031 C 
ATOM     44  C   UNL A   1      40.528  25.715  27.992  1.00  0.00     0.029 A 
ATOM     45  C   UNL A   1      41.867  25.974  28.513  1.00  0.00     0.049 A 
ATOM     46  H   UNL A   1      42.552  27.710  29.440  1.00  0.00     0.167 HD
ATOM     47  C   UNL A   1      43.849  31.386  31.422  1.00  0.00     0.031 A 
ATOM     48  C   UNL A   1      42.898  25.107  28.471  1.00  0.00     0.031 A 
ATOM     49  C   UNL A   1      44.980  30.498  31.495  1.00  0.00     0.049 A 
ATOM     50  C   UNL A   1      44.219  25.512  29.065  1.00  0.00     0.074 A 
ATOM     51  C   UNL A   1      46.211  30.720  32.088  1.00  0.00     0.029 A 
ATOM     52  N   UNL A   1      45.025  29.225  30.946  1.00  0.00    -0.354 N 
ATOM     53  N   UNL A   1      44.546  26.630  29.668  1.00  0.00    -0.248 NA
ATOM     54  C   UNL A   1      45.308  24.530  28.979  1.00  0.00     0.031 C 
ATOM     55  C   UNL A   1      47.023  29.610  31.838  1.00  0.00     0.029 A 
ATOM     56  C   UNL A   1      46.276  28.664  31.154  1.00  0.00     0.049 A 
ATOM     57  H   UNL A   1      44.279  28.784  30.480  1.00  0.00     0.167 HD
ATOM     58  C   UNL A   1      45.870  26.474  30.063  1.00  0.00     0.074 A 
ATOM     59  C   UNL A   1      46.276  25.147  29.643  1.00  0.00     0.031 C 
ATOM     60  C   UNL A   1      46.674  27.348  30.719  1.00  0.00     0.031 A 
BRANCH  47  61
ATOM     61  C   UNL A   1      43.997  32.790  31.957  1.00  0.00    -0.014 A 
ATOM     62  C   UNL A   1      43.784  33.083  33.317  1.00  0.00     0.010 A 
ATOM     63  C   UNL A   1      44.371  33.830  31.087  1.00  0.00     0.010 A 
ATOM     64  C   UNL A   1      43.882  34.398  33.782  1.00  0.00     0.020 A 
ATOM     65  C   UNL A   1      44.505  35.140  31.555  1.00  0.00     0.020 A 
ATOM     66  C   UNL A   1      44.236  35.419  32.896  1.00  0.00     0.054 A 
BRANCH  66  67
ATOM     67  S   UNL A   1      44.350  37.117  33.525  1.00  0.00     0.124 S 
ATOM     68  O   UNL A   1      45.007  36.916  34.814  1.00  0.00    -0.237 OA
ATOM     69  O   UNL A   1      45.157  37.782  32.506  1.00  0.00    -0.237 OA
ATOM     70  O   UNL A   1      42.958  37.556  33.598  1.00  0.00    -0.744 OA
ENDBRANCH  66  67
ENDBRANCH  47  61
BRANCH  48  71
ATOM     71  C   UNL A   1      42.707  23.753  27.881  1.00  0.00    -0.014 A 
ATOM     72  C   UNL A   1      42.340  22.669  28.699  1.00  0.00     0.010 A 
ATOM     73  C   UNL A   1      42.871  23.542  26.501  1.00  0.00     0.010 A 
ATOM     74  C   UNL A   1      42.152  21.398  28.150  1.00  0.00     0.020 A 
ATOM     75  C   UNL A   1      42.655  22.278  25.943  1.00  0.00     0.020 A 
ATOM     76  C   UNL A   1      42.304  21.212  26.773  1.00  0.00     0.054 A 
BRANCH  76  77
ATOM     77  S   UNL A   1      41.992  19.566  26.076  1.00  0.00     0.124 S 
ATOM     78  O   UNL A   1      42.851  19.567  24.895  1.00  0.00    -0.237 OA
ATOM     79  O   UNL A   1      42.408  18.682  27.161  1.00  0.00    -0.237 OA
ATOM     80  O   UNL A   1      40.556  19.575  25.806  1.00  0.00    -0.744 OA
ENDBRANCH  76  77
ENDBRANCH  48  71
BRANCH  60  81
ATOM     81  C   UNL A   1      48.069  26.884  31.054  1.00  0.00    -0.014 A 
ATOM     82  C   UNL A   1      48.318  26.033  32.147  1.00  0.00     0.010 A 
ATOM     83  C   UNL A   1      49.145  27.280  30.239  1.00  0.00     0.010 A 
ATOM     84  C   UNL A   1      49.622  25.627  32.444  1.00  0.00     0.020 A 
ATOM     85  C   UNL A   1      50.446  26.849  30.512  1.00  0.00     0.020 A 
ATOM     86  C   UNL A   1      50.678  26.039  31.624  1.00  0.00     0.054 A 
BRANCH  86  87
ATOM     87  S   UNL A   1      52.357  25.476  32.015  1.00  0.00     0.124 S 
ATOM     88  O   UNL A   1      52.141  24.065  32.326  1.00  0.00    -0.237 OA
ATOM     89  O   UNL A   1      53.081  25.742  30.774  1.00  0.00    -0.237 OA
ATOM     90  O   UNL A   1      52.748  26.311  33.148  1.00  0.00    -0.744 OA
ENDBRANCH  86  87
ENDBRANCH  60  81
ENDBRANCH  34  35
ENDBRANCH  26  29
ENDBRANCH  24  25
ENDBRANCH  23  24
ENDBRANCH  22  23
ENDBRANCH   1  22
TORSDOF 19
ENDMDL
