MODEL 1
REMARK VINA RESULT:      -8.0      0.000      0.000
REMARK SMILES CC[C@H]([NH2+][C@@H](C)c1c(C)noc1C)C(=O)NCCCCCCNC(=O)c1ccc(-c2c3nc(c(-c4ccc(S(=O)(=O)[O-])cc4)c4ccc([nH]4)c(-c4ccc(S(=O)(=O)[O-])cc4)c4nc(c(-c5ccc(S(=O)(=O)[O-])cc5)c5ccc2[nH]5)C=C4)C=C3)cc1
REMARK SMILES IDX 19 1 18 2 17 3 16 4 14 5 15 6 3 8 2 9 1 10 4 11 5 14 6 15
REMARK SMILES IDX 7 16 8 17 12 18 9 19 10 20 11 21 13 22 20 23 21 24 22 25
REMARK SMILES IDX 23 26 24 27 25 29 26 30 27 31 85 32 28 33 84 34 29 35 30 36
REMARK SMILES IDX 31 37 78 38 32 39 83 40 77 41 79 42 33 43 82 44 76 45 75 46
REMARK SMILES IDX 34 48 64 49 45 50 63 51 46 52 49 53 62 54 80 55 47 56 48 57
REMARK SMILES IDX 61 59 81 60 50 61 35 62 36 63 44 64 37 65 43 66 38 67 39 68
REMARK SMILES IDX 40 69 41 70 42 71 65 72 66 73 74 74 67 75 73 76 68 77 69 78
REMARK SMILES IDX 70 79 71 80 72 81 51 82 52 83 60 84 53 85 59 86 54 87 55 88
REMARK SMILES IDX 56 89 57 90 58 91
REMARK H PARENT 16 7 4 12 4 13 23 28 79 47 49 58
REMARK Flexibility Score: inf
ROOT
ATOM      1  C   UNL A   1      40.204  27.377  29.413  1.00  0.00     0.002 C 
ENDROOT
BRANCH   1   2
ATOM      2  C   UNL A   1      39.103  26.526  28.775  1.00  0.00     0.021 C 
BRANCH   2   3
ATOM      3  C   UNL A   1      39.606  25.360  27.923  1.00  0.00     0.116 C 
BRANCH   3   4
ATOM      4  N   UNL A   1      40.143  25.836  26.658  1.00  0.00    -0.351 N 
ATOM      5  C   UNL A   1      41.396  25.729  26.121  1.00  0.00     0.278 C 
ATOM      6  O   UNL A   1      41.589  26.245  25.016  1.00  0.00    -0.268 OA
ATOM      7  H   UNL A   1      39.495  26.316  26.093  1.00  0.00     0.163 HD
BRANCH   5   8
ATOM      8  C   UNL A   1      42.532  24.958  26.856  1.00  0.00     0.272 C 
BRANCH   8   9
ATOM      9  C   UNL A   1      43.689  25.934  27.150  1.00  0.00     0.072 C 
ATOM     10  C   UNL A   1      43.963  26.152  28.634  1.00  0.00     0.011 C 
ENDBRANCH   8   9
BRANCH   8  11
ATOM     11  N   UNL A   1      42.750  23.668  26.178  1.00  0.00    -0.330 N 
ATOM     12  H   UNL A   1      43.246  23.874  25.311  1.00  0.00     0.347 HD
ATOM     13  H   UNL A   1      41.809  23.283  26.109  1.00  0.00     0.347 HD
BRANCH  11  14
ATOM     14  C   UNL A   1      43.491  22.600  26.839  1.00  0.00     0.216 C 
ATOM     15  C   UNL A   1      42.982  22.474  28.278  1.00  0.00     0.081 C 
BRANCH  14  16
ATOM     16  C   UNL A   1      43.332  21.320  26.073  1.00  0.00     0.074 A 
ATOM     17  C   UNL A   1      44.277  20.628  25.252  1.00  0.00     0.090 A 
ATOM     18  C   UNL A   1      42.191  20.548  25.944  1.00  0.00     0.143 A 
ATOM     19  C   UNL A   1      45.663  21.003  24.878  1.00  0.00     0.071 C 
ATOM     20  N   UNL A   1      43.775  19.480  24.786  1.00  0.00    -0.085 NA
ATOM     21  O   UNL A   1      42.468  19.439  25.212  1.00  0.00    -0.361 OA
ATOM     22  C   UNL A   1      40.790  20.673  26.398  1.00  0.00     0.091 C 
ENDBRANCH  14  16
ENDBRANCH  11  14
ENDBRANCH   8  11
ENDBRANCH   5   8
ENDBRANCH   3   4
ENDBRANCH   2   3
ENDBRANCH   1   2
BRANCH   1  23
ATOM     23  C   UNL A   1      39.848  28.001  30.770  1.00  0.00     0.002 C 
BRANCH  23  24
ATOM     24  C   UNL A   1      38.362  28.009  31.154  1.00  0.00     0.021 C 
BRANCH  24  25
ATOM     25  C   UNL A   1      38.053  28.073  32.650  1.00  0.00     0.116 C 
BRANCH  25  26
ATOM     26  N   UNL A   1      37.295  29.260  33.010  1.00  0.00    -0.352 N 
ATOM     27  C   UNL A   1      37.655  30.583  33.008  1.00  0.00     0.251 C 
ATOM     28  H   UNL A   1      36.371  29.086  33.302  1.00  0.00     0.163 HD
ATOM     29  O   UNL A   1      36.903  31.407  33.530  1.00  0.00    -0.269 OA
BRANCH  27  30
ATOM     30  C   UNL A   1      38.933  31.039  32.412  1.00  0.00     0.039 A 
ATOM     31  C   UNL A   1      38.916  31.545  31.108  1.00  0.00     0.014 A 
ATOM     32  C   UNL A   1      40.150  30.916  33.089  1.00  0.00     0.014 A 
ATOM     33  C   UNL A   1      40.102  31.980  30.507  1.00  0.00     0.010 A 
ATOM     34  C   UNL A   1      41.327  31.397  32.508  1.00  0.00     0.010 A 
ATOM     35  C   UNL A   1      41.316  31.936  31.213  1.00  0.00    -0.014 A 
BRANCH  35  36
ATOM     36  C   UNL A   1      42.566  32.474  30.612  1.00  0.00     0.031 A 
ATOM     37  C   UNL A   1      42.934  33.926  30.766  1.00  0.00     0.074 A 
ATOM     38  C   UNL A   1      43.357  31.658  29.886  1.00  0.00     0.049 A 
ATOM     39  N   UNL A   1      43.966  34.569  30.281  1.00  0.00    -0.248 NA
ATOM     40  C   UNL A   1      42.017  34.766  31.552  1.00  0.00     0.031 C 
ATOM     41  C   UNL A   1      43.100  30.238  29.631  1.00  0.00     0.029 A 
ATOM     42  N   UNL A   1      44.534  31.906  29.224  1.00  0.00    -0.354 N 
ATOM     43  C   UNL A   1      43.820  35.890  30.693  1.00  0.00     0.074 A 
ATOM     44  C   UNL A   1      42.580  35.962  31.437  1.00  0.00     0.031 C 
ATOM     45  C   UNL A   1      44.098  29.739  28.883  1.00  0.00     0.029 A 
ATOM     46  C   UNL A   1      45.046  30.805  28.578  1.00  0.00     0.049 A 
ATOM     47  H   UNL A   1      44.971  32.788  29.213  1.00  0.00     0.167 HD
ATOM     48  C   UNL A   1      44.648  36.942  30.484  1.00  0.00     0.031 A 
ATOM     49  C   UNL A   1      46.150  30.668  27.817  1.00  0.00     0.031 A 
ATOM     50  C   UNL A   1      45.885  36.873  29.750  1.00  0.00     0.049 A 
ATOM     51  C   UNL A   1      47.046  31.854  27.593  1.00  0.00     0.074 A 
ATOM     52  C   UNL A   1      46.811  37.878  29.528  1.00  0.00     0.029 A 
ATOM     53  N   UNL A   1      46.370  35.740  29.119  1.00  0.00    -0.354 N 
ATOM     54  N   UNL A   1      46.917  33.080  28.040  1.00  0.00    -0.248 NA
ATOM     55  C   UNL A   1      48.244  31.633  26.769  1.00  0.00     0.031 C 
ATOM     56  C   UNL A   1      47.835  37.363  28.727  1.00  0.00     0.029 A 
ATOM     57  C   UNL A   1      47.572  36.024  28.490  1.00  0.00     0.049 A 
ATOM     58  H   UNL A   1      45.927  34.860  29.116  1.00  0.00     0.167 HD
ATOM     59  C   UNL A   1      48.028  33.771  27.568  1.00  0.00     0.074 A 
ATOM     60  C   UNL A   1      48.826  32.824  26.818  1.00  0.00     0.031 C 
ATOM     61  C   UNL A   1      48.356  35.075  27.742  1.00  0.00     0.031 A 
BRANCH  48  62
ATOM     62  C   UNL A   1      44.241  38.274  31.059  1.00  0.00    -0.014 A 
ATOM     63  C   UNL A   1      43.574  39.228  30.270  1.00  0.00     0.010 A 
ATOM     64  C   UNL A   1      44.473  38.552  32.418  1.00  0.00     0.010 A 
ATOM     65  C   UNL A   1      43.178  40.450  30.821  1.00  0.00     0.020 A 
ATOM     66  C   UNL A   1      44.058  39.763  32.979  1.00  0.00     0.020 A 
ATOM     67  C   UNL A   1      43.426  40.711  32.171  1.00  0.00     0.054 A 
BRANCH  67  68
ATOM     68  S   UNL A   1      42.875  42.294  32.869  1.00  0.00     0.124 S 
ATOM     69  O   UNL A   1      41.844  41.865  33.811  1.00  0.00    -0.237 OA
ATOM     70  O   UNL A   1      44.096  42.821  33.473  1.00  0.00    -0.237 OA
ATOM     71  O   UNL A   1      42.389  43.034  31.708  1.00  0.00    -0.744 OA
ENDBRANCH  67  68
ENDBRANCH  48  62
BRANCH  49  72
ATOM     72  C   UNL A   1      46.475  29.348  27.211  1.00  0.00    -0.014 A 
ATOM     73  C   UNL A   1      47.186  28.382  27.943  1.00  0.00     0.010 A 
ATOM     74  C   UNL A   1      46.074  29.054  25.895  1.00  0.00     0.010 A 
ATOM     75  C   UNL A   1      47.511  27.152  27.363  1.00  0.00     0.020 A 
ATOM     76  C   UNL A   1      46.375  27.816  25.320  1.00  0.00     0.020 A 
ATOM     77  C   UNL A   1      47.105  26.878  26.054  1.00  0.00     0.054 A 
BRANCH  77  78
ATOM     78  S   UNL A   1      47.500  25.260  25.332  1.00  0.00     0.124 S 
ATOM     79  O   UNL A   1      46.237  24.895  24.700  1.00  0.00    -0.237 OA
ATOM     80  O   UNL A   1      48.597  25.577  24.421  1.00  0.00    -0.237 OA
ATOM     81  O   UNL A   1      47.879  24.455  26.491  1.00  0.00    -0.744 OA
ENDBRANCH  77  78
ENDBRANCH  49  72
BRANCH  61  82
ATOM     82  C   UNL A   1      49.647  35.548  27.132  1.00  0.00    -0.014 A 
ATOM     83  C   UNL A   1      49.675  36.132  25.853  1.00  0.00     0.010 A 
ATOM     84  C   UNL A   1      50.844  35.439  27.863  1.00  0.00     0.010 A 
ATOM     85  C   UNL A   1      50.883  36.567  25.302  1.00  0.00     0.020 A 
ATOM     86  C   UNL A   1      52.050  35.894  27.324  1.00  0.00     0.020 A 
ATOM     87  C   UNL A   1      52.065  36.441  26.039  1.00  0.00     0.054 A 
BRANCH  87  88
ATOM     88  S   UNL A   1      53.617  37.043  25.317  1.00  0.00     0.124 S 
ATOM     89  O   UNL A   1      54.376  37.426  26.504  1.00  0.00    -0.237 OA
ATOM     90  O   UNL A   1      54.116  35.871  24.601  1.00  0.00    -0.237 OA
ATOM     91  O   UNL A   1      53.192  38.151  24.463  1.00  0.00    -0.744 OA
ENDBRANCH  87  88
ENDBRANCH  61  82
ENDBRANCH  35  36
ENDBRANCH  27  30
ENDBRANCH  25  26
ENDBRANCH  24  25
ENDBRANCH  23  24
ENDBRANCH   1  23
TORSDOF 20
ENDMDL
MODEL 2
REMARK VINA RESULT:      -8.0      5.069     11.339
REMARK SMILES CC[C@H]([NH2+][C@@H](C)c1c(C)noc1C)C(=O)NCCCCCCNC(=O)c1ccc(-c2c3nc(c(-c4ccc(S(=O)(=O)[O-])cc4)c4ccc([nH]4)c(-c4ccc(S(=O)(=O)[O-])cc4)c4nc(c(-c5ccc(S(=O)(=O)[O-])cc5)c5ccc2[nH]5)C=C4)C=C3)cc1
REMARK SMILES IDX 19 1 18 2 17 3 16 4 14 5 15 6 3 8 2 9 1 10 4 11 5 14 6 15
REMARK SMILES IDX 7 16 8 17 12 18 9 19 10 20 11 21 13 22 20 23 21 24 22 25
REMARK SMILES IDX 23 26 24 27 25 29 26 30 27 31 85 32 28 33 84 34 29 35 30 36
REMARK SMILES IDX 31 37 78 38 32 39 83 40 77 41 79 42 33 43 82 44 76 45 75 46
REMARK SMILES IDX 34 48 64 49 45 50 63 51 46 52 49 53 62 54 80 55 47 56 48 57
REMARK SMILES IDX 61 59 81 60 50 61 35 62 36 63 44 64 37 65 43 66 38 67 39 68
REMARK SMILES IDX 40 69 41 70 42 71 65 72 66 73 74 74 67 75 73 76 68 77 69 78
REMARK SMILES IDX 70 79 71 80 72 81 51 82 52 83 60 84 53 85 59 86 54 87 55 88
REMARK SMILES IDX 56 89 57 90 58 91
REMARK H PARENT 16 7 4 12 4 13 23 28 79 47 49 58
REMARK Flexibility Score: inf
ROOT
ATOM      1  C   UNL A   1      37.187  22.429  25.243  1.00  0.00     0.002 C 
ENDROOT
BRANCH   1   2
ATOM      2  C   UNL A   1      36.102  21.484  25.766  1.00  0.00     0.021 C 
BRANCH   2   3
ATOM      3  C   UNL A   1      34.712  21.710  25.168  1.00  0.00     0.116 C 
BRANCH   3   4
ATOM      4  N   UNL A   1      34.793  22.502  23.952  1.00  0.00    -0.351 N 
ATOM      5  C   UNL A   1      34.096  23.611  23.559  1.00  0.00     0.278 C 
ATOM      6  O   UNL A   1      34.357  24.086  22.449  1.00  0.00    -0.268 OA
ATOM      7  H   UNL A   1      35.461  22.187  23.301  1.00  0.00     0.163 HD
BRANCH   5   8
ATOM      8  C   UNL A   1      33.034  24.274  24.486  1.00  0.00     0.272 C 
BRANCH   8   9
ATOM      9  C   UNL A   1      31.769  23.392  24.508  1.00  0.00     0.072 C 
ATOM     10  C   UNL A   1      31.127  23.253  25.885  1.00  0.00     0.011 C 
ENDBRANCH   8   9
BRANCH   8  11
ATOM     11  N   UNL A   1      32.976  25.717  24.189  1.00  0.00    -0.330 N 
ATOM     12  H   UNL A   1      32.788  25.802  23.190  1.00  0.00     0.347 HD
ATOM     13  H   UNL A   1      33.871  26.058  24.537  1.00  0.00     0.347 HD
BRANCH  11  14
ATOM     14  C   UNL A   1      32.014  26.574  24.870  1.00  0.00     0.216 C 
ATOM     15  C   UNL A   1      32.747  27.350  25.969  1.00  0.00     0.081 C 
BRANCH  14  16
ATOM     16  C   UNL A   1      31.356  27.489  23.880  1.00  0.00     0.074 A 
ATOM     17  C   UNL A   1      29.994  27.529  23.443  1.00  0.00     0.090 A 
ATOM     18  C   UNL A   1      31.953  28.475  23.113  1.00  0.00     0.143 A 
ATOM     19  C   UNL A   1      28.857  26.645  23.799  1.00  0.00     0.071 C 
ATOM     20  N   UNL A   1      29.782  28.535  22.589  1.00  0.00    -0.085 NA
ATOM     21  O   UNL A   1      31.010  29.117  22.378  1.00  0.00    -0.361 OA
ATOM     22  C   UNL A   1      33.339  28.947  22.918  1.00  0.00     0.091 C 
ENDBRANCH  14  16
ENDBRANCH  11  14
ENDBRANCH   8  11
ENDBRANCH   5   8
ENDBRANCH   3   4
ENDBRANCH   2   3
ENDBRANCH   1   2
BRANCH   1  23
ATOM     23  C   UNL A   1      38.626  22.048  25.620  1.00  0.00     0.002 C 
BRANCH  23  24
ATOM     24  C   UNL A   1      39.036  20.589  25.378  1.00  0.00     0.021 C 
BRANCH  24  25
ATOM     25  C   UNL A   1      39.700  19.872  26.555  1.00  0.00     0.116 C 
BRANCH  25  26
ATOM     26  N   UNL A   1      40.889  19.137  26.156  1.00  0.00    -0.352 N 
ATOM     27  C   UNL A   1      42.159  19.576  25.880  1.00  0.00     0.251 C 
ATOM     28  H   UNL A   1      40.764  18.164  26.072  1.00  0.00     0.163 HD
ATOM     29  O   UNL A   1      42.967  18.791  25.382  1.00  0.00    -0.269 OA
BRANCH  27  30
ATOM     30  C   UNL A   1      42.573  20.973  26.149  1.00  0.00     0.039 A 
ATOM     31  C   UNL A   1      42.863  21.341  27.467  1.00  0.00     0.014 A 
ATOM     32  C   UNL A   1      42.616  21.939  25.138  1.00  0.00     0.014 A 
ATOM     33  C   UNL A   1      43.251  22.651  27.763  1.00  0.00     0.010 A 
ATOM     34  C   UNL A   1      43.053  23.235  25.425  1.00  0.00     0.010 A 
ATOM     35  C   UNL A   1      43.377  23.605  26.739  1.00  0.00    -0.014 A 
BRANCH  35  36
ATOM     36  C   UNL A   1      43.869  24.978  27.034  1.00  0.00     0.031 A 
ATOM     37  C   UNL A   1      45.325  25.327  26.873  1.00  0.00     0.074 A 
ATOM     38  C   UNL A   1      43.006  25.908  27.491  1.00  0.00     0.049 A 
ATOM     39  N   UNL A   1      45.932  26.461  27.116  1.00  0.00    -0.248 NA
ATOM     40  C   UNL A   1      46.216  24.260  26.392  1.00  0.00     0.031 C 
ATOM     41  C   UNL A   1      41.576  25.693  27.723  1.00  0.00     0.029 A 
ATOM     42  N   UNL A   1      43.206  27.219  27.846  1.00  0.00    -0.354 N 
ATOM     43  C   UNL A   1      47.276  26.245  26.829  1.00  0.00     0.074 A 
ATOM     44  C   UNL A   1      47.400  24.859  26.427  1.00  0.00     0.031 C 
ATOM     45  C   UNL A   1      41.026  26.836  28.165  1.00  0.00     0.029 A 
ATOM     46  C   UNL A   1      42.066  27.854  28.280  1.00  0.00     0.049 A 
ATOM     47  H   UNL A   1      44.083  27.663  27.795  1.00  0.00     0.167 HD
ATOM     48  C   UNL A   1      48.308  27.121  26.880  1.00  0.00     0.031 A 
ATOM     49  C   UNL A   1      41.876  29.109  28.728  1.00  0.00     0.031 A 
ATOM     50  C   UNL A   1      48.187  28.502  27.273  1.00  0.00     0.049 A 
ATOM     51  C   UNL A   1      43.040  30.059  28.784  1.00  0.00     0.074 A 
ATOM     52  C   UNL A   1      49.170  29.475  27.309  1.00  0.00     0.029 A 
ATOM     53  N   UNL A   1      47.014  29.105  27.697  1.00  0.00    -0.354 N 
ATOM     54  N   UNL A   1      44.291  29.848  28.453  1.00  0.00    -0.248 NA
ATOM     55  C   UNL A   1      42.763  31.421  29.265  1.00  0.00     0.031 C 
ATOM     56  C   UNL A   1      48.602  30.657  27.795  1.00  0.00     0.029 A 
ATOM     57  C   UNL A   1      47.253  30.432  28.016  1.00  0.00     0.049 A 
ATOM     58  H   UNL A   1      46.140  28.658  27.763  1.00  0.00     0.167 HD
ATOM     59  C   UNL A   1      44.946  31.057  28.667  1.00  0.00     0.074 A 
ATOM     60  C   UNL A   1      43.951  31.997  29.136  1.00  0.00     0.031 C 
ATOM     61  C   UNL A   1      46.256  31.358  28.488  1.00  0.00     0.031 A 
BRANCH  48  62
ATOM     62  C   UNL A   1      49.674  26.611  26.501  1.00  0.00    -0.014 A 
ATOM     63  C   UNL A   1      50.148  26.729  25.182  1.00  0.00     0.010 A 
ATOM     64  C   UNL A   1      50.516  26.062  27.485  1.00  0.00     0.010 A 
ATOM     65  C   UNL A   1      51.428  26.276  24.848  1.00  0.00     0.020 A 
ATOM     66  C   UNL A   1      51.805  25.629  27.159  1.00  0.00     0.020 A 
ATOM     67  C   UNL A   1      52.246  25.725  25.838  1.00  0.00     0.054 A 
BRANCH  67  68
ATOM     68  S   UNL A   1      53.913  25.171  25.382  1.00  0.00     0.124 S 
ATOM     69  O   UNL A   1      54.541  25.002  26.690  1.00  0.00    -0.237 OA
ATOM     70  O   UNL A   1      53.652  23.936  24.647  1.00  0.00    -0.237 OA
ATOM     71  O   UNL A   1      54.437  26.271  24.578  1.00  0.00    -0.744 OA
ENDBRANCH  67  68
ENDBRANCH  48  62
BRANCH  49  72
ATOM     72  C   UNL A   1      40.520  29.549  29.158  1.00  0.00    -0.014 A 
ATOM     73  C   UNL A   1      39.557  29.927  28.207  1.00  0.00     0.010 A 
ATOM     74  C   UNL A   1      40.188  29.590  30.524  1.00  0.00     0.010 A 
ATOM     75  C   UNL A   1      38.293  30.362  28.614  1.00  0.00     0.020 A 
ATOM     76  C   UNL A   1      38.917  30.000  30.935  1.00  0.00     0.020 A 
ATOM     77  C   UNL A   1      37.981  30.397  29.976  1.00  0.00     0.054 A 
BRANCH  77  78
ATOM     78  S   UNL A   1      36.321  30.924  30.485  1.00  0.00     0.124 S 
ATOM     79  O   UNL A   1      36.548  32.314  30.866  1.00  0.00    -0.237 OA
ATOM     80  O   UNL A   1      35.536  30.720  29.270  1.00  0.00    -0.237 OA
ATOM     81  O   UNL A   1      35.998  30.016  31.583  1.00  0.00    -0.744 OA
ENDBRANCH  77  78
ENDBRANCH  49  72
BRANCH  61  82
ATOM     82  C   UNL A   1      46.682  32.772  28.778  1.00  0.00    -0.014 A 
ATOM     83  C   UNL A   1      47.125  33.149  30.058  1.00  0.00     0.010 A 
ATOM     84  C   UNL A   1      46.675  33.727  27.745  1.00  0.00     0.010 A 
ATOM     85  C   UNL A   1      47.519  34.466  30.309  1.00  0.00     0.020 A 
ATOM     86  C   UNL A   1      47.091  35.039  27.987  1.00  0.00     0.020 A 
ATOM     87  C   UNL A   1      47.495  35.404  29.273  1.00  0.00     0.054 A 
BRANCH  87  88
ATOM     88  S   UNL A   1      48.042  37.100  29.614  1.00  0.00     0.124 S 
ATOM     89  O   UNL A   1      47.719  37.781  28.364  1.00  0.00    -0.237 OA
ATOM     90  O   UNL A   1      47.227  37.478  30.766  1.00  0.00    -0.237 OA
ATOM     91  O   UNL A   1      49.470  36.952  29.893  1.00  0.00    -0.744 OA
ENDBRANCH  87  88
ENDBRANCH  61  82
ENDBRANCH  35  36
ENDBRANCH  27  30
ENDBRANCH  25  26
ENDBRANCH  24  25
ENDBRANCH  23  24
ENDBRANCH   1  23
TORSDOF 20
ENDMDL
MODEL 3
REMARK VINA RESULT:      -7.9      4.772      9.021
REMARK SMILES CC[C@H]([NH2+][C@@H](C)c1c(C)noc1C)C(=O)NCCCCCCNC(=O)c1ccc(-c2c3nc(c(-c4ccc(S(=O)(=O)[O-])cc4)c4ccc([nH]4)c(-c4ccc(S(=O)(=O)[O-])cc4)c4nc(c(-c5ccc(S(=O)(=O)[O-])cc5)c5ccc2[nH]5)C=C4)C=C3)cc1
REMARK SMILES IDX 19 1 18 2 17 3 16 4 14 5 15 6 3 8 2 9 1 10 4 11 5 14 6 15
REMARK SMILES IDX 7 16 8 17 12 18 9 19 10 20 11 21 13 22 20 23 21 24 22 25
REMARK SMILES IDX 23 26 24 27 25 29 26 30 27 31 85 32 28 33 84 34 29 35 30 36
REMARK SMILES IDX 31 37 78 38 32 39 83 40 77 41 79 42 33 43 82 44 76 45 75 46
REMARK SMILES IDX 34 48 64 49 45 50 63 51 46 52 49 53 62 54 80 55 47 56 48 57
REMARK SMILES IDX 61 59 81 60 50 61 35 62 36 63 44 64 37 65 43 66 38 67 39 68
REMARK SMILES IDX 40 69 41 70 42 71 65 72 66 73 74 74 67 75 73 76 68 77 69 78
REMARK SMILES IDX 70 79 71 80 72 81 51 82 52 83 60 84 53 85 59 86 54 87 55 88
REMARK SMILES IDX 56 89 57 90 58 91
REMARK H PARENT 16 7 4 12 4 13 23 28 79 47 49 58
REMARK Flexibility Score: inf
ROOT
ATOM      1  C   UNL A   1      38.022  24.007  26.728  1.00  0.00     0.002 C 
ENDROOT
BRANCH   1   2
ATOM      2  C   UNL A   1      36.624  23.970  26.105  1.00  0.00     0.021 C 
BRANCH   2   3
ATOM      3  C   UNL A   1      36.296  22.689  25.338  1.00  0.00     0.116 C 
BRANCH   3   4
ATOM      4  N   UNL A   1      35.832  22.993  23.994  1.00  0.00    -0.351 N 
ATOM      5  C   UNL A   1      34.571  23.005  23.464  1.00  0.00     0.278 C 
ATOM      6  O   UNL A   1      34.457  23.290  22.268  1.00  0.00    -0.268 OA
ATOM      7  H   UNL A   1      36.545  23.231  23.358  1.00  0.00     0.163 HD
BRANCH   5   8
ATOM      8  C   UNL A   1      33.319  22.702  24.339  1.00  0.00     0.272 C 
BRANCH   8   9
ATOM      9  C   UNL A   1      33.061  21.181  24.333  1.00  0.00     0.072 C 
ATOM     10  C   UNL A   1      33.373  20.487  25.654  1.00  0.00     0.011 C 
ENDBRANCH   8   9
BRANCH   8  11
ATOM     11  N   UNL A   1      32.262  23.675  24.014  1.00  0.00    -0.330 N 
ATOM     12  H   UNL A   1      31.591  23.190  23.419  1.00  0.00     0.347 HD
ATOM     13  H   UNL A   1      32.783  24.453  23.609  1.00  0.00     0.347 HD
BRANCH  11  14
ATOM     14  C   UNL A   1      31.493  24.315  25.074  1.00  0.00     0.216 C 
ATOM     15  C   UNL A   1      32.094  23.908  26.424  1.00  0.00     0.081 C 
BRANCH  14  16
ATOM     16  C   UNL A   1      31.502  25.803  24.883  1.00  0.00     0.074 A 
ATOM     17  C   UNL A   1      30.469  26.664  24.393  1.00  0.00     0.090 A 
ATOM     18  C   UNL A   1      32.557  26.677  25.086  1.00  0.00     0.143 A 
ATOM     19  C   UNL A   1      29.116  26.327  23.884  1.00  0.00     0.071 C 
ATOM     20  N   UNL A   1      30.841  27.947  24.428  1.00  0.00    -0.085 NA
ATOM     21  O   UNL A   1      32.149  27.949  24.851  1.00  0.00    -0.361 OA
ATOM     22  C   UNL A   1      33.976  26.526  25.469  1.00  0.00     0.091 C 
ENDBRANCH  14  16
ENDBRANCH  11  14
ENDBRANCH   8  11
ENDBRANCH   5   8
ENDBRANCH   3   4
ENDBRANCH   2   3
ENDBRANCH   1   2
BRANCH   1  23
ATOM     23  C   UNL A   1      39.077  23.144  26.022  1.00  0.00     0.002 C 
BRANCH  23  24
ATOM     24  C   UNL A   1      39.408  21.793  26.673  1.00  0.00     0.021 C 
BRANCH  24  25
ATOM     25  C   UNL A   1      39.403  20.578  25.745  1.00  0.00     0.116 C 
BRANCH  25  26
ATOM     26  N   UNL A   1      40.395  19.586  26.124  1.00  0.00    -0.352 N 
ATOM     27  C   UNL A   1      41.713  19.731  26.475  1.00  0.00     0.251 C 
ATOM     28  H   UNL A   1      40.068  18.658  26.132  1.00  0.00     0.163 HD
ATOM     29  O   UNL A   1      42.417  18.726  26.582  1.00  0.00    -0.269 OA
BRANCH  27  30
ATOM     30  C   UNL A   1      42.312  21.067  26.708  1.00  0.00     0.039 A 
ATOM     31  C   UNL A   1      42.681  21.835  25.598  1.00  0.00     0.014 A 
ATOM     32  C   UNL A   1      42.575  21.544  27.996  1.00  0.00     0.014 A 
ATOM     33  C   UNL A   1      43.254  23.098  25.777  1.00  0.00     0.010 A 
ATOM     34  C   UNL A   1      43.101  22.826  28.174  1.00  0.00     0.010 A 
ATOM     35  C   UNL A   1      43.444  23.618  27.068  1.00  0.00    -0.014 A 
BRANCH  35  36
ATOM     36  C   UNL A   1      43.977  24.993  27.264  1.00  0.00     0.031 A 
ATOM     37  C   UNL A   1      43.080  26.107  27.735  1.00  0.00     0.074 A 
ATOM     38  C   UNL A   1      45.268  25.252  26.976  1.00  0.00     0.049 A 
ATOM     39  N   UNL A   1      43.368  27.370  27.928  1.00  0.00    -0.248 NA
ATOM     40  C   UNL A   1      41.677  25.763  28.011  1.00  0.00     0.031 C 
ATOM     41  C   UNL A   1      46.237  24.271  26.480  1.00  0.00     0.029 A 
ATOM     42  N   UNL A   1      45.988  26.419  27.053  1.00  0.00    -0.354 N 
ATOM     43  C   UNL A   1      42.183  27.974  28.336  1.00  0.00     0.074 A 
ATOM     44  C   UNL A   1      41.165  26.944  28.330  1.00  0.00     0.031 C 
ATOM     45  C   UNL A   1      47.426  24.873  26.314  1.00  0.00     0.029 A 
ATOM     46  C   UNL A   1      47.299  26.286  26.658  1.00  0.00     0.049 A 
ATOM     47  H   UNL A   1      45.603  27.270  27.361  1.00  0.00     0.167 HD
ATOM     48  C   UNL A   1      41.966  29.262  28.698  1.00  0.00     0.031 A 
ATOM     49  C   UNL A   1      48.287  27.197  26.573  1.00  0.00     0.031 A 
ATOM     50  C   UNL A   1      42.978  30.286  28.712  1.00  0.00     0.049 A 
ATOM     51  C   UNL A   1      48.017  28.621  26.972  1.00  0.00     0.074 A 
ATOM     52  C   UNL A   1      42.858  31.607  29.109  1.00  0.00     0.029 A 
ATOM     53  N   UNL A   1      44.292  30.109  28.313  1.00  0.00    -0.354 N 
ATOM     54  N   UNL A   1      46.903  29.157  27.409  1.00  0.00    -0.248 NA
ATOM     55  C   UNL A   1      49.142  29.562  26.874  1.00  0.00     0.031 C 
ATOM     56  C   UNL A   1      44.090  32.239  28.910  1.00  0.00     0.029 A 
ATOM     57  C   UNL A   1      44.990  31.299  28.435  1.00  0.00     0.049 A 
ATOM     58  H   UNL A   1      44.675  29.261  27.989  1.00  0.00     0.167 HD
ATOM     59  C   UNL A   1      47.199  30.492  27.658  1.00  0.00     0.074 A 
ATOM     60  C   UNL A   1      48.599  30.679  27.341  1.00  0.00     0.031 C 
ATOM     61  C   UNL A   1      46.382  31.475  28.111  1.00  0.00     0.031 A 
BRANCH  48  62
ATOM     62  C   UNL A   1      40.568  29.642  29.111  1.00  0.00    -0.014 A 
ATOM     63  C   UNL A   1      40.311  30.167  30.391  1.00  0.00     0.010 A 
ATOM     64  C   UNL A   1      39.510  29.531  28.191  1.00  0.00     0.010 A 
ATOM     65  C   UNL A   1      39.014  30.540  30.754  1.00  0.00     0.020 A 
ATOM     66  C   UNL A   1      38.215  29.926  28.543  1.00  0.00     0.020 A 
ATOM     67  C   UNL A   1      37.974  30.415  29.829  1.00  0.00     0.054 A 
BRANCH  67  68
ATOM     68  S   UNL A   1      36.305  30.935  30.317  1.00  0.00     0.124 S 
ATOM     69  O   UNL A   1      35.755  29.700  30.870  1.00  0.00    -0.237 OA
ATOM     70  O   UNL A   1      36.569  31.994  31.287  1.00  0.00    -0.237 OA
ATOM     71  O   UNL A   1      35.700  31.379  29.065  1.00  0.00    -0.744 OA
ENDBRANCH  67  68
ENDBRANCH  48  62
BRANCH  49  72
ATOM     72  C   UNL A   1      49.636  26.789  26.093  1.00  0.00    -0.014 A 
ATOM     73  C   UNL A   1      50.548  26.172  26.966  1.00  0.00     0.010 A 
ATOM     74  C   UNL A   1      50.012  27.017  24.757  1.00  0.00     0.010 A 
ATOM     75  C   UNL A   1      51.822  25.811  26.519  1.00  0.00     0.020 A 
ATOM     76  C   UNL A   1      51.276  26.635  24.299  1.00  0.00     0.020 A 
ATOM     77  C   UNL A   1      52.178  26.047  25.188  1.00  0.00     0.054 A 
BRANCH  77  78
ATOM     78  S   UNL A   1      53.822  25.534  24.614  1.00  0.00     0.124 S 
ATOM     79  O   UNL A   1      54.694  26.130  25.621  1.00  0.00    -0.237 OA
ATOM     80  O   UNL A   1      53.728  24.077  24.639  1.00  0.00    -0.237 OA
ATOM     81  O   UNL A   1      53.913  26.120  23.278  1.00  0.00    -0.744 OA
ENDBRANCH  77  78
ENDBRANCH  49  72
BRANCH  61  82
ATOM     82  C   UNL A   1      46.991  32.836  28.314  1.00  0.00    -0.014 A 
ATOM     83  C   UNL A   1      46.985  33.795  27.285  1.00  0.00     0.010 A 
ATOM     84  C   UNL A   1      47.542  33.174  29.563  1.00  0.00     0.010 A 
ATOM     85  C   UNL A   1      47.553  35.055  27.491  1.00  0.00     0.020 A 
ATOM     86  C   UNL A   1      48.089  34.441  29.779  1.00  0.00     0.020 A 
ATOM     87  C   UNL A   1      48.106  35.369  28.736  1.00  0.00     0.054 A 
BRANCH  87  88
ATOM     88  S   UNL A   1      48.808  37.022  28.992  1.00  0.00     0.124 S 
ATOM     89  O   UNL A   1      47.839  37.873  28.306  1.00  0.00    -0.237 OA
ATOM     90  O   UNL A   1      48.832  37.143  30.447  1.00  0.00    -0.237 OA
ATOM     91  O   UNL A   1      50.123  36.939  28.359  1.00  0.00    -0.744 OA
ENDBRANCH  87  88
ENDBRANCH  61  82
ENDBRANCH  35  36
ENDBRANCH  27  30
ENDBRANCH  25  26
ENDBRANCH  24  25
ENDBRANCH  23  24
ENDBRANCH   1  23
TORSDOF 20
ENDMDL
