MODEL 1
REMARK VINA RESULT:     -12.3      0.000      0.000
REMARK SMILES CCn1c(N2CCC[C@H](C(=O)NCCCCCCNC(=O)c3ccc(-c4c5nc(c(-c6ccc(S(=O)(=O)[O-])cc6)c6ccc([nH]6)c(-c6ccc(S(=O)(=O)[O-])cc6)c6nc(c(-c7ccc(S(=O)(=O)[O-])cc7)c7ccc4[nH]7)C=C6)C=C5)cc3)C2)nc2cc(C)ccc21
REMARK SMILES IDX 16 1 15 2 14 3 13 4 12 5 10 6 11 7 9 9 5 10 6 11 82 12 7 13
REMARK SMILES IDX 8 14 4 15 3 16 90 17 83 18 84 19 89 20 85 21 88 22 86 23
REMARK SMILES IDX 87 24 2 25 1 26 17 27 18 28 19 29 20 30 21 32 22 33 23 34
REMARK SMILES IDX 81 35 24 36 80 37 25 38 26 39 27 40 74 41 28 42 79 43 73 44
REMARK SMILES IDX 75 45 29 46 78 47 72 48 71 49 30 51 60 52 41 53 59 54 42 55
REMARK SMILES IDX 45 56 58 57 76 58 43 59 44 60 57 62 77 63 46 64 31 65 32 66
REMARK SMILES IDX 40 67 33 68 39 69 34 70 35 71 36 72 37 73 38 74 61 75 62 76
REMARK SMILES IDX 70 77 63 78 69 79 64 80 65 81 66 82 67 83 68 84 47 85 48 86
REMARK SMILES IDX 56 87 49 88 55 89 50 90 51 91 52 92 53 93 54 94
REMARK H PARENT 12 8 19 31 75 50 45 61
REMARK Flexibility Score: inf
ROOT
ATOM      1  C   UNL A   1      39.786  23.460  27.414  1.00  0.00     0.002 C 
ENDROOT
BRANCH   1   2
ATOM      2  C   UNL A   1      38.566  24.257  26.930  1.00  0.00     0.002 C 
BRANCH   2   3
ATOM      3  C   UNL A   1      37.764  23.608  25.804  1.00  0.00     0.021 C 
BRANCH   3   4
ATOM      4  C   UNL A   1      36.305  24.044  25.768  1.00  0.00     0.116 C 
BRANCH   4   5
ATOM      5  N   UNL A   1      35.408  23.233  26.553  1.00  0.00    -0.356 N 
ATOM      6  C   UNL A   1      34.888  22.015  26.247  1.00  0.00     0.224 C 
ATOM      7  O   UNL A   1      34.490  21.328  27.198  1.00  0.00    -0.275 OA
ATOM      8  H   UNL A   1      35.135  23.609  27.421  1.00  0.00     0.163 HD
BRANCH   6   9
ATOM      9  C   UNL A   1      34.717  21.478  24.817  1.00  0.00     0.098 C 
ATOM     10  N   UNL A   1      33.076  22.750  23.443  1.00  0.00    -0.341 N 
ATOM     11  C   UNL A   1      32.181  21.615  23.246  1.00  0.00     0.119 C 
ATOM     12  C   UNL A   1      34.484  22.522  23.731  1.00  0.00     0.133 C 
ATOM     13  C   UNL A   1      32.406  20.468  24.236  1.00  0.00     0.022 C 
ATOM     14  C   UNL A   1      33.849  20.230  24.671  1.00  0.00     0.017 C 
BRANCH  10  15
ATOM     15  C   UNL A   1      32.579  24.017  23.483  1.00  0.00     0.206 A 
ATOM     16  N   UNL A   1      32.007  24.571  24.613  1.00  0.00    -0.310 N 
ATOM     17  C   UNL A   1      31.435  25.774  24.254  1.00  0.00     0.070 A 
ATOM     18  N   UNL A   1      32.504  24.854  22.471  1.00  0.00    -0.213 NA
ATOM     19  C   UNL A   1      31.731  25.903  22.903  1.00  0.00     0.091 A 
ATOM     20  C   UNL A   1      30.699  26.743  24.950  1.00  0.00     0.029 A 
ATOM     21  C   UNL A   1      31.225  27.002  22.187  1.00  0.00     0.034 A 
ATOM     22  C   UNL A   1      30.218  27.839  24.222  1.00  0.00     0.006 A 
ATOM     23  C   UNL A   1      30.453  27.971  22.850  1.00  0.00    -0.049 A 
ATOM     24  C   UNL A   1      29.879  29.127  22.083  1.00  0.00     0.044 C 
BRANCH  16  25
ATOM     25  C   UNL A   1      31.966  23.994  25.941  1.00  0.00     0.122 C 
ATOM     26  C   UNL A   1      30.710  23.192  26.240  1.00  0.00     0.028 C 
ENDBRANCH  16  25
ENDBRANCH  10  15
ENDBRANCH   6   9
ENDBRANCH   4   5
ENDBRANCH   3   4
ENDBRANCH   2   3
ENDBRANCH   1   2
BRANCH   1  27
ATOM     27  C   UNL A   1      40.027  22.099  26.745  1.00  0.00     0.021 C 
BRANCH  27  28
ATOM     28  C   UNL A   1      41.475  21.617  26.786  1.00  0.00     0.116 C 
BRANCH  28  29
ATOM     29  N   UNL A   1      42.279  22.110  25.689  1.00  0.00    -0.352 N 
ATOM     30  C   UNL A   1      42.881  23.294  25.361  1.00  0.00     0.251 C 
ATOM     31  H   UNL A   1      42.431  21.418  25.005  1.00  0.00     0.163 HD
ATOM     32  O   UNL A   1      43.514  23.298  24.315  1.00  0.00    -0.269 OA
BRANCH  30  33
ATOM     33  C   UNL A   1      42.762  24.560  26.138  1.00  0.00     0.039 A 
ATOM     34  C   UNL A   1      43.300  24.806  27.401  1.00  0.00     0.014 A 
ATOM     35  C   UNL A   1      41.982  25.563  25.529  1.00  0.00     0.014 A 
ATOM     36  C   UNL A   1      42.960  25.969  28.088  1.00  0.00     0.010 A 
ATOM     37  C   UNL A   1      41.659  26.733  26.201  1.00  0.00     0.010 A 
ATOM     38  C   UNL A   1      42.097  26.903  27.506  1.00  0.00    -0.014 A 
BRANCH  38  39
ATOM     39  C   UNL A   1      41.763  28.106  28.260  1.00  0.00     0.031 A 
ATOM     40  C   UNL A   1      42.796  29.177  28.189  1.00  0.00     0.074 A 
ATOM     41  C   UNL A   1      40.584  28.285  28.892  1.00  0.00     0.049 A 
ATOM     42  N   UNL A   1      43.514  29.646  29.154  1.00  0.00    -0.248 NA
ATOM     43  C   UNL A   1      43.175  29.685  26.861  1.00  0.00     0.031 C 
ATOM     44  C   UNL A   1      39.384  27.446  28.839  1.00  0.00     0.029 A 
ATOM     45  N   UNL A   1      40.177  29.335  29.658  1.00  0.00    -0.354 N 
ATOM     46  C   UNL A   1      44.314  30.639  28.596  1.00  0.00     0.074 A 
ATOM     47  C   UNL A   1      44.170  30.518  27.168  1.00  0.00     0.031 C 
ATOM     48  C   UNL A   1      38.327  28.139  29.326  1.00  0.00     0.029 A 
ATOM     49  C   UNL A   1      38.803  29.398  29.872  1.00  0.00     0.049 A 
ATOM     50  H   UNL A   1      40.803  29.996  30.031  1.00  0.00     0.167 HD
ATOM     51  C   UNL A   1      44.887  31.612  29.358  1.00  0.00     0.031 A 
ATOM     52  C   UNL A   1      38.107  30.432  30.415  1.00  0.00     0.031 A 
ATOM     53  C   UNL A   1      44.893  31.260  30.752  1.00  0.00     0.049 A 
ATOM     54  C   UNL A   1      39.077  31.235  31.201  1.00  0.00     0.074 A 
ATOM     55  C   UNL A   1      45.489  30.258  31.491  1.00  0.00     0.029 A 
ATOM     56  N   UNL A   1      43.881  31.763  31.534  1.00  0.00    -0.354 N 
ATOM     57  N   UNL A   1      39.678  30.791  32.270  1.00  0.00    -0.248 NA
ATOM     58  C   UNL A   1      39.727  32.349  30.531  1.00  0.00     0.031 C 
ATOM     59  C   UNL A   1      44.509  29.885  32.453  1.00  0.00     0.029 A 
ATOM     60  C   UNL A   1      43.408  30.735  32.308  1.00  0.00     0.049 A 
ATOM     61  H   UNL A   1      43.556  32.693  31.539  1.00  0.00     0.167 HD
ATOM     62  C   UNL A   1      40.978  31.259  32.160  1.00  0.00     0.074 A 
ATOM     63  C   UNL A   1      40.929  32.275  31.107  1.00  0.00     0.031 C 
ATOM     64  C   UNL A   1      42.027  30.595  32.730  1.00  0.00     0.031 A 
BRANCH  51  65
ATOM     65  C   UNL A   1      45.137  33.020  28.882  1.00  0.00    -0.014 A 
ATOM     66  C   UNL A   1      44.104  33.896  28.493  1.00  0.00     0.010 A 
ATOM     67  C   UNL A   1      46.418  33.585  29.057  1.00  0.00     0.010 A 
ATOM     68  C   UNL A   1      44.327  35.257  28.276  1.00  0.00     0.020 A 
ATOM     69  C   UNL A   1      46.646  34.958  28.881  1.00  0.00     0.020 A 
ATOM     70  C   UNL A   1      45.597  35.783  28.483  1.00  0.00     0.054 A 
BRANCH  70  71
ATOM     71  S   UNL A   1      45.824  37.564  28.274  1.00  0.00     0.124 S 
ATOM     72  O   UNL A   1      46.593  37.624  27.034  1.00  0.00    -0.237 OA
ATOM     73  O   UNL A   1      44.449  38.047  28.190  1.00  0.00    -0.237 OA
ATOM     74  O   UNL A   1      46.549  37.961  29.478  1.00  0.00    -0.744 OA
ENDBRANCH  70  71
ENDBRANCH  51  65
BRANCH  52  75
ATOM     75  C   UNL A   1      36.836  31.024  29.908  1.00  0.00    -0.014 A 
ATOM     76  C   UNL A   1      36.754  31.458  28.569  1.00  0.00     0.010 A 
ATOM     77  C   UNL A   1      35.835  31.465  30.799  1.00  0.00     0.010 A 
ATOM     78  C   UNL A   1      35.768  32.361  28.153  1.00  0.00     0.020 A 
ATOM     79  C   UNL A   1      34.839  32.371  30.388  1.00  0.00     0.020 A 
ATOM     80  C   UNL A   1      34.838  32.843  29.074  1.00  0.00     0.054 A 
BRANCH  80  81
ATOM     81  S   UNL A   1      33.701  34.158  28.540  1.00  0.00     0.124 S 
ATOM     82  O   UNL A   1      32.767  33.425  27.689  1.00  0.00    -0.237 OA
ATOM     83  O   UNL A   1      33.151  34.633  29.807  1.00  0.00    -0.237 OA
ATOM     84  O   UNL A   1      34.567  35.107  27.847  1.00  0.00    -0.744 OA
ENDBRANCH  80  81
ENDBRANCH  52  75
BRANCH  64  85
ATOM     85  C   UNL A   1      41.754  29.465  33.703  1.00  0.00    -0.014 A 
ATOM     86  C   UNL A   1      41.822  29.776  35.074  1.00  0.00     0.010 A 
ATOM     87  C   UNL A   1      41.667  28.108  33.331  1.00  0.00     0.010 A 
ATOM     88  C   UNL A   1      41.857  28.773  36.043  1.00  0.00     0.020 A 
ATOM     89  C   UNL A   1      41.672  27.093  34.306  1.00  0.00     0.020 A 
ATOM     90  C   UNL A   1      41.797  27.435  35.655  1.00  0.00     0.054 A 
BRANCH  90  91
ATOM     91  S   UNL A   1      41.903  26.169  36.951  1.00  0.00     0.124 S 
ATOM     92  O   UNL A   1      40.556  26.182  37.518  1.00  0.00    -0.237 OA
ATOM     93  O   UNL A   1      42.248  24.964  36.201  1.00  0.00    -0.237 OA
ATOM     94  O   UNL A   1      42.950  26.659  37.845  1.00  0.00    -0.744 OA
ENDBRANCH  90  91
ENDBRANCH  64  85
ENDBRANCH  38  39
ENDBRANCH  30  33
ENDBRANCH  28  29
ENDBRANCH  27  28
ENDBRANCH   1  27
TORSDOF 18
ENDMDL
MODEL 2
REMARK VINA RESULT:     -12.2      1.023      1.667
REMARK SMILES CCn1c(N2CCC[C@H](C(=O)NCCCCCCNC(=O)c3ccc(-c4c5nc(c(-c6ccc(S(=O)(=O)[O-])cc6)c6ccc([nH]6)c(-c6ccc(S(=O)(=O)[O-])cc6)c6nc(c(-c7ccc(S(=O)(=O)[O-])cc7)c7ccc4[nH]7)C=C6)C=C5)cc3)C2)nc2cc(C)ccc21
REMARK SMILES IDX 16 1 15 2 14 3 13 4 12 5 10 6 11 7 9 9 5 10 6 11 82 12 7 13
REMARK SMILES IDX 8 14 4 15 3 16 90 17 83 18 84 19 89 20 85 21 88 22 86 23
REMARK SMILES IDX 87 24 2 25 1 26 17 27 18 28 19 29 20 30 21 32 22 33 23 34
REMARK SMILES IDX 81 35 24 36 80 37 25 38 26 39 27 40 74 41 28 42 79 43 73 44
REMARK SMILES IDX 75 45 29 46 78 47 72 48 71 49 30 51 60 52 41 53 59 54 42 55
REMARK SMILES IDX 45 56 58 57 76 58 43 59 44 60 57 62 77 63 46 64 31 65 32 66
REMARK SMILES IDX 40 67 33 68 39 69 34 70 35 71 36 72 37 73 38 74 61 75 62 76
REMARK SMILES IDX 70 77 63 78 69 79 64 80 65 81 66 82 67 83 68 84 47 85 48 86
REMARK SMILES IDX 56 87 49 88 55 89 50 90 51 91 52 92 53 93 54 94
REMARK H PARENT 12 8 19 31 75 50 45 61
REMARK Flexibility Score: inf
ROOT
ATOM      1  C   UNL A   1      39.878  23.774  27.738  1.00  0.00     0.002 C 
ENDROOT
BRANCH   1   2
ATOM      2  C   UNL A   1      39.158  24.324  26.499  1.00  0.00     0.002 C 
BRANCH   2   3
ATOM      3  C   UNL A   1      37.636  24.191  26.513  1.00  0.00     0.021 C 
BRANCH   3   4
ATOM      4  C   UNL A   1      37.143  22.822  26.062  1.00  0.00     0.116 C 
BRANCH   4   5
ATOM      5  N   UNL A   1      35.910  22.388  26.672  1.00  0.00    -0.356 N 
ATOM      6  C   UNL A   1      34.900  21.673  26.112  1.00  0.00     0.224 C 
ATOM      7  O   UNL A   1      34.151  21.068  26.892  1.00  0.00    -0.275 OA
ATOM      8  H   UNL A   1      35.783  22.644  27.614  1.00  0.00     0.163 HD
BRANCH   6   9
ATOM      9  C   UNL A   1      34.605  21.620  24.605  1.00  0.00     0.098 C 
ATOM     10  N   UNL A   1      33.342  23.586  23.746  1.00  0.00    -0.341 N 
ATOM     11  C   UNL A   1      32.191  22.806  23.306  1.00  0.00     0.119 C 
ATOM     12  C   UNL A   1      34.646  22.952  23.865  1.00  0.00     0.133 C 
ATOM     13  C   UNL A   1      32.116  21.406  23.926  1.00  0.00     0.022 C 
ATOM     14  C   UNL A   1      33.451  20.713  24.181  1.00  0.00     0.017 C 
BRANCH  10  15
ATOM     15  C   UNL A   1      33.179  24.872  24.165  1.00  0.00     0.206 A 
ATOM     16  N   UNL A   1      33.198  25.956  23.307  1.00  0.00    -0.310 N 
ATOM     17  C   UNL A   1      33.206  27.104  24.071  1.00  0.00     0.070 A 
ATOM     18  N   UNL A   1      33.054  25.273  25.410  1.00  0.00    -0.213 NA
ATOM     19  C   UNL A   1      33.154  26.642  25.380  1.00  0.00     0.091 A 
ATOM     20  C   UNL A   1      33.259  28.471  23.767  1.00  0.00     0.029 A 
ATOM     21  C   UNL A   1      33.223  27.562  26.441  1.00  0.00     0.034 A 
ATOM     22  C   UNL A   1      33.311  29.373  24.838  1.00  0.00     0.006 A 
ATOM     23  C   UNL A   1      33.314  28.937  26.167  1.00  0.00    -0.049 A 
ATOM     24  C   UNL A   1      33.425  29.922  27.294  1.00  0.00     0.044 C 
BRANCH  16  25
ATOM     25  C   UNL A   1      33.240  25.921  21.859  1.00  0.00     0.122 C 
ATOM     26  C   UNL A   1      31.878  25.994  21.188  1.00  0.00     0.028 C 
ENDBRANCH  16  25
ENDBRANCH  10  15
ENDBRANCH   6   9
ENDBRANCH   4   5
ENDBRANCH   3   4
ENDBRANCH   2   3
ENDBRANCH   1   2
BRANCH   1  27
ATOM     27  C   UNL A   1      40.975  22.729  27.488  1.00  0.00     0.021 C 
BRANCH  27  28
ATOM     28  C   UNL A   1      40.985  22.140  26.080  1.00  0.00     0.116 C 
BRANCH  28  29
ATOM     29  N   UNL A   1      42.156  22.500  25.312  1.00  0.00    -0.352 N 
ATOM     30  C   UNL A   1      43.016  23.563  25.262  1.00  0.00     0.251 C 
ATOM     31  H   UNL A   1      42.395  21.802  24.658  1.00  0.00     0.163 HD
ATOM     32  O   UNL A   1      43.931  23.470  24.457  1.00  0.00    -0.269 OA
BRANCH  30  33
ATOM     33  C   UNL A   1      42.874  24.818  26.053  1.00  0.00     0.039 A 
ATOM     34  C   UNL A   1      43.407  25.060  27.317  1.00  0.00     0.014 A 
ATOM     35  C   UNL A   1      42.073  25.812  25.455  1.00  0.00     0.014 A 
ATOM     36  C   UNL A   1      43.046  26.209  28.018  1.00  0.00     0.010 A 
ATOM     37  C   UNL A   1      41.729  26.968  26.140  1.00  0.00     0.010 A 
ATOM     38  C   UNL A   1      42.165  27.133  27.446  1.00  0.00    -0.014 A 
BRANCH  38  39
ATOM     39  C   UNL A   1      41.809  28.321  28.214  1.00  0.00     0.031 A 
ATOM     40  C   UNL A   1      42.832  29.401  28.174  1.00  0.00     0.074 A 
ATOM     41  C   UNL A   1      40.619  28.478  28.832  1.00  0.00     0.049 A 
ATOM     42  N   UNL A   1      43.532  29.863  29.157  1.00  0.00    -0.248 NA
ATOM     43  C   UNL A   1      43.226  29.934  26.860  1.00  0.00     0.031 C 
ATOM     44  C   UNL A   1      39.428  27.629  28.748  1.00  0.00     0.029 A 
ATOM     45  N   UNL A   1      40.191  29.513  29.607  1.00  0.00    -0.354 N 
ATOM     46  C   UNL A   1      44.330  30.871  28.626  1.00  0.00     0.074 A 
ATOM     47  C   UNL A   1      44.208  30.771  27.194  1.00  0.00     0.031 C 
ATOM     48  C   UNL A   1      38.357  28.305  29.230  1.00  0.00     0.029 A 
ATOM     49  C   UNL A   1      38.814  29.559  29.803  1.00  0.00     0.049 A 
ATOM     50  H   UNL A   1      40.806  30.174  30.000  1.00  0.00     0.167 HD
ATOM     51  C   UNL A   1      44.883  31.838  29.411  1.00  0.00     0.031 A 
ATOM     52  C   UNL A   1      38.100  30.579  30.351  1.00  0.00     0.031 A 
ATOM     53  C   UNL A   1      44.872  31.464  30.800  1.00  0.00     0.049 A 
ATOM     54  C   UNL A   1      39.051  31.378  31.163  1.00  0.00     0.074 A 
ATOM     55  C   UNL A   1      45.467  30.457  31.532  1.00  0.00     0.029 A 
ATOM     56  N   UNL A   1      43.844  31.946  31.574  1.00  0.00    -0.354 N 
ATOM     57  N   UNL A   1      39.640  30.923  32.234  1.00  0.00    -0.248 NA
ATOM     58  C   UNL A   1      39.699  32.509  30.520  1.00  0.00     0.031 C 
ATOM     59  C   UNL A   1      44.477  30.060  32.473  1.00  0.00     0.029 A 
ATOM     60  C   UNL A   1      43.370  30.901  32.326  1.00  0.00     0.049 A 
ATOM     61  H   UNL A   1      43.510  32.872  31.588  1.00  0.00     0.167 HD
ATOM     62  C   UNL A   1      40.938  31.405  32.150  1.00  0.00     0.074 A 
ATOM     63  C   UNL A   1      40.894  32.437  31.113  1.00  0.00     0.031 C 
ATOM     64  C   UNL A   1      41.985  30.742  32.725  1.00  0.00     0.031 A 
BRANCH  51  65
ATOM     65  C   UNL A   1      45.127  33.255  28.961  1.00  0.00    -0.014 A 
ATOM     66  C   UNL A   1      44.169  34.280  29.094  1.00  0.00     0.010 A 
ATOM     67  C   UNL A   1      46.437  33.649  28.617  1.00  0.00     0.010 A 
ATOM     68  C   UNL A   1      44.486  35.624  28.886  1.00  0.00     0.020 A 
ATOM     69  C   UNL A   1      46.777  35.000  28.446  1.00  0.00     0.020 A 
ATOM     70  C   UNL A   1      45.794  35.977  28.574  1.00  0.00     0.054 A 
BRANCH  70  71
ATOM     71  S   UNL A   1      46.182  37.734  28.398  1.00  0.00     0.124 S 
ATOM     72  O   UNL A   1      46.337  38.147  29.790  1.00  0.00    -0.237 OA
ATOM     73  O   UNL A   1      47.409  37.706  27.607  1.00  0.00    -0.237 OA
ATOM     74  O   UNL A   1      45.012  38.277  27.713  1.00  0.00    -0.744 OA
ENDBRANCH  70  71
ENDBRANCH  51  65
BRANCH  52  75
ATOM     75  C   UNL A   1      36.831  31.167  29.835  1.00  0.00    -0.014 A 
ATOM     76  C   UNL A   1      36.797  31.727  28.542  1.00  0.00     0.010 A 
ATOM     77  C   UNL A   1      35.768  31.476  30.708  1.00  0.00     0.010 A 
ATOM     78  C   UNL A   1      35.794  32.627  28.162  1.00  0.00     0.020 A 
ATOM     79  C   UNL A   1      34.753  32.378  30.332  1.00  0.00     0.020 A 
ATOM     80  C   UNL A   1      34.797  32.977  29.072  1.00  0.00     0.054 A 
BRANCH  80  81
ATOM     81  S   UNL A   1      33.631  34.292  28.607  1.00  0.00     0.124 S 
ATOM     82  O   UNL A   1      34.505  35.251  27.936  1.00  0.00    -0.237 OA
ATOM     83  O   UNL A   1      32.692  33.588  27.737  1.00  0.00    -0.237 OA
ATOM     84  O   UNL A   1      33.077  34.736  29.883  1.00  0.00    -0.744 OA
ENDBRANCH  80  81
ENDBRANCH  52  75
BRANCH  64  85
ATOM     85  C   UNL A   1      41.708  29.594  33.677  1.00  0.00    -0.014 A 
ATOM     86  C   UNL A   1      41.763  29.883  35.053  1.00  0.00     0.010 A 
ATOM     87  C   UNL A   1      41.631  28.243  33.281  1.00  0.00     0.010 A 
ATOM     88  C   UNL A   1      41.794  28.864  36.005  1.00  0.00     0.020 A 
ATOM     89  C   UNL A   1      41.631  27.212  34.239  1.00  0.00     0.020 A 
ATOM     90  C   UNL A   1      41.743  27.532  35.595  1.00  0.00     0.054 A 
BRANCH  90  91
ATOM     91  S   UNL A   1      41.844  26.245  36.870  1.00  0.00     0.124 S 
ATOM     92  O   UNL A   1      40.505  26.274  37.455  1.00  0.00    -0.237 OA
ATOM     93  O   UNL A   1      42.157  25.046  36.097  1.00  0.00    -0.237 OA
ATOM     94  O   UNL A   1      42.912  26.703  37.756  1.00  0.00    -0.744 OA
ENDBRANCH  90  91
ENDBRANCH  64  85
ENDBRANCH  38  39
ENDBRANCH  30  33
ENDBRANCH  28  29
ENDBRANCH  27  28
ENDBRANCH   1  27
TORSDOF 18
ENDMDL
MODEL 3
REMARK VINA RESULT:     -12.2      1.999      2.617
REMARK SMILES CCn1c(N2CCC[C@H](C(=O)NCCCCCCNC(=O)c3ccc(-c4c5nc(c(-c6ccc(S(=O)(=O)[O-])cc6)c6ccc([nH]6)c(-c6ccc(S(=O)(=O)[O-])cc6)c6nc(c(-c7ccc(S(=O)(=O)[O-])cc7)c7ccc4[nH]7)C=C6)C=C5)cc3)C2)nc2cc(C)ccc21
REMARK SMILES IDX 16 1 15 2 14 3 13 4 12 5 10 6 11 7 9 9 5 10 6 11 82 12 7 13
REMARK SMILES IDX 8 14 4 15 3 16 90 17 83 18 84 19 89 20 85 21 88 22 86 23
REMARK SMILES IDX 87 24 2 25 1 26 17 27 18 28 19 29 20 30 21 32 22 33 23 34
REMARK SMILES IDX 81 35 24 36 80 37 25 38 26 39 27 40 74 41 28 42 79 43 73 44
REMARK SMILES IDX 75 45 29 46 78 47 72 48 71 49 30 51 60 52 41 53 59 54 42 55
REMARK SMILES IDX 45 56 58 57 76 58 43 59 44 60 57 62 77 63 46 64 31 65 32 66
REMARK SMILES IDX 40 67 33 68 39 69 34 70 35 71 36 72 37 73 38 74 61 75 62 76
REMARK SMILES IDX 70 77 63 78 69 79 64 80 65 81 66 82 67 83 68 84 47 85 48 86
REMARK SMILES IDX 56 87 49 88 55 89 50 90 51 91 52 92 53 93 54 94
REMARK H PARENT 12 8 19 31 75 50 45 61
REMARK Flexibility Score: inf
ROOT
ATOM      1  C   UNL A   1      40.798  21.220  27.549  1.00  0.00     0.002 C 
ENDROOT
BRANCH   1   2
ATOM      2  C   UNL A   1      39.938  21.549  26.320  1.00  0.00     0.002 C 
BRANCH   2   3
ATOM      3  C   UNL A   1      38.982  22.730  26.487  1.00  0.00     0.021 C 
BRANCH   3   4
ATOM      4  C   UNL A   1      37.719  22.612  25.645  1.00  0.00     0.116 C 
BRANCH   4   5
ATOM      5  N   UNL A   1      36.488  22.575  26.397  1.00  0.00    -0.356 N 
ATOM      6  C   UNL A   1      35.388  21.810  26.172  1.00  0.00     0.224 C 
ATOM      7  O   UNL A   1      34.632  21.631  27.138  1.00  0.00    -0.275 OA
ATOM      8  H   UNL A   1      36.439  23.182  27.171  1.00  0.00     0.163 HD
BRANCH   6   9
ATOM      9  C   UNL A   1      35.004  21.219  24.807  1.00  0.00     0.098 C 
ATOM     10  N   UNL A   1      33.214  22.478  23.620  1.00  0.00    -0.341 N 
ATOM     11  C   UNL A   1      32.275  21.361  23.602  1.00  0.00     0.119 C 
ATOM     12  C   UNL A   1      34.643  22.223  23.718  1.00  0.00     0.133 C 
ATOM     13  C   UNL A   1      32.613  20.250  24.602  1.00  0.00     0.022 C 
ATOM     14  C   UNL A   1      34.097  19.991  24.841  1.00  0.00     0.017 C 
BRANCH  10  15
ATOM     15  C   UNL A   1      32.755  23.759  23.671  1.00  0.00     0.206 A 
ATOM     16  N   UNL A   1      32.239  24.333  24.818  1.00  0.00    -0.310 N 
ATOM     17  C   UNL A   1      31.690  25.551  24.475  1.00  0.00     0.070 A 
ATOM     18  N   UNL A   1      32.669  24.594  22.660  1.00  0.00    -0.213 NA
ATOM     19  C   UNL A   1      31.942  25.667  23.114  1.00  0.00     0.091 A 
ATOM     20  C   UNL A   1      31.007  26.543  25.191  1.00  0.00     0.029 A 
ATOM     21  C   UNL A   1      31.444  26.778  22.410  1.00  0.00     0.034 A 
ATOM     22  C   UNL A   1      30.532  27.650  24.475  1.00  0.00     0.006 A 
ATOM     23  C   UNL A   1      30.724  27.770  23.095  1.00  0.00    -0.049 A 
ATOM     24  C   UNL A   1      30.157  28.940  22.344  1.00  0.00     0.044 C 
BRANCH  16  25
ATOM     25  C   UNL A   1      32.228  23.762  26.150  1.00  0.00     0.122 C 
ATOM     26  C   UNL A   1      30.887  23.183  26.574  1.00  0.00     0.028 C 
ENDBRANCH  16  25
ENDBRANCH  10  15
ENDBRANCH   6   9
ENDBRANCH   4   5
ENDBRANCH   3   4
ENDBRANCH   2   3
ENDBRANCH   1   2
BRANCH   1  27
ATOM     27  C   UNL A   1      42.002  20.295  27.318  1.00  0.00     0.021 C 
BRANCH  27  28
ATOM     28  C   UNL A   1      41.967  19.523  26.002  1.00  0.00     0.116 C 
BRANCH  28  29
ATOM     29  N   UNL A   1      43.153  19.704  25.194  1.00  0.00    -0.352 N 
ATOM     30  C   UNL A   1      44.079  20.694  25.009  1.00  0.00     0.251 C 
ATOM     31  H   UNL A   1      43.341  18.916  24.634  1.00  0.00     0.163 HD
ATOM     32  O   UNL A   1      44.980  20.441  24.222  1.00  0.00    -0.269 OA
BRANCH  30  33
ATOM     33  C   UNL A   1      44.026  22.045  25.635  1.00  0.00     0.039 A 
ATOM     34  C   UNL A   1      44.771  22.476  26.732  1.00  0.00     0.014 A 
ATOM     35  C   UNL A   1      43.084  22.928  25.070  1.00  0.00     0.014 A 
ATOM     36  C   UNL A   1      44.491  23.705  27.325  1.00  0.00     0.010 A 
ATOM     37  C   UNL A   1      42.817  24.162  25.644  1.00  0.00     0.010 A 
ATOM     38  C   UNL A   1      43.477  24.520  26.810  1.00  0.00    -0.014 A 
BRANCH  38  39
ATOM     39  C   UNL A   1      43.213  25.797  27.462  1.00  0.00     0.031 A 
ATOM     40  C   UNL A   1      44.225  26.850  27.175  1.00  0.00     0.074 A 
ATOM     41  C   UNL A   1      42.102  26.046  28.188  1.00  0.00     0.049 A 
ATOM     42  N   UNL A   1      45.034  27.416  28.008  1.00  0.00    -0.248 NA
ATOM     43  C   UNL A   1      44.466  27.214  25.769  1.00  0.00     0.031 C 
ATOM     44  C   UNL A   1      40.908  25.210  28.345  1.00  0.00     0.029 A 
ATOM     45  N   UNL A   1      41.766  27.173  28.875  1.00  0.00    -0.354 N 
ATOM     46  C   UNL A   1      45.767  28.342  27.270  1.00  0.00     0.074 A 
ATOM     47  C   UNL A   1      45.481  28.071  25.884  1.00  0.00     0.031 C 
ATOM     48  C   UNL A   1      39.901  25.955  28.860  1.00  0.00     0.029 A 
ATOM     49  C   UNL A   1      40.421  27.263  29.219  1.00  0.00     0.049 A 
ATOM     50  H   UNL A   1      42.423  27.867  29.112  1.00  0.00     0.167 HD
ATOM     51  C   UNL A   1      46.407  29.388  27.863  1.00  0.00     0.031 A 
ATOM     52  C   UNL A   1      39.776  28.352  29.717  1.00  0.00     0.031 A 
ATOM     53  C   UNL A   1      46.555  29.185  29.279  1.00  0.00     0.049 A 
ATOM     54  C   UNL A   1      40.815  29.230  30.311  1.00  0.00     0.074 A 
ATOM     55  C   UNL A   1      47.229  28.265  30.056  1.00  0.00     0.029 A 
ATOM     56  N   UNL A   1      45.624  29.772  30.101  1.00  0.00    -0.354 N 
ATOM     57  N   UNL A   1      41.522  28.899  31.356  1.00  0.00    -0.248 NA
ATOM     58  C   UNL A   1      41.385  30.264  29.465  1.00  0.00     0.031 C 
ATOM     59  C   UNL A   1      46.354  28.000  31.146  1.00  0.00     0.029 A 
ATOM     60  C   UNL A   1      45.238  28.833  31.023  1.00  0.00     0.049 A 
ATOM     61  H   UNL A   1      45.294  30.699  30.040  1.00  0.00     0.167 HD
ATOM     62  C   UNL A   1      42.802  29.348  31.066  1.00  0.00     0.074 A 
ATOM     63  C   UNL A   1      42.640  30.247  29.922  1.00  0.00     0.031 C 
ATOM     64  C   UNL A   1      43.908  28.744  31.594  1.00  0.00     0.031 A 
BRANCH  51  65
ATOM     65  C   UNL A   1      46.598  30.736  27.218  1.00  0.00    -0.014 A 
ATOM     66  C   UNL A   1      45.525  31.571  26.848  1.00  0.00     0.010 A 
ATOM     67  C   UNL A   1      47.887  31.310  27.199  1.00  0.00     0.010 A 
ATOM     68  C   UNL A   1      45.716  32.900  26.467  1.00  0.00     0.020 A 
ATOM     69  C   UNL A   1      48.087  32.656  26.857  1.00  0.00     0.020 A 
ATOM     70  C   UNL A   1      46.997  33.439  26.485  1.00  0.00     0.054 A 
BRANCH  70  71
ATOM     71  S   UNL A   1      47.192  35.188  26.067  1.00  0.00     0.124 S 
ATOM     72  O   UNL A   1      45.821  35.572  25.744  1.00  0.00    -0.237 OA
ATOM     73  O   UNL A   1      47.729  35.747  27.304  1.00  0.00    -0.237 OA
ATOM     74  O   UNL A   1      48.118  35.171  24.939  1.00  0.00    -0.744 OA
ENDBRANCH  70  71
ENDBRANCH  51  65
BRANCH  52  75
ATOM     75  C   UNL A   1      38.456  28.891  29.281  1.00  0.00    -0.014 A 
ATOM     76  C   UNL A   1      38.307  29.397  27.973  1.00  0.00     0.010 A 
ATOM     77  C   UNL A   1      37.458  29.215  30.224  1.00  0.00     0.010 A 
ATOM     78  C   UNL A   1      37.255  30.259  27.640  1.00  0.00     0.020 A 
ATOM     79  C   UNL A   1      36.396  30.079  29.894  1.00  0.00     0.020 A 
ATOM     80  C   UNL A   1      36.326  30.627  28.612  1.00  0.00     0.054 A 
BRANCH  80  81
ATOM     81  S   UNL A   1      35.095  31.897  28.190  1.00  0.00     0.124 S 
ATOM     82  O   UNL A   1      34.215  31.175  27.275  1.00  0.00    -0.237 OA
ATOM     83  O   UNL A   1      34.515  32.220  29.490  1.00  0.00    -0.237 OA
ATOM     84  O   UNL A   1      35.888  32.963  27.584  1.00  0.00    -0.744 OA
ENDBRANCH  80  81
ENDBRANCH  52  75
BRANCH  64  85
ATOM     85  C   UNL A   1      43.742  27.724  32.704  1.00  0.00    -0.014 A 
ATOM     86  C   UNL A   1      43.759  28.213  34.024  1.00  0.00     0.010 A 
ATOM     87  C   UNL A   1      43.802  26.329  32.509  1.00  0.00     0.010 A 
ATOM     88  C   UNL A   1      43.887  27.351  35.114  1.00  0.00     0.020 A 
ATOM     89  C   UNL A   1      43.899  25.453  33.605  1.00  0.00     0.020 A 
ATOM     90  C   UNL A   1      43.971  25.975  34.900  1.00  0.00     0.054 A 
BRANCH  90  91
ATOM     91  S   UNL A   1      44.193  24.903  36.347  1.00  0.00     0.124 S 
ATOM     92  O   UNL A   1      44.918  23.763  35.789  1.00  0.00    -0.237 OA
ATOM     93  O   UNL A   1      44.966  25.743  37.258  1.00  0.00    -0.237 OA
ATOM     94  O   UNL A   1      42.831  24.609  36.786  1.00  0.00    -0.744 OA
ENDBRANCH  90  91
ENDBRANCH  64  85
ENDBRANCH  38  39
ENDBRANCH  30  33
ENDBRANCH  28  29
ENDBRANCH  27  28
ENDBRANCH   1  27
TORSDOF 18
ENDMDL
