MODEL 1
REMARK VINA RESULT:     -11.2      0.000      0.000
REMARK SMILES COc1cc(OC(F)(F)F)cc2c1O[C@@H](C(F)(F)F)C(C(=O)NCCCCCCNC(=O)c1ccc(-c3c4nc(c(-c5ccc(S(=O)(=O)[O-])cc5)c5ccc([nH]5)c(-c5ccc(S(=O)(=O)[O-])cc5)c5nc(c(-c6ccc(S(=O)(=O)[O-])cc6)c6ccc3[nH]6)C=C5)C=C4)cc1)=C2
REMARK SMILES IDX 27 1 26 2 25 3 24 4 23 5 21 6 22 7 20 9 3 10 4 11 13 12 5 13
REMARK SMILES IDX 12 14 14 15 11 16 93 17 15 18 2 19 1 20 6 21 7 22 8 23 9 24
REMARK SMILES IDX 10 25 16 26 17 27 18 28 19 29 28 30 29 31 30 32 31 33 32 35
REMARK SMILES IDX 33 36 34 37 92 38 35 39 91 40 36 41 37 42 38 43 85 44 39 45
REMARK SMILES IDX 90 46 84 47 86 48 40 49 89 50 83 51 82 52 41 54 71 55 52 56
REMARK SMILES IDX 70 57 53 58 56 59 69 60 87 61 54 62 55 63 68 65 88 66 57 67
REMARK SMILES IDX 42 68 43 69 51 70 44 71 50 72 45 73 46 74 47 75 48 76 49 77
REMARK SMILES IDX 72 78 73 79 81 80 74 81 80 82 75 83 76 84 77 85 78 86 79 87
REMARK SMILES IDX 58 88 59 89 67 90 60 91 66 92 61 93 62 94 63 95 64 96 65 97
REMARK H PARENT 23 8 30 34 86 53 56 64
REMARK Flexibility Score: inf
ROOT
ATOM      1  C   UNL A   1      33.247  30.695  27.227  1.00  0.00     0.002 C 
ENDROOT
BRANCH   1   2
ATOM      2  C   UNL A   1      31.919  30.017  26.869  1.00  0.00     0.002 C 
BRANCH   2   3
ATOM      3  C   UNL A   1      31.632  28.723  27.647  1.00  0.00     0.021 C 
BRANCH   3   4
ATOM      4  C   UNL A   1      31.574  27.484  26.744  1.00  0.00     0.116 C 
BRANCH   4   5
ATOM      5  N   UNL A   1      31.774  27.891  25.364  1.00  0.00    -0.352 N 
ATOM      6  C   UNL A   1      32.516  27.375  24.351  1.00  0.00     0.251 C 
ATOM      7  O   UNL A   1      32.700  28.075  23.359  1.00  0.00    -0.270 OA
ATOM      8  H   UNL A   1      31.273  28.700  25.113  1.00  0.00     0.163 HD
BRANCH   6   9
ATOM      9  C   UNL A   1      33.026  25.979  24.356  1.00  0.00     0.067 C 
ATOM     10  C   UNL A   1      33.982  21.891  24.621  1.00  0.00     0.165 A 
ATOM     11  C   UNL A   1      35.142  21.501  25.304  1.00  0.00     0.097 A 
ATOM     12  C   UNL A   1      33.667  23.249  24.488  1.00  0.00     0.170 A 
ATOM     13  C   UNL A   1      36.013  22.458  25.820  1.00  0.00     0.134 A 
ATOM     14  C   UNL A   1      34.546  24.213  24.982  1.00  0.00     0.025 A 
ATOM     15  O   UNL A   1      32.446  23.589  23.981  1.00  0.00    -0.471 OA
ATOM     16  C   UNL A   1      35.715  23.813  25.642  1.00  0.00     0.059 A 
ATOM     17  C   UNL A   1      34.189  25.624  24.922  1.00  0.00     0.026 C 
ATOM     18  C   UNL A   1      32.232  24.961  23.547  1.00  0.00     0.314 C 
BRANCH  10  19
ATOM     19  O   UNL A   1      33.194  20.852  24.192  1.00  0.00    -0.493 OA
ATOM     20  C   UNL A   1      32.338  20.308  25.195  1.00  0.00     0.278 C 
ENDBRANCH  10  19
BRANCH  13  21
ATOM     21  O   UNL A   1      37.157  22.223  26.527  1.00  0.00    -0.406 OA
BRANCH  21  22
ATOM     22  C   UNL A   1      38.393  22.291  25.835  1.00  0.00     0.573 C 
ATOM     23  F   UNL A   1      38.252  21.929  24.543  1.00  0.00    -0.132 F 
ATOM     24  F   UNL A   1      38.910  23.538  25.900  1.00  0.00    -0.132 F 
ATOM     25  F   UNL A   1      39.266  21.444  26.421  1.00  0.00    -0.132 F 
ENDBRANCH  21  22
ENDBRANCH  13  21
BRANCH  18  26
ATOM     26  C   UNL A   1      30.701  25.159  23.442  1.00  0.00     0.429 C 
ATOM     27  F   UNL A   1      30.358  26.199  22.651  1.00  0.00    -0.167 F 
ATOM     28  F   UNL A   1      30.118  24.070  22.865  1.00  0.00    -0.167 F 
ATOM     29  F   UNL A   1      30.110  25.323  24.647  1.00  0.00    -0.167 F 
ENDBRANCH  18  26
ENDBRANCH   6   9
ENDBRANCH   4   5
ENDBRANCH   3   4
ENDBRANCH   2   3
ENDBRANCH   1   2
BRANCH   1  30
ATOM     30  C   UNL A   1      34.449  29.750  27.304  1.00  0.00     0.021 C 
BRANCH  30  31
ATOM     31  C   UNL A   1      35.676  30.357  27.975  1.00  0.00     0.116 C 
BRANCH  31  32
ATOM     32  N   UNL A   1      35.606  30.231  29.422  1.00  0.00    -0.352 N 
ATOM     33  C   UNL A   1      36.537  29.713  30.289  1.00  0.00     0.251 C 
ATOM     34  H   UNL A   1      34.779  30.563  29.837  1.00  0.00     0.163 HD
ATOM     35  O   UNL A   1      36.218  29.450  31.444  1.00  0.00    -0.269 OA
BRANCH  33  36
ATOM     36  C   UNL A   1      37.917  29.468  29.821  1.00  0.00     0.039 A 
ATOM     37  C   UNL A   1      38.891  29.086  30.747  1.00  0.00     0.014 A 
ATOM     38  C   UNL A   1      38.254  29.638  28.475  1.00  0.00     0.014 A 
ATOM     39  C   UNL A   1      40.195  28.837  30.314  1.00  0.00     0.010 A 
ATOM     40  C   UNL A   1      39.534  29.319  28.034  1.00  0.00     0.010 A 
ATOM     41  C   UNL A   1      40.522  28.930  28.951  1.00  0.00    -0.014 A 
BRANCH  41  42
ATOM     42  C   UNL A   1      41.898  28.651  28.469  1.00  0.00     0.031 A 
ATOM     43  C   UNL A   1      42.265  27.268  27.998  1.00  0.00     0.074 A 
ATOM     44  C   UNL A   1      42.830  29.625  28.506  1.00  0.00     0.049 A 
ATOM     45  N   UNL A   1      43.421  26.818  27.584  1.00  0.00    -0.248 NA
ATOM     46  C   UNL A   1      41.200  26.251  28.018  1.00  0.00     0.031 C 
ATOM     47  C   UNL A   1      42.607  30.996  28.974  1.00  0.00     0.029 A 
ATOM     48  N   UNL A   1      44.153  29.610  28.144  1.00  0.00    -0.354 N 
ATOM     49  C   UNL A   1      43.229  25.466  27.318  1.00  0.00     0.074 A 
ATOM     50  C   UNL A   1      41.859  25.159  27.660  1.00  0.00     0.031 C 
ATOM     51  C   UNL A   1      43.745  31.697  28.839  1.00  0.00     0.029 A 
ATOM     52  C   UNL A   1      44.787  30.819  28.315  1.00  0.00     0.049 A 
ATOM     53  H   UNL A   1      44.608  28.810  27.795  1.00  0.00     0.167 HD
ATOM     54  C   UNL A   1      44.110  24.567  26.820  1.00  0.00     0.031 A 
ATOM     55  C   UNL A   1      46.063  31.179  28.079  1.00  0.00     0.031 A 
ATOM     56  C   UNL A   1      45.465  24.884  26.457  1.00  0.00     0.049 A 
ATOM     57  C   UNL A   1      47.021  30.159  27.525  1.00  0.00     0.074 A 
ATOM     58  C   UNL A   1      46.415  24.061  25.878  1.00  0.00     0.029 A 
ATOM     59  N   UNL A   1      46.064  26.121  26.638  1.00  0.00    -0.354 N 
ATOM     60  N   UNL A   1      46.800  28.904  27.215  1.00  0.00    -0.248 NA
ATOM     61  C   UNL A   1      48.398  30.609  27.276  1.00  0.00     0.031 C 
ATOM     62  C   UNL A   1      47.606  24.785  25.760  1.00  0.00     0.029 A 
ATOM     63  C   UNL A   1      47.378  26.077  26.205  1.00  0.00     0.049 A 
ATOM     64  H   UNL A   1      45.621  26.915  27.017  1.00  0.00     0.167 HD
ATOM     65  C   UNL A   1      47.999  28.426  26.697  1.00  0.00     0.074 A 
ATOM     66  C   UNL A   1      48.937  29.530  26.728  1.00  0.00     0.031 C 
ATOM     67  C   UNL A   1      48.297  27.187  26.233  1.00  0.00     0.031 A 
BRANCH  54  68
ATOM     68  C   UNL A   1      43.639  23.146  26.641  1.00  0.00    -0.014 A 
ATOM     69  C   UNL A   1      43.840  22.455  25.433  1.00  0.00     0.010 A 
ATOM     70  C   UNL A   1      43.035  22.474  27.720  1.00  0.00     0.010 A 
ATOM     71  C   UNL A   1      43.415  21.132  25.295  1.00  0.00     0.020 A 
ATOM     72  C   UNL A   1      42.635  21.141  27.596  1.00  0.00     0.020 A 
ATOM     73  C   UNL A   1      42.814  20.483  26.379  1.00  0.00     0.054 A 
BRANCH  73  74
ATOM     74  S   UNL A   1      42.305  18.753  26.182  1.00  0.00     0.124 S 
ATOM     75  O   UNL A   1      43.214  18.289  25.136  1.00  0.00    -0.237 OA
ATOM     76  O   UNL A   1      42.540  18.197  27.511  1.00  0.00    -0.237 OA
ATOM     77  O   UNL A   1      40.901  18.847  25.788  1.00  0.00    -0.744 OA
ENDBRANCH  73  74
ENDBRANCH  54  68
BRANCH  55  78
ATOM     78  C   UNL A   1      46.510  32.576  28.341  1.00  0.00    -0.014 A 
ATOM     79  C   UNL A   1      46.341  33.572  27.362  1.00  0.00     0.010 A 
ATOM     80  C   UNL A   1      47.118  32.915  29.563  1.00  0.00     0.010 A 
ATOM     81  C   UNL A   1      46.801  34.874  27.588  1.00  0.00     0.020 A 
ATOM     82  C   UNL A   1      47.551  34.223  29.804  1.00  0.00     0.020 A 
ATOM     83  C   UNL A   1      47.405  35.189  28.808  1.00  0.00     0.054 A 
BRANCH  83  84
ATOM     84  S   UNL A   1      47.969  36.890  29.090  1.00  0.00     0.124 S 
ATOM     85  O   UNL A   1      48.939  37.069  28.014  1.00  0.00    -0.237 OA
ATOM     86  O   UNL A   1      46.733  37.659  28.964  1.00  0.00    -0.237 OA
ATOM     87  O   UNL A   1      48.530  36.844  30.439  1.00  0.00    -0.744 OA
ENDBRANCH  83  84
ENDBRANCH  55  78
BRANCH  67  88
ATOM     88  C   UNL A   1      49.676  26.969  25.671  1.00  0.00    -0.014 A 
ATOM     89  C   UNL A   1      49.946  27.138  24.302  1.00  0.00     0.010 A 
ATOM     90  C   UNL A   1      50.730  26.637  26.542  1.00  0.00     0.010 A 
ATOM     91  C   UNL A   1      51.238  26.941  23.808  1.00  0.00     0.020 A 
ATOM     92  C   UNL A   1      52.029  26.470  26.057  1.00  0.00     0.020 A 
ATOM     93  C   UNL A   1      52.272  26.607  24.689  1.00  0.00     0.054 A 
BRANCH  93  94
ATOM     94  S   UNL A   1      53.948  26.394  24.031  1.00  0.00     0.124 S 
ATOM     95  O   UNL A   1      54.387  25.176  24.707  1.00  0.00    -0.237 OA
ATOM     96  O   UNL A   1      53.714  26.265  22.595  1.00  0.00    -0.237 OA
ATOM     97  O   UNL A   1      54.638  27.616  24.437  1.00  0.00    -0.744 OA
ENDBRANCH  93  94
ENDBRANCH  67  88
ENDBRANCH  41  42
ENDBRANCH  33  36
ENDBRANCH  31  32
ENDBRANCH  30  31
ENDBRANCH   1  30
TORSDOF 20
ENDMDL
MODEL 2
REMARK VINA RESULT:     -11.2      5.443     11.917
REMARK SMILES COc1cc(OC(F)(F)F)cc2c1O[C@@H](C(F)(F)F)C(C(=O)NCCCCCCNC(=O)c1ccc(-c3c4nc(c(-c5ccc(S(=O)(=O)[O-])cc5)c5ccc([nH]5)c(-c5ccc(S(=O)(=O)[O-])cc5)c5nc(c(-c6ccc(S(=O)(=O)[O-])cc6)c6ccc3[nH]6)C=C5)C=C4)cc1)=C2
REMARK SMILES IDX 27 1 26 2 25 3 24 4 23 5 21 6 22 7 20 9 3 10 4 11 13 12 5 13
REMARK SMILES IDX 12 14 14 15 11 16 93 17 15 18 2 19 1 20 6 21 7 22 8 23 9 24
REMARK SMILES IDX 10 25 16 26 17 27 18 28 19 29 28 30 29 31 30 32 31 33 32 35
REMARK SMILES IDX 33 36 34 37 92 38 35 39 91 40 36 41 37 42 38 43 85 44 39 45
REMARK SMILES IDX 90 46 84 47 86 48 40 49 89 50 83 51 82 52 41 54 71 55 52 56
REMARK SMILES IDX 70 57 53 58 56 59 69 60 87 61 54 62 55 63 68 65 88 66 57 67
REMARK SMILES IDX 42 68 43 69 51 70 44 71 50 72 45 73 46 74 47 75 48 76 49 77
REMARK SMILES IDX 72 78 73 79 81 80 74 81 80 82 75 83 76 84 77 85 78 86 79 87
REMARK SMILES IDX 58 88 59 89 67 90 60 91 66 92 61 93 62 94 63 95 64 96 65 97
REMARK H PARENT 23 8 30 34 86 53 56 64
REMARK Flexibility Score: inf
ROOT
ATOM      1  C   UNL A   1      41.920  22.287  28.569  1.00  0.00     0.002 C 
ENDROOT
BRANCH   1   2
ATOM      2  C   UNL A   1      43.401  22.413  28.193  1.00  0.00     0.002 C 
BRANCH   2   3
ATOM      3  C   UNL A   1      44.052  23.745  28.598  1.00  0.00     0.021 C 
BRANCH   3   4
ATOM      4  C   UNL A   1      45.376  24.009  27.870  1.00  0.00     0.116 C 
BRANCH   4   5
ATOM      5  N   UNL A   1      45.136  24.025  26.437  1.00  0.00    -0.352 N 
ATOM      6  C   UNL A   1      45.072  25.030  25.526  1.00  0.00     0.251 C 
ATOM      7  O   UNL A   1      44.596  24.776  24.422  1.00  0.00    -0.270 OA
ATOM      8  H   UNL A   1      44.991  23.132  26.050  1.00  0.00     0.163 HD
BRANCH   6   9
ATOM      9  C   UNL A   1      45.636  26.381  25.777  1.00  0.00     0.067 C 
ATOM     10  C   UNL A   1      47.639  29.943  26.777  1.00  0.00     0.165 A 
ATOM     11  C   UNL A   1      46.952  30.943  27.477  1.00  0.00     0.097 A 
ATOM     12  C   UNL A   1      46.980  28.767  26.401  1.00  0.00     0.170 A 
ATOM     13  C   UNL A   1      45.597  30.796  27.769  1.00  0.00     0.134 A 
ATOM     14  C   UNL A   1      45.618  28.623  26.669  1.00  0.00     0.025 A 
ATOM     15  O   UNL A   1      47.717  27.741  25.885  1.00  0.00    -0.471 OA
ATOM     16  C   UNL A   1      44.934  29.640  27.349  1.00  0.00     0.059 A 
ATOM     17  C   UNL A   1      44.941  27.372  26.355  1.00  0.00     0.026 C 
ATOM     18  C   UNL A   1      47.022  26.658  25.206  1.00  0.00     0.314 C 
BRANCH  10  19
ATOM     19  O   UNL A   1      48.975  30.196  26.583  1.00  0.00    -0.493 OA
ATOM     20  C   UNL A   1      49.796  29.927  27.718  1.00  0.00     0.278 C 
ENDBRANCH  10  19
BRANCH  13  21
ATOM     21  O   UNL A   1      44.813  31.672  28.464  1.00  0.00    -0.406 OA
BRANCH  21  22
ATOM     22  C   UNL A   1      44.349  32.831  27.790  1.00  0.00     0.573 C 
ATOM     23  F   UNL A   1      43.983  32.546  26.523  1.00  0.00    -0.132 F 
ATOM     24  F   UNL A   1      43.306  33.381  28.448  1.00  0.00    -0.132 F 
ATOM     25  F   UNL A   1      45.347  33.738  27.749  1.00  0.00    -0.132 F 
ENDBRANCH  21  22
ENDBRANCH  13  21
BRANCH  18  26
ATOM     26  C   UNL A   1      48.017  25.476  25.124  1.00  0.00     0.429 C 
ATOM     27  F   UNL A   1      49.269  25.863  24.797  1.00  0.00    -0.167 F 
ATOM     28  F   UNL A   1      48.141  24.872  26.340  1.00  0.00    -0.167 F 
ATOM     29  F   UNL A   1      47.622  24.519  24.255  1.00  0.00    -0.167 F 
ENDBRANCH  18  26
ENDBRANCH   6   9
ENDBRANCH   4   5
ENDBRANCH   3   4
ENDBRANCH   2   3
ENDBRANCH   1   2
BRANCH   1  30
ATOM     30  C   UNL A   1      41.099  21.385  27.642  1.00  0.00     0.021 C 
BRANCH  30  31
ATOM     31  C   UNL A   1      40.988  21.901  26.211  1.00  0.00     0.116 C 
BRANCH  31  32
ATOM     32  N   UNL A   1      39.600  22.078  25.817  1.00  0.00    -0.352 N 
ATOM     33  C   UNL A   1      38.715  23.059  26.192  1.00  0.00     0.251 C 
ATOM     34  H   UNL A   1      39.246  21.403  25.196  1.00  0.00     0.163 HD
ATOM     35  O   UNL A   1      37.518  22.921  25.970  1.00  0.00    -0.269 OA
BRANCH  33  36
ATOM     36  C   UNL A   1      39.214  24.275  26.869  1.00  0.00     0.039 A 
ATOM     37  C   UNL A   1      39.986  25.188  26.146  1.00  0.00     0.014 A 
ATOM     38  C   UNL A   1      38.939  24.502  28.221  1.00  0.00     0.014 A 
ATOM     39  C   UNL A   1      40.449  26.348  26.769  1.00  0.00     0.010 A 
ATOM     40  C   UNL A   1      39.339  25.692  28.820  1.00  0.00     0.010 A 
ATOM     41  C   UNL A   1      40.111  26.619  28.106  1.00  0.00    -0.014 A 
BRANCH  41  42
ATOM     42  C   UNL A   1      40.578  27.857  28.781  1.00  0.00     0.031 A 
ATOM     43  C   UNL A   1      41.978  27.930  29.333  1.00  0.00     0.074 A 
ATOM     44  C   UNL A   1      39.729  28.890  28.943  1.00  0.00     0.049 A 
ATOM     45  N   UNL A   1      42.553  28.904  29.992  1.00  0.00    -0.248 NA
ATOM     46  C   UNL A   1      42.835  26.748  29.143  1.00  0.00     0.031 C 
ATOM     47  C   UNL A   1      38.337  28.927  28.484  1.00  0.00     0.029 A 
ATOM     48  N   UNL A   1      39.910  30.111  29.543  1.00  0.00    -0.354 N 
ATOM     49  C   UNL A   1      43.825  28.443  30.314  1.00  0.00     0.074 A 
ATOM     50  C   UNL A   1      43.922  27.088  29.819  1.00  0.00     0.031 C 
ATOM     51  C   UNL A   1      37.805  30.121  28.788  1.00  0.00     0.029 A 
ATOM     52  C   UNL A   1      38.798  30.920  29.499  1.00  0.00     0.049 A 
ATOM     53  H   UNL A   1      40.757  30.384  29.964  1.00  0.00     0.167 HD
ATOM     54  C   UNL A   1      44.827  29.094  30.951  1.00  0.00     0.031 A 
ATOM     55  C   UNL A   1      38.601  32.163  29.980  1.00  0.00     0.031 A 
ATOM     56  C   UNL A   1      44.734  30.451  31.419  1.00  0.00     0.049 A 
ATOM     57  C   UNL A   1      39.732  32.864  30.684  1.00  0.00     0.074 A 
ATOM     58  C   UNL A   1      45.716  31.225  32.012  1.00  0.00     0.029 A 
ATOM     59  N   UNL A   1      43.594  31.237  31.347  1.00  0.00    -0.354 N 
ATOM     60  N   UNL A   1      40.950  32.436  30.916  1.00  0.00    -0.248 NA
ATOM     61  C   UNL A   1      39.464  34.222  31.178  1.00  0.00     0.031 C 
ATOM     62  C   UNL A   1      45.153  32.460  32.350  1.00  0.00     0.029 A 
ATOM     63  C   UNL A   1      43.841  32.478  31.909  1.00  0.00     0.049 A 
ATOM     64  H   UNL A   1      42.736  30.955  30.955  1.00  0.00     0.167 HD
ATOM     65  C   UNL A   1      41.605  33.487  31.547  1.00  0.00     0.074 A 
ATOM     66  C   UNL A   1      40.651  34.573  31.651  1.00  0.00     0.031 C 
ATOM     67  C   UNL A   1      42.883  33.552  31.997  1.00  0.00     0.031 A 
BRANCH  54  68
ATOM     68  C   UNL A   1      46.114  28.347  31.186  1.00  0.00    -0.014 A 
ATOM     69  C   UNL A   1      46.349  27.655  32.388  1.00  0.00     0.010 A 
ATOM     70  C   UNL A   1      47.080  28.289  30.165  1.00  0.00     0.010 A 
ATOM     71  C   UNL A   1      47.541  26.950  32.577  1.00  0.00     0.020 A 
ATOM     72  C   UNL A   1      48.260  27.561  30.338  1.00  0.00     0.020 A 
ATOM     73  C   UNL A   1      48.490  26.908  31.551  1.00  0.00     0.054 A 
BRANCH  73  74
ATOM     74  S   UNL A   1      50.011  25.955  31.812  1.00  0.00     0.124 S 
ATOM     75  O   UNL A   1      50.839  26.907  32.549  1.00  0.00    -0.237 OA
ATOM     76  O   UNL A   1      49.540  24.805  32.579  1.00  0.00    -0.237 OA
ATOM     77  O   UNL A   1      50.467  25.652  30.457  1.00  0.00    -0.744 OA
ENDBRANCH  73  74
ENDBRANCH  54  68
BRANCH  55  78
ATOM     78  C   UNL A   1      37.287  32.840  29.793  1.00  0.00    -0.014 A 
ATOM     79  C   UNL A   1      37.007  33.534  28.603  1.00  0.00     0.010 A 
ATOM     80  C   UNL A   1      36.315  32.806  30.809  1.00  0.00     0.010 A 
ATOM     81  C   UNL A   1      35.792  34.208  28.444  1.00  0.00     0.020 A 
ATOM     82  C   UNL A   1      35.087  33.453  30.641  1.00  0.00     0.020 A 
ATOM     83  C   UNL A   1      34.841  34.165  29.466  1.00  0.00     0.054 A 
BRANCH  83  84
ATOM     84  S   UNL A   1      33.261  35.025  29.227  1.00  0.00     0.124 S 
ATOM     85  O   UNL A   1      32.617  34.199  28.211  1.00  0.00    -0.237 OA
ATOM     86  O   UNL A   1      32.666  34.969  30.561  1.00  0.00    -0.237 OA
ATOM     87  O   UNL A   1      33.662  36.360  28.788  1.00  0.00    -0.744 OA
ENDBRANCH  83  84
ENDBRANCH  55  78
BRANCH  67  88
ATOM     88  C   UNL A   1      43.344  34.854  32.593  1.00  0.00    -0.014 A 
ATOM     89  C   UNL A   1      44.012  35.821  31.822  1.00  0.00     0.010 A 
ATOM     90  C   UNL A   1      43.058  35.132  33.943  1.00  0.00     0.010 A 
ATOM     91  C   UNL A   1      44.418  37.026  32.399  1.00  0.00     0.020 A 
ATOM     92  C   UNL A   1      43.434  36.349  34.515  1.00  0.00     0.020 A 
ATOM     93  C   UNL A   1      44.128  37.283  33.743  1.00  0.00     0.054 A 
BRANCH  93  94
ATOM     94  S   UNL A   1      44.632  38.870  34.460  1.00  0.00     0.124 S 
ATOM     95  O   UNL A   1      45.703  39.284  33.557  1.00  0.00    -0.237 OA
ATOM     96  O   UNL A   1      43.406  39.660  34.383  1.00  0.00    -0.237 OA
ATOM     97  O   UNL A   1      45.057  38.520  35.813  1.00  0.00    -0.744 OA
ENDBRANCH  93  94
ENDBRANCH  67  88
ENDBRANCH  41  42
ENDBRANCH  33  36
ENDBRANCH  31  32
ENDBRANCH  30  31
ENDBRANCH   1  30
TORSDOF 20
ENDMDL
MODEL 3
REMARK VINA RESULT:     -10.9      5.319      9.607
REMARK SMILES COc1cc(OC(F)(F)F)cc2c1O[C@@H](C(F)(F)F)C(C(=O)NCCCCCCNC(=O)c1ccc(-c3c4nc(c(-c5ccc(S(=O)(=O)[O-])cc5)c5ccc([nH]5)c(-c5ccc(S(=O)(=O)[O-])cc5)c5nc(c(-c6ccc(S(=O)(=O)[O-])cc6)c6ccc3[nH]6)C=C5)C=C4)cc1)=C2
REMARK SMILES IDX 27 1 26 2 25 3 24 4 23 5 21 6 22 7 20 9 3 10 4 11 13 12 5 13
REMARK SMILES IDX 12 14 14 15 11 16 93 17 15 18 2 19 1 20 6 21 7 22 8 23 9 24
REMARK SMILES IDX 10 25 16 26 17 27 18 28 19 29 28 30 29 31 30 32 31 33 32 35
REMARK SMILES IDX 33 36 34 37 92 38 35 39 91 40 36 41 37 42 38 43 85 44 39 45
REMARK SMILES IDX 90 46 84 47 86 48 40 49 89 50 83 51 82 52 41 54 71 55 52 56
REMARK SMILES IDX 70 57 53 58 56 59 69 60 87 61 54 62 55 63 68 65 88 66 57 67
REMARK SMILES IDX 42 68 43 69 51 70 44 71 50 72 45 73 46 74 47 75 48 76 49 77
REMARK SMILES IDX 72 78 73 79 81 80 74 81 80 82 75 83 76 84 77 85 78 86 79 87
REMARK SMILES IDX 58 88 59 89 67 90 60 91 66 92 61 93 62 94 63 95 64 96 65 97
REMARK H PARENT 23 8 30 34 86 53 56 64
REMARK Flexibility Score: inf
ROOT
ATOM      1  C   UNL A   1      32.570  28.614  24.070  1.00  0.00     0.002 C 
ENDROOT
BRANCH   1   2
ATOM      2  C   UNL A   1      32.944  27.347  23.293  1.00  0.00     0.002 C 
BRANCH   2   3
ATOM      3  C   UNL A   1      31.745  26.545  22.762  1.00  0.00     0.021 C 
BRANCH   3   4
ATOM      4  C   UNL A   1      31.647  25.142  23.373  1.00  0.00     0.116 C 
BRANCH   4   5
ATOM      5  N   UNL A   1      31.488  25.259  24.812  1.00  0.00    -0.352 N 
ATOM      6  C   UNL A   1      31.720  24.399  25.837  1.00  0.00     0.251 C 
ATOM      7  O   UNL A   1      31.250  24.675  26.937  1.00  0.00    -0.270 OA
ATOM      8  H   UNL A   1      31.145  26.135  25.103  1.00  0.00     0.163 HD
BRANCH   6   9
ATOM      9  C   UNL A   1      32.589  23.201  25.702  1.00  0.00     0.067 C 
ATOM     10  C   UNL A   1      35.300  20.086  24.897  1.00  0.00     0.165 A 
ATOM     11  C   UNL A   1      34.807  18.814  24.579  1.00  0.00     0.097 A 
ATOM     12  C   UNL A   1      34.415  21.126  25.207  1.00  0.00     0.170 A 
ATOM     13  C   UNL A   1      33.437  18.559  24.607  1.00  0.00     0.134 A 
ATOM     14  C   UNL A   1      33.043  20.873  25.259  1.00  0.00     0.025 A 
ATOM     15  O   UNL A   1      34.912  22.391  25.332  1.00  0.00    -0.471 OA
ATOM     16  C   UNL A   1      32.563  19.591  24.962  1.00  0.00     0.059 A 
ATOM     17  C   UNL A   1      32.110  21.965  25.500  1.00  0.00     0.026 C 
ATOM     18  C   UNL A   1      34.077  23.407  25.955  1.00  0.00     0.314 C 
BRANCH  10  19
ATOM     19  O   UNL A   1      36.663  20.212  24.799  1.00  0.00    -0.493 OA
ATOM     20  C   UNL A   1      37.380  18.989  24.950  1.00  0.00     0.278 C 
ENDBRANCH  10  19
BRANCH  13  21
ATOM     21  O   UNL A   1      32.820  17.383  24.294  1.00  0.00    -0.406 OA
BRANCH  21  22
ATOM     22  C   UNL A   1      33.325  16.190  24.875  1.00  0.00     0.573 C 
ATOM     23  F   UNL A   1      33.695  16.389  26.157  1.00  0.00    -0.132 F 
ATOM     24  F   UNL A   1      32.404  15.204  24.819  1.00  0.00    -0.132 F 
ATOM     25  F   UNL A   1      34.410  15.794  24.177  1.00  0.00    -0.132 F 
ENDBRANCH  21  22
ENDBRANCH  13  21
BRANCH  18  26
ATOM     26  C   UNL A   1      34.689  24.777  25.577  1.00  0.00     0.429 C 
ATOM     27  F   UNL A   1      36.012  24.854  25.845  1.00  0.00    -0.167 F 
ATOM     28  F   UNL A   1      34.590  24.989  24.234  1.00  0.00    -0.167 F 
ATOM     29  F   UNL A   1      34.067  25.813  26.181  1.00  0.00    -0.167 F 
ENDBRANCH  18  26
ENDBRANCH   6   9
ENDBRANCH   4   5
ENDBRANCH   3   4
ENDBRANCH   2   3
ENDBRANCH   1   2
BRANCH   1  30
ATOM     30  C   UNL A   1      32.717  28.500  25.590  1.00  0.00     0.021 C 
BRANCH  30  31
ATOM     31  C   UNL A   1      33.950  29.200  26.151  1.00  0.00     0.116 C 
BRANCH  31  32
ATOM     32  N   UNL A   1      33.651  30.568  26.543  1.00  0.00    -0.352 N 
ATOM     33  C   UNL A   1      34.206  31.318  27.550  1.00  0.00     0.251 C 
ATOM     34  H   UNL A   1      32.956  31.019  26.013  1.00  0.00     0.163 HD
ATOM     35  O   UNL A   1      33.667  32.359  27.907  1.00  0.00    -0.269 OA
BRANCH  33  36
ATOM     36  C   UNL A   1      35.450  30.860  28.204  1.00  0.00     0.039 A 
ATOM     37  C   UNL A   1      36.631  31.577  27.998  1.00  0.00     0.014 A 
ATOM     38  C   UNL A   1      35.455  29.710  29.000  1.00  0.00     0.014 A 
ATOM     39  C   UNL A   1      37.809  31.163  28.623  1.00  0.00     0.010 A 
ATOM     40  C   UNL A   1      36.612  29.342  29.679  1.00  0.00     0.010 A 
ATOM     41  C   UNL A   1      37.804  30.055  29.485  1.00  0.00    -0.014 A 
BRANCH  41  42
ATOM     42  C   UNL A   1      39.043  29.610  30.174  1.00  0.00     0.031 A 
ATOM     43  C   UNL A   1      39.483  30.290  31.444  1.00  0.00     0.074 A 
ATOM     44  C   UNL A   1      39.797  28.635  29.629  1.00  0.00     0.049 A 
ATOM     45  N   UNL A   1      40.554  30.075  32.164  1.00  0.00    -0.248 NA
ATOM     46  C   UNL A   1      38.622  31.368  31.959  1.00  0.00     0.031 C 
ATOM     47  C   UNL A   1      39.495  27.923  28.383  1.00  0.00     0.029 A 
ATOM     48  N   UNL A   1      40.975  28.073  30.052  1.00  0.00    -0.354 N 
ATOM     49  C   UNL A   1      40.507  31.003  33.199  1.00  0.00     0.074 A 
ATOM     50  C   UNL A   1      39.328  31.812  32.988  1.00  0.00     0.031 C 
ATOM     51  C   UNL A   1      40.444  26.999  28.164  1.00  0.00     0.029 A 
ATOM     52  C   UNL A   1      41.442  27.078  29.225  1.00  0.00     0.049 A 
ATOM     53  H   UNL A   1      41.442  28.356  30.871  1.00  0.00     0.167 HD
ATOM     54  C   UNL A   1      41.360  31.158  34.239  1.00  0.00     0.031 A 
ATOM     55  C   UNL A   1      42.550  26.317  29.312  1.00  0.00     0.031 A 
ATOM     56  C   UNL A   1      42.519  30.334  34.458  1.00  0.00     0.049 A 
ATOM     57  C   UNL A   1      43.482  26.510  30.479  1.00  0.00     0.074 A 
ATOM     58  C   UNL A   1      43.406  30.364  35.519  1.00  0.00     0.029 A 
ATOM     59  N   UNL A   1      42.950  29.332  33.602  1.00  0.00    -0.354 N 
ATOM     60  N   UNL A   1      43.381  27.346  31.484  1.00  0.00    -0.248 NA
ATOM     61  C   UNL A   1      44.669  25.645  30.529  1.00  0.00     0.031 C 
ATOM     62  C   UNL A   1      44.407  29.417  35.277  1.00  0.00     0.029 A 
ATOM     63  C   UNL A   1      44.107  28.754  34.099  1.00  0.00     0.049 A 
ATOM     64  H   UNL A   1      42.502  29.070  32.766  1.00  0.00     0.167 HD
ATOM     65  C   UNL A   1      44.471  27.080  32.306  1.00  0.00     0.074 A 
ATOM     66  C   UNL A   1      45.210  26.000  31.685  1.00  0.00     0.031 C 
ATOM     67  C   UNL A   1      44.826  27.673  33.473  1.00  0.00     0.031 A 
BRANCH  54  68
ATOM     68  C   UNL A   1      41.078  32.266  35.221  1.00  0.00    -0.014 A 
ATOM     69  C   UNL A   1      41.477  33.590  34.964  1.00  0.00     0.010 A 
ATOM     70  C   UNL A   1      40.353  31.986  36.394  1.00  0.00     0.010 A 
ATOM     71  C   UNL A   1      41.187  34.606  35.878  1.00  0.00     0.020 A 
ATOM     72  C   UNL A   1      40.036  33.004  37.297  1.00  0.00     0.020 A 
ATOM     73  C   UNL A   1      40.468  34.306  37.040  1.00  0.00     0.054 A 
BRANCH  73  74
ATOM     74  S   UNL A   1      40.074  35.652  38.190  1.00  0.00     0.124 S 
ATOM     75  O   UNL A   1      39.969  36.797  37.288  1.00  0.00    -0.237 OA
ATOM     76  O   UNL A   1      38.819  35.206  38.788  1.00  0.00    -0.237 OA
ATOM     77  O   UNL A   1      41.219  35.679  39.098  1.00  0.00    -0.744 OA
ENDBRANCH  73  74
ENDBRANCH  54  68
BRANCH  55  78
ATOM     78  C   UNL A   1      42.833  25.283  28.278  1.00  0.00    -0.014 A 
ATOM     79  C   UNL A   1      42.391  23.959  28.455  1.00  0.00     0.010 A 
ATOM     80  C   UNL A   1      43.557  25.611  27.118  1.00  0.00     0.010 A 
ATOM     81  C   UNL A   1      42.694  22.977  27.508  1.00  0.00     0.020 A 
ATOM     82  C   UNL A   1      43.835  24.637  26.153  1.00  0.00     0.020 A 
ATOM     83  C   UNL A   1      43.417  23.323  26.363  1.00  0.00     0.054 A 
BRANCH  83  84
ATOM     84  S   UNL A   1      43.776  22.038  25.134  1.00  0.00     0.124 S 
ATOM     85  O   UNL A   1      43.585  22.757  23.879  1.00  0.00    -0.237 OA
ATOM     86  O   UNL A   1      45.155  21.673  25.453  1.00  0.00    -0.237 OA
ATOM     87  O   UNL A   1      42.785  21.003  25.422  1.00  0.00    -0.744 OA
ENDBRANCH  83  84
ENDBRANCH  55  78
BRANCH  67  88
ATOM     88  C   UNL A   1      46.037  27.134  34.185  1.00  0.00    -0.014 A 
ATOM     89  C   UNL A   1      45.940  26.068  35.097  1.00  0.00     0.010 A 
ATOM     90  C   UNL A   1      47.304  27.675  33.895  1.00  0.00     0.010 A 
ATOM     91  C   UNL A   1      47.082  25.580  35.735  1.00  0.00     0.020 A 
ATOM     92  C   UNL A   1      48.452  27.167  34.507  1.00  0.00     0.020 A 
ATOM     93  C   UNL A   1      48.333  26.133  35.436  1.00  0.00     0.054 A 
BRANCH  93  94
ATOM     94  S   UNL A   1      49.805  25.456  36.248  1.00  0.00     0.124 S 
ATOM     95  O   UNL A   1      50.225  26.571  37.093  1.00  0.00    -0.237 OA
ATOM     96  O   UNL A   1      49.275  24.295  36.958  1.00  0.00    -0.237 OA
ATOM     97  O   UNL A   1      50.701  25.144  35.137  1.00  0.00    -0.744 OA
ENDBRANCH  93  94
ENDBRANCH  67  88
ENDBRANCH  41  42
ENDBRANCH  33  36
ENDBRANCH  31  32
ENDBRANCH  30  31
ENDBRANCH   1  30
TORSDOF 20
ENDMDL
