MODEL 1
REMARK VINA RESULT:     -11.1      0.000      0.000
REMARK SMILES Cc1c(C)c2cc(Cl)c(O[C@@H](C)C(=O)NCCCCCCNC(=O)c3ccc(-c4c5nc(c(-c6ccc(S(=O)(=O)[O-])cc6)c6ccc([nH]6)c(-c6ccc(S(=O)(=O)[O-])cc6)c6nc(c(-c7ccc(S(=O)(=O)[O-])cc7)c7ccc4[nH]7)C=C6)C=C5)cc3)cc2oc1=O
REMARK SMILES IDX 19 1 18 2 17 3 16 4 15 5 13 6 14 7 11 9 12 10 10 11 9 12
REMARK SMILES IDX 1 13 2 14 3 15 88 16 4 17 5 18 87 19 89 20 6 21 86 22 7 23
REMARK SMILES IDX 85 24 8 25 20 26 21 27 22 28 23 29 24 31 25 32 26 33 84 34
REMARK SMILES IDX 27 35 83 36 28 37 29 38 30 39 77 40 31 41 82 42 76 43 78 44
REMARK SMILES IDX 32 45 81 46 75 47 74 48 33 50 63 51 44 52 62 53 45 54 48 55
REMARK SMILES IDX 61 56 79 57 46 58 47 59 60 61 80 62 49 63 34 64 35 65 43 66
REMARK SMILES IDX 36 67 42 68 37 69 38 70 39 71 40 72 41 73 64 74 65 75 73 76
REMARK SMILES IDX 66 77 72 78 67 79 68 80 69 81 70 82 71 83 50 84 51 85 59 86
REMARK SMILES IDX 52 87 58 88 53 89 54 90 55 91 56 92 57 93
REMARK H PARENT 15 8 22 30 78 49 48 60
REMARK Flexibility Score: inf
ROOT
ATOM      1  C   UNL A   1      31.368  29.242  25.672  1.00  0.00     0.002 C 
ENDROOT
BRANCH   1   2
ATOM      2  C   UNL A   1      31.054  29.820  24.282  1.00  0.00     0.002 C 
BRANCH   2   3
ATOM      3  C   UNL A   1      29.840  29.236  23.543  1.00  0.00     0.021 C 
BRANCH   3   4
ATOM      4  C   UNL A   1      30.151  28.428  22.276  1.00  0.00     0.116 C 
BRANCH   4   5
ATOM      5  N   UNL A   1      31.553  28.069  22.192  1.00  0.00    -0.353 N 
ATOM      6  C   UNL A   1      32.248  26.936  22.478  1.00  0.00     0.260 C 
ATOM      7  O   UNL A   1      33.473  27.014  22.300  1.00  0.00    -0.271 OA
ATOM      8  H   UNL A   1      32.122  28.800  21.858  1.00  0.00     0.163 HD
BRANCH   6   9
ATOM      9  C   UNL A   1      31.627  25.570  22.929  1.00  0.00     0.258 C 
ATOM     10  C   UNL A   1      31.065  25.580  24.349  1.00  0.00     0.064 C 
BRANCH   9  11
ATOM     11  O   UNL A   1      32.093  24.292  22.506  1.00  0.00    -0.479 OA
BRANCH  11  12
ATOM     12  C   UNL A   1      33.010  23.599  23.228  1.00  0.00     0.142 A 
ATOM     13  C   UNL A   1      38.561  21.548  25.644  1.00  0.00     0.052 C 
ATOM     14  C   UNL A   1      37.198  22.113  25.447  1.00  0.00     0.038 A 
ATOM     15  C   UNL A   1      36.151  21.363  25.061  1.00  0.00    -0.030 A 
ATOM     16  C   UNL A   1      37.111  23.591  25.629  1.00  0.00     0.339 A 
ATOM     17  C   UNL A   1      36.188  19.858  25.007  1.00  0.00     0.046 C 
ATOM     18  C   UNL A   1      34.962  22.066  24.571  1.00  0.00     0.023 A 
ATOM     19  O   UNL A   1      35.882  24.174  25.380  1.00  0.00    -0.422 OA
ATOM     20  O   UNL A   1      38.071  24.266  25.964  1.00  0.00    -0.246 OA
ATOM     21  C   UNL A   1      33.951  21.436  23.844  1.00  0.00     0.036 A 
ATOM     22  C   UNL A   1      34.888  23.448  24.714  1.00  0.00     0.142 A 
ATOM     23  C   UNL A   1      32.993  22.199  23.165  1.00  0.00     0.083 A 
ATOM     24  C   UNL A   1      33.892  24.210  24.106  1.00  0.00     0.096 A 
ATOM     25  Cl  UNL A   1      31.822  21.358  22.213  1.00  0.00    -0.080 Cl
ENDBRANCH  11  12
ENDBRANCH   9  11
ENDBRANCH   6   9
ENDBRANCH   4   5
ENDBRANCH   3   4
ENDBRANCH   2   3
ENDBRANCH   1   2
BRANCH   1  26
ATOM     26  C   UNL A   1      32.741  28.585  25.874  1.00  0.00     0.021 C 
BRANCH  26  27
ATOM     27  C   UNL A   1      33.432  28.795  27.229  1.00  0.00     0.116 C 
BRANCH  27  28
ATOM     28  N   UNL A   1      33.463  30.177  27.684  1.00  0.00    -0.352 N 
ATOM     29  C   UNL A   1      34.519  30.889  28.221  1.00  0.00     0.251 C 
ATOM     30  H   UNL A   1      32.617  30.672  27.598  1.00  0.00     0.163 HD
ATOM     31  O   UNL A   1      34.375  32.069  28.528  1.00  0.00    -0.269 OA
BRANCH  29  32
ATOM     32  C   UNL A   1      35.833  30.239  28.438  1.00  0.00     0.039 A 
ATOM     33  C   UNL A   1      36.124  29.623  29.650  1.00  0.00     0.014 A 
ATOM     34  C   UNL A   1      36.786  30.211  27.420  1.00  0.00     0.014 A 
ATOM     35  C   UNL A   1      37.426  29.153  29.903  1.00  0.00     0.010 A 
ATOM     36  C   UNL A   1      38.062  29.662  27.658  1.00  0.00     0.010 A 
ATOM     37  C   UNL A   1      38.441  29.191  28.930  1.00  0.00    -0.014 A 
BRANCH  37  38
ATOM     38  C   UNL A   1      39.880  28.831  29.246  1.00  0.00     0.031 A 
ATOM     39  C   UNL A   1      40.458  27.499  28.779  1.00  0.00     0.074 A 
ATOM     40  C   UNL A   1      40.724  29.670  29.894  1.00  0.00     0.049 A 
ATOM     41  N   UNL A   1      41.586  26.916  29.118  1.00  0.00    -0.248 NA
ATOM     42  C   UNL A   1      39.668  26.719  27.811  1.00  0.00     0.031 C 
ATOM     43  C   UNL A   1      40.407  31.026  30.344  1.00  0.00     0.029 A 
ATOM     44  N   UNL A   1      42.047  29.514  30.269  1.00  0.00    -0.354 N 
ATOM     45  C   UNL A   1      41.603  25.686  28.462  1.00  0.00     0.074 A 
ATOM     46  C   UNL A   1      40.367  25.595  27.718  1.00  0.00     0.031 C 
ATOM     47  C   UNL A   1      41.511  31.601  30.847  1.00  0.00     0.029 A 
ATOM     48  C   UNL A   1      42.593  30.620  30.888  1.00  0.00     0.049 A 
ATOM     49  H   UNL A   1      42.554  28.686  30.108  1.00  0.00     0.167 HD
ATOM     50  C   UNL A   1      42.561  24.726  28.455  1.00  0.00     0.031 A 
ATOM     51  C   UNL A   1      43.797  30.832  31.468  1.00  0.00     0.031 A 
ATOM     52  C   UNL A   1      43.844  24.838  29.106  1.00  0.00     0.049 A 
ATOM     53  C   UNL A   1      44.809  29.717  31.535  1.00  0.00     0.074 A 
ATOM     54  C   UNL A   1      44.869  23.906  29.132  1.00  0.00     0.029 A 
ATOM     55  N   UNL A   1      44.300  25.946  29.798  1.00  0.00    -0.354 N 
ATOM     56  N   UNL A   1      44.762  28.529  30.984  1.00  0.00    -0.248 NA
ATOM     57  C   UNL A   1      46.028  29.962  32.324  1.00  0.00     0.031 C 
ATOM     58  C   UNL A   1      45.917  24.422  29.893  1.00  0.00     0.029 A 
ATOM     59  C   UNL A   1      45.580  25.709  30.275  1.00  0.00     0.049 A 
ATOM     60  H   UNL A   1      43.791  26.779  29.932  1.00  0.00     0.167 HD
ATOM     61  C   UNL A   1      45.951  27.899  31.341  1.00  0.00     0.074 A 
ATOM     62  C   UNL A   1      46.709  28.839  32.136  1.00  0.00     0.031 C 
ATOM     63  C   UNL A   1      46.363  26.644  31.040  1.00  0.00     0.031 A 
BRANCH  50  64
ATOM     64  C   UNL A   1      42.310  23.438  27.705  1.00  0.00    -0.014 A 
ATOM     65  C   UNL A   1      41.599  22.397  28.338  1.00  0.00     0.010 A 
ATOM     66  C   UNL A   1      42.943  23.180  26.477  1.00  0.00     0.010 A 
ATOM     67  C   UNL A   1      41.579  21.112  27.791  1.00  0.00     0.020 A 
ATOM     68  C   UNL A   1      42.895  21.901  25.909  1.00  0.00     0.020 A 
ATOM     69  C   UNL A   1      42.243  20.868  26.586  1.00  0.00     0.054 A 
BRANCH  69  70
ATOM     70  S   UNL A   1      42.277  19.174  25.936  1.00  0.00     0.124 S 
ATOM     71  O   UNL A   1      40.866  18.911  25.682  1.00  0.00    -0.237 OA
ATOM     72  O   UNL A   1      43.120  19.306  24.749  1.00  0.00    -0.237 OA
ATOM     73  O   UNL A   1      42.871  18.401  27.025  1.00  0.00    -0.744 OA
ENDBRANCH  69  70
ENDBRANCH  50  64
BRANCH  51  74
ATOM     74  C   UNL A   1      44.118  32.166  32.065  1.00  0.00    -0.014 A 
ATOM     75  C   UNL A   1      44.763  33.162  31.307  1.00  0.00     0.010 A 
ATOM     76  C   UNL A   1      43.790  32.445  33.405  1.00  0.00     0.010 A 
ATOM     77  C   UNL A   1      45.133  34.377  31.891  1.00  0.00     0.020 A 
ATOM     78  C   UNL A   1      44.119  33.677  33.982  1.00  0.00     0.020 A 
ATOM     79  C   UNL A   1      44.818  34.622  33.230  1.00  0.00     0.054 A 
BRANCH  79  80
ATOM     80  S   UNL A   1      45.336  36.194  33.973  1.00  0.00     0.124 S 
ATOM     81  O   UNL A   1      46.629  36.415  33.329  1.00  0.00    -0.237 OA
ATOM     82  O   UNL A   1      44.269  37.106  33.570  1.00  0.00    -0.237 OA
ATOM     83  O   UNL A   1      45.392  35.895  35.401  1.00  0.00    -0.744 OA
ENDBRANCH  79  80
ENDBRANCH  51  74
BRANCH  63  84
ATOM     84  C   UNL A   1      47.709  26.173  31.534  1.00  0.00    -0.014 A 
ATOM     85  C   UNL A   1      48.789  26.078  30.635  1.00  0.00     0.010 A 
ATOM     86  C   UNL A   1      47.862  25.664  32.836  1.00  0.00     0.010 A 
ATOM     87  C   UNL A   1      49.972  25.436  31.007  1.00  0.00     0.020 A 
ATOM     88  C   UNL A   1      49.056  25.049  33.223  1.00  0.00     0.020 A 
ATOM     89  C   UNL A   1      50.093  24.909  32.295  1.00  0.00     0.054 A 
BRANCH  89  90
ATOM     90  S   UNL A   1      51.606  24.009  32.734  1.00  0.00     0.124 S 
ATOM     91  O   UNL A   1      51.384  22.709  32.108  1.00  0.00    -0.237 OA
ATOM     92  O   UNL A   1      52.653  24.829  32.129  1.00  0.00    -0.237 OA
ATOM     93  O   UNL A   1      51.594  24.007  34.196  1.00  0.00    -0.744 OA
ENDBRANCH  89  90
ENDBRANCH  63  84
ENDBRANCH  37  38
ENDBRANCH  29  32
ENDBRANCH  27  28
ENDBRANCH  26  27
ENDBRANCH   1  26
TORSDOF 18
ENDMDL
MODEL 2
REMARK VINA RESULT:     -11.1      4.687     10.658
REMARK SMILES Cc1c(C)c2cc(Cl)c(O[C@@H](C)C(=O)NCCCCCCNC(=O)c3ccc(-c4c5nc(c(-c6ccc(S(=O)(=O)[O-])cc6)c6ccc([nH]6)c(-c6ccc(S(=O)(=O)[O-])cc6)c6nc(c(-c7ccc(S(=O)(=O)[O-])cc7)c7ccc4[nH]7)C=C6)C=C5)cc3)cc2oc1=O
REMARK SMILES IDX 19 1 18 2 17 3 16 4 15 5 13 6 14 7 11 9 12 10 10 11 9 12
REMARK SMILES IDX 1 13 2 14 3 15 88 16 4 17 5 18 87 19 89 20 6 21 86 22 7 23
REMARK SMILES IDX 85 24 8 25 20 26 21 27 22 28 23 29 24 31 25 32 26 33 84 34
REMARK SMILES IDX 27 35 83 36 28 37 29 38 30 39 77 40 31 41 82 42 76 43 78 44
REMARK SMILES IDX 32 45 81 46 75 47 74 48 33 50 63 51 44 52 62 53 45 54 48 55
REMARK SMILES IDX 61 56 79 57 46 58 47 59 60 61 80 62 49 63 34 64 35 65 43 66
REMARK SMILES IDX 36 67 42 68 37 69 38 70 39 71 40 72 41 73 64 74 65 75 73 76
REMARK SMILES IDX 66 77 72 78 67 79 68 80 69 81 70 82 71 83 50 84 51 85 59 86
REMARK SMILES IDX 52 87 58 88 53 89 54 90 55 91 56 92 57 93
REMARK H PARENT 15 8 22 30 78 49 48 60
REMARK Flexibility Score: inf
ROOT
ATOM      1  C   UNL A   1      37.281  23.588  25.539  1.00  0.00     0.002 C 
ENDROOT
BRANCH   1   2
ATOM      2  C   UNL A   1      36.710  22.642  24.471  1.00  0.00     0.002 C 
BRANCH   2   3
ATOM      3  C   UNL A   1      36.697  21.143  24.805  1.00  0.00     0.021 C 
BRANCH   3   4
ATOM      4  C   UNL A   1      35.362  20.580  25.312  1.00  0.00     0.116 C 
BRANCH   4   5
ATOM      5  N   UNL A   1      34.920  21.244  26.523  1.00  0.00    -0.353 N 
ATOM      6  C   UNL A   1      33.969  22.181  26.784  1.00  0.00     0.260 C 
ATOM      7  O   UNL A   1      33.895  22.535  27.970  1.00  0.00    -0.271 OA
ATOM      8  H   UNL A   1      35.411  20.956  27.326  1.00  0.00     0.163 HD
BRANCH   6   9
ATOM      9  C   UNL A   1      32.953  22.767  25.746  1.00  0.00     0.258 C 
ATOM     10  C   UNL A   1      31.754  21.863  25.468  1.00  0.00     0.064 C 
BRANCH   9  11
ATOM     11  O   UNL A   1      33.311  23.597  24.644  1.00  0.00    -0.479 OA
BRANCH  11  12
ATOM     12  C   UNL A   1      33.046  24.929  24.646  1.00  0.00     0.142 A 
ATOM     13  C   UNL A   1      31.845  30.889  26.619  1.00  0.00     0.052 C 
ATOM     14  C   UNL A   1      32.432  29.666  26.004  1.00  0.00     0.038 A 
ATOM     15  C   UNL A   1      31.841  29.010  24.990  1.00  0.00    -0.030 A 
ATOM     16  C   UNL A   1      33.681  29.184  26.662  1.00  0.00     0.339 A 
ATOM     17  C   UNL A   1      30.661  29.554  24.229  1.00  0.00     0.046 C 
ATOM     18  C   UNL A   1      32.315  27.654  24.698  1.00  0.00     0.023 A 
ATOM     19  O   UNL A   1      34.222  28.008  26.176  1.00  0.00    -0.422 OA
ATOM     20  O   UNL A   1      34.201  29.779  27.592  1.00  0.00    -0.246 OA
ATOM     21  C   UNL A   1      31.596  26.748  23.917  1.00  0.00     0.036 A 
ATOM     22  C   UNL A   1      33.464  27.190  25.330  1.00  0.00     0.142 A 
ATOM     23  C   UNL A   1      31.950  25.394  23.905  1.00  0.00     0.083 A 
ATOM     24  C   UNL A   1      33.870  25.858  25.261  1.00  0.00     0.096 A 
ATOM     25  Cl  UNL A   1      30.965  24.313  22.985  1.00  0.00    -0.080 Cl
ENDBRANCH  11  12
ENDBRANCH   9  11
ENDBRANCH   6   9
ENDBRANCH   4   5
ENDBRANCH   3   4
ENDBRANCH   2   3
ENDBRANCH   1   2
BRANCH   1  26
ATOM     26  C   UNL A   1      38.531  23.125  26.303  1.00  0.00     0.021 C 
BRANCH  26  27
ATOM     27  C   UNL A   1      39.406  24.208  26.950  1.00  0.00     0.116 C 
BRANCH  27  28
ATOM     28  N   UNL A   1      40.244  24.946  26.017  1.00  0.00    -0.352 N 
ATOM     29  C   UNL A   1      40.787  26.210  26.152  1.00  0.00     0.251 C 
ATOM     30  H   UNL A   1      40.453  24.481  25.174  1.00  0.00     0.163 HD
ATOM     31  O   UNL A   1      41.503  26.672  25.268  1.00  0.00    -0.269 OA
BRANCH  29  32
ATOM     32  C   UNL A   1      40.509  27.024  27.360  1.00  0.00     0.039 A 
ATOM     33  C   UNL A   1      40.915  28.351  27.424  1.00  0.00     0.014 A 
ATOM     34  C   UNL A   1      39.812  26.477  28.437  1.00  0.00     0.014 A 
ATOM     35  C   UNL A   1      40.793  29.065  28.630  1.00  0.00     0.010 A 
ATOM     36  C   UNL A   1      39.621  27.230  29.613  1.00  0.00     0.010 A 
ATOM     37  C   UNL A   1      40.176  28.515  29.768  1.00  0.00    -0.014 A 
BRANCH  37  38
ATOM     38  C   UNL A   1      40.180  29.219  31.112  1.00  0.00     0.031 A 
ATOM     39  C   UNL A   1      39.066  30.199  31.469  1.00  0.00     0.074 A 
ATOM     40  C   UNL A   1      41.115  28.984  32.064  1.00  0.00     0.049 A 
ATOM     41  N   UNL A   1      38.995  31.051  32.466  1.00  0.00    -0.248 NA
ATOM     42  C   UNL A   1      37.883  30.230  30.591  1.00  0.00     0.031 C 
ATOM     43  C   UNL A   1      42.211  28.019  31.970  1.00  0.00     0.029 A 
ATOM     44  N   UNL A   1      41.281  29.527  33.326  1.00  0.00    -0.354 N 
ATOM     45  C   UNL A   1      37.803  31.755  32.295  1.00  0.00     0.074 A 
ATOM     46  C   UNL A   1      37.190  31.245  31.089  1.00  0.00     0.031 C 
ATOM     47  C   UNL A   1      42.872  27.976  33.137  1.00  0.00     0.029 A 
ATOM     48  C   UNL A   1      42.344  29.003  34.032  1.00  0.00     0.049 A 
ATOM     49  H   UNL A   1      40.691  30.227  33.689  1.00  0.00     0.167 HD
ATOM     50  C   UNL A   1      37.253  32.719  33.074  1.00  0.00     0.031 A 
ATOM     51  C   UNL A   1      42.880  29.321  35.233  1.00  0.00     0.031 A 
ATOM     52  C   UNL A   1      37.794  33.170  34.332  1.00  0.00     0.049 A 
ATOM     53  C   UNL A   1      42.311  30.463  36.034  1.00  0.00     0.074 A 
ATOM     54  C   UNL A   1      37.281  34.140  35.180  1.00  0.00     0.029 A 
ATOM     55  N   UNL A   1      38.927  32.667  34.946  1.00  0.00    -0.354 N 
ATOM     56  N   UNL A   1      41.235  31.174  35.804  1.00  0.00    -0.248 NA
ATOM     57  C   UNL A   1      43.042  30.863  37.249  1.00  0.00     0.031 C 
ATOM     58  C   UNL A   1      38.137  34.268  36.272  1.00  0.00     0.029 A 
ATOM     59  C   UNL A   1      39.141  33.324  36.148  1.00  0.00     0.049 A 
ATOM     60  H   UNL A   1      39.495  31.949  34.585  1.00  0.00     0.167 HD
ATOM     61  C   UNL A   1      41.151  32.085  36.853  1.00  0.00     0.074 A 
ATOM     62  C   UNL A   1      42.268  31.826  37.733  1.00  0.00     0.031 C 
ATOM     63  C   UNL A   1      40.229  33.057  37.053  1.00  0.00     0.031 A 
BRANCH  50  64
ATOM     64  C   UNL A   1      35.966  33.379  32.631  1.00  0.00    -0.014 A 
ATOM     65  C   UNL A   1      36.024  34.515  31.797  1.00  0.00     0.010 A 
ATOM     66  C   UNL A   1      34.733  33.012  33.196  1.00  0.00     0.010 A 
ATOM     67  C   UNL A   1      34.890  35.305  31.588  1.00  0.00     0.020 A 
ATOM     68  C   UNL A   1      33.587  33.782  32.960  1.00  0.00     0.020 A 
ATOM     69  C   UNL A   1      33.681  34.942  32.187  1.00  0.00     0.054 A 
BRANCH  69  70
ATOM     70  S   UNL A   1      32.242  36.026  31.974  1.00  0.00     0.124 S 
ATOM     71  O   UNL A   1      32.660  37.237  32.671  1.00  0.00    -0.237 OA
ATOM     72  O   UNL A   1      32.139  36.136  30.520  1.00  0.00    -0.237 OA
ATOM     73  O   UNL A   1      31.155  35.282  32.610  1.00  0.00    -0.744 OA
ENDBRANCH  69  70
ENDBRANCH  50  64
BRANCH  51  74
ATOM     74  C   UNL A   1      44.054  28.555  35.757  1.00  0.00    -0.014 A 
ATOM     75  C   UNL A   1      45.370  28.932  35.427  1.00  0.00     0.010 A 
ATOM     76  C   UNL A   1      43.862  27.432  36.584  1.00  0.00     0.010 A 
ATOM     77  C   UNL A   1      46.460  28.168  35.853  1.00  0.00     0.020 A 
ATOM     78  C   UNL A   1      44.953  26.689  37.048  1.00  0.00     0.020 A 
ATOM     79  C   UNL A   1      46.244  27.043  36.652  1.00  0.00     0.054 A 
BRANCH  79  80
ATOM     80  S   UNL A   1      47.673  26.051  37.166  1.00  0.00     0.124 S 
ATOM     81  O   UNL A   1      47.428  25.897  38.598  1.00  0.00    -0.237 OA
ATOM     82  O   UNL A   1      47.522  24.837  36.369  1.00  0.00    -0.237 OA
ATOM     83  O   UNL A   1      48.816  26.888  36.812  1.00  0.00    -0.744 OA
ENDBRANCH  79  80
ENDBRANCH  51  74
BRANCH  63  84
ATOM     84  C   UNL A   1      40.335  33.931  38.280  1.00  0.00    -0.014 A 
ATOM     85  C   UNL A   1      39.530  33.657  39.403  1.00  0.00     0.010 A 
ATOM     86  C   UNL A   1      41.096  35.113  38.259  1.00  0.00     0.010 A 
ATOM     87  C   UNL A   1      39.440  34.573  40.455  1.00  0.00     0.020 A 
ATOM     88  C   UNL A   1      41.033  36.017  39.325  1.00  0.00     0.020 A 
ATOM     89  C   UNL A   1      40.179  35.757  40.401  1.00  0.00     0.054 A 
BRANCH  89  90
ATOM     90  S   UNL A   1      39.988  36.968  41.738  1.00  0.00     0.124 S 
ATOM     91  O   UNL A   1      39.165  37.996  41.108  1.00  0.00    -0.237 OA
ATOM     92  O   UNL A   1      39.331  36.189  42.785  1.00  0.00    -0.237 OA
ATOM     93  O   UNL A   1      41.362  37.369  42.039  1.00  0.00    -0.744 OA
ENDBRANCH  89  90
ENDBRANCH  63  84
ENDBRANCH  37  38
ENDBRANCH  29  32
ENDBRANCH  27  28
ENDBRANCH  26  27
ENDBRANCH   1  26
TORSDOF 18
ENDMDL
MODEL 3
REMARK VINA RESULT:     -11.1      4.511     10.323
REMARK SMILES Cc1c(C)c2cc(Cl)c(O[C@@H](C)C(=O)NCCCCCCNC(=O)c3ccc(-c4c5nc(c(-c6ccc(S(=O)(=O)[O-])cc6)c6ccc([nH]6)c(-c6ccc(S(=O)(=O)[O-])cc6)c6nc(c(-c7ccc(S(=O)(=O)[O-])cc7)c7ccc4[nH]7)C=C6)C=C5)cc3)cc2oc1=O
REMARK SMILES IDX 19 1 18 2 17 3 16 4 15 5 13 6 14 7 11 9 12 10 10 11 9 12
REMARK SMILES IDX 1 13 2 14 3 15 88 16 4 17 5 18 87 19 89 20 6 21 86 22 7 23
REMARK SMILES IDX 85 24 8 25 20 26 21 27 22 28 23 29 24 31 25 32 26 33 84 34
REMARK SMILES IDX 27 35 83 36 28 37 29 38 30 39 77 40 31 41 82 42 76 43 78 44
REMARK SMILES IDX 32 45 81 46 75 47 74 48 33 50 63 51 44 52 62 53 45 54 48 55
REMARK SMILES IDX 61 56 79 57 46 58 47 59 60 61 80 62 49 63 34 64 35 65 43 66
REMARK SMILES IDX 36 67 42 68 37 69 38 70 39 71 40 72 41 73 64 74 65 75 73 76
REMARK SMILES IDX 66 77 72 78 67 79 68 80 69 81 70 82 71 83 50 84 51 85 59 86
REMARK SMILES IDX 52 87 58 88 53 89 54 90 55 91 56 92 57 93
REMARK H PARENT 15 8 22 30 78 49 48 60
REMARK Flexibility Score: inf
ROOT
ATOM      1  C   UNL A   1      39.686  22.318  26.878  1.00  0.00     0.002 C 
ENDROOT
BRANCH   1   2
ATOM      2  C   UNL A   1      38.567  22.820  25.950  1.00  0.00     0.002 C 
BRANCH   2   3
ATOM      3  C   UNL A   1      37.672  21.754  25.301  1.00  0.00     0.021 C 
BRANCH   3   4
ATOM      4  C   UNL A   1      36.209  21.734  25.764  1.00  0.00     0.116 C 
BRANCH   4   5
ATOM      5  N   UNL A   1      35.535  20.510  25.378  1.00  0.00    -0.353 N 
ATOM      6  C   UNL A   1      34.346  20.247  24.773  1.00  0.00     0.260 C 
ATOM      7  O   UNL A   1      34.088  19.042  24.626  1.00  0.00    -0.271 OA
ATOM      8  H   UNL A   1      36.045  19.698  25.602  1.00  0.00     0.163 HD
BRANCH   6   9
ATOM      9  C   UNL A   1      33.351  21.316  24.203  1.00  0.00     0.258 C 
ATOM     10  C   UNL A   1      34.032  22.481  23.487  1.00  0.00     0.064 C 
BRANCH   9  11
ATOM     11  O   UNL A   1      32.106  21.661  24.803  1.00  0.00    -0.479 OA
BRANCH  11  12
ATOM     12  C   UNL A   1      31.773  22.955  25.045  1.00  0.00     0.142 A 
ATOM     13  C   UNL A   1      31.191  29.295  24.481  1.00  0.00     0.052 C 
ATOM     14  C   UNL A   1      30.945  27.831  24.593  1.00  0.00     0.038 A 
ATOM     15  C   UNL A   1      31.214  27.134  25.711  1.00  0.00    -0.030 A 
ATOM     16  C   UNL A   1      30.459  27.190  23.337  1.00  0.00     0.339 A 
ATOM     17  C   UNL A   1      31.573  27.783  27.022  1.00  0.00     0.046 C 
ATOM     18  C   UNL A   1      31.260  25.674  25.601  1.00  0.00     0.023 A 
ATOM     19  O   UNL A   1      30.289  25.817  23.369  1.00  0.00    -0.422 OA
ATOM     20  O   UNL A   1      30.232  27.829  22.322  1.00  0.00    -0.246 OA
ATOM     21  C   UNL A   1      31.838  24.855  26.571  1.00  0.00     0.036 A 
ATOM     22  C   UNL A   1      30.833  25.072  24.421  1.00  0.00     0.142 A 
ATOM     23  C   UNL A   1      32.107  23.510  26.288  1.00  0.00     0.083 A 
ATOM     24  C   UNL A   1      31.025  23.717  24.161  1.00  0.00     0.096 A 
ATOM     25  Cl  UNL A   1      32.903  22.575  27.504  1.00  0.00    -0.080 Cl
ENDBRANCH  11  12
ENDBRANCH   9  11
ENDBRANCH   6   9
ENDBRANCH   4   5
ENDBRANCH   3   4
ENDBRANCH   2   3
ENDBRANCH   1   2
BRANCH   1  26
ATOM     26  C   UNL A   1      41.069  22.076  26.255  1.00  0.00     0.021 C 
BRANCH  26  27
ATOM     27  C   UNL A   1      42.149  23.139  26.497  1.00  0.00     0.116 C 
BRANCH  27  28
ATOM     28  N   UNL A   1      42.229  24.165  25.468  1.00  0.00    -0.352 N 
ATOM     29  C   UNL A   1      42.201  25.540  25.610  1.00  0.00     0.251 C 
ATOM     30  H   UNL A   1      42.313  23.836  24.544  1.00  0.00     0.163 HD
ATOM     31  O   UNL A   1      42.310  26.265  24.626  1.00  0.00    -0.269 OA
BRANCH  29  32
ATOM     32  C   UNL A   1      42.037  26.155  26.949  1.00  0.00     0.039 A 
ATOM     33  C   UNL A   1      40.944  25.833  27.744  1.00  0.00     0.014 A 
ATOM     34  C   UNL A   1      42.992  27.045  27.442  1.00  0.00     0.014 A 
ATOM     35  C   UNL A   1      40.712  26.540  28.939  1.00  0.00     0.010 A 
ATOM     36  C   UNL A   1      42.791  27.687  28.680  1.00  0.00     0.010 A 
ATOM     37  C   UNL A   1      41.607  27.511  29.422  1.00  0.00    -0.014 A 
BRANCH  37  38
ATOM     38  C   UNL A   1      41.287  28.382  30.622  1.00  0.00     0.031 A 
ATOM     39  C   UNL A   1      40.112  29.355  30.573  1.00  0.00     0.074 A 
ATOM     40  C   UNL A   1      41.973  28.310  31.788  1.00  0.00     0.049 A 
ATOM     41  N   UNL A   1      39.800  30.325  31.402  1.00  0.00    -0.248 NA
ATOM     42  C   UNL A   1      39.170  29.224  29.448  1.00  0.00     0.031 C 
ATOM     43  C   UNL A   1      43.067  27.385  32.083  1.00  0.00     0.029 A 
ATOM     44  N   UNL A   1      41.831  29.018  32.968  1.00  0.00    -0.354 N 
ATOM     45  C   UNL A   1      38.677  30.953  30.864  1.00  0.00     0.074 A 
ATOM     46  C   UNL A   1      38.370  30.268  29.629  1.00  0.00     0.031 C 
ATOM     47  C   UNL A   1      43.435  27.520  33.368  1.00  0.00     0.029 A 
ATOM     48  C   UNL A   1      42.702  28.633  33.967  1.00  0.00     0.049 A 
ATOM     49  H   UNL A   1      41.166  29.735  33.086  1.00  0.00     0.167 HD
ATOM     50  C   UNL A   1      37.950  31.987  31.355  1.00  0.00     0.031 A 
ATOM     51  C   UNL A   1      42.936  29.125  35.205  1.00  0.00     0.031 A 
ATOM     52  C   UNL A   1      38.175  32.619  32.631  1.00  0.00     0.049 A 
ATOM     53  C   UNL A   1      42.184  30.338  35.690  1.00  0.00     0.074 A 
ATOM     54  C   UNL A   1      37.469  33.669  33.197  1.00  0.00     0.029 A 
ATOM     55  N   UNL A   1      39.135  32.245  33.555  1.00  0.00    -0.354 N 
ATOM     56  N   UNL A   1      41.187  30.969  35.121  1.00  0.00    -0.248 NA
ATOM     57  C   UNL A   1      42.604  30.921  36.976  1.00  0.00     0.031 C 
ATOM     58  C   UNL A   1      38.041  33.972  34.432  1.00  0.00     0.029 A 
ATOM     59  C   UNL A   1      39.053  33.060  34.674  1.00  0.00     0.049 A 
ATOM     60  H   UNL A   1      39.779  31.510  33.437  1.00  0.00     0.167 HD
ATOM     61  C   UNL A   1      40.850  32.005  35.989  1.00  0.00     0.074 A 
ATOM     62  C   UNL A   1      41.730  31.907  37.131  1.00  0.00     0.031 C 
ATOM     63  C   UNL A   1      39.899  32.957  35.835  1.00  0.00     0.031 A 
BRANCH  50  64
ATOM     64  C   UNL A   1      36.799  32.532  30.539  1.00  0.00    -0.014 A 
ATOM     65  C   UNL A   1      37.015  33.641  29.695  1.00  0.00     0.010 A 
ATOM     66  C   UNL A   1      35.483  32.092  30.760  1.00  0.00     0.010 A 
ATOM     67  C   UNL A   1      35.937  34.335  29.139  1.00  0.00     0.020 A 
ATOM     68  C   UNL A   1      34.403  32.764  30.176  1.00  0.00     0.020 A 
ATOM     69  C   UNL A   1      34.635  33.901  29.398  1.00  0.00     0.054 A 
BRANCH  69  70
ATOM     70  S   UNL A   1      33.246  34.865  28.739  1.00  0.00     0.124 S 
ATOM     71  O   UNL A   1      33.926  35.925  28.003  1.00  0.00    -0.237 OA
ATOM     72  O   UNL A   1      32.537  33.883  27.921  1.00  0.00    -0.237 OA
ATOM     73  O   UNL A   1      32.528  35.297  29.937  1.00  0.00    -0.744 OA
ENDBRANCH  69  70
ENDBRANCH  50  64
BRANCH  51  74
ATOM     74  C   UNL A   1      43.959  28.481  36.087  1.00  0.00    -0.014 A 
ATOM     75  C   UNL A   1      43.625  27.383  36.903  1.00  0.00     0.010 A 
ATOM     76  C   UNL A   1      45.277  28.973  36.126  1.00  0.00     0.010 A 
ATOM     77  C   UNL A   1      44.561  26.837  37.785  1.00  0.00     0.020 A 
ATOM     78  C   UNL A   1      46.231  28.400  36.976  1.00  0.00     0.020 A 
ATOM     79  C   UNL A   1      45.857  27.357  37.823  1.00  0.00     0.054 A 
BRANCH  79  80
ATOM     80  S   UNL A   1      47.045  26.650  38.998  1.00  0.00     0.124 S 
ATOM     81  O   UNL A   1      47.887  27.805  39.301  1.00  0.00    -0.237 OA
ATOM     82  O   UNL A   1      46.186  26.195  40.088  1.00  0.00    -0.237 OA
ATOM     83  O   UNL A   1      47.692  25.587  38.233  1.00  0.00    -0.744 OA
ENDBRANCH  79  80
ENDBRANCH  51  74
BRANCH  63  84
ATOM     84  C   UNL A   1      39.705  33.985  36.922  1.00  0.00    -0.014 A 
ATOM     85  C   UNL A   1      40.449  35.181  36.893  1.00  0.00     0.010 A 
ATOM     86  C   UNL A   1      38.923  33.698  38.055  1.00  0.00     0.010 A 
ATOM     87  C   UNL A   1      40.460  36.041  37.995  1.00  0.00     0.020 A 
ATOM     88  C   UNL A   1      38.906  34.572  39.147  1.00  0.00     0.020 A 
ATOM     89  C   UNL A   1      39.701  35.721  39.123  1.00  0.00     0.054 A 
BRANCH  89  90
ATOM     90  S   UNL A   1      39.790  36.809  40.573  1.00  0.00     0.124 S 
ATOM     91  O   UNL A   1      40.984  37.600  40.292  1.00  0.00    -0.237 OA
ATOM     92  O   UNL A   1      38.524  37.534  40.508  1.00  0.00    -0.237 OA
ATOM     93  O   UNL A   1      39.910  35.878  41.695  1.00  0.00    -0.744 OA
ENDBRANCH  89  90
ENDBRANCH  63  84
ENDBRANCH  37  38
ENDBRANCH  29  32
ENDBRANCH  27  28
ENDBRANCH  26  27
ENDBRANCH   1  26
TORSDOF 18
ENDMDL
