MODEL 1
REMARK VINA RESULT:     -11.3      0.000      0.000
REMARK SMILES CC1=C2C(=O)N(C[C@H]3CCCO3)C(=O)N=C2S[C@@H]1C(=O)NCCCCCCNC(=O)c1ccc(-c2c3nc(c(-c4ccc(S(=O)(=O)[O-])cc4)c4ccc([nH]4)c(-c4ccc(S(=O)(=O)[O-])cc4)c4nc(c(-c5ccc(S(=O)(=O)[O-])cc5)c5ccc2[nH]5)C=C4)C=C3)cc1
REMARK SMILES IDX 25 1 24 2 23 3 22 4 21 5 19 6 20 7 18 9 1 10 2 11 3 12 4 13
REMARK SMILES IDX 16 14 17 15 5 16 6 17 15 18 13 19 14 20 7 21 8 22 9 23 12 24
REMARK SMILES IDX 10 25 11 26 26 27 27 28 28 29 29 30 30 32 31 33 32 34 90 35
REMARK SMILES IDX 33 36 89 37 34 38 35 39 36 40 83 41 37 42 88 43 82 44 84 45
REMARK SMILES IDX 38 46 87 47 81 48 80 49 39 51 69 52 50 53 68 54 51 55 54 56
REMARK SMILES IDX 67 57 85 58 52 59 53 60 66 62 86 63 55 64 40 65 41 66 49 67
REMARK SMILES IDX 42 68 48 69 43 70 44 71 45 72 46 73 47 74 70 75 71 76 79 77
REMARK SMILES IDX 72 78 78 79 73 80 74 81 75 82 76 83 77 84 56 85 57 86 65 87
REMARK SMILES IDX 58 88 64 89 59 90 60 91 61 92 62 93 63 94
REMARK H PARENT 21 8 28 31 84 50 54 61
REMARK Flexibility Score: inf
ROOT
ATOM      1  C   UNL A   1      31.878  28.964  24.841  1.00  0.00     0.002 C 
ENDROOT
BRANCH   1   2
ATOM      2  C   UNL A   1      31.084  27.663  24.686  1.00  0.00     0.002 C 
BRANCH   2   3
ATOM      3  C   UNL A   1      30.973  26.810  25.954  1.00  0.00     0.021 C 
BRANCH   3   4
ATOM      4  C   UNL A   1      29.929  25.703  25.870  1.00  0.00     0.116 C 
BRANCH   4   5
ATOM      5  N   UNL A   1      30.055  24.948  24.637  1.00  0.00    -0.355 N 
ATOM      6  C   UNL A   1      30.986  24.039  24.232  1.00  0.00     0.237 C 
ATOM      7  O   UNL A   1      30.835  23.544  23.109  1.00  0.00    -0.273 OA
ATOM      8  H   UNL A   1      29.344  25.122  23.979  1.00  0.00     0.163 HD
BRANCH   6   9
ATOM      9  C   UNL A   1      32.141  23.568  25.124  1.00  0.00     0.169 C 
ATOM     10  C   UNL A   1      33.865  25.237  24.187  1.00  0.00     0.042 C 
ATOM     11  C   UNL A   1      33.506  23.830  24.551  1.00  0.00    -0.035 C 
ATOM     12  C   UNL A   1      34.304  22.758  24.458  1.00  0.00     0.073 C 
ATOM     13  C   UNL A   1      35.654  22.637  23.918  1.00  0.00     0.264 C 
ATOM     14  C   UNL A   1      33.722  21.541  24.990  1.00  0.00     0.116 C 
ATOM     15  S   UNL A   1      32.065  21.777  25.469  1.00  0.00    -0.087 SA
ATOM     16  O   UNL A   1      36.041  23.379  23.026  1.00  0.00    -0.268 OA
ATOM     17  N   UNL A   1      36.341  21.584  24.470  1.00  0.00    -0.256 N 
ATOM     18  N   UNL A   1      34.334  20.426  25.110  1.00  0.00    -0.186 NA
ATOM     19  C   UNL A   1      35.685  20.393  24.828  1.00  0.00     0.351 C 
ATOM     20  O   UNL A   1      36.301  19.340  24.928  1.00  0.00    -0.246 OA
BRANCH  17  21
ATOM     21  C   UNL A   1      37.768  21.691  24.776  1.00  0.00     0.163 C 
BRANCH  21  22
ATOM     22  C   UNL A   1      38.278  21.911  26.214  1.00  0.00     0.138 C 
ATOM     23  C   UNL A   1      39.758  22.221  26.408  1.00  0.00     0.036 C 
ATOM     24  O   UNL A   1      37.625  23.130  26.672  1.00  0.00    -0.376 OA
ATOM     25  C   UNL A   1      39.860  23.689  26.098  1.00  0.00     0.031 C 
ATOM     26  C   UNL A   1      38.564  24.217  26.662  1.00  0.00     0.160 C 
ENDBRANCH  21  22
ENDBRANCH  17  21
ENDBRANCH   6   9
ENDBRANCH   4   5
ENDBRANCH   3   4
ENDBRANCH   2   3
ENDBRANCH   1   2
BRANCH   1  27
ATOM     27  C   UNL A   1      33.401  28.808  24.850  1.00  0.00     0.021 C 
BRANCH  27  28
ATOM     28  C   UNL A   1      34.071  29.111  26.187  1.00  0.00     0.116 C 
BRANCH  28  29
ATOM     29  N   UNL A   1      33.791  30.459  26.652  1.00  0.00    -0.352 N 
ATOM     30  C   UNL A   1      34.430  31.173  27.637  1.00  0.00     0.251 C 
ATOM     31  H   UNL A   1      33.047  30.922  26.201  1.00  0.00     0.163 HD
ATOM     32  O   UNL A   1      33.973  32.244  28.022  1.00  0.00    -0.269 OA
BRANCH  30  33
ATOM     33  C   UNL A   1      35.658  30.622  28.246  1.00  0.00     0.039 A 
ATOM     34  C   UNL A   1      36.902  31.029  27.759  1.00  0.00     0.014 A 
ATOM     35  C   UNL A   1      35.574  29.719  29.309  1.00  0.00     0.014 A 
ATOM     36  C   UNL A   1      38.070  30.575  28.379  1.00  0.00     0.010 A 
ATOM     37  C   UNL A   1      36.736  29.309  29.957  1.00  0.00     0.010 A 
ATOM     38  C   UNL A   1      37.994  29.734  29.500  1.00  0.00    -0.014 A 
BRANCH  38  39
ATOM     39  C   UNL A   1      39.207  29.262  30.213  1.00  0.00     0.031 A 
ATOM     40  C   UNL A   1      39.662  29.986  31.452  1.00  0.00     0.074 A 
ATOM     41  C   UNL A   1      39.951  28.265  29.697  1.00  0.00     0.049 A 
ATOM     42  N   UNL A   1      40.782  29.861  32.115  1.00  0.00    -0.248 NA
ATOM     43  C   UNL A   1      38.749  31.003  31.998  1.00  0.00     0.031 C 
ATOM     44  C   UNL A   1      39.627  27.495  28.492  1.00  0.00     0.029 A 
ATOM     45  N   UNL A   1      41.152  27.742  30.108  1.00  0.00    -0.354 N 
ATOM     46  C   UNL A   1      40.728  30.813  33.126  1.00  0.00     0.074 A 
ATOM     47  C   UNL A   1      39.472  31.517  32.983  1.00  0.00     0.031 C 
ATOM     48  C   UNL A   1      40.604  26.600  28.266  1.00  0.00     0.029 A 
ATOM     49  C   UNL A   1      41.642  26.760  29.279  1.00  0.00     0.049 A 
ATOM     50  H   UNL A   1      41.619  28.043  30.921  1.00  0.00     0.167 HD
ATOM     51  C   UNL A   1      41.643  31.074  34.089  1.00  0.00     0.031 A 
ATOM     52  C   UNL A   1      42.805  26.081  29.317  1.00  0.00     0.031 A 
ATOM     53  C   UNL A   1      42.870  30.344  34.255  1.00  0.00     0.049 A 
ATOM     54  C   UNL A   1      43.797  26.380  30.410  1.00  0.00     0.074 A 
ATOM     55  C   UNL A   1      43.829  30.491  35.242  1.00  0.00     0.029 A 
ATOM     56  N   UNL A   1      43.301  29.324  33.423  1.00  0.00    -0.354 N 
ATOM     57  N   UNL A   1      43.709  27.255  31.384  1.00  0.00    -0.248 NA
ATOM     58  C   UNL A   1      45.043  25.600  30.413  1.00  0.00     0.031 C 
ATOM     59  C   UNL A   1      44.857  29.578  34.988  1.00  0.00     0.029 A 
ATOM     60  C   UNL A   1      44.517  28.838  33.867  1.00  0.00     0.049 A 
ATOM     61  H   UNL A   1      42.815  28.995  32.633  1.00  0.00     0.167 HD
ATOM     62  C   UNL A   1      44.869  27.103  32.134  1.00  0.00     0.074 A 
ATOM     63  C   UNL A   1      45.644  26.054  31.504  1.00  0.00     0.031 C 
ATOM     64  C   UNL A   1      45.256  27.770  33.248  1.00  0.00     0.031 A 
BRANCH  51  65
ATOM     65  C   UNL A   1      41.359  32.204  35.039  1.00  0.00    -0.014 A 
ATOM     66  C   UNL A   1      41.643  33.536  34.688  1.00  0.00     0.010 A 
ATOM     67  C   UNL A   1      40.741  31.936  36.274  1.00  0.00     0.010 A 
ATOM     68  C   UNL A   1      41.337  34.577  35.569  1.00  0.00     0.020 A 
ATOM     69  C   UNL A   1      40.414  32.976  37.147  1.00  0.00     0.020 A 
ATOM     70  C   UNL A   1      40.726  34.290  36.794  1.00  0.00     0.054 A 
BRANCH  70  71
ATOM     71  S   UNL A   1      40.302  35.664  37.900  1.00  0.00     0.124 S 
ATOM     72  O   UNL A   1      39.963  36.720  36.949  1.00  0.00    -0.237 OA
ATOM     73  O   UNL A   1      39.182  35.127  38.667  1.00  0.00    -0.237 OA
ATOM     74  O   UNL A   1      41.528  35.884  38.664  1.00  0.00    -0.744 OA
ENDBRANCH  70  71
ENDBRANCH  51  65
BRANCH  52  75
ATOM     75  C   UNL A   1      43.106  25.047  28.291  1.00  0.00    -0.014 A 
ATOM     76  C   UNL A   1      42.851  23.691  28.558  1.00  0.00     0.010 A 
ATOM     77  C   UNL A   1      43.668  25.407  27.053  1.00  0.00     0.010 A 
ATOM     78  C   UNL A   1      43.178  22.709  27.619  1.00  0.00     0.020 A 
ATOM     79  C   UNL A   1      43.974  24.430  26.101  1.00  0.00     0.020 A 
ATOM     80  C   UNL A   1      43.744  23.085  26.397  1.00  0.00     0.054 A 
BRANCH  80  81
ATOM     81  S   UNL A   1      44.136  21.800  25.178  1.00  0.00     0.124 S 
ATOM     82  O   UNL A   1      43.065  20.834  25.401  1.00  0.00    -0.237 OA
ATOM     83  O   UNL A   1      44.077  22.529  23.913  1.00  0.00    -0.237 OA
ATOM     84  O   UNL A   1      45.473  21.358  25.569  1.00  0.00    -0.744 OA
ENDBRANCH  80  81
ENDBRANCH  52  75
BRANCH  64  85
ATOM     85  C   UNL A   1      46.540  27.349  33.906  1.00  0.00    -0.014 A 
ATOM     86  C   UNL A   1      47.756  27.979  33.597  1.00  0.00     0.010 A 
ATOM     87  C   UNL A   1      46.503  26.377  34.923  1.00  0.00     0.010 A 
ATOM     88  C   UNL A   1      48.920  27.638  34.293  1.00  0.00     0.020 A 
ATOM     89  C   UNL A   1      47.660  26.048  35.632  1.00  0.00     0.020 A 
ATOM     90  C   UNL A   1      48.864  26.678  35.308  1.00  0.00     0.054 A 
BRANCH  90  91
ATOM     91  S   UNL A   1      50.366  26.313  36.256  1.00  0.00     0.124 S 
ATOM     92  O   UNL A   1      51.396  26.352  35.222  1.00  0.00    -0.237 OA
ATOM     93  O   UNL A   1      50.409  27.404  37.228  1.00  0.00    -0.237 OA
ATOM     94  O   UNL A   1      50.103  24.993  36.825  1.00  0.00    -0.744 OA
ENDBRANCH  90  91
ENDBRANCH  64  85
ENDBRANCH  38  39
ENDBRANCH  30  33
ENDBRANCH  28  29
ENDBRANCH  27  28
ENDBRANCH   1  27
TORSDOF 18
ENDMDL
MODEL 2
REMARK VINA RESULT:     -11.3      2.742      9.330
REMARK SMILES CC1=C2C(=O)N(C[C@H]3CCCO3)C(=O)N=C2S[C@@H]1C(=O)NCCCCCCNC(=O)c1ccc(-c2c3nc(c(-c4ccc(S(=O)(=O)[O-])cc4)c4ccc([nH]4)c(-c4ccc(S(=O)(=O)[O-])cc4)c4nc(c(-c5ccc(S(=O)(=O)[O-])cc5)c5ccc2[nH]5)C=C4)C=C3)cc1
REMARK SMILES IDX 25 1 24 2 23 3 22 4 21 5 19 6 20 7 18 9 1 10 2 11 3 12 4 13
REMARK SMILES IDX 16 14 17 15 5 16 6 17 15 18 13 19 14 20 7 21 8 22 9 23 12 24
REMARK SMILES IDX 10 25 11 26 26 27 27 28 28 29 29 30 30 32 31 33 32 34 90 35
REMARK SMILES IDX 33 36 89 37 34 38 35 39 36 40 83 41 37 42 88 43 82 44 84 45
REMARK SMILES IDX 38 46 87 47 81 48 80 49 39 51 69 52 50 53 68 54 51 55 54 56
REMARK SMILES IDX 67 57 85 58 52 59 53 60 66 62 86 63 55 64 40 65 41 66 49 67
REMARK SMILES IDX 42 68 48 69 43 70 44 71 45 72 46 73 47 74 70 75 71 76 79 77
REMARK SMILES IDX 72 78 78 79 73 80 74 81 75 82 76 83 77 84 56 85 57 86 65 87
REMARK SMILES IDX 58 88 64 89 59 90 60 91 61 92 62 93 63 94
REMARK H PARENT 21 8 28 31 84 50 54 61
REMARK Flexibility Score: inf
ROOT
ATOM      1  C   UNL A   1      37.178  22.319  24.941  1.00  0.00     0.002 C 
ENDROOT
BRANCH   1   2
ATOM      2  C   UNL A   1      36.078  21.613  25.742  1.00  0.00     0.002 C 
BRANCH   2   3
ATOM      3  C   UNL A   1      35.309  20.529  24.979  1.00  0.00     0.021 C 
BRANCH   3   4
ATOM      4  C   UNL A   1      33.826  20.458  25.327  1.00  0.00     0.116 C 
BRANCH   4   5
ATOM      5  N   UNL A   1      32.997  20.773  24.178  1.00  0.00    -0.355 N 
ATOM      6  C   UNL A   1      32.582  21.967  23.669  1.00  0.00     0.237 C 
ATOM      7  O   UNL A   1      31.871  21.930  22.658  1.00  0.00    -0.273 OA
ATOM      8  H   UNL A   1      32.679  19.987  23.679  1.00  0.00     0.163 HD
BRANCH   6   9
ATOM      9  C   UNL A   1      33.015  23.320  24.249  1.00  0.00     0.169 C 
ATOM     10  C   UNL A   1      30.788  23.789  25.455  1.00  0.00     0.042 C 
ATOM     11  C   UNL A   1      31.876  24.257  24.539  1.00  0.00    -0.035 C 
ATOM     12  C   UNL A   1      31.967  25.465  23.968  1.00  0.00     0.073 C 
ATOM     13  C   UNL A   1      31.038  26.590  23.995  1.00  0.00     0.264 C 
ATOM     14  C   UNL A   1      33.192  25.672  23.218  1.00  0.00     0.116 C 
ATOM     15  S   UNL A   1      34.148  24.220  23.136  1.00  0.00    -0.087 SA
ATOM     16  O   UNL A   1      29.836  26.405  24.119  1.00  0.00    -0.268 OA
ATOM     17  N   UNL A   1      31.671  27.790  23.794  1.00  0.00    -0.256 N 
ATOM     18  N   UNL A   1      33.547  26.777  22.684  1.00  0.00    -0.186 NA
ATOM     19  C   UNL A   1      32.778  27.896  22.933  1.00  0.00     0.351 C 
ATOM     20  O   UNL A   1      33.089  28.969  22.433  1.00  0.00    -0.246 OA
BRANCH  17  21
ATOM     21  C   UNL A   1      31.264  28.991  24.524  1.00  0.00     0.163 C 
BRANCH  21  22
ATOM     22  C   UNL A   1      31.868  29.352  25.896  1.00  0.00     0.138 C 
ATOM     23  C   UNL A   1      31.628  28.393  27.057  1.00  0.00     0.036 C 
ATOM     24  O   UNL A   1      33.311  29.288  25.711  1.00  0.00    -0.376 OA
ATOM     25  C   UNL A   1      32.648  27.309  26.842  1.00  0.00     0.031 C 
ATOM     26  C   UNL A   1      33.826  28.090  26.313  1.00  0.00     0.160 C 
ENDBRANCH  21  22
ENDBRANCH  17  21
ENDBRANCH   6   9
ENDBRANCH   4   5
ENDBRANCH   3   4
ENDBRANCH   2   3
ENDBRANCH   1   2
BRANCH   1  27
ATOM     27  C   UNL A   1      37.407  23.791  25.295  1.00  0.00     0.021 C 
BRANCH  27  28
ATOM     28  C   UNL A   1      38.336  24.032  26.480  1.00  0.00     0.116 C 
BRANCH  28  29
ATOM     29  N   UNL A   1      39.724  23.739  26.162  1.00  0.00    -0.352 N 
ATOM     30  C   UNL A   1      40.850  24.429  26.537  1.00  0.00     0.251 C 
ATOM     31  H   UNL A   1      39.876  22.941  25.604  1.00  0.00     0.163 HD
ATOM     32  O   UNL A   1      41.942  24.144  26.055  1.00  0.00    -0.269 OA
BRANCH  30  33
ATOM     33  C   UNL A   1      40.728  25.536  27.508  1.00  0.00     0.039 A 
ATOM     34  C   UNL A   1      39.699  25.505  28.452  1.00  0.00     0.014 A 
ATOM     35  C   UNL A   1      41.644  26.592  27.493  1.00  0.00     0.014 A 
ATOM     36  C   UNL A   1      39.622  26.506  29.425  1.00  0.00     0.010 A 
ATOM     37  C   UNL A   1      41.596  27.559  28.493  1.00  0.00     0.010 A 
ATOM     38  C   UNL A   1      40.586  27.525  29.468  1.00  0.00    -0.014 A 
BRANCH  38  39
ATOM     39  C   UNL A   1      40.565  28.584  30.508  1.00  0.00     0.031 A 
ATOM     40  C   UNL A   1      41.470  28.461  31.704  1.00  0.00     0.074 A 
ATOM     41  C   UNL A   1      39.669  29.587  30.435  1.00  0.00     0.049 A 
ATOM     42  N   UNL A   1      41.481  29.164  32.805  1.00  0.00    -0.248 NA
ATOM     43  C   UNL A   1      42.478  27.388  31.664  1.00  0.00     0.031 C 
ATOM     44  C   UNL A   1      38.724  29.807  29.336  1.00  0.00     0.029 A 
ATOM     45  N   UNL A   1      39.388  30.599  31.318  1.00  0.00    -0.354 N 
ATOM     46  C   UNL A   1      42.460  28.591  33.608  1.00  0.00     0.074 A 
ATOM     47  C   UNL A   1      43.014  27.475  32.873  1.00  0.00     0.031 C 
ATOM     48  C   UNL A   1      37.972  30.886  29.612  1.00  0.00     0.029 A 
ATOM     49  C   UNL A   1      38.349  31.408  30.922  1.00  0.00     0.049 A 
ATOM     50  H   UNL A   1      39.885  30.734  32.157  1.00  0.00     0.167 HD
ATOM     51  C   UNL A   1      42.862  28.964  34.846  1.00  0.00     0.031 A 
ATOM     52  C   UNL A   1      37.751  32.439  31.552  1.00  0.00     0.031 A 
ATOM     53  C   UNL A   1      42.340  30.099  35.555  1.00  0.00     0.049 A 
ATOM     54  C   UNL A   1      38.231  32.843  32.921  1.00  0.00     0.074 A 
ATOM     55  C   UNL A   1      42.731  30.597  36.787  1.00  0.00     0.029 A 
ATOM     56  N   UNL A   1      41.323  30.919  35.095  1.00  0.00    -0.354 N 
ATOM     57  N   UNL A   1      39.188  32.315  33.646  1.00  0.00    -0.248 NA
ATOM     58  C   UNL A   1      37.553  33.983  33.556  1.00  0.00     0.031 C 
ATOM     59  C   UNL A   1      41.929  31.702  37.084  1.00  0.00     0.029 A 
ATOM     60  C   UNL A   1      41.067  31.915  36.020  1.00  0.00     0.049 A 
ATOM     61  H   UNL A   1      40.853  30.810  34.237  1.00  0.00     0.167 HD
ATOM     62  C   UNL A   1      39.251  33.082  34.804  1.00  0.00     0.074 A 
ATOM     63  C   UNL A   1      38.238  34.109  34.685  1.00  0.00     0.031 C 
ATOM     64  C   UNL A   1      40.078  32.950  35.868  1.00  0.00     0.031 A 
BRANCH  51  65
ATOM     65  C   UNL A   1      43.917  28.132  35.521  1.00  0.00    -0.014 A 
ATOM     66  C   UNL A   1      43.569  27.036  36.331  1.00  0.00     0.010 A 
ATOM     67  C   UNL A   1      45.276  28.413  35.291  1.00  0.00     0.010 A 
ATOM     68  C   UNL A   1      44.564  26.252  36.920  1.00  0.00     0.020 A 
ATOM     69  C   UNL A   1      46.273  27.617  35.862  1.00  0.00     0.020 A 
ATOM     70  C   UNL A   1      45.910  26.549  36.684  1.00  0.00     0.054 A 
BRANCH  70  71
ATOM     71  S   UNL A   1      47.181  25.489  37.427  1.00  0.00     0.124 S 
ATOM     72  O   UNL A   1      47.949  25.075  36.255  1.00  0.00    -0.237 OA
ATOM     73  O   UNL A   1      47.869  26.399  38.338  1.00  0.00    -0.237 OA
ATOM     74  O   UNL A   1      46.412  24.428  38.074  1.00  0.00    -0.744 OA
ENDBRANCH  70  71
ENDBRANCH  51  65
BRANCH  52  75
ATOM     75  C   UNL A   1      36.629  33.169  30.902  1.00  0.00    -0.014 A 
ATOM     76  C   UNL A   1      35.308  32.967  31.338  1.00  0.00     0.010 A 
ATOM     77  C   UNL A   1      36.871  34.051  29.834  1.00  0.00     0.010 A 
ATOM     78  C   UNL A   1      34.245  33.612  30.700  1.00  0.00     0.020 A 
ATOM     79  C   UNL A   1      35.813  34.716  29.208  1.00  0.00     0.020 A 
ATOM     80  C   UNL A   1      34.504  34.479  29.634  1.00  0.00     0.054 A 
BRANCH  80  81
ATOM     81  S   UNL A   1      33.114  35.328  28.834  1.00  0.00     0.124 S 
ATOM     82  O   UNL A   1      32.376  35.846  29.982  1.00  0.00    -0.237 OA
ATOM     83  O   UNL A   1      33.783  36.330  28.008  1.00  0.00    -0.237 OA
ATOM     84  O   UNL A   1      32.449  34.262  28.088  1.00  0.00    -0.744 OA
ENDBRANCH  80  81
ENDBRANCH  52  75
BRANCH  64  85
ATOM     85  C   UNL A   1      39.979  33.972  36.965  1.00  0.00    -0.014 A 
ATOM     86  C   UNL A   1      40.604  35.224  36.852  1.00  0.00     0.010 A 
ATOM     87  C   UNL A   1      39.158  33.707  38.077  1.00  0.00     0.010 A 
ATOM     88  C   UNL A   1      40.416  36.195  37.840  1.00  0.00     0.020 A 
ATOM     89  C   UNL A   1      38.954  34.681  39.056  1.00  0.00     0.020 A 
ATOM     90  C   UNL A   1      39.589  35.919  38.934  1.00  0.00     0.054 A 
BRANCH  90  91
ATOM     91  S   UNL A   1      39.290  37.221  40.160  1.00  0.00     0.124 S 
ATOM     92  O   UNL A   1      40.648  37.632  40.506  1.00  0.00    -0.237 OA
ATOM     93  O   UNL A   1      38.510  38.202  39.406  1.00  0.00    -0.237 OA
ATOM     94  O   UNL A   1      38.556  36.536  41.220  1.00  0.00    -0.744 OA
ENDBRANCH  90  91
ENDBRANCH  64  85
ENDBRANCH  38  39
ENDBRANCH  30  33
ENDBRANCH  28  29
ENDBRANCH  27  28
ENDBRANCH   1  27
TORSDOF 18
ENDMDL
MODEL 3
REMARK VINA RESULT:     -11.3      5.124      8.516
REMARK SMILES CC1=C2C(=O)N(C[C@H]3CCCO3)C(=O)N=C2S[C@@H]1C(=O)NCCCCCCNC(=O)c1ccc(-c2c3nc(c(-c4ccc(S(=O)(=O)[O-])cc4)c4ccc([nH]4)c(-c4ccc(S(=O)(=O)[O-])cc4)c4nc(c(-c5ccc(S(=O)(=O)[O-])cc5)c5ccc2[nH]5)C=C4)C=C3)cc1
REMARK SMILES IDX 25 1 24 2 23 3 22 4 21 5 19 6 20 7 18 9 1 10 2 11 3 12 4 13
REMARK SMILES IDX 16 14 17 15 5 16 6 17 15 18 13 19 14 20 7 21 8 22 9 23 12 24
REMARK SMILES IDX 10 25 11 26 26 27 27 28 28 29 29 30 30 32 31 33 32 34 90 35
REMARK SMILES IDX 33 36 89 37 34 38 35 39 36 40 83 41 37 42 88 43 82 44 84 45
REMARK SMILES IDX 38 46 87 47 81 48 80 49 39 51 69 52 50 53 68 54 51 55 54 56
REMARK SMILES IDX 67 57 85 58 52 59 53 60 66 62 86 63 55 64 40 65 41 66 49 67
REMARK SMILES IDX 42 68 48 69 43 70 44 71 45 72 46 73 47 74 70 75 71 76 79 77
REMARK SMILES IDX 72 78 78 79 73 80 74 81 75 82 76 83 77 84 56 85 57 86 65 87
REMARK SMILES IDX 58 88 64 89 59 90 60 91 61 92 62 93 63 94
REMARK H PARENT 21 8 28 31 84 50 54 61
REMARK Flexibility Score: inf
ROOT
ATOM      1  C   UNL A   1      37.306  21.464  24.442  1.00  0.00     0.002 C 
ENDROOT
BRANCH   1   2
ATOM      2  C   UNL A   1      37.010  22.626  25.397  1.00  0.00     0.002 C 
BRANCH   2   3
ATOM      3  C   UNL A   1      35.682  22.525  26.156  1.00  0.00     0.021 C 
BRANCH   3   4
ATOM      4  C   UNL A   1      34.450  22.739  25.283  1.00  0.00     0.116 C 
BRANCH   4   5
ATOM      5  N   UNL A   1      33.634  21.541  25.216  1.00  0.00    -0.355 N 
ATOM      6  C   UNL A   1      32.283  21.369  25.265  1.00  0.00     0.237 C 
ATOM      7  O   UNL A   1      31.861  20.210  25.178  1.00  0.00    -0.273 OA
ATOM      8  H   UNL A   1      34.146  20.706  25.116  1.00  0.00     0.163 HD
BRANCH   6   9
ATOM      9  C   UNL A   1      31.293  22.538  25.350  1.00  0.00     0.169 C 
ATOM     10  C   UNL A   1      31.403  23.128  22.844  1.00  0.00     0.042 C 
ATOM     11  C   UNL A   1      31.470  23.571  24.273  1.00  0.00    -0.035 C 
ATOM     12  C   UNL A   1      31.634  24.829  24.706  1.00  0.00     0.073 C 
ATOM     13  C   UNL A   1      31.874  26.057  23.955  1.00  0.00     0.264 C 
ATOM     14  C   UNL A   1      31.547  24.972  26.146  1.00  0.00     0.116 C 
ATOM     15  S   UNL A   1      31.406  23.428  26.938  1.00  0.00    -0.087 SA
ATOM     16  O   UNL A   1      32.456  26.030  22.880  1.00  0.00    -0.268 OA
ATOM     17  N   UNL A   1      31.447  27.171  24.634  1.00  0.00    -0.256 N 
ATOM     18  N   UNL A   1      31.561  26.084  26.775  1.00  0.00    -0.186 NA
ATOM     19  C   UNL A   1      31.535  27.250  26.035  1.00  0.00     0.351 C 
ATOM     20  O   UNL A   1      31.553  28.332  26.606  1.00  0.00    -0.246 OA
BRANCH  17  21
ATOM     21  C   UNL A   1      30.816  28.288  23.931  1.00  0.00     0.163 C 
BRANCH  21  22
ATOM     22  C   UNL A   1      29.744  28.065  22.845  1.00  0.00     0.138 C 
ATOM     23  C   UNL A   1      28.305  28.447  23.173  1.00  0.00     0.036 C 
ATOM     24  O   UNL A   1      30.089  28.982  21.768  1.00  0.00    -0.376 OA
ATOM     25  C   UNL A   1      28.274  29.936  22.963  1.00  0.00     0.031 C 
ATOM     26  C   UNL A   1      29.191  30.103  21.776  1.00  0.00     0.160 C 
ENDBRANCH  21  22
ENDBRANCH  17  21
ENDBRANCH   6   9
ENDBRANCH   4   5
ENDBRANCH   3   4
ENDBRANCH   2   3
ENDBRANCH   1   2
BRANCH   1  27
ATOM     27  C   UNL A   1      38.030  20.267  25.067  1.00  0.00     0.021 C 
BRANCH  27  28
ATOM     28  C   UNL A   1      39.183  20.627  25.998  1.00  0.00     0.116 C 
BRANCH  28  29
ATOM     29  N   UNL A   1      40.232  19.621  25.991  1.00  0.00    -0.352 N 
ATOM     30  C   UNL A   1      41.584  19.796  26.152  1.00  0.00     0.251 C 
ATOM     31  H   UNL A   1      39.933  18.692  25.853  1.00  0.00     0.163 HD
ATOM     32  O   UNL A   1      42.358  18.863  25.962  1.00  0.00    -0.269 OA
BRANCH  30  33
ATOM     33  C   UNL A   1      42.099  21.129  26.529  1.00  0.00     0.039 A 
ATOM     34  C   UNL A   1      42.348  21.408  27.875  1.00  0.00     0.014 A 
ATOM     35  C   UNL A   1      42.352  22.091  25.547  1.00  0.00     0.014 A 
ATOM     36  C   UNL A   1      42.910  22.637  28.234  1.00  0.00     0.010 A 
ATOM     37  C   UNL A   1      42.957  23.293  25.902  1.00  0.00     0.010 A 
ATOM     38  C   UNL A   1      43.243  23.577  27.247  1.00  0.00    -0.014 A 
BRANCH  38  39
ATOM     39  C   UNL A   1      43.878  24.877  27.581  1.00  0.00     0.031 A 
ATOM     40  C   UNL A   1      43.018  26.017  28.057  1.00  0.00     0.074 A 
ATOM     41  C   UNL A   1      45.192  25.066  27.355  1.00  0.00     0.049 A 
ATOM     42  N   UNL A   1      43.334  27.274  28.222  1.00  0.00    -0.248 NA
ATOM     43  C   UNL A   1      41.611  25.704  28.360  1.00  0.00     0.031 C 
ATOM     44  C   UNL A   1      46.130  24.045  26.877  1.00  0.00     0.029 A 
ATOM     45  N   UNL A   1      45.966  26.194  27.475  1.00  0.00    -0.354 N 
ATOM     46  C   UNL A   1      42.159  27.911  28.602  1.00  0.00     0.074 A 
ATOM     47  C   UNL A   1      41.120  26.904  28.632  1.00  0.00     0.031 C 
ATOM     48  C   UNL A   1      47.349  24.595  26.748  1.00  0.00     0.029 A 
ATOM     49  C   UNL A   1      47.273  26.012  27.090  1.00  0.00     0.049 A 
ATOM     50  H   UNL A   1      45.616  27.052  27.806  1.00  0.00     0.167 HD
ATOM     51  C   UNL A   1      41.964  29.216  28.903  1.00  0.00     0.031 A 
ATOM     52  C   UNL A   1      48.290  26.892  26.999  1.00  0.00     0.031 A 
ATOM     53  C   UNL A   1      43.007  30.205  28.915  1.00  0.00     0.049 A 
ATOM     54  C   UNL A   1      48.049  28.334  27.356  1.00  0.00     0.074 A 
ATOM     55  C   UNL A   1      42.921  31.540  29.271  1.00  0.00     0.029 A 
ATOM     56  N   UNL A   1      44.326  29.966  28.566  1.00  0.00    -0.354 N 
ATOM     57  N   UNL A   1      46.940  28.909  27.756  1.00  0.00    -0.248 NA
ATOM     58  C   UNL A   1      49.198  29.248  27.254  1.00  0.00     0.031 C 
ATOM     59  C   UNL A   1      44.184  32.115  29.109  1.00  0.00     0.029 A 
ATOM     60  C   UNL A   1      45.063  31.130  28.690  1.00  0.00     0.049 A 
ATOM     61  H   UNL A   1      44.686  29.098  28.274  1.00  0.00     0.167 HD
ATOM     62  C   UNL A   1      47.267  30.240  27.988  1.00  0.00     0.074 A 
ATOM     63  C   UNL A   1      48.675  30.388  27.685  1.00  0.00     0.031 C 
ATOM     64  C   UNL A   1      46.471  31.249  28.418  1.00  0.00     0.031 A 
BRANCH  51  65
ATOM     65  C   UNL A   1      40.566  29.659  29.238  1.00  0.00    -0.014 A 
ATOM     66  C   UNL A   1      39.567  29.715  28.251  1.00  0.00     0.010 A 
ATOM     67  C   UNL A   1      40.234  29.962  30.571  1.00  0.00     0.010 A 
ATOM     68  C   UNL A   1      38.264  30.092  28.588  1.00  0.00     0.020 A 
ATOM     69  C   UNL A   1      38.928  30.318  30.915  1.00  0.00     0.020 A 
ATOM     70  C   UNL A   1      37.954  30.394  29.918  1.00  0.00     0.054 A 
BRANCH  70  71
ATOM     71  S   UNL A   1      36.246  30.840  30.335  1.00  0.00     0.124 S 
ATOM     72  O   UNL A   1      35.578  30.713  29.042  1.00  0.00    -0.237 OA
ATOM     73  O   UNL A   1      35.882  29.836  31.330  1.00  0.00    -0.237 OA
ATOM     74  O   UNL A   1      36.360  32.205  30.845  1.00  0.00    -0.744 OA
ENDBRANCH  70  71
ENDBRANCH  51  65
BRANCH  52  75
ATOM     75  C   UNL A   1      49.636  26.442  26.552  1.00  0.00    -0.014 A 
ATOM     76  C   UNL A   1      50.036  26.630  25.217  1.00  0.00     0.010 A 
ATOM     77  C   UNL A   1      50.515  25.807  27.447  1.00  0.00     0.010 A 
ATOM     78  C   UNL A   1      51.279  26.165  24.777  1.00  0.00     0.020 A 
ATOM     79  C   UNL A   1      51.769  25.362  27.018  1.00  0.00     0.020 A 
ATOM     80  C   UNL A   1      52.136  25.528  25.680  1.00  0.00     0.054 A 
BRANCH  80  81
ATOM     81  S   UNL A   1      53.756  24.956  25.099  1.00  0.00     0.124 S 
ATOM     82  O   UNL A   1      53.847  25.588  23.787  1.00  0.00    -0.237 OA
ATOM     83  O   UNL A   1      54.665  25.479  26.117  1.00  0.00    -0.237 OA
ATOM     84  O   UNL A   1      53.619  23.501  25.088  1.00  0.00    -0.744 OA
ENDBRANCH  80  81
ENDBRANCH  52  75
BRANCH  64  85
ATOM     85  C   UNL A   1      47.107  32.590  28.656  1.00  0.00    -0.014 A 
ATOM     86  C   UNL A   1      47.715  32.900  29.883  1.00  0.00     0.010 A 
ATOM     87  C   UNL A   1      47.183  33.510  27.594  1.00  0.00     0.010 A 
ATOM     88  C   UNL A   1      48.385  34.116  30.047  1.00  0.00     0.020 A 
ATOM     89  C   UNL A   1      47.868  34.717  27.749  1.00  0.00     0.020 A 
ATOM     90  C   UNL A   1      48.461  35.015  28.978  1.00  0.00     0.054 A 
BRANCH  90  91
ATOM     91  S   UNL A   1      49.407  36.548  29.185  1.00  0.00     0.124 S 
ATOM     92  O   UNL A   1      50.561  36.312  28.322  1.00  0.00    -0.237 OA
ATOM     93  O   UNL A   1      48.472  37.571  28.720  1.00  0.00    -0.237 OA
ATOM     94  O   UNL A   1      49.696  36.585  30.617  1.00  0.00    -0.744 OA
ENDBRANCH  90  91
ENDBRANCH  64  85
ENDBRANCH  38  39
ENDBRANCH  30  33
ENDBRANCH  28  29
ENDBRANCH  27  28
ENDBRANCH   1  27
TORSDOF 18
ENDMDL
