MODEL 1
REMARK VINA RESULT:     -10.0      0.000      0.000
REMARK SMILES O=C(NCCCCCCNC(=O)c1cc(NC(=O)c2ccccc2Cl)ccc1N1CCC[C@H](C[NH+]2CCCC2)C1)c1ccc(-c2c3nc(c(-c4ccc(S(=O)(=O)[O-])cc4)c4ccc([nH]4)c(-c4ccc(S(=O)(=O)[O-])cc4)c4nc(c(-c5ccc(S(=O)(=O)[O-])cc5)c5ccc2[nH]5)C=C4)C=C3)cc1
REMARK SMILES IDX 6 1 5 2 4 3 3 4 1 5 2 6 41 8 42 9 100 10 43 11 99 12 44 13
REMARK SMILES IDX 45 14 46 15 93 16 47 17 98 18 92 19 94 20 48 21 97 22 91 23
REMARK SMILES IDX 90 24 49 26 79 27 60 28 78 29 61 30 64 31 77 32 95 33 62 34
REMARK SMILES IDX 63 35 76 37 96 38 65 39 50 40 51 41 59 42 52 43 58 44 53 45
REMARK SMILES IDX 54 46 55 47 56 48 57 49 80 50 81 51 89 52 82 53 88 54 83 55
REMARK SMILES IDX 84 56 85 57 86 58 87 59 66 60 67 61 75 62 68 63 74 64 69 65
REMARK SMILES IDX 70 66 71 67 72 68 73 69 7 70 8 71 9 72 10 73 11 74 12 76
REMARK SMILES IDX 13 77 14 78 28 79 15 80 27 81 26 82 29 83 30 84 40 85 31 86
REMARK SMILES IDX 33 87 32 88 34 89 35 90 36 91 39 92 37 94 38 95 16 96 17 97
REMARK SMILES IDX 18 99 19 100 20 101 24 102 21 103 23 104 25 105 22 106
REMARK H PARENT 3 7 94 25 64 36 10 75 35 93 16 98
REMARK Flexibility Score: inf
ROOT
ATOM      1  C   UNL A   1      48.782  37.145  25.433  1.00  0.00     0.002 C 
ENDROOT
BRANCH   1   2
ATOM      2  C   UNL A   1      49.849  37.626  26.417  1.00  0.00     0.021 C 
BRANCH   2   3
ATOM      3  C   UNL A   1      50.006  36.807  27.693  1.00  0.00     0.116 C 
BRANCH   3   4
ATOM      4  N   UNL A   1      49.393  37.423  28.857  1.00  0.00    -0.352 N 
ATOM      5  O   UNL A   1      47.914  37.703  30.530  1.00  0.00    -0.269 OA
ATOM      6  C   UNL A   1      48.347  36.985  29.639  1.00  0.00     0.251 C 
ATOM      7  H   UNL A   1      49.786  38.284  29.128  1.00  0.00     0.163 HD
BRANCH   6   8
ATOM      8  C   UNL A   1      47.721  35.667  29.377  1.00  0.00     0.039 A 
ATOM      9  C   UNL A   1      47.860  34.604  30.272  1.00  0.00     0.014 A 
ATOM     10  C   UNL A   1      46.974  35.496  28.206  1.00  0.00     0.014 A 
ATOM     11  C   UNL A   1      47.393  33.339  29.923  1.00  0.00     0.010 A 
ATOM     12  C   UNL A   1      46.434  34.243  27.897  1.00  0.00     0.010 A 
ATOM     13  C   UNL A   1      46.677  33.142  28.731  1.00  0.00    -0.014 A 
BRANCH  13  14
ATOM     14  C   UNL A   1      46.174  31.784  28.393  1.00  0.00     0.031 A 
ATOM     15  C   UNL A   1      47.087  30.740  27.806  1.00  0.00     0.074 A 
ATOM     16  C   UNL A   1      44.887  31.479  28.651  1.00  0.00     0.049 A 
ATOM     17  N   UNL A   1      46.826  29.493  27.504  1.00  0.00    -0.248 NA
ATOM     18  C   UNL A   1      48.471  31.147  27.513  1.00  0.00     0.031 C 
ATOM     19  C   UNL A   1      43.899  32.403  29.215  1.00  0.00     0.029 A 
ATOM     20  N   UNL A   1      44.193  30.306  28.496  1.00  0.00    -0.354 N 
ATOM     21  C   UNL A   1      47.998  28.975  26.962  1.00  0.00     0.074 A 
ATOM     22  C   UNL A   1      48.967  30.050  26.958  1.00  0.00     0.031 C 
ATOM     23  C   UNL A   1      42.746  31.747  29.413  1.00  0.00     0.029 A 
ATOM     24  C   UNL A   1      42.893  30.375  28.937  1.00  0.00     0.049 A 
ATOM     25  H   UNL A   1      44.588  29.492  28.108  1.00  0.00     0.167 HD
ATOM     26  C   UNL A   1      48.246  27.720  26.514  1.00  0.00     0.031 A 
ATOM     27  C   UNL A   1      41.921  29.444  28.955  1.00  0.00     0.031 A 
ATOM     28  C   UNL A   1      47.280  26.650  26.521  1.00  0.00     0.049 A 
ATOM     29  C   UNL A   1      42.216  28.066  28.437  1.00  0.00     0.074 A 
ATOM     30  C   UNL A   1      47.449  25.334  26.123  1.00  0.00     0.029 A 
ATOM     31  N   UNL A   1      45.965  26.772  26.942  1.00  0.00    -0.354 N 
ATOM     32  N   UNL A   1      43.342  27.588  27.965  1.00  0.00    -0.248 NA
ATOM     33  C   UNL A   1      41.110  27.100  28.463  1.00  0.00     0.031 C 
ATOM     34  C   UNL A   1      46.223  24.675  26.256  1.00  0.00     0.029 A 
ATOM     35  C   UNL A   1      45.304  25.564  26.793  1.00  0.00     0.049 A 
ATOM     36  H   UNL A   1      45.559  27.597  27.295  1.00  0.00     0.167 HD
ATOM     37  C   UNL A   1      43.087  26.256  27.661  1.00  0.00     0.074 A 
ATOM     38  C   UNL A   1      41.704  26.003  28.014  1.00  0.00     0.031 C 
ATOM     39  C   UNL A   1      43.926  25.325  27.142  1.00  0.00     0.031 A 
BRANCH  26  40
ATOM     40  C   UNL A   1      49.612  27.444  25.938  1.00  0.00    -0.014 A 
ATOM     41  C   UNL A   1      49.856  27.527  24.555  1.00  0.00     0.010 A 
ATOM     42  C   UNL A   1      50.676  27.119  26.800  1.00  0.00     0.010 A 
ATOM     43  C   UNL A   1      51.123  27.236  24.041  1.00  0.00     0.020 A 
ATOM     44  C   UNL A   1      51.951  26.855  26.292  1.00  0.00     0.020 A 
ATOM     45  C   UNL A   1      52.161  26.892  24.913  1.00  0.00     0.054 A 
BRANCH  45  46
ATOM     46  S   UNL A   1      53.793  26.509  24.218  1.00  0.00     0.124 S 
ATOM     47  O   UNL A   1      53.840  25.055  24.352  1.00  0.00    -0.237 OA
ATOM     48  O   UNL A   1      53.687  27.009  22.850  1.00  0.00    -0.237 OA
ATOM     49  O   UNL A   1      54.717  27.246  25.077  1.00  0.00    -0.744 OA
ENDBRANCH  45  46
ENDBRANCH  26  40
BRANCH  27  50
ATOM     50  C   UNL A   1      40.582  29.789  29.504  1.00  0.00    -0.014 A 
ATOM     51  C   UNL A   1      40.378  29.858  30.893  1.00  0.00     0.010 A 
ATOM     52  C   UNL A   1      39.516  30.096  28.639  1.00  0.00     0.010 A 
ATOM     53  C   UNL A   1      39.130  30.218  31.408  1.00  0.00     0.020 A 
ATOM     54  C   UNL A   1      38.275  30.483  29.149  1.00  0.00     0.020 A 
ATOM     55  C   UNL A   1      38.087  30.533  30.531  1.00  0.00     0.054 A 
BRANCH  55  56
ATOM     56  S   UNL A   1      36.497  31.068  31.221  1.00  0.00     0.124 S 
ATOM     57  O   UNL A   1      35.711  31.314  30.016  1.00  0.00    -0.237 OA
ATOM     58  O   UNL A   1      36.093  29.913  32.018  1.00  0.00    -0.237 OA
ATOM     59  O   UNL A   1      36.845  32.258  31.996  1.00  0.00    -0.744 OA
ENDBRANCH  55  56
ENDBRANCH  27  50
BRANCH  39  60
ATOM     60  C   UNL A   1      43.382  23.933  26.965  1.00  0.00    -0.014 A 
ATOM     61  C   UNL A   1      42.924  23.478  25.715  1.00  0.00     0.010 A 
ATOM     62  C   UNL A   1      43.361  23.056  28.065  1.00  0.00     0.010 A 
ATOM     63  C   UNL A   1      42.416  22.184  25.579  1.00  0.00     0.020 A 
ATOM     64  C   UNL A   1      42.878  21.752  27.926  1.00  0.00     0.020 A 
ATOM     65  C   UNL A   1      42.393  21.331  26.688  1.00  0.00     0.054 A 
BRANCH  65  66
ATOM     66  S   UNL A   1      41.755  19.645  26.482  1.00  0.00     0.124 S 
ATOM     67  O   UNL A   1      42.433  19.210  25.264  1.00  0.00    -0.237 OA
ATOM     68  O   UNL A   1      42.185  18.984  27.712  1.00  0.00    -0.237 OA
ATOM     69  O   UNL A   1      40.311  19.834  26.356  1.00  0.00    -0.744 OA
ENDBRANCH  65  66
ENDBRANCH  39  60
ENDBRANCH  13  14
ENDBRANCH   6   8
ENDBRANCH   3   4
ENDBRANCH   2   3
ENDBRANCH   1   2
BRANCH   1  70
ATOM     70  C   UNL A   1      47.707  38.160  25.030  1.00  0.00     0.002 C 
BRANCH  70  71
ATOM     71  C   UNL A   1      46.744  38.631  26.127  1.00  0.00     0.021 C 
BRANCH  71  72
ATOM     72  C   UNL A   1      45.945  39.889  25.814  1.00  0.00     0.116 C 
BRANCH  72  73
ATOM     73  N   UNL A   1      44.767  40.077  26.632  1.00  0.00    -0.352 N 
ATOM     74  C   UNL A   1      43.852  41.104  26.564  1.00  0.00     0.253 C 
ATOM     75  H   UNL A   1      44.600  39.391  27.318  1.00  0.00     0.163 HD
ATOM     76  O   UNL A   1      42.840  41.055  27.262  1.00  0.00    -0.269 OA
BRANCH  74  77
ATOM     77  C   UNL A   1      44.124  42.325  25.757  1.00  0.00     0.065 A 
ATOM     78  C   UNL A   1      43.514  42.298  24.489  1.00  0.00     0.042 A 
ATOM     79  C   UNL A   1      44.880  43.438  26.170  1.00  0.00     0.050 A 
ATOM     80  C   UNL A   1      43.509  43.410  23.655  1.00  0.00     0.042 A 
ATOM     81  C   UNL A   1      44.916  44.532  25.283  1.00  0.00     0.029 A 
ATOM     82  C   UNL A   1      44.241  44.525  24.053  1.00  0.00     0.028 A 
BRANCH  79  83
ATOM     83  N   UNL A   1      45.653  43.498  27.320  1.00  0.00    -0.370 N 
ATOM     84  C   UNL A   1      46.955  42.825  27.385  1.00  0.00     0.116 C 
ATOM     85  C   UNL A   1      45.281  44.427  28.389  1.00  0.00     0.126 C 
ATOM     86  C   UNL A   1      47.228  42.258  28.774  1.00  0.00     0.022 C 
ATOM     87  C   UNL A   1      45.423  43.743  29.758  1.00  0.00     0.064 C 
ATOM     88  C   UNL A   1      46.874  43.254  29.876  1.00  0.00     0.013 C 
BRANCH  87  89
ATOM     89  C   UNL A   1      44.323  42.655  29.905  1.00  0.00     0.267 C 
BRANCH  89  90
ATOM     90  N   UNL A   1      43.035  42.980  30.525  1.00  0.00    -0.335 N 
ATOM     91  C   UNL A   1      43.116  43.795  31.733  1.00  0.00     0.262 C 
ATOM     92  C   UNL A   1      42.148  41.855  30.809  1.00  0.00     0.262 C 
ATOM     93  H   UNL A   1      42.624  43.528  29.770  1.00  0.00     0.348 HD
ATOM     94  C   UNL A   1      42.937  42.827  32.883  1.00  0.00     0.067 C 
ATOM     95  C   UNL A   1      42.007  41.766  32.325  1.00  0.00     0.067 C 
ENDBRANCH  89  90
ENDBRANCH  87  89
ENDBRANCH  79  83
BRANCH  80  96
ATOM     96  N   UNL A   1      42.808  43.492  22.435  1.00  0.00    -0.322 N 
ATOM     97  C   UNL A   1      43.243  43.614  21.130  1.00  0.00     0.257 C 
ATOM     98  H   UNL A   1      41.829  43.456  22.531  1.00  0.00     0.170 HD
ATOM     99  O   UNL A   1      42.438  43.810  20.221  1.00  0.00    -0.269 OA
BRANCH  97 100
ATOM    100  C   UNL A   1      44.671  43.511  20.788  1.00  0.00     0.058 A 
ATOM    101  C   UNL A   1      45.330  42.333  21.168  1.00  0.00     0.015 A 
ATOM    102  C   UNL A   1      45.340  44.489  20.042  1.00  0.00     0.053 A 
ATOM    103  C   UNL A   1      46.631  42.096  20.723  1.00  0.00     0.001 A 
ATOM    104  C   UNL A   1      46.639  44.236  19.592  1.00  0.00     0.021 A 
ATOM    105  Cl  UNL A   1      44.615  45.996  19.612  1.00  0.00    -0.083 Cl
ATOM    106  C   UNL A   1      47.275  43.036  19.918  1.00  0.00     0.002 A 
ENDBRANCH  97 100
ENDBRANCH  80  96
ENDBRANCH  74  77
ENDBRANCH  72  73
ENDBRANCH  71  72
ENDBRANCH  70  71
ENDBRANCH   1  70
TORSDOF 21
ENDMDL
MODEL 2
REMARK VINA RESULT:      -9.8      6.234     12.246
REMARK SMILES O=C(NCCCCCCNC(=O)c1cc(NC(=O)c2ccccc2Cl)ccc1N1CCC[C@H](C[NH+]2CCCC2)C1)c1ccc(-c2c3nc(c(-c4ccc(S(=O)(=O)[O-])cc4)c4ccc([nH]4)c(-c4ccc(S(=O)(=O)[O-])cc4)c4nc(c(-c5ccc(S(=O)(=O)[O-])cc5)c5ccc2[nH]5)C=C4)C=C3)cc1
REMARK SMILES IDX 6 1 5 2 4 3 3 4 1 5 2 6 41 8 42 9 100 10 43 11 99 12 44 13
REMARK SMILES IDX 45 14 46 15 93 16 47 17 98 18 92 19 94 20 48 21 97 22 91 23
REMARK SMILES IDX 90 24 49 26 79 27 60 28 78 29 61 30 64 31 77 32 95 33 62 34
REMARK SMILES IDX 63 35 76 37 96 38 65 39 50 40 51 41 59 42 52 43 58 44 53 45
REMARK SMILES IDX 54 46 55 47 56 48 57 49 80 50 81 51 89 52 82 53 88 54 83 55
REMARK SMILES IDX 84 56 85 57 86 58 87 59 66 60 67 61 75 62 68 63 74 64 69 65
REMARK SMILES IDX 70 66 71 67 72 68 73 69 7 70 8 71 9 72 10 73 11 74 12 76
REMARK SMILES IDX 13 77 14 78 28 79 15 80 27 81 26 82 29 83 30 84 40 85 31 86
REMARK SMILES IDX 33 87 32 88 34 89 35 90 36 91 39 92 37 94 38 95 16 96 17 97
REMARK SMILES IDX 18 99 19 100 20 101 24 102 21 103 23 104 25 105 22 106
REMARK H PARENT 3 7 94 25 64 36 10 75 35 93 16 98
REMARK Flexibility Score: inf
ROOT
ATOM      1  C   UNL A   1      37.396  30.425  33.042  1.00  0.00     0.002 C 
ENDROOT
BRANCH   1   2
ATOM      2  C   UNL A   1      36.259  31.179  32.350  1.00  0.00     0.021 C 
BRANCH   2   3
ATOM      3  C   UNL A   1      36.471  31.517  30.880  1.00  0.00     0.116 C 
BRANCH   3   4
ATOM      4  N   UNL A   1      35.761  30.632  29.972  1.00  0.00    -0.352 N 
ATOM      5  O   UNL A   1      35.478  29.155  28.298  1.00  0.00    -0.269 OA
ATOM      6  C   UNL A   1      36.252  29.749  29.035  1.00  0.00     0.251 C 
ATOM      7  H   UNL A   1      34.779  30.669  30.037  1.00  0.00     0.163 HD
BRANCH   6   8
ATOM      8  C   UNL A   1      37.715  29.548  28.895  1.00  0.00     0.039 A 
ATOM      9  C   UNL A   1      38.368  29.775  27.681  1.00  0.00     0.014 A 
ATOM     10  C   UNL A   1      38.447  29.126  30.010  1.00  0.00     0.014 A 
ATOM     11  C   UNL A   1      39.709  29.428  27.541  1.00  0.00     0.010 A 
ATOM     12  C   UNL A   1      39.814  28.857  29.888  1.00  0.00     0.010 A 
ATOM     13  C   UNL A   1      40.448  28.963  28.641  1.00  0.00    -0.014 A 
BRANCH  13  14
ATOM     14  C   UNL A   1      41.885  28.619  28.467  1.00  0.00     0.031 A 
ATOM     15  C   UNL A   1      42.307  27.237  28.041  1.00  0.00     0.074 A 
ATOM     16  C   UNL A   1      42.816  29.573  28.662  1.00  0.00     0.049 A 
ATOM     17  N   UNL A   1      43.510  26.784  27.791  1.00  0.00    -0.248 NA
ATOM     18  C   UNL A   1      41.245  26.230  27.882  1.00  0.00     0.031 C 
ATOM     19  C   UNL A   1      42.537  30.949  29.079  1.00  0.00     0.029 A 
ATOM     20  N   UNL A   1      44.179  29.542  28.514  1.00  0.00    -0.354 N 
ATOM     21  C   UNL A   1      43.355  25.438  27.472  1.00  0.00     0.074 A 
ATOM     22  C   UNL A   1      41.942  25.143  27.581  1.00  0.00     0.031 C 
ATOM     23  C   UNL A   1      43.683  31.645  29.096  1.00  0.00     0.029 A 
ATOM     24  C   UNL A   1      44.786  30.753  28.751  1.00  0.00     0.049 A 
ATOM     25  H   UNL A   1      44.677  28.730  28.261  1.00  0.00     0.167 HD
ATOM     26  C   UNL A   1      44.300  24.534  27.118  1.00  0.00     0.031 A 
ATOM     27  C   UNL A   1      46.082  31.111  28.701  1.00  0.00     0.031 A 
ATOM     28  C   UNL A   1      45.706  24.830  27.007  1.00  0.00     0.049 A 
ATOM     29  C   UNL A   1      47.112  30.086  28.322  1.00  0.00     0.074 A 
ATOM     30  C   UNL A   1      46.736  23.990  26.618  1.00  0.00     0.029 A 
ATOM     31  N   UNL A   1      46.282  26.059  27.291  1.00  0.00    -0.354 N 
ATOM     32  N   UNL A   1      46.938  28.830  27.987  1.00  0.00    -0.248 NA
ATOM     33  C   UNL A   1      48.511  30.531  28.306  1.00  0.00     0.031 C 
ATOM     34  C   UNL A   1      47.940  24.697  26.715  1.00  0.00     0.029 A 
ATOM     35  C   UNL A   1      47.654  25.995  27.108  1.00  0.00     0.049 A 
ATOM     36  H   UNL A   1      45.788  26.861  27.581  1.00  0.00     0.167 HD
ATOM     37  C   UNL A   1      48.205  28.340  27.695  1.00  0.00     0.074 A 
ATOM     38  C   UNL A   1      49.133  29.439  27.882  1.00  0.00     0.031 C 
ATOM     39  C   UNL A   1      48.567  27.093  27.302  1.00  0.00     0.031 A 
BRANCH  26  40
ATOM     40  C   UNL A   1      43.847  23.119  26.859  1.00  0.00    -0.014 A 
ATOM     41  C   UNL A   1      44.188  22.444  25.673  1.00  0.00     0.010 A 
ATOM     42  C   UNL A   1      43.085  22.446  27.832  1.00  0.00     0.010 A 
ATOM     43  C   UNL A   1      43.730  21.143  25.442  1.00  0.00     0.020 A 
ATOM     44  C   UNL A   1      42.648  21.136  27.617  1.00  0.00     0.020 A 
ATOM     45  C   UNL A   1      42.953  20.501  26.411  1.00  0.00     0.054 A 
BRANCH  45  46
ATOM     46  S   UNL A   1      42.363  18.817  26.081  1.00  0.00     0.124 S 
ATOM     47  O   UNL A   1      40.974  19.059  25.697  1.00  0.00    -0.237 OA
ATOM     48  O   UNL A   1      43.242  18.373  25.003  1.00  0.00    -0.237 OA
ATOM     49  O   UNL A   1      42.547  18.128  27.356  1.00  0.00    -0.744 OA
ENDBRANCH  45  46
ENDBRANCH  26  40
BRANCH  27  50
ATOM     50  C   UNL A   1      46.468  32.515  29.002  1.00  0.00    -0.014 A 
ATOM     51  C   UNL A   1      46.717  32.918  30.325  1.00  0.00     0.010 A 
ATOM     52  C   UNL A   1      46.634  33.446  27.959  1.00  0.00     0.010 A 
ATOM     53  C   UNL A   1      47.116  34.229  30.602  1.00  0.00     0.020 A 
ATOM     54  C   UNL A   1      47.059  34.748  28.229  1.00  0.00     0.020 A 
ATOM     55  C   UNL A   1      47.289  35.135  29.551  1.00  0.00     0.054 A 
BRANCH  55  56
ATOM     56  S   UNL A   1      47.878  36.808  29.928  1.00  0.00     0.124 S 
ATOM     57  O   UNL A   1      46.630  37.562  29.988  1.00  0.00    -0.237 OA
ATOM     58  O   UNL A   1      48.568  36.621  31.201  1.00  0.00    -0.237 OA
ATOM     59  O   UNL A   1      48.748  37.126  28.797  1.00  0.00    -0.744 OA
ENDBRANCH  55  56
ENDBRANCH  27  50
BRANCH  39  60
ATOM     60  C   UNL A   1      50.024  26.862  27.004  1.00  0.00    -0.014 A 
ATOM     61  C   UNL A   1      50.915  26.421  27.999  1.00  0.00     0.010 A 
ATOM     62  C   UNL A   1      50.500  27.063  25.696  1.00  0.00     0.010 A 
ATOM     63  C   UNL A   1      52.265  26.222  27.699  1.00  0.00     0.020 A 
ATOM     64  C   UNL A   1      51.844  26.839  25.385  1.00  0.00     0.020 A 
ATOM     65  C   UNL A   1      52.721  26.437  26.394  1.00  0.00     0.054 A 
BRANCH  65  66
ATOM     66  S   UNL A   1      54.473  26.147  26.019  1.00  0.00     0.124 S 
ATOM     67  O   UNL A   1      54.950  27.497  25.734  1.00  0.00    -0.237 OA
ATOM     68  O   UNL A   1      54.973  25.551  27.256  1.00  0.00    -0.237 OA
ATOM     69  O   UNL A   1      54.435  25.244  24.870  1.00  0.00    -0.744 OA
ENDBRANCH  65  66
ENDBRANCH  39  60
ENDBRANCH  13  14
ENDBRANCH   6   8
ENDBRANCH   3   4
ENDBRANCH   2   3
ENDBRANCH   1   2
BRANCH   1  70
ATOM     70  C   UNL A   1      38.642  31.239  33.408  1.00  0.00     0.002 C 
BRANCH  70  71
ATOM     71  C   UNL A   1      40.005  30.586  33.144  1.00  0.00     0.021 C 
BRANCH  71  72
ATOM     72  C   UNL A   1      40.139  29.132  33.580  1.00  0.00     0.116 C 
BRANCH  72  73
ATOM     73  N   UNL A   1      40.696  28.946  34.902  1.00  0.00    -0.352 N 
ATOM     74  C   UNL A   1      41.840  29.513  35.419  1.00  0.00     0.253 C 
ATOM     75  H   UNL A   1      40.200  28.345  35.502  1.00  0.00     0.163 HD
ATOM     76  O   UNL A   1      42.114  29.337  36.605  1.00  0.00    -0.269 OA
BRANCH  74  77
ATOM     77  C   UNL A   1      42.809  30.227  34.543  1.00  0.00     0.065 A 
ATOM     78  C   UNL A   1      42.779  31.624  34.707  1.00  0.00     0.042 A 
ATOM     79  C   UNL A   1      43.710  29.626  33.644  1.00  0.00     0.050 A 
ATOM     80  C   UNL A   1      43.719  32.453  34.105  1.00  0.00     0.042 A 
ATOM     81  C   UNL A   1      44.613  30.490  32.995  1.00  0.00     0.029 A 
ATOM     82  C   UNL A   1      44.626  31.874  33.222  1.00  0.00     0.028 A 
BRANCH  79  83
ATOM     83  N   UNL A   1      43.708  28.286  33.286  1.00  0.00    -0.370 N 
ATOM     84  C   UNL A   1      43.926  27.239  34.291  1.00  0.00     0.116 C 
ATOM     85  C   UNL A   1      43.258  27.900  31.947  1.00  0.00     0.126 C 
ATOM     86  C   UNL A   1      44.718  26.067  33.723  1.00  0.00     0.022 C 
ATOM     87  C   UNL A   1      44.192  26.830  31.362  1.00  0.00     0.064 C 
ATOM     88  C   UNL A   1      44.209  25.650  32.344  1.00  0.00     0.013 C 
BRANCH  87  89
ATOM     89  C   UNL A   1      45.572  27.471  31.043  1.00  0.00     0.267 C 
BRANCH  89  90
ATOM     90  N   UNL A   1      46.759  27.099  31.819  1.00  0.00    -0.335 N 
ATOM     91  C   UNL A   1      47.502  28.217  32.390  1.00  0.00     0.262 C 
ATOM     92  C   UNL A   1      47.720  26.221  31.155  1.00  0.00     0.262 C 
ATOM     93  H   UNL A   1      46.308  26.571  32.565  1.00  0.00     0.348 HD
ATOM     94  C   UNL A   1      48.693  28.417  31.475  1.00  0.00     0.067 C 
ATOM     95  C   UNL A   1      49.007  27.019  30.976  1.00  0.00     0.067 C 
ENDBRANCH  89  90
ENDBRANCH  87  89
ENDBRANCH  79  83
BRANCH  80  96
ATOM     96  N   UNL A   1      43.824  33.840  34.333  1.00  0.00    -0.322 N 
ATOM     97  C   UNL A   1      43.158  34.916  33.780  1.00  0.00     0.257 C 
ATOM     98  H   UNL A   1      44.496  34.087  35.009  1.00  0.00     0.170 HD
ATOM     99  O   UNL A   1      43.515  36.066  34.031  1.00  0.00    -0.269 OA
BRANCH  97 100
ATOM    100  C   UNL A   1      42.008  34.723  32.882  1.00  0.00     0.058 A 
ATOM    101  C   UNL A   1      42.293  34.394  31.548  1.00  0.00     0.015 A 
ATOM    102  C   UNL A   1      40.683  34.771  33.332  1.00  0.00     0.053 A 
ATOM    103  C   UNL A   1      41.256  34.026  30.691  1.00  0.00     0.001 A 
ATOM    104  C   UNL A   1      39.652  34.390  32.468  1.00  0.00     0.021 A 
ATOM    105  Cl  UNL A   1      40.258  35.248  34.936  1.00  0.00    -0.083 Cl
ATOM    106  C   UNL A   1      39.941  34.003  31.157  1.00  0.00     0.002 A 
ENDBRANCH  97 100
ENDBRANCH  80  96
ENDBRANCH  74  77
ENDBRANCH  72  73
ENDBRANCH  71  72
ENDBRANCH  70  71
ENDBRANCH   1  70
TORSDOF 21
ENDMDL
MODEL 3
REMARK VINA RESULT:      -9.6      6.100     12.782
REMARK SMILES O=C(NCCCCCCNC(=O)c1cc(NC(=O)c2ccccc2Cl)ccc1N1CCC[C@H](C[NH+]2CCCC2)C1)c1ccc(-c2c3nc(c(-c4ccc(S(=O)(=O)[O-])cc4)c4ccc([nH]4)c(-c4ccc(S(=O)(=O)[O-])cc4)c4nc(c(-c5ccc(S(=O)(=O)[O-])cc5)c5ccc2[nH]5)C=C4)C=C3)cc1
REMARK SMILES IDX 6 1 5 2 4 3 3 4 1 5 2 6 41 8 42 9 100 10 43 11 99 12 44 13
REMARK SMILES IDX 45 14 46 15 93 16 47 17 98 18 92 19 94 20 48 21 97 22 91 23
REMARK SMILES IDX 90 24 49 26 79 27 60 28 78 29 61 30 64 31 77 32 95 33 62 34
REMARK SMILES IDX 63 35 76 37 96 38 65 39 50 40 51 41 59 42 52 43 58 44 53 45
REMARK SMILES IDX 54 46 55 47 56 48 57 49 80 50 81 51 89 52 82 53 88 54 83 55
REMARK SMILES IDX 84 56 85 57 86 58 87 59 66 60 67 61 75 62 68 63 74 64 69 65
REMARK SMILES IDX 70 66 71 67 72 68 73 69 7 70 8 71 9 72 10 73 11 74 12 76
REMARK SMILES IDX 13 77 14 78 28 79 15 80 27 81 26 82 29 83 30 84 40 85 31 86
REMARK SMILES IDX 33 87 32 88 34 89 35 90 36 91 39 92 37 94 38 95 16 96 17 97
REMARK SMILES IDX 18 99 19 100 20 101 24 102 21 103 23 104 25 105 22 106
REMARK H PARENT 3 7 94 25 64 36 10 75 35 93 16 98
REMARK Flexibility Score: inf
ROOT
ATOM      1  C   UNL A   1      40.855  26.964  26.326  1.00  0.00     0.002 C 
ENDROOT
BRANCH   1   2
ATOM      2  C   UNL A   1      42.020  26.264  25.624  1.00  0.00     0.021 C 
BRANCH   2   3
ATOM      3  C   UNL A   1      42.273  24.815  26.022  1.00  0.00     0.116 C 
BRANCH   3   4
ATOM      4  N   UNL A   1      43.668  24.528  26.309  1.00  0.00    -0.352 N 
ATOM      5  O   UNL A   1      45.682  24.748  27.288  1.00  0.00    -0.269 OA
ATOM      6  C   UNL A   1      44.500  25.061  27.269  1.00  0.00     0.251 C 
ATOM      7  H   UNL A   1      44.082  23.848  25.729  1.00  0.00     0.163 HD
BRANCH   6   8
ATOM      8  C   UNL A   1      43.974  26.040  28.251  1.00  0.00     0.039 A 
ATOM      9  C   UNL A   1      44.437  27.356  28.287  1.00  0.00     0.014 A 
ATOM     10  C   UNL A   1      42.990  25.625  29.155  1.00  0.00     0.014 A 
ATOM     11  C   UNL A   1      44.038  28.203  29.318  1.00  0.00     0.010 A 
ATOM     12  C   UNL A   1      42.529  26.504  30.140  1.00  0.00     0.010 A 
ATOM     13  C   UNL A   1      43.082  27.788  30.258  1.00  0.00    -0.014 A 
BRANCH  13  14
ATOM     14  C   UNL A   1      42.660  28.720  31.337  1.00  0.00     0.031 A 
ATOM     15  C   UNL A   1      43.492  28.899  32.579  1.00  0.00     0.074 A 
ATOM     16  C   UNL A   1      41.531  29.439  31.177  1.00  0.00     0.049 A 
ATOM     17  N   UNL A   1      43.299  29.709  33.591  1.00  0.00    -0.248 NA
ATOM     18  C   UNL A   1      44.692  28.058  32.710  1.00  0.00     0.031 C 
ATOM     19  C   UNL A   1      40.635  29.355  30.022  1.00  0.00     0.029 A 
ATOM     20  N   UNL A   1      40.955  30.396  31.974  1.00  0.00    -0.354 N 
ATOM     21  C   UNL A   1      44.333  29.457  34.487  1.00  0.00     0.074 A 
ATOM     22  C   UNL A   1      45.139  28.404  33.909  1.00  0.00     0.031 C 
ATOM     23  C   UNL A   1      39.658  30.264  30.155  1.00  0.00     0.029 A 
ATOM     24  C   UNL A   1      39.822  30.954  31.432  1.00  0.00     0.049 A 
ATOM     25  H   UNL A   1      41.320  30.661  32.850  1.00  0.00     0.167 HD
ATOM     26  C   UNL A   1      44.589  30.050  35.679  1.00  0.00     0.031 A 
ATOM     27  C   UNL A   1      39.000  31.909  31.904  1.00  0.00     0.031 A 
ATOM     28  C   UNL A   1      43.785  31.101  36.252  1.00  0.00     0.049 A 
ATOM     29  C   UNL A   1      39.296  32.539  33.234  1.00  0.00     0.074 A 
ATOM     30  C   UNL A   1      43.986  31.791  37.436  1.00  0.00     0.029 A 
ATOM     31  N   UNL A   1      42.626  31.610  35.686  1.00  0.00    -0.354 N 
ATOM     32  N   UNL A   1      40.300  32.312  34.047  1.00  0.00    -0.248 NA
ATOM     33  C   UNL A   1      38.352  33.560  33.706  1.00  0.00     0.031 C 
ATOM     34  C   UNL A   1      42.921  32.681  37.610  1.00  0.00     0.029 A 
ATOM     35  C   UNL A   1      42.088  32.588  36.506  1.00  0.00     0.049 A 
ATOM     36  H   UNL A   1      42.241  31.319  34.828  1.00  0.00     0.167 HD
ATOM     37  C   UNL A   1      40.122  33.182  35.116  1.00  0.00     0.074 A 
ATOM     38  C   UNL A   1      38.921  33.946  34.840  1.00  0.00     0.031 C 
ATOM     39  C   UNL A   1      40.889  33.337  36.224  1.00  0.00     0.031 A 
BRANCH  26  40
ATOM     40  C   UNL A   1      45.772  29.547  36.467  1.00  0.00    -0.014 A 
ATOM     41  C   UNL A   1      47.038  30.149  36.355  1.00  0.00     0.010 A 
ATOM     42  C   UNL A   1      45.607  28.465  37.351  1.00  0.00     0.010 A 
ATOM     43  C   UNL A   1      48.128  29.646  37.071  1.00  0.00     0.020 A 
ATOM     44  C   UNL A   1      46.688  27.975  38.090  1.00  0.00     0.020 A 
ATOM     45  C   UNL A   1      47.948  28.554  37.927  1.00  0.00     0.054 A 
BRANCH  45  46
ATOM     46  S   UNL A   1      49.381  27.913  38.837  1.00  0.00     0.124 S 
ATOM     47  O   UNL A   1      49.749  29.061  39.662  1.00  0.00    -0.237 OA
ATOM     48  O   UNL A   1      48.820  26.776  39.562  1.00  0.00    -0.237 OA
ATOM     49  O   UNL A   1      50.334  27.569  37.784  1.00  0.00    -0.744 OA
ENDBRANCH  45  46
ENDBRANCH  26  40
BRANCH  27  50
ATOM     50  C   UNL A   1      37.828  32.337  31.094  1.00  0.00    -0.014 A 
ATOM     51  C   UNL A   1      37.966  33.335  30.114  1.00  0.00     0.010 A 
ATOM     52  C   UNL A   1      36.578  31.715  31.268  1.00  0.00     0.010 A 
ATOM     53  C   UNL A   1      36.873  33.711  29.328  1.00  0.00     0.020 A 
ATOM     54  C   UNL A   1      35.490  32.068  30.466  1.00  0.00     0.020 A 
ATOM     55  C   UNL A   1      35.642  33.071  29.506  1.00  0.00     0.054 A 
BRANCH  55  56
ATOM     56  S   UNL A   1      34.258  33.523  28.426  1.00  0.00     0.124 S 
ATOM     57  O   UNL A   1      33.818  32.221  27.936  1.00  0.00    -0.237 OA
ATOM     58  O   UNL A   1      33.345  34.195  29.347  1.00  0.00    -0.237 OA
ATOM     59  O   UNL A   1      34.874  34.394  27.428  1.00  0.00    -0.744 OA
ENDBRANCH  55  56
ENDBRANCH  27  50
BRANCH  39  60
ATOM     60  C   UNL A   1      40.476  34.405  37.201  1.00  0.00    -0.014 A 
ATOM     61  C   UNL A   1      39.602  34.125  38.267  1.00  0.00     0.010 A 
ATOM     62  C   UNL A   1      40.998  35.704  37.065  1.00  0.00     0.010 A 
ATOM     63  C   UNL A   1      39.227  35.136  39.155  1.00  0.00     0.020 A 
ATOM     64  C   UNL A   1      40.646  36.711  37.967  1.00  0.00     0.020 A 
ATOM     65  C   UNL A   1      39.749  36.424  38.997  1.00  0.00     0.054 A 
BRANCH  65  66
ATOM     66  S   UNL A   1      39.270  37.715  40.178  1.00  0.00     0.124 S 
ATOM     67  O   UNL A   1      38.911  36.929  41.356  1.00  0.00    -0.237 OA
ATOM     68  O   UNL A   1      40.490  38.510  40.300  1.00  0.00    -0.237 OA
ATOM     69  O   UNL A   1      38.155  38.392  39.518  1.00  0.00    -0.744 OA
ENDBRANCH  65  66
ENDBRANCH  39  60
ENDBRANCH  13  14
ENDBRANCH   6   8
ENDBRANCH   3   4
ENDBRANCH   2   3
ENDBRANCH   1   2
BRANCH   1  70
ATOM     70  C   UNL A   1      41.053  28.441  26.686  1.00  0.00     0.002 C 
BRANCH  70  71
ATOM     71  C   UNL A   1      42.239  29.165  26.038  1.00  0.00     0.021 C 
BRANCH  71  72
ATOM     72  C   UNL A   1      42.989  30.144  26.933  1.00  0.00     0.116 C 
BRANCH  72  73
ATOM     73  N   UNL A   1      43.733  31.163  26.226  1.00  0.00    -0.352 N 
ATOM     74  C   UNL A   1      45.057  31.501  26.390  1.00  0.00     0.253 C 
ATOM     75  H   UNL A   1      43.234  31.674  25.549  1.00  0.00     0.163 HD
ATOM     76  O   UNL A   1      45.567  32.320  25.626  1.00  0.00    -0.269 OA
BRANCH  74  77
ATOM     77  C   UNL A   1      45.845  30.991  27.545  1.00  0.00     0.065 A 
ATOM     78  C   UNL A   1      46.693  29.919  27.207  1.00  0.00     0.042 A 
ATOM     79  C   UNL A   1      45.814  31.500  28.857  1.00  0.00     0.050 A 
ATOM     80  C   UNL A   1      47.629  29.415  28.103  1.00  0.00     0.042 A 
ATOM     81  C   UNL A   1      46.726  30.932  29.768  1.00  0.00     0.029 A 
ATOM     82  C   UNL A   1      47.621  29.916  29.402  1.00  0.00     0.028 A 
BRANCH  79  83
ATOM     83  N   UNL A   1      44.904  32.433  29.332  1.00  0.00    -0.370 N 
ATOM     84  C   UNL A   1      43.612  32.009  29.883  1.00  0.00     0.116 C 
ATOM     85  C   UNL A   1      45.325  33.825  29.502  1.00  0.00     0.126 C 
ATOM     86  C   UNL A   1      42.504  33.000  29.547  1.00  0.00     0.022 C 
ATOM     87  C   UNL A   1      44.229  34.775  28.995  1.00  0.00     0.064 C 
ATOM     88  C   UNL A   1      42.944  34.446  29.768  1.00  0.00     0.013 C 
BRANCH  87  89
ATOM     89  C   UNL A   1      44.137  34.673  27.447  1.00  0.00     0.267 C 
BRANCH  89  90
ATOM     90  N   UNL A   1      43.907  35.873  26.637  1.00  0.00    -0.335 N 
ATOM     91  C   UNL A   1      44.588  37.077  27.102  1.00  0.00     0.262 C 
ATOM     92  C   UNL A   1      42.513  36.225  26.378  1.00  0.00     0.262 C 
ATOM     93  H   UNL A   1      44.324  35.561  25.760  1.00  0.00     0.348 HD
ATOM     94  C   UNL A   1      43.529  37.884  27.822  1.00  0.00     0.067 C 
ATOM     95  C   UNL A   1      42.250  37.556  27.075  1.00  0.00     0.067 C 
ENDBRANCH  89  90
ENDBRANCH  87  89
ENDBRANCH  79  83
BRANCH  80  96
ATOM     96  N   UNL A   1      48.592  28.437  27.786  1.00  0.00    -0.322 N 
ATOM     97  C   UNL A   1      49.097  27.374  28.510  1.00  0.00     0.257 C 
ATOM     98  H   UNL A   1      48.976  28.527  26.884  1.00  0.00     0.170 HD
ATOM     99  O   UNL A   1      50.048  26.723  28.080  1.00  0.00    -0.269 OA
BRANCH  97 100
ATOM    100  C   UNL A   1      48.516  26.989  29.806  1.00  0.00     0.058 A 
ATOM    101  C   UNL A   1      47.321  26.255  29.772  1.00  0.00     0.015 A 
ATOM    102  C   UNL A   1      49.152  27.251  31.026  1.00  0.00     0.053 A 
ATOM    103  C   UNL A   1      46.812  25.708  30.950  1.00  0.00     0.001 A 
ATOM    104  C   UNL A   1      48.640  26.690  32.199  1.00  0.00     0.021 A 
ATOM    105  Cl  UNL A   1      50.578  28.216  31.148  1.00  0.00    -0.083 Cl
ATOM    106  C   UNL A   1      47.483  25.907  32.157  1.00  0.00     0.002 A 
ENDBRANCH  97 100
ENDBRANCH  80  96
ENDBRANCH  74  77
ENDBRANCH  72  73
ENDBRANCH  71  72
ENDBRANCH  70  71
ENDBRANCH   1  70
TORSDOF 21
ENDMDL
