MODEL 1
REMARK VINA RESULT:     -11.3      0.000      0.000
REMARK SMILES O=C(NCCCCCCNC(=O)[C@@H]1CS[C@@H](c2cc(Br)ccc2O)[NH2+]1)c1ccc(-c2c3nc(c(-c4ccc(S(=O)(=O)[O-])cc4)c4ccc([nH]4)c(-c4ccc(S(=O)(=O)[O-])cc4)c4nc(c(-c5ccc(S(=O)(=O)[O-])cc5)c5ccc2[nH]5)C=C4)C=C3)cc1
REMARK SMILES IDX 6 1 5 2 4 3 3 4 1 5 2 6 26 8 27 9 85 10 28 11 84 12 29 13
REMARK SMILES IDX 30 14 31 15 78 16 32 17 83 18 77 19 79 20 33 21 82 22 76 23
REMARK SMILES IDX 75 24 34 26 64 27 45 28 63 29 46 30 49 31 62 32 80 33 47 34
REMARK SMILES IDX 48 35 61 37 81 38 50 39 35 40 36 41 44 42 37 43 43 44 38 45
REMARK SMILES IDX 39 46 40 47 41 48 42 49 65 50 66 51 74 52 67 53 73 54 68 55
REMARK SMILES IDX 69 56 70 57 71 58 72 59 51 60 52 61 60 62 53 63 59 64 54 65
REMARK SMILES IDX 55 66 56 67 57 68 58 69 7 70 8 71 9 72 10 73 11 74 12 76
REMARK SMILES IDX 13 77 14 78 25 79 15 80 16 81 17 84 18 85 23 86 19 87 22 88
REMARK SMILES IDX 20 89 21 90 24 91
REMARK H PARENT 3 7 79 25 49 36 10 75 25 82 25 83 24 92
REMARK Flexibility Score: inf
ROOT
ATOM      1  C   UNL A   1      34.184  31.671  28.006  1.00  0.00     0.002 C 
ENDROOT
BRANCH   1   2
ATOM      2  C   UNL A   1      34.642  30.415  27.265  1.00  0.00     0.021 C 
BRANCH   2   3
ATOM      3  C   UNL A   1      35.486  29.436  28.072  1.00  0.00     0.116 C 
BRANCH   3   4
ATOM      4  N   UNL A   1      35.440  29.677  29.505  1.00  0.00    -0.352 N 
ATOM      5  O   UNL A   1      36.217  29.808  31.618  1.00  0.00    -0.269 OA
ATOM      6  C   UNL A   1      36.467  29.692  30.420  1.00  0.00     0.251 C 
ATOM      7  H   UNL A   1      34.545  29.852  29.873  1.00  0.00     0.163 HD
BRANCH   6   8
ATOM      8  C   UNL A   1      37.869  29.530  29.970  1.00  0.00     0.039 A 
ATOM      9  C   UNL A   1      38.264  29.925  28.690  1.00  0.00     0.014 A 
ATOM     10  C   UNL A   1      38.801  28.961  30.842  1.00  0.00     0.014 A 
ATOM     11  C   UNL A   1      39.539  29.603  28.231  1.00  0.00     0.010 A 
ATOM     12  C   UNL A   1      40.107  28.714  30.405  1.00  0.00     0.010 A 
ATOM     13  C   UNL A   1      40.475  28.989  29.080  1.00  0.00    -0.014 A 
BRANCH  13  14
ATOM     14  C   UNL A   1      41.830  28.664  28.559  1.00  0.00     0.031 A 
ATOM     15  C   UNL A   1      42.931  29.692  28.557  1.00  0.00     0.074 A 
ATOM     16  C   UNL A   1      42.081  27.412  28.124  1.00  0.00     0.049 A 
ATOM     17  N   UNL A   1      44.186  29.553  28.207  1.00  0.00    -0.248 NA
ATOM     18  C   UNL A   1      42.583  31.053  28.998  1.00  0.00     0.031 C 
ATOM     19  C   UNL A   1      41.098  26.328  28.065  1.00  0.00     0.029 A 
ATOM     20  N   UNL A   1      43.242  26.833  27.681  1.00  0.00    -0.354 N 
ATOM     21  C   UNL A   1      44.769  30.806  28.358  1.00  0.00     0.074 A 
ATOM     22  C   UNL A   1      43.726  31.700  28.814  1.00  0.00     0.031 C 
ATOM     23  C   UNL A   1      41.709  25.202  27.668  1.00  0.00     0.029 A 
ATOM     24  C   UNL A   1      43.113  25.494  27.396  1.00  0.00     0.049 A 
ATOM     25  H   UNL A   1      44.088  27.327  27.577  1.00  0.00     0.167 HD
ATOM     26  C   UNL A   1      46.054  31.179  28.141  1.00  0.00     0.031 A 
ATOM     27  C   UNL A   1      44.019  24.596  26.966  1.00  0.00     0.031 A 
ATOM     28  C   UNL A   1      47.095  30.288  27.698  1.00  0.00     0.049 A 
ATOM     29  C   UNL A   1      45.438  25.033  26.741  1.00  0.00     0.074 A 
ATOM     30  C   UNL A   1      48.435  30.568  27.486  1.00  0.00     0.029 A 
ATOM     31  N   UNL A   1      46.917  28.947  27.398  1.00  0.00    -0.354 N 
ATOM     32  N   UNL A   1      45.973  26.216  26.926  1.00  0.00    -0.248 NA
ATOM     33  C   UNL A   1      46.375  24.011  26.257  1.00  0.00     0.031 C 
ATOM     34  C   UNL A   1      49.057  29.404  27.020  1.00  0.00     0.029 A 
ATOM     35  C   UNL A   1      48.116  28.389  26.989  1.00  0.00     0.049 A 
ATOM     36  H   UNL A   1      46.062  28.463  27.467  1.00  0.00     0.167 HD
ATOM     37  C   UNL A   1      47.316  26.075  26.599  1.00  0.00     0.074 A 
ATOM     38  C   UNL A   1      47.514  24.690  26.221  1.00  0.00     0.031 C 
ATOM     39  C   UNL A   1      48.298  27.010  26.613  1.00  0.00     0.031 A 
BRANCH  26  40
ATOM     40  C   UNL A   1      46.403  32.629  28.357  1.00  0.00    -0.014 A 
ATOM     41  C   UNL A   1      46.284  33.571  27.320  1.00  0.00     0.010 A 
ATOM     42  C   UNL A   1      46.819  33.061  29.631  1.00  0.00     0.010 A 
ATOM     43  C   UNL A   1      46.617  34.910  27.540  1.00  0.00     0.020 A 
ATOM     44  C   UNL A   1      47.130  34.405  29.861  1.00  0.00     0.020 A 
ATOM     45  C   UNL A   1      47.046  35.318  28.808  1.00  0.00     0.054 A 
BRANCH  45  46
ATOM     46  S   UNL A   1      47.465  37.063  29.069  1.00  0.00     0.124 S 
ATOM     47  O   UNL A   1      48.691  36.961  29.856  1.00  0.00    -0.237 OA
ATOM     48  O   UNL A   1      47.636  37.561  27.706  1.00  0.00    -0.237 OA
ATOM     49  O   UNL A   1      46.307  37.595  29.783  1.00  0.00    -0.744 OA
ENDBRANCH  45  46
ENDBRANCH  26  40
BRANCH  27  50
ATOM     50  C   UNL A   1      43.606  23.186  26.738  1.00  0.00    -0.014 A 
ATOM     51  C   UNL A   1      43.894  22.548  25.520  1.00  0.00     0.010 A 
ATOM     52  C   UNL A   1      42.950  22.466  27.753  1.00  0.00     0.010 A 
ATOM     53  C   UNL A   1      43.523  21.216  25.316  1.00  0.00     0.020 A 
ATOM     54  C   UNL A   1      42.601  21.127  27.562  1.00  0.00     0.020 A 
ATOM     55  C   UNL A   1      42.881  20.513  26.339  1.00  0.00     0.054 A 
BRANCH  55  56
ATOM     56  S   UNL A   1      42.466  18.766  26.081  1.00  0.00     0.124 S 
ATOM     57  O   UNL A   1      42.737  18.194  27.396  1.00  0.00    -0.237 OA
ATOM     58  O   UNL A   1      41.058  18.827  25.695  1.00  0.00    -0.237 OA
ATOM     59  O   UNL A   1      43.376  18.354  25.016  1.00  0.00    -0.744 OA
ENDBRANCH  55  56
ENDBRANCH  27  50
BRANCH  39  60
ATOM     60  C   UNL A   1      49.682  26.554  26.242  1.00  0.00    -0.014 A 
ATOM     61  C   UNL A   1      50.458  25.782  27.125  1.00  0.00     0.010 A 
ATOM     62  C   UNL A   1      50.204  26.884  24.978  1.00  0.00     0.010 A 
ATOM     63  C   UNL A   1      51.747  25.383  26.766  1.00  0.00     0.020 A 
ATOM     64  C   UNL A   1      51.484  26.467  24.607  1.00  0.00     0.020 A 
ATOM     65  C   UNL A   1      52.255  25.734  25.511  1.00  0.00     0.054 A 
BRANCH  65  66
ATOM     66  S   UNL A   1      53.924  25.189  25.055  1.00  0.00     0.124 S 
ATOM     67  O   UNL A   1      54.111  25.840  23.761  1.00  0.00    -0.237 OA
ATOM     68  O   UNL A   1      54.745  25.709  26.145  1.00  0.00    -0.237 OA
ATOM     69  O   UNL A   1      53.810  23.733  25.011  1.00  0.00    -0.744 OA
ENDBRANCH  65  66
ENDBRANCH  39  60
ENDBRANCH  13  14
ENDBRANCH   6   8
ENDBRANCH   3   4
ENDBRANCH   2   3
ENDBRANCH   1   2
BRANCH   1  70
ATOM     70  C   UNL A   1      35.232  32.772  28.192  1.00  0.00     0.002 C 
BRANCH  70  71
ATOM     71  C   UNL A   1      34.770  34.210  27.944  1.00  0.00     0.021 C 
BRANCH  71  72
ATOM     72  C   UNL A   1      33.323  34.528  28.310  1.00  0.00     0.116 C 
BRANCH  72  73
ATOM     73  N   UNL A   1      33.148  35.886  28.791  1.00  0.00    -0.351 N 
ATOM     74  C   UNL A   1      32.998  36.366  30.059  1.00  0.00     0.279 C 
ATOM     75  H   UNL A   1      33.136  36.575  28.086  1.00  0.00     0.163 HD
ATOM     76  O   UNL A   1      32.964  37.595  30.184  1.00  0.00    -0.268 OA
BRANCH  74  77
ATOM     77  C   UNL A   1      32.748  35.427  31.266  1.00  0.00     0.283 C 
ATOM     78  C   UNL A   1      32.682  36.195  32.592  1.00  0.00     0.151 C 
ATOM     79  N   UNL A   1      33.781  34.381  31.432  1.00  0.00    -0.320 N 
ATOM     80  S   UNL A   1      34.370  36.127  33.278  1.00  0.00    -0.087 SA
ATOM     81  C   UNL A   1      34.981  35.040  31.957  1.00  0.00     0.278 C 
ATOM     82  H   UNL A   1      33.986  33.945  30.533  1.00  0.00     0.348 HD
ATOM     83  H   UNL A   1      33.459  33.651  32.068  1.00  0.00     0.348 HD
BRANCH  81  84
ATOM     84  C   UNL A   1      36.021  34.007  32.341  1.00  0.00     0.063 A 
ATOM     85  C   UNL A   1      37.231  33.843  31.639  1.00  0.00     0.030 A 
ATOM     86  C   UNL A   1      35.835  33.231  33.501  1.00  0.00     0.125 A 
ATOM     87  C   UNL A   1      38.190  32.924  32.074  1.00  0.00     0.018 A 
ATOM     88  C   UNL A   1      36.798  32.320  33.941  1.00  0.00     0.048 A 
ATOM     89  Br  UNL A   1      39.797  32.716  31.098  1.00  0.00    -0.051 Br
ATOM     90  C   UNL A   1      37.980  32.164  33.221  1.00  0.00     0.019 A 
BRANCH  86  91
ATOM     91  O   UNL A   1      34.683  33.381  34.226  1.00  0.00    -0.507 OA
ATOM     92  H   UNL A   1      34.344  34.238  34.394  1.00  0.00     0.293 HD
ENDBRANCH  86  91
ENDBRANCH  81  84
ENDBRANCH  74  77
ENDBRANCH  72  73
ENDBRANCH  71  72
ENDBRANCH  70  71
ENDBRANCH   1  70
TORSDOF 18
ENDMDL
MODEL 2
REMARK VINA RESULT:     -10.8      6.632     13.397
REMARK SMILES O=C(NCCCCCCNC(=O)[C@@H]1CS[C@@H](c2cc(Br)ccc2O)[NH2+]1)c1ccc(-c2c3nc(c(-c4ccc(S(=O)(=O)[O-])cc4)c4ccc([nH]4)c(-c4ccc(S(=O)(=O)[O-])cc4)c4nc(c(-c5ccc(S(=O)(=O)[O-])cc5)c5ccc2[nH]5)C=C4)C=C3)cc1
REMARK SMILES IDX 6 1 5 2 4 3 3 4 1 5 2 6 26 8 27 9 85 10 28 11 84 12 29 13
REMARK SMILES IDX 30 14 31 15 78 16 32 17 83 18 77 19 79 20 33 21 82 22 76 23
REMARK SMILES IDX 75 24 34 26 64 27 45 28 63 29 46 30 49 31 62 32 80 33 47 34
REMARK SMILES IDX 48 35 61 37 81 38 50 39 35 40 36 41 44 42 37 43 43 44 38 45
REMARK SMILES IDX 39 46 40 47 41 48 42 49 65 50 66 51 74 52 67 53 73 54 68 55
REMARK SMILES IDX 69 56 70 57 71 58 72 59 51 60 52 61 60 62 53 63 59 64 54 65
REMARK SMILES IDX 55 66 56 67 57 68 58 69 7 70 8 71 9 72 10 73 11 74 12 76
REMARK SMILES IDX 13 77 14 78 25 79 15 80 16 81 17 84 18 85 23 86 19 87 22 88
REMARK SMILES IDX 20 89 21 90 24 91
REMARK H PARENT 3 7 79 25 49 36 10 75 25 82 25 83 24 92
REMARK Flexibility Score: inf
ROOT
ATOM      1  C   UNL A   1      39.867  21.712  26.139  1.00  0.00     0.002 C 
ENDROOT
BRANCH   1   2
ATOM      2  C   UNL A   1      40.572  22.140  27.426  1.00  0.00     0.021 C 
BRANCH   2   3
ATOM      3  C   UNL A   1      41.754  23.087  27.255  1.00  0.00     0.116 C 
BRANCH   3   4
ATOM      4  N   UNL A   1      41.623  23.974  26.110  1.00  0.00    -0.352 N 
ATOM      5  O   UNL A   1      41.156  25.881  25.000  1.00  0.00    -0.269 OA
ATOM      6  C   UNL A   1      41.333  25.319  26.078  1.00  0.00     0.251 C 
ATOM      7  H   UNL A   1      41.759  23.552  25.232  1.00  0.00     0.163 HD
BRANCH   6   8
ATOM      8  C   UNL A   1      41.196  26.082  27.341  1.00  0.00     0.039 A 
ATOM      9  C   UNL A   1      40.080  25.917  28.165  1.00  0.00     0.014 A 
ATOM     10  C   UNL A   1      42.199  26.987  27.699  1.00  0.00     0.014 A 
ATOM     11  C   UNL A   1      39.891  26.768  29.250  1.00  0.00     0.010 A 
ATOM     12  C   UNL A   1      42.045  27.785  28.839  1.00  0.00     0.010 A 
ATOM     13  C   UNL A   1      40.868  27.716  29.599  1.00  0.00    -0.014 A 
BRANCH  13  14
ATOM     14  C   UNL A   1      40.637  28.607  30.768  1.00  0.00     0.031 A 
ATOM     15  C   UNL A   1      41.506  28.521  31.996  1.00  0.00     0.074 A 
ATOM     16  C   UNL A   1      39.660  29.533  30.702  1.00  0.00     0.049 A 
ATOM     17  N   UNL A   1      41.487  29.270  33.070  1.00  0.00    -0.248 NA
ATOM     18  C   UNL A   1      42.524  27.459  32.027  1.00  0.00     0.031 C 
ATOM     19  C   UNL A   1      38.742  29.711  29.574  1.00  0.00     0.029 A 
ATOM     20  N   UNL A   1      39.294  30.517  31.585  1.00  0.00    -0.354 N 
ATOM     21  C   UNL A   1      42.464  28.756  33.915  1.00  0.00     0.074 A 
ATOM     22  C   UNL A   1      43.048  27.618  33.236  1.00  0.00     0.031 C 
ATOM     23  C   UNL A   1      37.960  30.776  29.807  1.00  0.00     0.029 A 
ATOM     24  C   UNL A   1      38.284  31.325  31.120  1.00  0.00     0.049 A 
ATOM     25  H   UNL A   1      39.715  30.634  32.468  1.00  0.00     0.167 HD
ATOM     26  C   UNL A   1      42.846  29.191  35.141  1.00  0.00     0.031 A 
ATOM     27  C   UNL A   1      37.683  32.390  31.681  1.00  0.00     0.031 A 
ATOM     28  C   UNL A   1      42.274  30.330  35.813  1.00  0.00     0.049 A 
ATOM     29  C   UNL A   1      38.129  32.857  33.036  1.00  0.00     0.074 A 
ATOM     30  C   UNL A   1      42.621  30.868  37.041  1.00  0.00     0.029 A 
ATOM     31  N   UNL A   1      41.238  31.105  35.317  1.00  0.00    -0.354 N 
ATOM     32  N   UNL A   1      39.081  32.377  33.799  1.00  0.00    -0.248 NA
ATOM     33  C   UNL A   1      37.424  34.015  33.601  1.00  0.00     0.031 C 
ATOM     34  C   UNL A   1      41.767  31.945  37.305  1.00  0.00     0.029 A 
ATOM     35  C   UNL A   1      40.921  32.106  36.220  1.00  0.00     0.049 A 
ATOM     36  H   UNL A   1      40.792  30.964  34.450  1.00  0.00     0.167 HD
ATOM     37  C   UNL A   1      39.103  33.187  34.928  1.00  0.00     0.074 A 
ATOM     38  C   UNL A   1      38.081  34.197  34.739  1.00  0.00     0.031 C 
ATOM     39  C   UNL A   1      39.901  33.103  36.021  1.00  0.00     0.031 A 
BRANCH  26  40
ATOM     40  C   UNL A   1      43.923  28.413  35.851  1.00  0.00    -0.014 A 
ATOM     41  C   UNL A   1      43.607  27.333  36.694  1.00  0.00     0.010 A 
ATOM     42  C   UNL A   1      45.274  28.745  35.639  1.00  0.00     0.010 A 
ATOM     43  C   UNL A   1      44.622  26.626  37.347  1.00  0.00     0.020 A 
ATOM     44  C   UNL A   1      46.292  28.026  36.272  1.00  0.00     0.020 A 
ATOM     45  C   UNL A   1      45.958  26.983  37.138  1.00  0.00     0.054 A 
BRANCH  45  46
ATOM     46  S   UNL A   1      47.256  26.046  37.992  1.00  0.00     0.124 S 
ATOM     47  O   UNL A   1      47.614  25.049  36.987  1.00  0.00    -0.237 OA
ATOM     48  O   UNL A   1      48.270  27.065  38.253  1.00  0.00    -0.237 OA
ATOM     49  O   UNL A   1      46.582  25.523  39.179  1.00  0.00    -0.744 OA
ENDBRANCH  45  46
ENDBRANCH  26  40
BRANCH  27  50
ATOM     50  C   UNL A   1      36.602  33.097  30.944  1.00  0.00    -0.014 A 
ATOM     51  C   UNL A   1      35.267  33.001  31.372  1.00  0.00     0.010 A 
ATOM     52  C   UNL A   1      36.909  33.895  29.827  1.00  0.00     0.010 A 
ATOM     53  C   UNL A   1      34.256  33.683  30.691  1.00  0.00     0.020 A 
ATOM     54  C   UNL A   1      35.904  34.600  29.159  1.00  0.00     0.020 A 
ATOM     55  C   UNL A   1      34.581  34.480  29.590  1.00  0.00     0.054 A 
BRANCH  55  56
ATOM     56  S   UNL A   1      33.264  35.410  28.757  1.00  0.00     0.124 S 
ATOM     57  O   UNL A   1      34.027  36.365  27.960  1.00  0.00    -0.237 OA
ATOM     58  O   UNL A   1      32.568  34.370  28.004  1.00  0.00    -0.237 OA
ATOM     59  O   UNL A   1      32.501  35.982  29.863  1.00  0.00    -0.744 OA
ENDBRANCH  55  56
ENDBRANCH  27  50
BRANCH  39  60
ATOM     60  C   UNL A   1      39.721  34.154  37.081  1.00  0.00    -0.014 A 
ATOM     61  C   UNL A   1      39.093  33.859  38.304  1.00  0.00     0.010 A 
ATOM     62  C   UNL A   1      40.211  35.454  36.856  1.00  0.00     0.010 A 
ATOM     63  C   UNL A   1      38.922  34.855  39.267  1.00  0.00     0.020 A 
ATOM     64  C   UNL A   1      40.062  36.446  37.827  1.00  0.00     0.020 A 
ATOM     65  C   UNL A   1      39.401  36.146  39.020  1.00  0.00     0.054 A 
BRANCH  65  66
ATOM     66  S   UNL A   1      39.188  37.421  40.292  1.00  0.00     0.124 S 
ATOM     67  O   UNL A   1      38.557  36.668  41.372  1.00  0.00    -0.237 OA
ATOM     68  O   UNL A   1      40.559  37.857  40.547  1.00  0.00    -0.237 OA
ATOM     69  O   UNL A   1      38.337  38.416  39.643  1.00  0.00    -0.744 OA
ENDBRANCH  65  66
ENDBRANCH  39  60
ENDBRANCH  13  14
ENDBRANCH   6   8
ENDBRANCH   3   4
ENDBRANCH   2   3
ENDBRANCH   1   2
BRANCH   1  70
ATOM     70  C   UNL A   1      38.386  22.082  26.021  1.00  0.00     0.002 C 
BRANCH  70  71
ATOM     71  C   UNL A   1      38.038  23.569  26.136  1.00  0.00     0.021 C 
BRANCH  71  72
ATOM     72  C   UNL A   1      36.591  23.951  25.835  1.00  0.00     0.116 C 
BRANCH  72  73
ATOM     73  N   UNL A   1      36.179  23.586  24.493  1.00  0.00    -0.351 N 
ATOM     74  C   UNL A   1      34.940  23.557  23.923  1.00  0.00     0.279 C 
ATOM     75  H   UNL A   1      36.913  23.315  23.895  1.00  0.00     0.163 HD
ATOM     76  O   UNL A   1      34.893  23.294  22.716  1.00  0.00    -0.268 OA
BRANCH  74  77
ATOM     77  C   UNL A   1      33.648  23.712  24.763  1.00  0.00     0.283 C 
ATOM     78  C   UNL A   1      32.485  22.891  24.192  1.00  0.00     0.151 C 
ATOM     79  N   UNL A   1      33.169  25.108  24.871  1.00  0.00    -0.320 N 
ATOM     80  S   UNL A   1      31.560  24.038  23.120  1.00  0.00    -0.087 SA
ATOM     81  C   UNL A   1      32.589  25.465  23.574  1.00  0.00     0.278 C 
ATOM     82  H   UNL A   1      33.948  25.729  25.089  1.00  0.00     0.348 HD
ATOM     83  H   UNL A   1      32.478  25.198  25.617  1.00  0.00     0.348 HD
BRANCH  81  84
ATOM     84  C   UNL A   1      31.898  26.811  23.660  1.00  0.00     0.063 A 
ATOM     85  C   UNL A   1      30.531  26.988  23.374  1.00  0.00     0.030 A 
ATOM     86  C   UNL A   1      32.611  27.930  24.134  1.00  0.00     0.125 A 
ATOM     87  C   UNL A   1      29.923  28.237  23.535  1.00  0.00     0.018 A 
ATOM     88  C   UNL A   1      32.001  29.174  24.304  1.00  0.00     0.048 A 
ATOM     89  Br  UNL A   1      28.088  28.444  23.127  1.00  0.00    -0.051 Br
ATOM     90  C   UNL A   1      30.650  29.329  24.000  1.00  0.00     0.019 A 
BRANCH  86  91
ATOM     91  O   UNL A   1      33.936  27.792  24.447  1.00  0.00    -0.507 OA
ATOM     92  H   UNL A   1      34.199  27.192  25.118  1.00  0.00     0.293 HD
ENDBRANCH  86  91
ENDBRANCH  81  84
ENDBRANCH  74  77
ENDBRANCH  72  73
ENDBRANCH  71  72
ENDBRANCH  70  71
ENDBRANCH   1  70
TORSDOF 18
ENDMDL
MODEL 3
REMARK VINA RESULT:     -10.5      6.820     13.404
REMARK SMILES O=C(NCCCCCCNC(=O)[C@@H]1CS[C@@H](c2cc(Br)ccc2O)[NH2+]1)c1ccc(-c2c3nc(c(-c4ccc(S(=O)(=O)[O-])cc4)c4ccc([nH]4)c(-c4ccc(S(=O)(=O)[O-])cc4)c4nc(c(-c5ccc(S(=O)(=O)[O-])cc5)c5ccc2[nH]5)C=C4)C=C3)cc1
REMARK SMILES IDX 6 1 5 2 4 3 3 4 1 5 2 6 26 8 27 9 85 10 28 11 84 12 29 13
REMARK SMILES IDX 30 14 31 15 78 16 32 17 83 18 77 19 79 20 33 21 82 22 76 23
REMARK SMILES IDX 75 24 34 26 64 27 45 28 63 29 46 30 49 31 62 32 80 33 47 34
REMARK SMILES IDX 48 35 61 37 81 38 50 39 35 40 36 41 44 42 37 43 43 44 38 45
REMARK SMILES IDX 39 46 40 47 41 48 42 49 65 50 66 51 74 52 67 53 73 54 68 55
REMARK SMILES IDX 69 56 70 57 71 58 72 59 51 60 52 61 60 62 53 63 59 64 54 65
REMARK SMILES IDX 55 66 56 67 57 68 58 69 7 70 8 71 9 72 10 73 11 74 12 76
REMARK SMILES IDX 13 77 14 78 25 79 15 80 16 81 17 84 18 85 23 86 19 87 22 88
REMARK SMILES IDX 20 89 21 90 24 91
REMARK H PARENT 3 7 79 25 49 36 10 75 25 82 25 83 24 92
REMARK Flexibility Score: inf
ROOT
ATOM      1  C   UNL A   1      37.373  22.713  25.137  1.00  0.00     0.002 C 
ENDROOT
BRANCH   1   2
ATOM      2  C   UNL A   1      37.540  23.848  26.147  1.00  0.00     0.021 C 
BRANCH   2   3
ATOM      3  C   UNL A   1      38.908  23.955  26.810  1.00  0.00     0.116 C 
BRANCH   3   4
ATOM      4  N   UNL A   1      39.940  24.470  25.924  1.00  0.00    -0.352 N 
ATOM      5  O   UNL A   1      41.512  25.903  25.174  1.00  0.00    -0.269 OA
ATOM      6  C   UNL A   1      40.768  25.556  26.088  1.00  0.00     0.251 C 
ATOM      7  H   UNL A   1      40.063  23.969  25.086  1.00  0.00     0.163 HD
BRANCH   6   8
ATOM      8  C   UNL A   1      40.736  26.333  27.350  1.00  0.00     0.039 A 
ATOM      9  C   UNL A   1      39.833  26.017  28.368  1.00  0.00     0.014 A 
ATOM     10  C   UNL A   1      41.620  27.404  27.510  1.00  0.00     0.014 A 
ATOM     11  C   UNL A   1      39.705  26.866  29.465  1.00  0.00     0.010 A 
ATOM     12  C   UNL A   1      41.544  28.207  28.653  1.00  0.00     0.010 A 
ATOM     13  C   UNL A   1      40.554  27.974  29.619  1.00  0.00    -0.014 A 
BRANCH  13  14
ATOM     14  C   UNL A   1      40.393  28.857  30.806  1.00  0.00     0.031 A 
ATOM     15  C   UNL A   1      41.307  28.735  31.997  1.00  0.00     0.074 A 
ATOM     16  C   UNL A   1      39.438  29.809  30.788  1.00  0.00     0.049 A 
ATOM     17  N   UNL A   1      41.351  29.472  33.079  1.00  0.00    -0.248 NA
ATOM     18  C   UNL A   1      42.297  27.646  31.977  1.00  0.00     0.031 C 
ATOM     19  C   UNL A   1      38.482  30.023  29.699  1.00  0.00     0.029 A 
ATOM     20  N   UNL A   1      39.135  30.792  31.695  1.00  0.00    -0.354 N 
ATOM     21  C   UNL A   1      42.346  28.924  33.879  1.00  0.00     0.074 A 
ATOM     22  C   UNL A   1      42.872  27.779  33.166  1.00  0.00     0.031 C 
ATOM     23  C   UNL A   1      37.739  31.106  29.974  1.00  0.00     0.029 A 
ATOM     24  C   UNL A   1      38.128  31.631  31.279  1.00  0.00     0.049 A 
ATOM     25  H   UNL A   1      39.593  30.888  32.561  1.00  0.00     0.167 HD
ATOM     26  C   UNL A   1      42.787  29.335  35.093  1.00  0.00     0.031 A 
ATOM     27  C   UNL A   1      37.578  32.706  31.874  1.00  0.00     0.031 A 
ATOM     28  C   UNL A   1      42.273  30.480  35.799  1.00  0.00     0.049 A 
ATOM     29  C   UNL A   1      38.090  33.146  33.215  1.00  0.00     0.074 A 
ATOM     30  C   UNL A   1      42.682  30.996  37.018  1.00  0.00     0.029 A 
ATOM     31  N   UNL A   1      41.239  31.287  35.353  1.00  0.00    -0.354 N 
ATOM     32  N   UNL A   1      39.058  32.632  33.934  1.00  0.00    -0.248 NA
ATOM     33  C   UNL A   1      37.438  34.315  33.819  1.00  0.00     0.031 C 
ATOM     34  C   UNL A   1      41.868  32.091  37.326  1.00  0.00     0.029 A 
ATOM     35  C   UNL A   1      40.985  32.287  36.277  1.00  0.00     0.049 A 
ATOM     36  H   UNL A   1      40.756  31.168  34.503  1.00  0.00     0.167 HD
ATOM     37  C   UNL A   1      39.146  33.429  35.070  1.00  0.00     0.074 A 
ATOM     38  C   UNL A   1      38.144  34.467  34.932  1.00  0.00     0.031 C 
ATOM     39  C   UNL A   1      39.984  33.312  36.129  1.00  0.00     0.031 A 
BRANCH  26  40
ATOM     40  C   UNL A   1      43.871  28.522  35.752  1.00  0.00    -0.014 A 
ATOM     41  C   UNL A   1      43.561  27.441  36.596  1.00  0.00     0.010 A 
ATOM     42  C   UNL A   1      45.221  28.820  35.489  1.00  0.00     0.010 A 
ATOM     43  C   UNL A   1      44.581  26.701  37.201  1.00  0.00     0.020 A 
ATOM     44  C   UNL A   1      46.244  28.068  36.074  1.00  0.00     0.020 A 
ATOM     45  C   UNL A   1      45.917  27.024  36.942  1.00  0.00     0.054 A 
BRANCH  45  46
ATOM     46  S   UNL A   1      47.222  26.045  37.734  1.00  0.00     0.124 S 
ATOM     47  O   UNL A   1      47.799  27.012  38.665  1.00  0.00    -0.237 OA
ATOM     48  O   UNL A   1      46.475  24.951  38.351  1.00  0.00    -0.237 OA
ATOM     49  O   UNL A   1      48.087  25.655  36.623  1.00  0.00    -0.744 OA
ENDBRANCH  45  46
ENDBRANCH  26  40
BRANCH  27  50
ATOM     50  C   UNL A   1      36.488  33.449  31.188  1.00  0.00    -0.014 A 
ATOM     51  C   UNL A   1      36.621  33.828  29.842  1.00  0.00     0.010 A 
ATOM     52  C   UNL A   1      35.297  33.752  31.873  1.00  0.00     0.010 A 
ATOM     53  C   UNL A   1      35.586  34.507  29.194  1.00  0.00     0.020 A 
ATOM     54  C   UNL A   1      34.250  34.409  31.221  1.00  0.00     0.020 A 
ATOM     55  C   UNL A   1      34.406  34.791  29.887  1.00  0.00     0.054 A 
BRANCH  55  56
ATOM     56  S   UNL A   1      33.048  35.616  29.011  1.00  0.00     0.124 S 
ATOM     57  O   UNL A   1      32.154  35.971  30.108  1.00  0.00    -0.237 OA
ATOM     58  O   UNL A   1      33.724  36.734  28.358  1.00  0.00    -0.237 OA
ATOM     59  O   UNL A   1      32.552  34.584  28.105  1.00  0.00    -0.744 OA
ENDBRANCH  55  56
ENDBRANCH  27  50
BRANCH  39  60
ATOM     60  C   UNL A   1      39.874  34.356  37.206  1.00  0.00    -0.014 A 
ATOM     61  C   UNL A   1      40.562  35.578  37.111  1.00  0.00     0.010 A 
ATOM     62  C   UNL A   1      39.047  34.117  38.319  1.00  0.00     0.010 A 
ATOM     63  C   UNL A   1      40.459  36.526  38.132  1.00  0.00     0.020 A 
ATOM     64  C   UNL A   1      38.923  35.073  39.330  1.00  0.00     0.020 A 
ATOM     65  C   UNL A   1      39.645  36.265  39.239  1.00  0.00     0.054 A 
BRANCH  65  66
ATOM     66  S   UNL A   1      39.506  37.517  40.543  1.00  0.00     0.124 S 
ATOM     67  O   UNL A   1      40.896  37.934  40.712  1.00  0.00    -0.237 OA
ATOM     68  O   UNL A   1      38.620  38.512  39.945  1.00  0.00    -0.237 OA
ATOM     69  O   UNL A   1      38.934  36.781  41.668  1.00  0.00    -0.744 OA
ENDBRANCH  65  66
ENDBRANCH  39  60
ENDBRANCH  13  14
ENDBRANCH   6   8
ENDBRANCH   3   4
ENDBRANCH   2   3
ENDBRANCH   1   2
BRANCH   1  70
ATOM     70  C   UNL A   1      35.942  22.408  24.687  1.00  0.00     0.002 C 
BRANCH  70  71
ATOM     71  C   UNL A   1      35.556  22.858  23.275  1.00  0.00     0.021 C 
BRANCH  71  72
ATOM     72  C   UNL A   1      34.075  23.138  23.034  1.00  0.00     0.116 C 
BRANCH  72  73
ATOM     73  N   UNL A   1      33.461  23.889  24.113  1.00  0.00    -0.351 N 
ATOM     74  C   UNL A   1      32.653  24.988  24.081  1.00  0.00     0.279 C 
ATOM     75  H   UNL A   1      33.659  23.550  25.017  1.00  0.00     0.163 HD
ATOM     76  O   UNL A   1      32.192  25.365  25.164  1.00  0.00    -0.268 OA
BRANCH  74  77
ATOM     77  C   UNL A   1      32.431  25.804  22.783  1.00  0.00     0.283 C 
ATOM     78  C   UNL A   1      33.437  26.952  22.643  1.00  0.00     0.151 C 
ATOM     79  N   UNL A   1      31.082  26.405  22.680  1.00  0.00    -0.320 N 
ATOM     80  S   UNL A   1      32.606  28.416  23.343  1.00  0.00    -0.087 SA
ATOM     81  C   UNL A   1      31.042  27.533  23.616  1.00  0.00     0.278 C 
ATOM     82  H   UNL A   1      30.372  25.718  22.929  1.00  0.00     0.348 HD
ATOM     83  H   UNL A   1      30.896  26.717  21.726  1.00  0.00     0.348 HD
BRANCH  81  84
ATOM     84  C   UNL A   1      29.763  28.324  23.428  1.00  0.00     0.063 A 
ATOM     85  C   UNL A   1      29.753  29.688  23.078  1.00  0.00     0.030 A 
ATOM     86  C   UNL A   1      28.520  27.668  23.512  1.00  0.00     0.125 A 
ATOM     87  C   UNL A   1      28.548  30.358  22.849  1.00  0.00     0.018 A 
ATOM     88  C   UNL A   1      27.317  28.335  23.272  1.00  0.00     0.048 A 
ATOM     89  Br  UNL A   1      28.570  32.195  22.396  1.00  0.00    -0.051 Br
ATOM     90  C   UNL A   1      27.332  29.688  22.942  1.00  0.00     0.019 A 
BRANCH  86  91
ATOM     91  O   UNL A   1      28.490  26.336  23.824  1.00  0.00    -0.507 OA
ATOM     92  H   UNL A   1      29.198  25.950  24.302  1.00  0.00     0.293 HD
ENDBRANCH  86  91
ENDBRANCH  81  84
ENDBRANCH  74  77
ENDBRANCH  72  73
ENDBRANCH  71  72
ENDBRANCH  70  71
ENDBRANCH   1  70
TORSDOF 18
ENDMDL
