MODEL 1
REMARK VINA RESULT:     -13.2      0.000      0.000
REMARK SMILES Cc1cccc(-c2ccc(Cl)c(C(=O)NCCCCCCNC(=O)c3ccc(-c4c5nc(c(-c6ccc(S(=O)(=O)[O-])cc6)c6ccc([nH]6)c(-c6ccc(S(=O)(=O)[O-])cc6)c6nc(c(-c7ccc(S(=O)(=O)[O-])cc7)c7ccc4[nH]7)C=C6)C=C5)cc3)c2)c1
REMARK SMILES IDX 19 1 18 2 17 3 16 4 15 5 13 6 14 7 12 9 7 10 8 11 85 12 9 13
REMARK SMILES IDX 10 14 11 15 6 16 1 17 2 18 3 19 86 20 4 21 5 22 20 23 21 24
REMARK SMILES IDX 22 25 23 26 24 28 25 29 26 30 84 31 27 32 83 33 28 34 29 35
REMARK SMILES IDX 30 36 77 37 31 38 82 39 76 40 78 41 32 42 81 43 75 44 74 45
REMARK SMILES IDX 33 47 63 48 44 49 62 50 45 51 48 52 61 53 79 54 46 55 47 56
REMARK SMILES IDX 60 58 80 59 49 60 34 61 35 62 43 63 36 64 42 65 37 66 38 67
REMARK SMILES IDX 39 68 40 69 41 70 64 71 65 72 73 73 66 74 72 75 67 76 68 77
REMARK SMILES IDX 69 78 70 79 71 80 50 81 51 82 59 83 52 84 58 85 53 86 54 87
REMARK SMILES IDX 55 88 56 89 57 90
REMARK H PARENT 15 8 22 27 78 46 48 57
REMARK Flexibility Score: inf
ROOT
ATOM      1  C   UNL A   1      32.911  30.416  26.405  1.00  0.00     0.002 C 
ENDROOT
BRANCH   1   2
ATOM      2  C   UNL A   1      31.754  29.439  26.662  1.00  0.00     0.002 C 
BRANCH   2   3
ATOM      3  C   UNL A   1      32.071  27.959  26.920  1.00  0.00     0.021 C 
BRANCH   3   4
ATOM      4  C   UNL A   1      33.445  27.433  26.507  1.00  0.00     0.116 C 
BRANCH   4   5
ATOM      5  N   UNL A   1      33.849  27.707  25.141  1.00  0.00    -0.352 N 
ATOM      6  C   UNL A   1      33.405  27.150  23.959  1.00  0.00     0.252 C 
ATOM      7  O   UNL A   1      33.837  27.596  22.896  1.00  0.00    -0.269 OA
ATOM      8  H   UNL A   1      34.547  28.394  25.042  1.00  0.00     0.163 HD
BRANCH   6   9
ATOM      9  C   UNL A   1      32.499  25.967  23.907  1.00  0.00     0.059 A 
ATOM     10  C   UNL A   1      32.330  23.532  24.259  1.00  0.00    -0.017 A 
ATOM     11  C   UNL A   1      30.974  23.609  23.916  1.00  0.00     0.010 A 
ATOM     12  C   UNL A   1      33.062  24.733  24.315  1.00  0.00     0.024 A 
ATOM     13  C   UNL A   1      30.422  24.803  23.460  1.00  0.00     0.022 A 
ATOM     14  C   UNL A   1      31.207  25.957  23.371  1.00  0.00     0.053 A 
ATOM     15  Cl  UNL A   1      30.556  27.220  22.389  1.00  0.00    -0.083 Cl
BRANCH  10  16
ATOM     16  C   UNL A   1      32.967  22.209  24.398  1.00  0.00    -0.018 A 
ATOM     17  C   UNL A   1      36.506  20.898  25.063  1.00  0.00     0.044 C 
ATOM     18  C   UNL A   1      35.029  20.925  24.800  1.00  0.00    -0.051 A 
ATOM     19  C   UNL A   1      34.304  19.740  24.680  1.00  0.00     0.003 A 
ATOM     20  C   UNL A   1      34.354  22.144  24.657  1.00  0.00     0.012 A 
ATOM     21  C   UNL A   1      32.929  19.779  24.433  1.00  0.00     0.001 A 
ATOM     22  C   UNL A   1      32.263  21.005  24.296  1.00  0.00     0.009 A 
ENDBRANCH  10  16
ENDBRANCH   6   9
ENDBRANCH   4   5
ENDBRANCH   3   4
ENDBRANCH   2   3
ENDBRANCH   1   2
BRANCH   1  23
ATOM     23  C   UNL A   1      33.590  31.059  27.614  1.00  0.00     0.021 C 
BRANCH  23  24
ATOM     24  C   UNL A   1      34.827  30.331  28.131  1.00  0.00     0.116 C 
BRANCH  24  25
ATOM     25  N   UNL A   1      35.534  31.068  29.183  1.00  0.00    -0.352 N 
ATOM     26  C   UNL A   1      36.675  30.699  29.881  1.00  0.00     0.251 C 
ATOM     27  H   UNL A   1      35.147  31.940  29.426  1.00  0.00     0.163 HD
ATOM     28  O   UNL A   1      37.164  31.339  30.792  1.00  0.00    -0.269 OA
BRANCH  26  29
ATOM     29  C   UNL A   1      37.369  29.498  29.384  1.00  0.00     0.039 A 
ATOM     30  C   UNL A   1      37.685  28.526  30.339  1.00  0.00     0.014 A 
ATOM     31  C   UNL A   1      38.024  29.570  28.156  1.00  0.00     0.014 A 
ATOM     32  C   UNL A   1      38.834  27.772  30.162  1.00  0.00     0.010 A 
ATOM     33  C   UNL A   1      39.215  28.885  28.025  1.00  0.00     0.010 A 
ATOM     34  C   UNL A   1      39.652  28.055  29.065  1.00  0.00    -0.014 A 
BRANCH  34  35
ATOM     35  C   UNL A   1      41.041  27.617  29.027  1.00  0.00     0.031 A 
ATOM     36  C   UNL A   1      41.344  26.257  28.556  1.00  0.00     0.074 A 
ATOM     37  C   UNL A   1      42.025  28.415  29.500  1.00  0.00     0.049 A 
ATOM     38  N   UNL A   1      42.263  25.499  29.054  1.00  0.00    -0.248 NA
ATOM     39  C   UNL A   1      40.553  25.615  27.514  1.00  0.00     0.031 C 
ATOM     40  C   UNL A   1      43.460  28.150  29.454  1.00  0.00     0.029 A 
ATOM     41  N   UNL A   1      41.908  29.517  30.354  1.00  0.00    -0.354 N 
ATOM     42  C   UNL A   1      42.375  24.408  28.223  1.00  0.00     0.074 A 
ATOM     43  C   UNL A   1      41.226  24.475  27.347  1.00  0.00     0.031 C 
ATOM     44  C   UNL A   1      44.044  28.816  30.463  1.00  0.00     0.029 A 
ATOM     45  C   UNL A   1      42.989  29.447  31.243  1.00  0.00     0.049 A 
ATOM     46  H   UNL A   1      41.205  30.206  30.334  1.00  0.00     0.167 HD
ATOM     47  C   UNL A   1      43.509  23.652  28.232  1.00  0.00     0.031 A 
ATOM     48  C   UNL A   1      42.852  29.374  32.597  1.00  0.00     0.031 A 
ATOM     49  C   UNL A   1      44.458  24.113  29.243  1.00  0.00     0.049 A 
ATOM     50  C   UNL A   1      43.477  28.121  33.175  1.00  0.00     0.074 A 
ATOM     51  C   UNL A   1      45.584  24.916  29.169  1.00  0.00     0.029 A 
ATOM     52  N   UNL A   1      44.127  24.027  30.593  1.00  0.00    -0.354 N 
ATOM     53  N   UNL A   1      43.818  27.079  32.465  1.00  0.00    -0.248 NA
ATOM     54  C   UNL A   1      43.743  27.931  34.599  1.00  0.00     0.031 C 
ATOM     55  C   UNL A   1      45.878  25.385  30.476  1.00  0.00     0.029 A 
ATOM     56  C   UNL A   1      44.954  24.839  31.349  1.00  0.00     0.049 A 
ATOM     57  H   UNL A   1      43.406  23.465  30.958  1.00  0.00     0.167 HD
ATOM     58  C   UNL A   1      44.348  26.113  33.283  1.00  0.00     0.074 A 
ATOM     59  C   UNL A   1      44.284  26.699  34.610  1.00  0.00     0.031 C 
ATOM     60  C   UNL A   1      44.803  24.918  32.797  1.00  0.00     0.031 A 
BRANCH  47  61
ATOM     61  C   UNL A   1      43.860  22.772  27.052  1.00  0.00    -0.014 A 
ATOM     62  C   UNL A   1      42.970  21.761  26.641  1.00  0.00     0.010 A 
ATOM     63  C   UNL A   1      45.098  22.825  26.381  1.00  0.00     0.010 A 
ATOM     64  C   UNL A   1      43.351  20.767  25.725  1.00  0.00     0.020 A 
ATOM     65  C   UNL A   1      45.512  21.810  25.504  1.00  0.00     0.020 A 
ATOM     66  C   UNL A   1      44.639  20.773  25.195  1.00  0.00     0.054 A 
BRANCH  66  67
ATOM     67  S   UNL A   1      45.164  19.401  24.133  1.00  0.00     0.124 S 
ATOM     68  O   UNL A   1      44.466  19.685  22.880  1.00  0.00    -0.237 OA
ATOM     69  O   UNL A   1      46.613  19.570  24.101  1.00  0.00    -0.237 OA
ATOM     70  O   UNL A   1      44.691  18.214  24.843  1.00  0.00    -0.744 OA
ENDBRANCH  66  67
ENDBRANCH  47  61
BRANCH  48  71
ATOM     71  C   UNL A   1      41.690  30.111  33.162  1.00  0.00    -0.014 A 
ATOM     72  C   UNL A   1      40.493  29.388  33.359  1.00  0.00     0.010 A 
ATOM     73  C   UNL A   1      41.839  31.350  33.806  1.00  0.00     0.010 A 
ATOM     74  C   UNL A   1      39.520  29.834  34.260  1.00  0.00     0.020 A 
ATOM     75  C   UNL A   1      40.865  31.798  34.716  1.00  0.00     0.020 A 
ATOM     76  C   UNL A   1      39.736  31.012  34.972  1.00  0.00     0.054 A 
BRANCH  76  77
ATOM     77  S   UNL A   1      38.551  31.463  36.277  1.00  0.00     0.124 S 
ATOM     78  O   UNL A   1      37.569  32.261  35.548  1.00  0.00    -0.237 OA
ATOM     79  O   UNL A   1      38.079  30.155  36.730  1.00  0.00    -0.237 OA
ATOM     80  O   UNL A   1      39.371  32.202  37.231  1.00  0.00    -0.744 OA
ENDBRANCH  76  77
ENDBRANCH  48  71
BRANCH  60  81
ATOM     81  C   UNL A   1      45.254  23.726  33.617  1.00  0.00    -0.014 A 
ATOM     82  C   UNL A   1      46.567  23.513  34.063  1.00  0.00     0.010 A 
ATOM     83  C   UNL A   1      44.272  22.811  34.078  1.00  0.00     0.010 A 
ATOM     84  C   UNL A   1      46.894  22.418  34.879  1.00  0.00     0.020 A 
ATOM     85  C   UNL A   1      44.578  21.745  34.927  1.00  0.00     0.020 A 
ATOM     86  C   UNL A   1      45.896  21.541  35.307  1.00  0.00     0.054 A 
BRANCH  86  87
ATOM     87  S   UNL A   1      46.309  20.181  36.430  1.00  0.00     0.124 S 
ATOM     88  O   UNL A   1      47.765  20.138  36.329  1.00  0.00    -0.237 OA
ATOM     89  O   UNL A   1      45.784  20.644  37.713  1.00  0.00    -0.237 OA
ATOM     90  O   UNL A   1      45.604  19.039  35.854  1.00  0.00    -0.744 OA
ENDBRANCH  86  87
ENDBRANCH  60  81
ENDBRANCH  34  35
ENDBRANCH  26  29
ENDBRANCH  24  25
ENDBRANCH  23  24
ENDBRANCH   1  23
TORSDOF 17
ENDMDL
MODEL 2
REMARK VINA RESULT:     -13.0      5.178     11.675
REMARK SMILES Cc1cccc(-c2ccc(Cl)c(C(=O)NCCCCCCNC(=O)c3ccc(-c4c5nc(c(-c6ccc(S(=O)(=O)[O-])cc6)c6ccc([nH]6)c(-c6ccc(S(=O)(=O)[O-])cc6)c6nc(c(-c7ccc(S(=O)(=O)[O-])cc7)c7ccc4[nH]7)C=C6)C=C5)cc3)c2)c1
REMARK SMILES IDX 19 1 18 2 17 3 16 4 15 5 13 6 14 7 12 9 7 10 8 11 85 12 9 13
REMARK SMILES IDX 10 14 11 15 6 16 1 17 2 18 3 19 86 20 4 21 5 22 20 23 21 24
REMARK SMILES IDX 22 25 23 26 24 28 25 29 26 30 84 31 27 32 83 33 28 34 29 35
REMARK SMILES IDX 30 36 77 37 31 38 82 39 76 40 78 41 32 42 81 43 75 44 74 45
REMARK SMILES IDX 33 47 63 48 44 49 62 50 45 51 48 52 61 53 79 54 46 55 47 56
REMARK SMILES IDX 60 58 80 59 49 60 34 61 35 62 43 63 36 64 42 65 37 66 38 67
REMARK SMILES IDX 39 68 40 69 41 70 64 71 65 72 73 73 66 74 72 75 67 76 68 77
REMARK SMILES IDX 69 78 70 79 71 80 50 81 51 82 59 83 52 84 58 85 53 86 54 87
REMARK SMILES IDX 55 88 56 89 57 90
REMARK H PARENT 15 8 22 27 78 46 48 57
REMARK Flexibility Score: inf
ROOT
ATOM      1  C   UNL A   1      36.498  23.722  26.096  1.00  0.00     0.002 C 
ENDROOT
BRANCH   1   2
ATOM      2  C   UNL A   1      36.173  23.557  24.603  1.00  0.00     0.002 C 
BRANCH   2   3
ATOM      3  C   UNL A   1      36.128  22.145  24.001  1.00  0.00     0.021 C 
BRANCH   3   4
ATOM      4  C   UNL A   1      35.789  20.978  24.926  1.00  0.00     0.116 C 
BRANCH   4   5
ATOM      5  N   UNL A   1      34.574  20.249  24.616  1.00  0.00    -0.352 N 
ATOM      6  C   UNL A   1      33.257  20.655  24.685  1.00  0.00     0.252 C 
ATOM      7  O   UNL A   1      32.379  19.886  24.293  1.00  0.00    -0.269 OA
ATOM      8  H   UNL A   1      34.709  19.323  24.310  1.00  0.00     0.163 HD
BRANCH   6   9
ATOM      9  C   UNL A   1      32.835  21.944  25.304  1.00  0.00     0.059 A 
ATOM     10  C   UNL A   1      31.968  24.210  24.865  1.00  0.00    -0.017 A 
ATOM     11  C   UNL A   1      31.958  24.440  26.247  1.00  0.00     0.010 A 
ATOM     12  C   UNL A   1      32.345  22.931  24.414  1.00  0.00     0.024 A 
ATOM     13  C   UNL A   1      32.487  23.501  27.128  1.00  0.00     0.022 A 
ATOM     14  C   UNL A   1      33.006  22.294  26.647  1.00  0.00     0.053 A 
ATOM     15  Cl  UNL A   1      34.021  21.436  27.751  1.00  0.00    -0.083 Cl
BRANCH  10  16
ATOM     16  C   UNL A   1      31.734  25.338  23.943  1.00  0.00    -0.018 A 
ATOM     17  C   UNL A   1      30.945  29.072  24.284  1.00  0.00     0.044 C 
ATOM     18  C   UNL A   1      31.236  27.734  23.672  1.00  0.00    -0.051 A 
ATOM     19  C   UNL A   1      31.268  27.575  22.287  1.00  0.00     0.003 A 
ATOM     20  C   UNL A   1      31.469  26.615  24.483  1.00  0.00     0.012 A 
ATOM     21  C   UNL A   1      31.539  26.322  21.729  1.00  0.00     0.001 A 
ATOM     22  C   UNL A   1      31.774  25.211  22.551  1.00  0.00     0.009 A 
ENDBRANCH  10  16
ENDBRANCH   6   9
ENDBRANCH   4   5
ENDBRANCH   3   4
ENDBRANCH   2   3
ENDBRANCH   1   2
BRANCH   1  23
ATOM     23  C   UNL A   1      37.902  23.348  26.570  1.00  0.00     0.021 C 
BRANCH  23  24
ATOM     24  C   UNL A   1      39.035  23.728  25.621  1.00  0.00     0.116 C 
BRANCH  24  25
ATOM     25  N   UNL A   1      40.355  23.707  26.258  1.00  0.00    -0.352 N 
ATOM     26  C   UNL A   1      40.983  24.710  26.981  1.00  0.00     0.251 C 
ATOM     27  H   UNL A   1      40.863  22.869  26.159  1.00  0.00     0.163 HD
ATOM     28  O   UNL A   1      42.114  24.639  27.422  1.00  0.00    -0.269 OA
BRANCH  26  29
ATOM     29  C   UNL A   1      40.151  25.884  27.302  1.00  0.00     0.039 A 
ATOM     30  C   UNL A   1      40.497  27.081  26.666  1.00  0.00     0.014 A 
ATOM     31  C   UNL A   1      39.391  25.858  28.469  1.00  0.00     0.014 A 
ATOM     32  C   UNL A   1      40.287  28.274  27.338  1.00  0.00     0.010 A 
ATOM     33  C   UNL A   1      39.266  27.037  29.177  1.00  0.00     0.010 A 
ATOM     34  C   UNL A   1      39.788  28.222  28.643  1.00  0.00    -0.014 A 
BRANCH  34  35
ATOM     35  C   UNL A   1      39.924  29.355  29.548  1.00  0.00     0.031 A 
ATOM     36  C   UNL A   1      38.883  30.396  29.543  1.00  0.00     0.074 A 
ATOM     37  C   UNL A   1      41.030  29.495  30.313  1.00  0.00     0.049 A 
ATOM     38  N   UNL A   1      39.112  31.658  29.683  1.00  0.00    -0.248 NA
ATOM     39  C   UNL A   1      37.484  30.075  29.295  1.00  0.00     0.031 C 
ATOM     40  C   UNL A   1      41.270  30.525  31.320  1.00  0.00     0.029 A 
ATOM     41  N   UNL A   1      42.275  28.877  30.152  1.00  0.00    -0.354 N 
ATOM     42  C   UNL A   1      37.889  32.272  29.832  1.00  0.00     0.074 A 
ATOM     43  C   UNL A   1      36.912  31.266  29.479  1.00  0.00     0.031 C 
ATOM     44  C   UNL A   1      42.596  30.694  31.441  1.00  0.00     0.029 A 
ATOM     45  C   UNL A   1      43.241  29.849  30.446  1.00  0.00     0.049 A 
ATOM     46  H   UNL A   1      42.440  27.944  29.885  1.00  0.00     0.167 HD
ATOM     47  C   UNL A   1      37.806  33.506  30.404  1.00  0.00     0.031 A 
ATOM     48  C   UNL A   1      44.202  30.250  29.568  1.00  0.00     0.031 A 
ATOM     49  C   UNL A   1      39.126  34.045  30.724  1.00  0.00     0.049 A 
ATOM     50  C   UNL A   1      44.127  31.732  29.264  1.00  0.00     0.074 A 
ATOM     51  C   UNL A   1      39.856  34.090  31.901  1.00  0.00     0.029 A 
ATOM     52  N   UNL A   1      40.020  34.339  29.698  1.00  0.00    -0.354 N 
ATOM     53  N   UNL A   1      43.093  32.482  29.535  1.00  0.00    -0.248 NA
ATOM     54  C   UNL A   1      45.196  32.480  28.607  1.00  0.00     0.031 C 
ATOM     55  C   UNL A   1      41.214  34.328  31.568  1.00  0.00     0.029 A 
ATOM     56  C   UNL A   1      41.305  34.464  30.194  1.00  0.00     0.049 A 
ATOM     57  H   UNL A   1      39.771  34.445  28.751  1.00  0.00     0.167 HD
ATOM     58  C   UNL A   1      43.335  33.771  29.131  1.00  0.00     0.074 A 
ATOM     59  C   UNL A   1      44.670  33.718  28.560  1.00  0.00     0.031 C 
ATOM     60  C   UNL A   1      42.422  34.774  29.308  1.00  0.00     0.031 A 
BRANCH  47  61
ATOM     61  C   UNL A   1      36.504  33.994  31.002  1.00  0.00    -0.014 A 
ATOM     62  C   UNL A   1      35.360  34.117  30.189  1.00  0.00     0.010 A 
ATOM     63  C   UNL A   1      36.377  34.448  32.330  1.00  0.00     0.010 A 
ATOM     64  C   UNL A   1      34.210  34.792  30.626  1.00  0.00     0.020 A 
ATOM     65  C   UNL A   1      35.255  35.170  32.765  1.00  0.00     0.020 A 
ATOM     66  C   UNL A   1      34.182  35.355  31.900  1.00  0.00     0.054 A 
BRANCH  66  67
ATOM     67  S   UNL A   1      32.751  36.352  32.394  1.00  0.00     0.124 S 
ATOM     68  O   UNL A   1      33.212  36.977  33.633  1.00  0.00    -0.237 OA
ATOM     69  O   UNL A   1      32.589  37.251  31.256  1.00  0.00    -0.237 OA
ATOM     70  O   UNL A   1      31.685  35.365  32.565  1.00  0.00    -0.744 OA
ENDBRANCH  66  67
ENDBRANCH  47  61
BRANCH  48  71
ATOM     71  C   UNL A   1      44.710  29.195  28.650  1.00  0.00    -0.014 A 
ATOM     72  C   UNL A   1      44.017  29.000  27.435  1.00  0.00     0.010 A 
ATOM     73  C   UNL A   1      45.999  28.653  28.781  1.00  0.00     0.010 A 
ATOM     74  C   UNL A   1      44.635  28.382  26.343  1.00  0.00     0.020 A 
ATOM     75  C   UNL A   1      46.624  28.036  27.684  1.00  0.00     0.020 A 
ATOM     76  C   UNL A   1      45.954  27.948  26.459  1.00  0.00     0.054 A 
BRANCH  76  77
ATOM     77  S   UNL A   1      46.796  27.330  24.968  1.00  0.00     0.124 S 
ATOM     78  O   UNL A   1      46.056  26.105  24.675  1.00  0.00    -0.237 OA
ATOM     79  O   UNL A   1      46.587  28.424  24.021  1.00  0.00    -0.237 OA
ATOM     80  O   UNL A   1      48.170  27.138  25.416  1.00  0.00    -0.744 OA
ENDBRANCH  76  77
ENDBRANCH  48  71
BRANCH  60  81
ATOM     81  C   UNL A   1      42.516  36.184  28.762  1.00  0.00    -0.014 A 
ATOM     82  C   UNL A   1      43.208  37.236  29.379  1.00  0.00     0.010 A 
ATOM     83  C   UNL A   1      41.971  36.450  27.478  1.00  0.00     0.010 A 
ATOM     84  C   UNL A   1      43.308  38.500  28.774  1.00  0.00     0.020 A 
ATOM     85  C   UNL A   1      42.104  37.689  26.848  1.00  0.00     0.020 A 
ATOM     86  C   UNL A   1      42.755  38.718  27.512  1.00  0.00     0.054 A 
BRANCH  86  87
ATOM     87  S   UNL A   1      42.963  40.324  26.700  1.00  0.00     0.124 S 
ATOM     88  O   UNL A   1      43.264  41.197  27.830  1.00  0.00    -0.237 OA
ATOM     89  O   UNL A   1      44.073  40.086  25.779  1.00  0.00    -0.237 OA
ATOM     90  O   UNL A   1      41.670  40.549  26.057  1.00  0.00    -0.744 OA
ENDBRANCH  86  87
ENDBRANCH  60  81
ENDBRANCH  34  35
ENDBRANCH  26  29
ENDBRANCH  24  25
ENDBRANCH  23  24
ENDBRANCH   1  23
TORSDOF 17
ENDMDL
MODEL 3
REMARK VINA RESULT:     -12.2      4.361      7.278
REMARK SMILES Cc1cccc(-c2ccc(Cl)c(C(=O)NCCCCCCNC(=O)c3ccc(-c4c5nc(c(-c6ccc(S(=O)(=O)[O-])cc6)c6ccc([nH]6)c(-c6ccc(S(=O)(=O)[O-])cc6)c6nc(c(-c7ccc(S(=O)(=O)[O-])cc7)c7ccc4[nH]7)C=C6)C=C5)cc3)c2)c1
REMARK SMILES IDX 19 1 18 2 17 3 16 4 15 5 13 6 14 7 12 9 7 10 8 11 85 12 9 13
REMARK SMILES IDX 10 14 11 15 6 16 1 17 2 18 3 19 86 20 4 21 5 22 20 23 21 24
REMARK SMILES IDX 22 25 23 26 24 28 25 29 26 30 84 31 27 32 83 33 28 34 29 35
REMARK SMILES IDX 30 36 77 37 31 38 82 39 76 40 78 41 32 42 81 43 75 44 74 45
REMARK SMILES IDX 33 47 63 48 44 49 62 50 45 51 48 52 61 53 79 54 46 55 47 56
REMARK SMILES IDX 60 58 80 59 49 60 34 61 35 62 43 63 36 64 42 65 37 66 38 67
REMARK SMILES IDX 39 68 40 69 41 70 64 71 65 72 73 73 66 74 72 75 67 76 68 77
REMARK SMILES IDX 69 78 70 79 71 80 50 81 51 82 59 83 52 84 58 85 53 86 54 87
REMARK SMILES IDX 55 88 56 89 57 90
REMARK H PARENT 15 8 22 27 78 46 48 57
REMARK Flexibility Score: inf
ROOT
ATOM      1  C   UNL A   1      40.980  33.536  29.997  1.00  0.00     0.002 C 
ENDROOT
BRANCH   1   2
ATOM      2  C   UNL A   1      41.543  34.664  29.120  1.00  0.00     0.002 C 
BRANCH   2   3
ATOM      3  C   UNL A   1      43.061  34.754  28.905  1.00  0.00     0.021 C 
BRANCH   3   4
ATOM      4  C   UNL A   1      43.754  33.609  28.168  1.00  0.00     0.116 C 
BRANCH   4   5
ATOM      5  N   UNL A   1      44.760  33.991  27.195  1.00  0.00    -0.352 N 
ATOM      6  C   UNL A   1      45.880  33.309  26.767  1.00  0.00     0.252 C 
ATOM      7  O   UNL A   1      46.560  33.794  25.862  1.00  0.00    -0.269 OA
ATOM      8  H   UNL A   1      44.623  34.871  26.776  1.00  0.00     0.163 HD
BRANCH   6   9
ATOM      9  C   UNL A   1      46.367  32.056  27.415  1.00  0.00     0.059 A 
ATOM     10  C   UNL A   1      46.693  29.629  27.131  1.00  0.00    -0.017 A 
ATOM     11  C   UNL A   1      47.254  29.587  28.414  1.00  0.00     0.010 A 
ATOM     12  C   UNL A   1      46.316  30.885  26.620  1.00  0.00     0.024 A 
ATOM     13  C   UNL A   1      47.260  30.718  29.226  1.00  0.00     0.022 A 
ATOM     14  C   UNL A   1      46.735  31.927  28.757  1.00  0.00     0.053 A 
ATOM     15  Cl  UNL A   1      46.387  33.101  29.975  1.00  0.00    -0.083 Cl
BRANCH  10  16
ATOM     16  C   UNL A   1      46.382  28.365  26.436  1.00  0.00    -0.018 A 
ATOM     17  C   UNL A   1      43.211  26.573  25.245  1.00  0.00     0.044 C 
ATOM     18  C   UNL A   1      44.658  26.873  25.507  1.00  0.00    -0.051 A 
ATOM     19  C   UNL A   1      45.654  25.980  25.117  1.00  0.00     0.003 A 
ATOM     20  C   UNL A   1      45.032  28.053  26.162  1.00  0.00     0.012 A 
ATOM     21  C   UNL A   1      46.998  26.271  25.369  1.00  0.00     0.001 A 
ATOM     22  C   UNL A   1      47.360  27.457  26.021  1.00  0.00     0.009 A 
ENDBRANCH  10  16
ENDBRANCH   6   9
ENDBRANCH   4   5
ENDBRANCH   3   4
ENDBRANCH   2   3
ENDBRANCH   1   2
BRANCH   1  23
ATOM     23  C   UNL A   1      39.466  33.472  30.201  1.00  0.00     0.021 C 
BRANCH  23  24
ATOM     24  C   UNL A   1      38.861  32.072  30.164  1.00  0.00     0.116 C 
BRANCH  24  25
ATOM     25  N   UNL A   1      37.397  32.076  30.085  1.00  0.00    -0.352 N 
ATOM     26  C   UNL A   1      36.560  31.144  29.490  1.00  0.00     0.251 C 
ATOM     27  H   UNL A   1      36.949  32.843  30.511  1.00  0.00     0.163 HD
ATOM     28  O   UNL A   1      35.352  31.255  29.407  1.00  0.00    -0.269 OA
BRANCH  26  29
ATOM     29  C   UNL A   1      37.208  29.902  29.032  1.00  0.00     0.039 A 
ATOM     30  C   UNL A   1      37.509  28.960  30.021  1.00  0.00     0.014 A 
ATOM     31  C   UNL A   1      37.844  29.904  27.793  1.00  0.00     0.014 A 
ATOM     32  C   UNL A   1      38.630  28.163  29.858  1.00  0.00     0.010 A 
ATOM     33  C   UNL A   1      39.011  29.176  27.672  1.00  0.00     0.010 A 
ATOM     34  C   UNL A   1      39.439  28.375  28.738  1.00  0.00    -0.014 A 
BRANCH  34  35
ATOM     35  C   UNL A   1      40.812  27.892  28.697  1.00  0.00     0.031 A 
ATOM     36  C   UNL A   1      41.062  26.495  28.312  1.00  0.00     0.074 A 
ATOM     37  C   UNL A   1      41.832  28.688  29.093  1.00  0.00     0.049 A 
ATOM     38  N   UNL A   1      41.970  25.743  28.838  1.00  0.00    -0.248 NA
ATOM     39  C   UNL A   1      40.227  25.811  27.333  1.00  0.00     0.031 C 
ATOM     40  C   UNL A   1      43.257  28.375  29.031  1.00  0.00     0.029 A 
ATOM     41  N   UNL A   1      41.770  29.847  29.874  1.00  0.00    -0.354 N 
ATOM     42  C   UNL A   1      42.029  24.596  28.079  1.00  0.00     0.074 A 
ATOM     43  C   UNL A   1      40.860  24.641  27.227  1.00  0.00     0.031 C 
ATOM     44  C   UNL A   1      43.886  29.088  29.979  1.00  0.00     0.029 A 
ATOM     45  C   UNL A   1      42.871  29.801  30.740  1.00  0.00     0.049 A 
ATOM     46  H   UNL A   1      41.088  30.555  29.824  1.00  0.00     0.167 HD
ATOM     47  C   UNL A   1      43.139  23.807  28.112  1.00  0.00     0.031 A 
ATOM     48  C   UNL A   1      42.766  29.822  32.098  1.00  0.00     0.031 A 
ATOM     49  C   UNL A   1      44.127  24.303  29.068  1.00  0.00     0.049 A 
ATOM     50  C   UNL A   1      43.368  28.591  32.744  1.00  0.00     0.074 A 
ATOM     51  C   UNL A   1      45.275  25.064  28.914  1.00  0.00     0.029 A 
ATOM     52  N   UNL A   1      43.828  24.317  30.427  1.00  0.00    -0.354 N 
ATOM     53  N   UNL A   1      43.658  27.494  32.098  1.00  0.00    -0.248 NA
ATOM     54  C   UNL A   1      43.664  28.487  34.171  1.00  0.00     0.031 C 
ATOM     55  C   UNL A   1      45.615  25.608  30.179  1.00  0.00     0.029 A 
ATOM     56  C   UNL A   1      44.698  25.150  31.108  1.00  0.00     0.049 A 
ATOM     57  H   UNL A   1      43.100  23.804  30.846  1.00  0.00     0.167 HD
ATOM     58  C   UNL A   1      44.180  26.568  32.966  1.00  0.00     0.074 A 
ATOM     59  C   UNL A   1      44.167  27.242  34.252  1.00  0.00     0.031 C 
ATOM     60  C   UNL A   1      44.586  25.329  32.551  1.00  0.00     0.031 A 
BRANCH  47  61
ATOM     61  C   UNL A   1      43.433  22.840  26.986  1.00  0.00    -0.014 A 
ATOM     62  C   UNL A   1      42.752  21.609  26.921  1.00  0.00     0.010 A 
ATOM     63  C   UNL A   1      44.447  23.044  26.027  1.00  0.00     0.010 A 
ATOM     64  C   UNL A   1      43.159  20.582  26.054  1.00  0.00     0.020 A 
ATOM     65  C   UNL A   1      44.898  22.011  25.192  1.00  0.00     0.020 A 
ATOM     66  C   UNL A   1      44.261  20.775  25.225  1.00  0.00     0.054 A 
BRANCH  66  67
ATOM     67  S   UNL A   1      44.866  19.391  24.222  1.00  0.00     0.124 S 
ATOM     68  O   UNL A   1      44.387  19.734  22.885  1.00  0.00    -0.237 OA
ATOM     69  O   UNL A   1      46.310  19.475  24.416  1.00  0.00    -0.237 OA
ATOM     70  O   UNL A   1      44.224  18.223  24.823  1.00  0.00    -0.744 OA
ENDBRANCH  66  67
ENDBRANCH  47  61
BRANCH  48  71
ATOM     71  C   UNL A   1      41.641  30.632  32.640  1.00  0.00    -0.014 A 
ATOM     72  C   UNL A   1      40.475  29.942  33.038  1.00  0.00     0.010 A 
ATOM     73  C   UNL A   1      41.821  31.954  33.079  1.00  0.00     0.010 A 
ATOM     74  C   UNL A   1      39.570  30.514  33.939  1.00  0.00     0.020 A 
ATOM     75  C   UNL A   1      40.916  32.529  33.988  1.00  0.00     0.020 A 
ATOM     76  C   UNL A   1      39.823  31.787  34.448  1.00  0.00     0.054 A 
BRANCH  76  77
ATOM     77  S   UNL A   1      38.739  32.423  35.763  1.00  0.00     0.124 S 
ATOM     78  O   UNL A   1      37.414  32.019  35.302  1.00  0.00    -0.237 OA
ATOM     79  O   UNL A   1      39.233  31.710  36.941  1.00  0.00    -0.237 OA
ATOM     80  O   UNL A   1      38.997  33.859  35.742  1.00  0.00    -0.744 OA
ENDBRANCH  76  77
ENDBRANCH  48  71
BRANCH  60  81
ATOM     81  C   UNL A   1      45.022  24.181  33.438  1.00  0.00    -0.014 A 
ATOM     82  C   UNL A   1      44.311  22.983  33.603  1.00  0.00     0.010 A 
ATOM     83  C   UNL A   1      46.294  24.255  34.063  1.00  0.00     0.010 A 
ATOM     84  C   UNL A   1      44.816  21.936  34.390  1.00  0.00     0.020 A 
ATOM     85  C   UNL A   1      46.826  23.201  34.810  1.00  0.00     0.020 A 
ATOM     86  C   UNL A   1      46.072  22.051  34.989  1.00  0.00     0.054 A 
BRANCH  86  87
ATOM     87  S   UNL A   1      46.755  20.663  35.931  1.00  0.00     0.124 S 
ATOM     88  O   UNL A   1      46.246  20.930  37.272  1.00  0.00    -0.237 OA
ATOM     89  O   UNL A   1      46.181  19.498  35.262  1.00  0.00    -0.237 OA
ATOM     90  O   UNL A   1      48.199  20.818  35.763  1.00  0.00    -0.744 OA
ENDBRANCH  86  87
ENDBRANCH  60  81
ENDBRANCH  34  35
ENDBRANCH  26  29
ENDBRANCH  24  25
ENDBRANCH  23  24
ENDBRANCH   1  23
TORSDOF 17
ENDMDL
