MODEL 1
REMARK VINA RESULT:     -11.1      0.000      0.000
REMARK SMILES CN(C)c1cc(C(F)(F)F)cc(-c2cccc(/C=C/C(=O)NCCCCCCNC(=O)c3ccc(-c4c5nc(c(-c6ccc(S(=O)(=O)[O-])cc6)c6ccc([nH]6)c(-c6ccc(S(=O)(=O)[O-])cc6)c6nc(c(-c7ccc(S(=O)(=O)[O-])cc7)c7ccc4[nH]7)C=C6)C=C5)cc3)c2)n1
REMARK SMILES IDX 25 1 24 2 23 3 22 4 20 5 21 6 19 8 18 9 17 10 13 11 14 12
REMARK SMILES IDX 92 13 15 14 16 15 12 16 4 17 5 18 93 19 6 20 11 21 2 22 1 23
REMARK SMILES IDX 3 24 7 25 8 26 9 27 10 28 26 29 27 30 28 31 29 32 30 33
REMARK SMILES IDX 31 35 32 36 33 37 91 38 34 39 90 40 35 41 36 42 37 43 84 44
REMARK SMILES IDX 38 45 89 46 83 47 85 48 39 49 88 50 82 51 81 52 40 54 70 55
REMARK SMILES IDX 51 56 69 57 52 58 55 59 68 60 86 61 53 62 54 63 67 65 87 66
REMARK SMILES IDX 56 67 41 68 42 69 50 70 43 71 49 72 44 73 45 74 46 75 47 76
REMARK SMILES IDX 48 77 71 78 72 79 80 80 73 81 79 82 74 83 75 84 76 85 77 86
REMARK SMILES IDX 78 87 57 88 58 89 66 90 59 91 65 92 60 93 61 94 62 95 63 96
REMARK SMILES IDX 64 97
REMARK H PARENT 22 7 29 34 85 53 55 64
REMARK Flexibility Score: inf
ROOT
ATOM      1  C   UNL A   1      30.793  28.049  25.469  1.00  0.00     0.002 C 
ENDROOT
BRANCH   1   2
ATOM      2  C   UNL A   1      31.283  29.092  24.455  1.00  0.00     0.021 C 
BRANCH   2   3
ATOM      3  C   UNL A   1      30.940  28.738  23.007  1.00  0.00     0.116 C 
BRANCH   3   4
ATOM      4  N   UNL A   1      32.153  28.494  22.246  1.00  0.00    -0.353 N 
ATOM      5  C   UNL A   1      33.066  27.491  22.305  1.00  0.00     0.243 C 
ATOM      6  O   UNL A   1      34.001  27.477  21.505  1.00  0.00    -0.270 OA
ATOM      7  H   UNL A   1      32.348  29.179  21.565  1.00  0.00     0.163 HD
BRANCH   5   8
ATOM      8  C   UNL A   1      32.910  26.360  23.247  1.00  0.00     0.072 C 
ATOM      9  C   UNL A   1      31.848  25.544  23.299  1.00  0.00     0.014 C 
BRANCH   9  10
ATOM     10  C   UNL A   1      31.710  24.414  24.227  1.00  0.00    -0.025 A 
ATOM     11  C   UNL A   1      32.595  22.266  25.006  1.00  0.00     0.001 A 
ATOM     12  C   UNL A   1      31.451  22.109  25.801  1.00  0.00     0.010 A 
ATOM     13  C   UNL A   1      32.710  23.431  24.229  1.00  0.00     0.018 A 
ATOM     14  C   UNL A   1      30.458  23.091  25.828  1.00  0.00     0.001 A 
ATOM     15  C   UNL A   1      30.585  24.238  25.041  1.00  0.00     0.008 A 
BRANCH  11  16
ATOM     16  C   UNL A   1      33.621  21.222  24.942  1.00  0.00     0.073 A 
ATOM     17  C   UNL A   1      34.012  18.926  24.717  1.00  0.00     0.129 A 
ATOM     18  C   UNL A   1      35.385  19.149  24.762  1.00  0.00     0.060 A 
ATOM     19  N   UNL A   1      33.148  19.960  24.809  1.00  0.00    -0.231 NA
ATOM     20  C   UNL A   1      35.884  20.453  24.870  1.00  0.00     0.061 A 
ATOM     21  C   UNL A   1      34.977  21.508  24.969  1.00  0.00     0.042 A 
BRANCH  17  22
ATOM     22  N   UNL A   1      33.502  17.652  24.530  1.00  0.00    -0.363 N 
ATOM     23  C   UNL A   1      34.196  16.713  23.670  1.00  0.00     0.144 C 
ATOM     24  C   UNL A   1      32.581  17.157  25.537  1.00  0.00     0.144 C 
ENDBRANCH  17  22
BRANCH  20  25
ATOM     25  C   UNL A   1      37.363  20.723  24.829  1.00  0.00     0.416 C 
ATOM     26  F   UNL A   1      37.864  21.003  26.063  1.00  0.00    -0.166 F 
ATOM     27  F   UNL A   1      38.068  19.653  24.370  1.00  0.00    -0.166 F 
ATOM     28  F   UNL A   1      37.705  21.771  24.033  1.00  0.00    -0.166 F 
ENDBRANCH  20  25
ENDBRANCH  11  16
ENDBRANCH   9  10
ENDBRANCH   5   8
ENDBRANCH   3   4
ENDBRANCH   2   3
ENDBRANCH   1   2
BRANCH   1  29
ATOM     29  C   UNL A   1      31.647  27.936  26.739  1.00  0.00     0.002 C 
BRANCH  29  30
ATOM     30  C   UNL A   1      32.981  27.208  26.557  1.00  0.00     0.021 C 
BRANCH  30  31
ATOM     31  C   UNL A   1      34.193  28.131  26.489  1.00  0.00     0.116 C 
BRANCH  31  32
ATOM     32  N   UNL A   1      33.851  29.493  26.872  1.00  0.00    -0.352 N 
ATOM     33  C   UNL A   1      34.519  30.352  27.709  1.00  0.00     0.251 C 
ATOM     34  H   UNL A   1      33.023  29.847  26.475  1.00  0.00     0.163 HD
ATOM     35  O   UNL A   1      33.964  31.366  28.117  1.00  0.00    -0.269 OA
BRANCH  33  36
ATOM     36  C   UNL A   1      35.903  30.039  28.121  1.00  0.00     0.039 A 
ATOM     37  C   UNL A   1      36.138  29.570  29.416  1.00  0.00     0.014 A 
ATOM     38  C   UNL A   1      36.968  30.222  27.234  1.00  0.00     0.014 A 
ATOM     39  C   UNL A   1      37.436  29.229  29.800  1.00  0.00     0.010 A 
ATOM     40  C   UNL A   1      38.248  29.813  27.595  1.00  0.00     0.010 A 
ATOM     41  C   UNL A   1      38.497  29.319  28.883  1.00  0.00    -0.014 A 
BRANCH  41  42
ATOM     42  C   UNL A   1      39.874  28.905  29.254  1.00  0.00     0.031 A 
ATOM     43  C   UNL A   1      40.789  29.873  29.955  1.00  0.00     0.074 A 
ATOM     44  C   UNL A   1      40.316  27.678  28.914  1.00  0.00     0.049 A 
ATOM     45  N   UNL A   1      42.042  29.720  30.299  1.00  0.00    -0.248 NA
ATOM     46  C   UNL A   1      40.232  31.194  30.292  1.00  0.00     0.031 C 
ATOM     47  C   UNL A   1      39.535  26.662  28.202  1.00  0.00     0.029 A 
ATOM     48  N   UNL A   1      41.535  27.078  29.112  1.00  0.00    -0.354 N 
ATOM     49  C   UNL A   1      42.422  30.921  30.888  1.00  0.00     0.074 A 
ATOM     50  C   UNL A   1      41.287  31.814  30.797  1.00  0.00     0.031 C 
ATOM     51  C   UNL A   1      40.286  25.560  28.046  1.00  0.00     0.029 A 
ATOM     52  C   UNL A   1      41.613  25.803  28.602  1.00  0.00     0.049 A 
ATOM     53  H   UNL A   1      42.283  27.520  29.574  1.00  0.00     0.167 HD
ATOM     54  C   UNL A   1      43.600  31.244  31.475  1.00  0.00     0.031 A 
ATOM     55  C   UNL A   1      42.640  24.932  28.576  1.00  0.00     0.031 A 
ATOM     56  C   UNL A   1      44.726  30.353  31.562  1.00  0.00     0.049 A 
ATOM     57  C   UNL A   1      43.951  25.329  29.199  1.00  0.00     0.074 A 
ATOM     58  C   UNL A   1      45.954  30.574  32.160  1.00  0.00     0.029 A 
ATOM     59  N   UNL A   1      44.763  29.069  31.038  1.00  0.00    -0.354 N 
ATOM     60  N   UNL A   1      44.272  26.451  29.800  1.00  0.00    -0.248 NA
ATOM     61  C   UNL A   1      45.034  24.337  29.154  1.00  0.00     0.031 C 
ATOM     62  C   UNL A   1      46.751  29.444  31.953  1.00  0.00     0.029 A 
ATOM     63  C   UNL A   1      45.998  28.494  31.281  1.00  0.00     0.049 A 
ATOM     64  H   UNL A   1      44.020  28.632  30.562  1.00  0.00     0.167 HD
ATOM     65  C   UNL A   1      45.584  26.286  30.231  1.00  0.00     0.074 A 
ATOM     66  C   UNL A   1      45.990  24.952  29.839  1.00  0.00     0.031 C 
ATOM     67  C   UNL A   1      46.383  27.161  30.891  1.00  0.00     0.031 A 
BRANCH  54  68
ATOM     68  C   UNL A   1      43.725  32.621  32.075  1.00  0.00    -0.014 A 
ATOM     69  C   UNL A   1      43.392  32.853  33.422  1.00  0.00     0.010 A 
ATOM     70  C   UNL A   1      44.224  33.684  31.302  1.00  0.00     0.010 A 
ATOM     71  C   UNL A   1      43.519  34.129  33.974  1.00  0.00     0.020 A 
ATOM     72  C   UNL A   1      44.381  34.958  31.859  1.00  0.00     0.020 A 
ATOM     73  C   UNL A   1      44.013  35.175  33.189  1.00  0.00     0.054 A 
BRANCH  73  74
ATOM     74  S   UNL A   1      44.194  36.814  33.942  1.00  0.00     0.124 S 
ATOM     75  O   UNL A   1      42.837  37.345  33.838  1.00  0.00    -0.237 OA
ATOM     76  O   UNL A   1      44.642  36.496  35.295  1.00  0.00    -0.237 OA
ATOM     77  O   UNL A   1      45.187  37.476  33.100  1.00  0.00    -0.744 OA
ENDBRANCH  73  74
ENDBRANCH  54  68
BRANCH  55  78
ATOM     78  C   UNL A   1      42.476  23.598  27.932  1.00  0.00    -0.014 A 
ATOM     79  C   UNL A   1      41.886  22.532  28.632  1.00  0.00     0.010 A 
ATOM     80  C   UNL A   1      42.926  23.383  26.616  1.00  0.00     0.010 A 
ATOM     81  C   UNL A   1      41.782  21.267  28.044  1.00  0.00     0.020 A 
ATOM     82  C   UNL A   1      42.794  22.130  26.013  1.00  0.00     0.020 A 
ATOM     83  C   UNL A   1      42.240  21.074  26.737  1.00  0.00     0.054 A 
BRANCH  83  84
ATOM     84  S   UNL A   1      42.078  19.431  25.987  1.00  0.00     0.124 S 
ATOM     85  O   UNL A   1      40.638  19.336  25.773  1.00  0.00    -0.237 OA
ATOM     86  O   UNL A   1      42.892  19.554  24.779  1.00  0.00    -0.237 OA
ATOM     87  O   UNL A   1      42.621  18.535  27.006  1.00  0.00    -0.744 OA
ENDBRANCH  83  84
ENDBRANCH  55  78
BRANCH  67  88
ATOM     88  C   UNL A   1      47.762  26.691  31.273  1.00  0.00    -0.014 A 
ATOM     89  C   UNL A   1      48.004  26.057  32.503  1.00  0.00     0.010 A 
ATOM     90  C   UNL A   1      48.821  26.839  30.357  1.00  0.00     0.010 A 
ATOM     91  C   UNL A   1      49.287  25.607  32.825  1.00  0.00     0.020 A 
ATOM     92  C   UNL A   1      50.098  26.363  30.662  1.00  0.00     0.020 A 
ATOM     93  C   UNL A   1      50.326  25.761  31.900  1.00  0.00     0.054 A 
BRANCH  93  94
ATOM     94  S   UNL A   1      51.971  25.124  32.323  1.00  0.00     0.124 S 
ATOM     95  O   UNL A   1      52.784  25.621  31.216  1.00  0.00    -0.237 OA
ATOM     96  O   UNL A   1      52.229  25.745  33.620  1.00  0.00    -0.237 OA
ATOM     97  O   UNL A   1      51.784  23.675  32.359  1.00  0.00    -0.744 OA
ENDBRANCH  93  94
ENDBRANCH  67  88
ENDBRANCH  41  42
ENDBRANCH  33  36
ENDBRANCH  31  32
ENDBRANCH  30  31
ENDBRANCH  29  30
ENDBRANCH   1  29
TORSDOF 20
ENDMDL
MODEL 2
REMARK VINA RESULT:     -10.5      2.701      3.414
REMARK SMILES CN(C)c1cc(C(F)(F)F)cc(-c2cccc(/C=C/C(=O)NCCCCCCNC(=O)c3ccc(-c4c5nc(c(-c6ccc(S(=O)(=O)[O-])cc6)c6ccc([nH]6)c(-c6ccc(S(=O)(=O)[O-])cc6)c6nc(c(-c7ccc(S(=O)(=O)[O-])cc7)c7ccc4[nH]7)C=C6)C=C5)cc3)c2)n1
REMARK SMILES IDX 25 1 24 2 23 3 22 4 20 5 21 6 19 8 18 9 17 10 13 11 14 12
REMARK SMILES IDX 92 13 15 14 16 15 12 16 4 17 5 18 93 19 6 20 11 21 2 22 1 23
REMARK SMILES IDX 3 24 7 25 8 26 9 27 10 28 26 29 27 30 28 31 29 32 30 33
REMARK SMILES IDX 31 35 32 36 33 37 91 38 34 39 90 40 35 41 36 42 37 43 84 44
REMARK SMILES IDX 38 45 89 46 83 47 85 48 39 49 88 50 82 51 81 52 40 54 70 55
REMARK SMILES IDX 51 56 69 57 52 58 55 59 68 60 86 61 53 62 54 63 67 65 87 66
REMARK SMILES IDX 56 67 41 68 42 69 50 70 43 71 49 72 44 73 45 74 46 75 47 76
REMARK SMILES IDX 48 77 71 78 72 79 80 80 73 81 79 82 74 83 75 84 76 85 77 86
REMARK SMILES IDX 78 87 57 88 58 89 66 90 59 91 65 92 60 93 61 94 62 95 63 96
REMARK SMILES IDX 64 97
REMARK H PARENT 22 7 29 34 85 53 55 64
REMARK Flexibility Score: inf
ROOT
ATOM      1  C   UNL A   1      31.230  27.810  25.651  1.00  0.00     0.002 C 
ENDROOT
BRANCH   1   2
ATOM      2  C   UNL A   1      31.029  28.860  24.548  1.00  0.00     0.021 C 
BRANCH   2   3
ATOM      3  C   UNL A   1      31.053  28.269  23.138  1.00  0.00     0.116 C 
BRANCH   3   4
ATOM      4  N   UNL A   1      32.286  28.631  22.461  1.00  0.00    -0.353 N 
ATOM      5  C   UNL A   1      33.479  27.990  22.360  1.00  0.00     0.243 C 
ATOM      6  O   UNL A   1      34.374  28.484  21.674  1.00  0.00    -0.270 OA
ATOM      7  H   UNL A   1      32.250  29.496  21.991  1.00  0.00     0.163 HD
BRANCH   5   8
ATOM      8  C   UNL A   1      33.697  26.662  22.975  1.00  0.00     0.072 C 
ATOM      9  C   UNL A   1      33.096  25.528  22.589  1.00  0.00     0.014 C 
BRANCH   9  10
ATOM     10  C   UNL A   1      33.331  24.211  23.196  1.00  0.00    -0.025 A 
ATOM     11  C   UNL A   1      34.885  22.739  24.388  1.00  0.00     0.001 A 
ATOM     12  C   UNL A   1      33.981  21.681  24.213  1.00  0.00     0.010 A 
ATOM     13  C   UNL A   1      34.539  24.001  23.877  1.00  0.00     0.018 A 
ATOM     14  C   UNL A   1      32.763  21.882  23.559  1.00  0.00     0.001 A 
ATOM     15  C   UNL A   1      32.441  23.142  23.049  1.00  0.00     0.008 A 
BRANCH  11  16
ATOM     16  C   UNL A   1      36.180  22.526  25.038  1.00  0.00     0.073 A 
ATOM     17  C   UNL A   1      37.834  20.952  25.556  1.00  0.00     0.129 A 
ATOM     18  C   UNL A   1      38.599  21.945  26.159  1.00  0.00     0.060 A 
ATOM     19  N   UNL A   1      36.637  21.251  25.005  1.00  0.00    -0.231 NA
ATOM     20  C   UNL A   1      38.150  23.272  26.172  1.00  0.00     0.061 A 
ATOM     21  C   UNL A   1      36.909  23.561  25.603  1.00  0.00     0.042 A 
BRANCH  17  22
ATOM     22  N   UNL A   1      38.299  19.651  25.463  1.00  0.00    -0.363 N 
ATOM     23  C   UNL A   1      37.479  18.631  24.839  1.00  0.00     0.144 C 
ATOM     24  C   UNL A   1      39.735  19.457  25.560  1.00  0.00     0.144 C 
ENDBRANCH  17  22
BRANCH  20  25
ATOM     25  C   UNL A   1      39.001  24.374  26.738  1.00  0.00     0.416 C 
ATOM     26  F   UNL A   1      38.392  25.587  26.644  1.00  0.00    -0.166 F 
ATOM     27  F   UNL A   1      39.271  24.188  28.059  1.00  0.00    -0.166 F 
ATOM     28  F   UNL A   1      40.207  24.504  26.121  1.00  0.00    -0.166 F 
ENDBRANCH  20  25
ENDBRANCH  11  16
ENDBRANCH   9  10
ENDBRANCH   5   8
ENDBRANCH   3   4
ENDBRANCH   2   3
ENDBRANCH   1   2
BRANCH   1  29
ATOM     29  C   UNL A   1      32.123  28.263  26.814  1.00  0.00     0.002 C 
BRANCH  29  30
ATOM     30  C   UNL A   1      33.601  27.889  26.676  1.00  0.00     0.021 C 
BRANCH  30  31
ATOM     31  C   UNL A   1      34.474  28.994  26.092  1.00  0.00     0.116 C 
BRANCH  31  32
ATOM     32  N   UNL A   1      33.994  30.313  26.475  1.00  0.00    -0.352 N 
ATOM     33  C   UNL A   1      34.373  31.098  27.537  1.00  0.00     0.251 C 
ATOM     34  H   UNL A   1      33.300  30.697  25.892  1.00  0.00     0.163 HD
ATOM     35  O   UNL A   1      33.693  32.068  27.855  1.00  0.00    -0.269 OA
BRANCH  33  36
ATOM     36  C   UNL A   1      35.595  30.760  28.295  1.00  0.00     0.039 A 
ATOM     37  C   UNL A   1      35.533  29.765  29.274  1.00  0.00     0.014 A 
ATOM     38  C   UNL A   1      36.794  31.433  28.048  1.00  0.00     0.014 A 
ATOM     39  C   UNL A   1      36.692  29.406  29.965  1.00  0.00     0.010 A 
ATOM     40  C   UNL A   1      37.961  31.023  28.686  1.00  0.00     0.010 A 
ATOM     41  C   UNL A   1      37.922  30.011  29.655  1.00  0.00    -0.014 A 
BRANCH  41  42
ATOM     42  C   UNL A   1      39.176  29.601  30.337  1.00  0.00     0.031 A 
ATOM     43  C   UNL A   1      39.631  30.324  31.576  1.00  0.00     0.074 A 
ATOM     44  C   UNL A   1      39.930  28.616  29.810  1.00  0.00     0.049 A 
ATOM     45  N   UNL A   1      40.727  30.157  32.272  1.00  0.00    -0.248 NA
ATOM     46  C   UNL A   1      38.752  31.389  32.089  1.00  0.00     0.031 C 
ATOM     47  C   UNL A   1      39.614  27.864  28.592  1.00  0.00     0.029 A 
ATOM     48  N   UNL A   1      41.125  28.083  30.225  1.00  0.00    -0.354 N 
ATOM     49  C   UNL A   1      40.671  31.093  33.298  1.00  0.00     0.074 A 
ATOM     50  C   UNL A   1      39.465  31.867  33.097  1.00  0.00     0.031 C 
ATOM     51  C   UNL A   1      40.576  26.954  28.375  1.00  0.00     0.029 A 
ATOM     52  C   UNL A   1      41.600  27.085  29.407  1.00  0.00     0.049 A 
ATOM     53  H   UNL A   1      41.598  28.388  31.033  1.00  0.00     0.167 HD
ATOM     54  C   UNL A   1      41.530  31.277  34.329  1.00  0.00     0.031 A 
ATOM     55  C   UNL A   1      42.736  26.365  29.472  1.00  0.00     0.031 A 
ATOM     56  C   UNL A   1      42.729  30.505  34.524  1.00  0.00     0.049 A 
ATOM     57  C   UNL A   1      43.695  26.614  30.606  1.00  0.00     0.074 A 
ATOM     58  C   UNL A   1      43.651  30.594  35.550  1.00  0.00     0.029 A 
ATOM     59  N   UNL A   1      43.171  29.501  33.675  1.00  0.00    -0.354 N 
ATOM     60  N   UNL A   1      43.595  27.469  31.597  1.00  0.00    -0.248 NA
ATOM     61  C   UNL A   1      44.913  25.793  30.637  1.00  0.00     0.031 C 
ATOM     62  C   UNL A   1      44.678  29.679  35.296  1.00  0.00     0.029 A 
ATOM     63  C   UNL A   1      44.363  28.976  34.144  1.00  0.00     0.049 A 
ATOM     64  H   UNL A   1      42.706  29.206  32.859  1.00  0.00     0.167 HD
ATOM     65  C   UNL A   1      44.722  27.265  32.386  1.00  0.00     0.074 A 
ATOM     66  C   UNL A   1      45.478  26.195  31.767  1.00  0.00     0.031 C 
ATOM     67  C   UNL A   1      45.099  27.905  33.521  1.00  0.00     0.031 A 
BRANCH  54  68
ATOM     68  C   UNL A   1      41.198  32.353  35.330  1.00  0.00    -0.014 A 
ATOM     69  C   UNL A   1      41.516  33.700  35.074  1.00  0.00     0.010 A 
ATOM     70  C   UNL A   1      40.518  32.026  36.517  1.00  0.00     0.010 A 
ATOM     71  C   UNL A   1      41.196  34.693  36.002  1.00  0.00     0.020 A 
ATOM     72  C   UNL A   1      40.170  33.022  37.436  1.00  0.00     0.020 A 
ATOM     73  C   UNL A   1      40.525  34.348  37.178  1.00  0.00     0.054 A 
BRANCH  73  74
ATOM     74  S   UNL A   1      40.098  35.663  38.351  1.00  0.00     0.124 S 
ATOM     75  O   UNL A   1      38.904  35.119  38.993  1.00  0.00    -0.237 OA
ATOM     76  O   UNL A   1      41.287  35.737  39.195  1.00  0.00    -0.237 OA
ATOM     77  O   UNL A   1      39.869  36.827  37.499  1.00  0.00    -0.744 OA
ENDBRANCH  73  74
ENDBRANCH  54  68
BRANCH  55  78
ATOM     78  C   UNL A   1      43.037  25.341  28.433  1.00  0.00    -0.014 A 
ATOM     79  C   UNL A   1      43.699  25.697  27.245  1.00  0.00     0.010 A 
ATOM     80  C   UNL A   1      42.646  24.002  28.620  1.00  0.00     0.010 A 
ATOM     81  C   UNL A   1      43.931  24.744  26.248  1.00  0.00     0.020 A 
ATOM     82  C   UNL A   1      42.906  23.039  27.641  1.00  0.00     0.020 A 
ATOM     83  C   UNL A   1      43.531  23.420  26.452  1.00  0.00     0.054 A 
BRANCH  83  84
ATOM     84  S   UNL A   1      43.859  22.197  25.154  1.00  0.00     0.124 S 
ATOM     85  O   UNL A   1      43.639  22.976  23.940  1.00  0.00    -0.237 OA
ATOM     86  O   UNL A   1      45.245  21.817  25.421  1.00  0.00    -0.237 OA
ATOM     87  O   UNL A   1      42.874  21.149  25.415  1.00  0.00    -0.744 OA
ENDBRANCH  83  84
ENDBRANCH  55  78
BRANCH  67  88
ATOM     88  C   UNL A   1      46.362  27.440  34.194  1.00  0.00    -0.014 A 
ATOM     89  C   UNL A   1      46.349  26.391  35.130  1.00  0.00     0.010 A 
ATOM     90  C   UNL A   1      47.591  28.028  33.842  1.00  0.00     0.010 A 
ATOM     91  C   UNL A   1      47.538  25.960  35.724  1.00  0.00     0.020 A 
ATOM     92  C   UNL A   1      48.786  27.579  34.410  1.00  0.00     0.020 A 
ATOM     93  C   UNL A   1      48.749  26.556  35.358  1.00  0.00     0.054 A 
BRANCH  93  94
ATOM     94  S   UNL A   1      50.284  25.945  36.108  1.00  0.00     0.124 S 
ATOM     95  O   UNL A   1      51.254  26.161  35.037  1.00  0.00    -0.237 OA
ATOM     96  O   UNL A   1      50.433  26.809  37.276  1.00  0.00    -0.237 OA
ATOM     97  O   UNL A   1      49.990  24.545  36.409  1.00  0.00    -0.744 OA
ENDBRANCH  93  94
ENDBRANCH  67  88
ENDBRANCH  41  42
ENDBRANCH  33  36
ENDBRANCH  31  32
ENDBRANCH  30  31
ENDBRANCH  29  30
ENDBRANCH   1  29
TORSDOF 20
ENDMDL
MODEL 3
REMARK VINA RESULT:     -10.4      3.770      9.850
REMARK SMILES CN(C)c1cc(C(F)(F)F)cc(-c2cccc(/C=C/C(=O)NCCCCCCNC(=O)c3ccc(-c4c5nc(c(-c6ccc(S(=O)(=O)[O-])cc6)c6ccc([nH]6)c(-c6ccc(S(=O)(=O)[O-])cc6)c6nc(c(-c7ccc(S(=O)(=O)[O-])cc7)c7ccc4[nH]7)C=C6)C=C5)cc3)c2)n1
REMARK SMILES IDX 25 1 24 2 23 3 22 4 20 5 21 6 19 8 18 9 17 10 13 11 14 12
REMARK SMILES IDX 92 13 15 14 16 15 12 16 4 17 5 18 93 19 6 20 11 21 2 22 1 23
REMARK SMILES IDX 3 24 7 25 8 26 9 27 10 28 26 29 27 30 28 31 29 32 30 33
REMARK SMILES IDX 31 35 32 36 33 37 91 38 34 39 90 40 35 41 36 42 37 43 84 44
REMARK SMILES IDX 38 45 89 46 83 47 85 48 39 49 88 50 82 51 81 52 40 54 70 55
REMARK SMILES IDX 51 56 69 57 52 58 55 59 68 60 86 61 53 62 54 63 67 65 87 66
REMARK SMILES IDX 56 67 41 68 42 69 50 70 43 71 49 72 44 73 45 74 46 75 47 76
REMARK SMILES IDX 48 77 71 78 72 79 80 80 73 81 79 82 74 83 75 84 76 85 77 86
REMARK SMILES IDX 78 87 57 88 58 89 66 90 59 91 65 92 60 93 61 94 62 95 63 96
REMARK SMILES IDX 64 97
REMARK H PARENT 22 7 29 34 85 53 55 64
REMARK Flexibility Score: inf
ROOT
ATOM      1  C   UNL A   1      35.749  23.019  26.180  1.00  0.00     0.002 C 
ENDROOT
BRANCH   1   2
ATOM      2  C   UNL A   1      34.754  23.669  25.208  1.00  0.00     0.021 C 
BRANCH   2   3
ATOM      3  C   UNL A   1      33.573  22.764  24.854  1.00  0.00     0.116 C 
BRANCH   3   4
ATOM      4  N   UNL A   1      32.640  22.694  25.965  1.00  0.00    -0.353 N 
ATOM      5  C   UNL A   1      32.066  23.664  26.720  1.00  0.00     0.243 C 
ATOM      6  O   UNL A   1      31.251  23.352  27.588  1.00  0.00    -0.270 OA
ATOM      7  H   UNL A   1      32.377  21.778  26.215  1.00  0.00     0.163 HD
BRANCH   5   8
ATOM      8  C   UNL A   1      32.321  25.099  26.459  1.00  0.00     0.072 C 
ATOM      9  C   UNL A   1      31.452  25.942  25.885  1.00  0.00     0.014 C 
BRANCH   9  10
ATOM     10  C   UNL A   1      31.710  27.368  25.644  1.00  0.00    -0.025 A 
ATOM     11  C   UNL A   1      33.020  29.354  26.231  1.00  0.00     0.001 A 
ATOM     12  C   UNL A   1      32.167  30.125  25.428  1.00  0.00     0.010 A 
ATOM     13  C   UNL A   1      32.778  27.973  26.323  1.00  0.00     0.018 A 
ATOM     14  C   UNL A   1      31.115  29.532  24.727  1.00  0.00     0.001 A 
ATOM     15  C   UNL A   1      30.884  28.160  24.838  1.00  0.00     0.008 A 
BRANCH  11  16
ATOM     16  C   UNL A   1      34.101  29.975  26.999  1.00  0.00     0.073 A 
ATOM     17  C   UNL A   1      34.775  31.889  28.166  1.00  0.00     0.129 A 
ATOM     18  C   UNL A   1      35.982  31.278  28.485  1.00  0.00     0.060 A 
ATOM     19  N   UNL A   1      33.850  31.235  27.429  1.00  0.00    -0.231 NA
ATOM     20  C   UNL A   1      36.240  29.965  28.071  1.00  0.00     0.061 A 
ATOM     21  C   UNL A   1      35.276  29.306  27.306  1.00  0.00     0.042 A 
BRANCH  17  22
ATOM     22  N   UNL A   1      34.471  33.156  28.635  1.00  0.00    -0.363 N 
ATOM     23  C   UNL A   1      33.299  33.851  28.139  1.00  0.00     0.144 C 
ATOM     24  C   UNL A   1      35.047  33.541  29.911  1.00  0.00     0.144 C 
ENDBRANCH  17  22
BRANCH  20  25
ATOM     25  C   UNL A   1      37.499  29.254  28.481  1.00  0.00     0.416 C 
ATOM     26  F   UNL A   1      38.615  29.918  28.072  1.00  0.00    -0.166 F 
ATOM     27  F   UNL A   1      37.606  29.136  29.833  1.00  0.00    -0.166 F 
ATOM     28  F   UNL A   1      37.603  27.993  27.982  1.00  0.00    -0.166 F 
ENDBRANCH  20  25
ENDBRANCH  11  16
ENDBRANCH   9  10
ENDBRANCH   5   8
ENDBRANCH   3   4
ENDBRANCH   2   3
ENDBRANCH   1   2
BRANCH   1  29
ATOM     29  C   UNL A   1      36.401  21.729  25.665  1.00  0.00     0.002 C 
BRANCH  29  30
ATOM     30  C   UNL A   1      37.812  21.901  25.098  1.00  0.00     0.021 C 
BRANCH  30  31
ATOM     31  C   UNL A   1      38.894  22.085  26.156  1.00  0.00     0.116 C 
BRANCH  31  32
ATOM     32  N   UNL A   1      39.762  20.921  26.242  1.00  0.00    -0.352 N 
ATOM     33  C   UNL A   1      41.127  20.865  26.378  1.00  0.00     0.251 C 
ATOM     34  H   UNL A   1      39.305  20.050  26.195  1.00  0.00     0.163 HD
ATOM     35  O   UNL A   1      41.720  19.810  26.183  1.00  0.00    -0.269 OA
BRANCH  33  36
ATOM     36  C   UNL A   1      41.874  22.085  26.749  1.00  0.00     0.039 A 
ATOM     37  C   UNL A   1      42.158  23.034  25.764  1.00  0.00     0.014 A 
ATOM     38  C   UNL A   1      42.301  22.284  28.065  1.00  0.00     0.014 A 
ATOM     39  C   UNL A   1      42.824  24.210  26.113  1.00  0.00     0.010 A 
ATOM     40  C   UNL A   1      42.898  23.489  28.423  1.00  0.00     0.010 A 
ATOM     41  C   UNL A   1      43.171  24.462  27.451  1.00  0.00    -0.014 A 
BRANCH  41  42
ATOM     42  C   UNL A   1      43.826  25.733  27.852  1.00  0.00     0.031 A 
ATOM     43  C   UNL A   1      45.291  25.946  27.579  1.00  0.00     0.074 A 
ATOM     44  C   UNL A   1      43.114  26.671  28.509  1.00  0.00     0.049 A 
ATOM     45  N   UNL A   1      46.052  26.957  27.911  1.00  0.00    -0.248 NA
ATOM     46  C   UNL A   1      45.998  24.874  26.858  1.00  0.00     0.031 C 
ATOM     47  C   UNL A   1      41.696  26.566  28.864  1.00  0.00     0.029 A 
ATOM     48  N   UNL A   1      43.489  27.895  29.004  1.00  0.00    -0.354 N 
ATOM     49  C   UNL A   1      47.323  26.643  27.445  1.00  0.00     0.074 A 
ATOM     50  C   UNL A   1      47.245  25.320  26.862  1.00  0.00     0.031 C 
ATOM     51  C   UNL A   1      41.317  27.687  29.496  1.00  0.00     0.029 A 
ATOM     52  C   UNL A   1      42.470  28.571  29.635  1.00  0.00     0.049 A 
ATOM     53  H   UNL A   1      44.401  28.255  28.917  1.00  0.00     0.167 HD
ATOM     54  C   UNL A   1      48.450  27.395  27.474  1.00  0.00     0.031 A 
ATOM     55  C   UNL A   1      42.467  29.763  30.263  1.00  0.00     0.031 A 
ATOM     56  C   UNL A   1      48.523  28.710  28.055  1.00  0.00     0.049 A 
ATOM     57  C   UNL A   1      43.741  30.563  30.317  1.00  0.00     0.074 A 
ATOM     58  C   UNL A   1      49.609  29.565  28.111  1.00  0.00     0.029 A 
ATOM     59  N   UNL A   1      47.469  29.360  28.679  1.00  0.00    -0.354 N 
ATOM     60  N   UNL A   1      44.920  30.271  29.821  1.00  0.00    -0.248 NA
ATOM     61  C   UNL A   1      43.680  31.861  31.003  1.00  0.00     0.031 C 
ATOM     62  C   UNL A   1      49.226  30.712  28.814  1.00  0.00     0.029 A 
ATOM     63  C   UNL A   1      47.883  30.598  29.140  1.00  0.00     0.049 A 
ATOM     64  H   UNL A   1      46.561  28.995  28.779  1.00  0.00     0.167 HD
ATOM     65  C   UNL A   1      45.732  31.362  30.109  1.00  0.00     0.074 A 
ATOM     66  C   UNL A   1      44.906  32.327  30.805  1.00  0.00     0.031 C 
ATOM     67  C   UNL A   1      47.045  31.550  29.824  1.00  0.00     0.031 A 
BRANCH  54  68
ATOM     68  C   UNL A   1      49.693  26.814  26.852  1.00  0.00    -0.014 A 
ATOM     69  C   UNL A   1      50.030  27.095  25.516  1.00  0.00     0.010 A 
ATOM     70  C   UNL A   1      50.560  26.018  27.622  1.00  0.00     0.010 A 
ATOM     71  C   UNL A   1      51.189  26.560  24.949  1.00  0.00     0.020 A 
ATOM     72  C   UNL A   1      51.737  25.505  27.067  1.00  0.00     0.020 A 
ATOM     73  C   UNL A   1      52.036  25.767  25.728  1.00  0.00     0.054 A 
BRANCH  73  74
ATOM     74  S   UNL A   1      53.548  25.111  24.973  1.00  0.00     0.124 S 
ATOM     75  O   UNL A   1      54.588  25.792  25.740  1.00  0.00    -0.237 OA
ATOM     76  O   UNL A   1      53.428  23.676  25.213  1.00  0.00    -0.237 OA
ATOM     77  O   UNL A   1      53.441  25.516  23.573  1.00  0.00    -0.744 OA
ENDBRANCH  73  74
ENDBRANCH  54  68
BRANCH  55  78
ATOM     78  C   UNL A   1      41.220  30.273  30.898  1.00  0.00    -0.014 A 
ATOM     79  C   UNL A   1      40.825  29.820  32.168  1.00  0.00     0.010 A 
ATOM     80  C   UNL A   1      40.410  31.207  30.224  1.00  0.00     0.010 A 
ATOM     81  C   UNL A   1      39.625  30.261  32.738  1.00  0.00     0.020 A 
ATOM     82  C   UNL A   1      39.228  31.675  30.805  1.00  0.00     0.020 A 
ATOM     83  C   UNL A   1      38.833  31.185  32.050  1.00  0.00     0.054 A 
BRANCH  83  84
ATOM     84  S   UNL A   1      37.292  31.758  32.816  1.00  0.00     0.124 S 
ATOM     85  O   UNL A   1      37.362  33.199  32.595  1.00  0.00    -0.237 OA
ATOM     86  O   UNL A   1      36.274  31.048  32.045  1.00  0.00    -0.237 OA
ATOM     87  O   UNL A   1      37.421  31.329  34.207  1.00  0.00    -0.744 OA
ENDBRANCH  83  84
ENDBRANCH  55  78
BRANCH  67  88
ATOM     88  C   UNL A   1      47.661  32.865  30.224  1.00  0.00    -0.014 A 
ATOM     89  C   UNL A   1      48.334  33.015  31.448  1.00  0.00     0.010 A 
ATOM     90  C   UNL A   1      47.612  33.951  29.330  1.00  0.00     0.010 A 
ATOM     91  C   UNL A   1      48.920  34.238  31.786  1.00  0.00     0.020 A 
ATOM     92  C   UNL A   1      48.224  35.166  29.651  1.00  0.00     0.020 A 
ATOM     93  C   UNL A   1      48.863  35.305  30.884  1.00  0.00     0.054 A 
BRANCH  93  94
ATOM     94  S   UNL A   1      49.673  36.866  31.327  1.00  0.00     0.124 S 
ATOM     95  O   UNL A   1      50.084  37.377  30.021  1.00  0.00    -0.237 OA
ATOM     96  O   UNL A   1      48.599  37.607  31.983  1.00  0.00    -0.237 OA
ATOM     97  O   UNL A   1      50.765  36.453  32.206  1.00  0.00    -0.744 OA
ENDBRANCH  93  94
ENDBRANCH  67  88
ENDBRANCH  41  42
ENDBRANCH  33  36
ENDBRANCH  31  32
ENDBRANCH  30  31
ENDBRANCH  29  30
ENDBRANCH   1  29
TORSDOF 20
ENDMDL
