MODEL 1
REMARK VINA RESULT:     -11.6      0.000      0.000
REMARK SMILES Cc1ccc(S(=O)(=O)Nc2cccc(F)c2C(=O)NCCCCCCNC(=O)c2ccc(-c3c4nc(c(-c5ccc(S(=O)(=O)[O-])cc5)c5ccc([nH]5)c(-c5ccc(S(=O)(=O)[O-])cc5)c5nc(c(-c6ccc(S(=O)(=O)[O-])cc6)c6ccc3[nH]6)C=C5)C=C4)cc2)cc1Cl
REMARK SMILES IDX 22 1 21 2 20 3 19 4 17 5 18 6 16 8 10 9 11 10 12 11 14 12
REMARK SMILES IDX 13 13 15 14 9 15 6 17 7 18 8 19 5 20 1 21 2 22 3 23 90 24
REMARK SMILES IDX 4 25 89 26 91 27 23 28 24 29 25 30 26 31 27 32 28 34 29 35
REMARK SMILES IDX 30 36 88 37 31 38 87 39 32 40 33 41 34 42 81 43 35 44 86 45
REMARK SMILES IDX 80 46 82 47 36 48 85 49 79 50 78 51 37 53 67 54 48 55 66 56
REMARK SMILES IDX 49 57 52 58 65 59 83 60 50 61 51 62 64 64 84 65 53 66 38 67
REMARK SMILES IDX 39 68 47 69 40 70 46 71 41 72 42 73 43 74 44 75 45 76 68 77
REMARK SMILES IDX 69 78 77 79 70 80 76 81 71 82 72 83 73 84 74 85 75 86 54 87
REMARK SMILES IDX 55 88 63 89 56 90 62 91 57 92 58 93 59 94 60 95 61 96
REMARK H PARENT 19 7 9 16 26 33 82 52 52 63
REMARK Flexibility Score: inf
ROOT
ATOM      1  C   UNL A   1      39.252  21.935  26.162  1.00  0.00     0.002 C 
ENDROOT
BRANCH   1   2
ATOM      2  C   UNL A   1      38.695  23.314  26.522  1.00  0.00     0.021 C 
BRANCH   2   3
ATOM      3  C   UNL A   1      37.372  23.727  25.884  1.00  0.00     0.116 C 
BRANCH   3   4
ATOM      4  N   UNL A   1      37.296  23.498  24.454  1.00  0.00    -0.352 N 
ATOM      5  C   UNL A   1      36.306  22.953  23.673  1.00  0.00     0.256 C 
ATOM      6  O   UNL A   1      36.487  22.949  22.452  1.00  0.00    -0.269 OA
ATOM      7  H   UNL A   1      38.096  23.783  23.955  1.00  0.00     0.163 HD
BRANCH   5   8
ATOM      8  C   UNL A   1      35.087  22.284  24.209  1.00  0.00     0.099 A 
ATOM      9  C   UNL A   1      33.844  22.969  24.185  1.00  0.00     0.065 A 
ATOM     10  C   UNL A   1      32.661  22.295  24.511  1.00  0.00     0.028 A 
ATOM     11  C   UNL A   1      32.717  21.002  25.030  1.00  0.00     0.005 A 
ATOM     12  C   UNL A   1      35.123  21.044  24.841  1.00  0.00     0.138 A 
ATOM     13  C   UNL A   1      33.953  20.398  25.241  1.00  0.00     0.040 A 
ATOM     14  F   UNL A   1      36.287  20.468  25.172  1.00  0.00    -0.206 F 
BRANCH   9  15
ATOM     15  N   UNL A   1      33.818  24.380  23.927  1.00  0.00    -0.279 N 
ATOM     16  H   UNL A   1      34.246  24.985  24.577  1.00  0.00     0.180 HD
BRANCH  15  17
ATOM     17  S   UNL A   1      33.089  25.050  22.560  1.00  0.00     0.261 S 
ATOM     18  O   UNL A   1      32.604  23.935  21.764  1.00  0.00    -0.201 OA
ATOM     19  O   UNL A   1      34.036  25.991  22.011  1.00  0.00    -0.201 OA
BRANCH  17  20
ATOM     20  C   UNL A   1      31.640  25.996  23.000  1.00  0.00     0.089 A 
ATOM     21  C   UNL A   1      27.949  28.217  23.311  1.00  0.00     0.046 C 
ATOM     22  C   UNL A   1      29.261  27.486  23.228  1.00  0.00    -0.032 A 
ATOM     23  C   UNL A   1      29.384  26.223  23.831  1.00  0.00     0.006 A 
ATOM     24  C   UNL A   1      30.389  28.038  22.606  1.00  0.00     0.045 A 
ATOM     25  C   UNL A   1      30.580  25.498  23.752  1.00  0.00     0.022 A 
ATOM     26  C   UNL A   1      31.559  27.289  22.467  1.00  0.00     0.043 A 
ATOM     27  Cl  UNL A   1      30.385  29.647  21.976  1.00  0.00    -0.084 Cl
ENDBRANCH  17  20
ENDBRANCH  15  17
ENDBRANCH   9  15
ENDBRANCH   5   8
ENDBRANCH   3   4
ENDBRANCH   2   3
ENDBRANCH   1   2
BRANCH   1  28
ATOM     28  C   UNL A   1      40.636  21.573  26.702  1.00  0.00     0.002 C 
BRANCH  28  29
ATOM     29  C   UNL A   1      41.258  22.525  27.725  1.00  0.00     0.021 C 
BRANCH  29  30
ATOM     30  C   UNL A   1      42.417  23.392  27.238  1.00  0.00     0.116 C 
BRANCH  30  31
ATOM     31  N   UNL A   1      42.060  24.261  26.131  1.00  0.00    -0.352 N 
ATOM     32  C   UNL A   1      41.583  25.550  26.144  1.00  0.00     0.251 C 
ATOM     33  H   UNL A   1      42.179  23.867  25.236  1.00  0.00     0.163 HD
ATOM     34  O   UNL A   1      41.240  26.079  25.090  1.00  0.00    -0.269 OA
BRANCH  32  35
ATOM     35  C   UNL A   1      41.446  26.295  27.419  1.00  0.00     0.039 A 
ATOM     36  C   UNL A   1      42.430  27.230  27.755  1.00  0.00     0.014 A 
ATOM     37  C   UNL A   1      40.375  26.071  28.289  1.00  0.00     0.014 A 
ATOM     38  C   UNL A   1      42.302  27.992  28.920  1.00  0.00     0.010 A 
ATOM     39  C   UNL A   1      40.218  26.873  29.421  1.00  0.00     0.010 A 
ATOM     40  C   UNL A   1      41.175  27.847  29.746  1.00  0.00    -0.014 A 
BRANCH  40  41
ATOM     41  C   UNL A   1      40.970  28.719  30.932  1.00  0.00     0.031 A 
ATOM     42  C   UNL A   1      39.899  29.776  30.930  1.00  0.00     0.074 A 
ATOM     43  C   UNL A   1      41.795  28.603  31.993  1.00  0.00     0.049 A 
ATOM     44  N   UNL A   1      39.622  30.670  31.844  1.00  0.00    -0.248 NA
ATOM     45  C   UNL A   1      39.041  29.850  29.737  1.00  0.00     0.031 C 
ATOM     46  C   UNL A   1      42.896  27.644  32.109  1.00  0.00     0.029 A 
ATOM     47  N   UNL A   1      41.844  29.306  33.171  1.00  0.00    -0.354 N 
ATOM     48  C   UNL A   1      38.572  31.424  31.333  1.00  0.00     0.074 A 
ATOM     49  C   UNL A   1      38.287  30.905  30.012  1.00  0.00     0.031 C 
ATOM     50  C   UNL A   1      43.498  27.807  33.299  1.00  0.00     0.029 A 
ATOM     51  C   UNL A   1      42.854  28.905  34.014  1.00  0.00     0.049 A 
ATOM     52  H   UNL A   1      41.214  30.030  33.394  1.00  0.00     0.167 HD
ATOM     53  C   UNL A   1      37.897  32.445  31.914  1.00  0.00     0.031 A 
ATOM     54  C   UNL A   1      43.230  29.370  35.221  1.00  0.00     0.031 A 
ATOM     55  C   UNL A   1      38.172  32.955  33.231  1.00  0.00     0.049 A 
ATOM     56  C   UNL A   1      42.470  30.509  35.842  1.00  0.00     0.074 A 
ATOM     57  C   UNL A   1      37.506  33.952  33.925  1.00  0.00     0.029 A 
ATOM     58  N   UNL A   1      39.196  32.512  34.055  1.00  0.00    -0.354 N 
ATOM     59  N   UNL A   1      41.444  31.171  35.363  1.00  0.00    -0.248 NA
ATOM     60  C   UNL A   1      42.912  30.957  37.170  1.00  0.00     0.031 C 
ATOM     61  C   UNL A   1      38.154  34.141  35.150  1.00  0.00     0.029 A 
ATOM     62  C   UNL A   1      39.194  33.229  35.240  1.00  0.00     0.049 A 
ATOM     63  H   UNL A   1      39.829  31.793  33.830  1.00  0.00     0.167 HD
ATOM     64  C   UNL A   1      41.104  32.099  36.341  1.00  0.00     0.074 A 
ATOM     65  C   UNL A   1      42.024  31.903  37.443  1.00  0.00     0.031 C 
ATOM     66  C   UNL A   1      40.118  33.027  36.327  1.00  0.00     0.031 A 
BRANCH  53  67
ATOM     67  C   UNL A   1      36.792  33.088  31.117  1.00  0.00    -0.014 A 
ATOM     68  C   UNL A   1      37.060  33.752  29.907  1.00  0.00     0.010 A 
ATOM     69  C   UNL A   1      35.460  32.991  31.563  1.00  0.00     0.010 A 
ATOM     70  C   UNL A   1      36.025  34.346  29.180  1.00  0.00     0.020 A 
ATOM     71  C   UNL A   1      34.419  33.562  30.825  1.00  0.00     0.020 A 
ATOM     72  C   UNL A   1      34.711  34.252  29.647  1.00  0.00     0.054 A 
BRANCH  72  73
ATOM     73  S   UNL A   1      33.384  35.019  28.676  1.00  0.00     0.124 S 
ATOM     74  O   UNL A   1      34.134  35.923  27.807  1.00  0.00    -0.237 OA
ATOM     75  O   UNL A   1      32.768  33.874  28.011  1.00  0.00    -0.237 OA
ATOM     76  O   UNL A   1      32.551  35.672  29.683  1.00  0.00    -0.744 OA
ENDBRANCH  72  73
ENDBRANCH  53  67
BRANCH  54  77
ATOM     77  C   UNL A   1      44.383  28.750  35.927  1.00  0.00    -0.014 A 
ATOM     78  C   UNL A   1      45.692  29.206  35.693  1.00  0.00     0.010 A 
ATOM     79  C   UNL A   1      44.175  27.707  36.850  1.00  0.00     0.010 A 
ATOM     80  C   UNL A   1      46.774  28.624  36.359  1.00  0.00     0.020 A 
ATOM     81  C   UNL A   1      45.252  27.141  37.536  1.00  0.00     0.020 A 
ATOM     82  C   UNL A   1      46.547  27.595  37.278  1.00  0.00     0.054 A 
BRANCH  82  83
ATOM     83  S   UNL A   1      47.958  26.893  38.177  1.00  0.00     0.124 S 
ATOM     84  O   UNL A   1      48.475  28.057  38.888  1.00  0.00    -0.237 OA
ATOM     85  O   UNL A   1      47.327  25.870  39.009  1.00  0.00    -0.237 OA
ATOM     86  O   UNL A   1      48.815  26.375  37.112  1.00  0.00    -0.744 OA
ENDBRANCH  82  83
ENDBRANCH  54  77
BRANCH  66  87
ATOM     87  C   UNL A   1      39.962  33.889  37.551  1.00  0.00    -0.014 A 
ATOM     88  C   UNL A   1      40.670  35.097  37.684  1.00  0.00     0.010 A 
ATOM     89  C   UNL A   1      39.057  33.508  38.559  1.00  0.00     0.010 A 
ATOM     90  C   UNL A   1      40.498  35.894  38.820  1.00  0.00     0.020 A 
ATOM     91  C   UNL A   1      38.865  34.315  39.684  1.00  0.00     0.020 A 
ATOM     92  C   UNL A   1      39.598  35.496  39.813  1.00  0.00     0.054 A 
BRANCH  92  93
ATOM     93  S   UNL A   1      39.359  36.568  41.257  1.00  0.00     0.124 S 
ATOM     94  O   UNL A   1      40.709  36.637  41.810  1.00  0.00    -0.237 OA
ATOM     95  O   UNL A   1      38.860  37.805  40.662  1.00  0.00    -0.237 OA
ATOM     96  O   UNL A   1      38.388  35.840  42.072  1.00  0.00    -0.744 OA
ENDBRANCH  92  93
ENDBRANCH  66  87
ENDBRANCH  40  41
ENDBRANCH  32  35
ENDBRANCH  30  31
ENDBRANCH  29  30
ENDBRANCH  28  29
ENDBRANCH   1  28
TORSDOF 19
ENDMDL
MODEL 2
REMARK VINA RESULT:     -11.6      6.305     11.724
REMARK SMILES Cc1ccc(S(=O)(=O)Nc2cccc(F)c2C(=O)NCCCCCCNC(=O)c2ccc(-c3c4nc(c(-c5ccc(S(=O)(=O)[O-])cc5)c5ccc([nH]5)c(-c5ccc(S(=O)(=O)[O-])cc5)c5nc(c(-c6ccc(S(=O)(=O)[O-])cc6)c6ccc3[nH]6)C=C5)C=C4)cc2)cc1Cl
REMARK SMILES IDX 22 1 21 2 20 3 19 4 17 5 18 6 16 8 10 9 11 10 12 11 14 12
REMARK SMILES IDX 13 13 15 14 9 15 6 17 7 18 8 19 5 20 1 21 2 22 3 23 90 24
REMARK SMILES IDX 4 25 89 26 91 27 23 28 24 29 25 30 26 31 27 32 28 34 29 35
REMARK SMILES IDX 30 36 88 37 31 38 87 39 32 40 33 41 34 42 81 43 35 44 86 45
REMARK SMILES IDX 80 46 82 47 36 48 85 49 79 50 78 51 37 53 67 54 48 55 66 56
REMARK SMILES IDX 49 57 52 58 65 59 83 60 50 61 51 62 64 64 84 65 53 66 38 67
REMARK SMILES IDX 39 68 47 69 40 70 46 71 41 72 42 73 43 74 44 75 45 76 68 77
REMARK SMILES IDX 69 78 77 79 70 80 76 81 71 82 72 83 73 84 74 85 75 86 54 87
REMARK SMILES IDX 55 88 63 89 56 90 62 91 57 92 58 93 59 94 60 95 61 96
REMARK H PARENT 19 7 9 16 26 33 82 52 52 63
REMARK Flexibility Score: inf
ROOT
ATOM      1  C   UNL A   1      34.691  31.069  27.773  1.00  0.00     0.002 C 
ENDROOT
BRANCH   1   2
ATOM      2  C   UNL A   1      35.303  29.718  27.397  1.00  0.00     0.021 C 
BRANCH   2   3
ATOM      3  C   UNL A   1      34.380  28.673  26.778  1.00  0.00     0.116 C 
BRANCH   3   4
ATOM      4  N   UNL A   1      33.190  28.386  27.556  1.00  0.00    -0.352 N 
ATOM      5  C   UNL A   1      31.895  28.132  27.175  1.00  0.00     0.256 C 
ATOM      6  O   UNL A   1      31.089  27.845  28.064  1.00  0.00    -0.269 OA
ATOM      7  H   UNL A   1      33.336  28.372  28.530  1.00  0.00     0.163 HD
BRANCH   5   8
ATOM      8  C   UNL A   1      31.387  28.278  25.781  1.00  0.00     0.099 A 
ATOM      9  C   UNL A   1      31.125  27.119  25.006  1.00  0.00     0.065 A 
ATOM     10  C   UNL A   1      30.476  27.229  23.769  1.00  0.00     0.028 A 
ATOM     11  C   UNL A   1      30.245  28.487  23.214  1.00  0.00     0.005 A 
ATOM     12  C   UNL A   1      31.255  29.513  25.151  1.00  0.00     0.138 A 
ATOM     13  C   UNL A   1      30.681  29.626  23.885  1.00  0.00     0.040 A 
ATOM     14  F   UNL A   1      31.758  30.628  25.700  1.00  0.00    -0.206 F 
BRANCH   9  15
ATOM     15  N   UNL A   1      31.619  25.846  25.445  1.00  0.00    -0.279 N 
ATOM     16  H   UNL A   1      31.048  25.296  26.029  1.00  0.00     0.180 HD
BRANCH  15  17
ATOM     17  S   UNL A   1      33.136  25.249  25.007  1.00  0.00     0.261 S 
ATOM     18  O   UNL A   1      33.886  25.085  26.241  1.00  0.00    -0.201 OA
ATOM     19  O   UNL A   1      33.625  26.107  23.955  1.00  0.00    -0.201 OA
BRANCH  17  20
ATOM     20  C   UNL A   1      33.005  23.614  24.301  1.00  0.00     0.089 A 
ATOM     21  C   UNL A   1      32.485  19.442  23.314  1.00  0.00     0.046 C 
ATOM     22  C   UNL A   1      32.717  20.893  23.635  1.00  0.00    -0.032 A 
ATOM     23  C   UNL A   1      31.831  21.859  23.129  1.00  0.00     0.006 A 
ATOM     24  C   UNL A   1      33.817  21.328  24.387  1.00  0.00     0.045 A 
ATOM     25  C   UNL A   1      31.996  23.217  23.428  1.00  0.00     0.022 A 
ATOM     26  C   UNL A   1      33.944  22.672  24.742  1.00  0.00     0.043 A 
ATOM     27  Cl  UNL A   1      35.046  20.237  24.918  1.00  0.00    -0.084 Cl
ENDBRANCH  17  20
ENDBRANCH  15  17
ENDBRANCH   9  15
ENDBRANCH   5   8
ENDBRANCH   3   4
ENDBRANCH   2   3
ENDBRANCH   1   2
BRANCH   1  28
ATOM     28  C   UNL A   1      35.630  32.275  27.833  1.00  0.00     0.002 C 
BRANCH  28  29
ATOM     29  C   UNL A   1      35.510  33.192  29.051  1.00  0.00     0.021 C 
BRANCH  29  30
ATOM     30  C   UNL A   1      36.460  32.915  30.213  1.00  0.00     0.116 C 
BRANCH  30  31
ATOM     31  N   UNL A   1      36.060  31.779  31.025  1.00  0.00    -0.352 N 
ATOM     32  C   UNL A   1      36.706  30.586  31.246  1.00  0.00     0.251 C 
ATOM     33  H   UNL A   1      35.197  31.880  31.487  1.00  0.00     0.163 HD
ATOM     34  O   UNL A   1      36.144  29.704  31.890  1.00  0.00    -0.269 OA
BRANCH  32  35
ATOM     35  C   UNL A   1      38.058  30.341  30.686  1.00  0.00     0.039 A 
ATOM     36  C   UNL A   1      39.132  30.205  31.571  1.00  0.00     0.014 A 
ATOM     37  C   UNL A   1      38.279  30.260  29.308  1.00  0.00     0.014 A 
ATOM     38  C   UNL A   1      40.410  29.915  31.081  1.00  0.00     0.010 A 
ATOM     39  C   UNL A   1      39.540  29.912  28.824  1.00  0.00     0.010 A 
ATOM     40  C   UNL A   1      40.618  29.729  29.705  1.00  0.00    -0.014 A 
BRANCH  40  41
ATOM     41  C   UNL A   1      41.946  29.318  29.174  1.00  0.00     0.031 A 
ATOM     42  C   UNL A   1      43.058  30.321  29.036  1.00  0.00     0.074 A 
ATOM     43  C   UNL A   1      42.130  28.050  28.754  1.00  0.00     0.049 A 
ATOM     44  N   UNL A   1      44.255  30.160  28.531  1.00  0.00    -0.248 NA
ATOM     45  C   UNL A   1      42.785  31.687  29.508  1.00  0.00     0.031 C 
ATOM     46  C   UNL A   1      41.123  26.987  28.799  1.00  0.00     0.029 A 
ATOM     47  N   UNL A   1      43.226  27.442  28.194  1.00  0.00    -0.354 N 
ATOM     48  C   UNL A   1      44.871  31.404  28.607  1.00  0.00     0.074 A 
ATOM     49  C   UNL A   1      43.902  32.318  29.173  1.00  0.00     0.031 C 
ATOM     50  C   UNL A   1      41.654  25.856  28.306  1.00  0.00     0.029 A 
ATOM     51  C   UNL A   1      43.023  26.120  27.874  1.00  0.00     0.049 A 
ATOM     52  H   UNL A   1      44.079  27.908  28.036  1.00  0.00     0.167 HD
ATOM     53  C   UNL A   1      46.132  31.752  28.253  1.00  0.00     0.031 A 
ATOM     54  C   UNL A   1      43.838  25.220  27.290  1.00  0.00     0.031 A 
ATOM     55  C   UNL A   1      47.100  30.842  27.700  1.00  0.00     0.049 A 
ATOM     56  C   UNL A   1      45.231  25.632  26.899  1.00  0.00     0.074 A 
ATOM     57  C   UNL A   1      48.419  31.090  27.359  1.00  0.00     0.029 A 
ATOM     58  N   UNL A   1      46.856  29.509  27.404  1.00  0.00    -0.354 N 
ATOM     59  N   UNL A   1      45.811  26.801  27.032  1.00  0.00    -0.248 NA
ATOM     60  C   UNL A   1      46.081  24.601  26.289  1.00  0.00     0.031 C 
ATOM     61  C   UNL A   1      48.960  29.920  26.817  1.00  0.00     0.029 A 
ATOM     62  C   UNL A   1      47.993  28.928  26.865  1.00  0.00     0.049 A 
ATOM     63  H   UNL A   1      46.001  29.044  27.555  1.00  0.00     0.167 HD
ATOM     64  C   UNL A   1      47.102  26.639  26.541  1.00  0.00     0.074 A 
ATOM     65  C   UNL A   1      47.221  25.257  26.123  1.00  0.00     0.031 C 
ATOM     66  C   UNL A   1      48.097  27.553  26.448  1.00  0.00     0.031 A 
BRANCH  53  67
ATOM     67  C   UNL A   1      46.535  33.190  28.446  1.00  0.00    -0.014 A 
ATOM     68  C   UNL A   1      47.251  33.596  29.587  1.00  0.00     0.010 A 
ATOM     69  C   UNL A   1      46.231  34.141  27.454  1.00  0.00     0.010 A 
ATOM     70  C   UNL A   1      47.616  34.935  29.754  1.00  0.00     0.020 A 
ATOM     71  C   UNL A   1      46.618  35.476  27.607  1.00  0.00     0.020 A 
ATOM     72  C   UNL A   1      47.292  35.867  28.765  1.00  0.00     0.054 A 
BRANCH  72  73
ATOM     73  S   UNL A   1      47.791  37.596  29.000  1.00  0.00     0.124 S 
ATOM     74  O   UNL A   1      46.544  38.307  28.731  1.00  0.00    -0.237 OA
ATOM     75  O   UNL A   1      48.237  37.616  30.391  1.00  0.00    -0.237 OA
ATOM     76  O   UNL A   1      48.846  37.790  28.009  1.00  0.00    -0.744 OA
ENDBRANCH  72  73
ENDBRANCH  53  67
BRANCH  54  77
ATOM     77  C   UNL A   1      43.358  23.834  27.048  1.00  0.00    -0.014 A 
ATOM     78  C   UNL A   1      43.294  22.907  28.102  1.00  0.00     0.010 A 
ATOM     79  C   UNL A   1      42.946  23.438  25.762  1.00  0.00     0.010 A 
ATOM     80  C   UNL A   1      42.839  21.605  27.874  1.00  0.00     0.020 A 
ATOM     81  C   UNL A   1      42.467  22.145  25.536  1.00  0.00     0.020 A 
ATOM     82  C   UNL A   1      42.426  21.233  26.591  1.00  0.00     0.054 A 
BRANCH  82  83
ATOM     83  S   UNL A   1      41.784  19.557  26.327  1.00  0.00     0.124 S 
ATOM     84  O   UNL A   1      42.237  18.865  27.529  1.00  0.00    -0.237 OA
ATOM     85  O   UNL A   1      40.343  19.782  26.230  1.00  0.00    -0.237 OA
ATOM     86  O   UNL A   1      42.425  19.140  25.082  1.00  0.00    -0.744 OA
ENDBRANCH  82  83
ENDBRANCH  54  77
BRANCH  66  87
ATOM     87  C   UNL A   1      49.416  27.085  25.895  1.00  0.00    -0.014 A 
ATOM     88  C   UNL A   1      49.804  27.394  24.580  1.00  0.00     0.010 A 
ATOM     89  C   UNL A   1      50.300  26.366  26.720  1.00  0.00     0.010 A 
ATOM     90  C   UNL A   1      51.041  26.967  24.089  1.00  0.00     0.020 A 
ATOM     91  C   UNL A   1      51.548  25.958  26.242  1.00  0.00     0.020 A 
ATOM     92  C   UNL A   1      51.904  26.250  24.923  1.00  0.00     0.054 A 
BRANCH  92  93
ATOM     93  S   UNL A   1      53.523  25.743  24.279  1.00  0.00     0.124 S 
ATOM     94  O   UNL A   1      53.620  24.365  24.752  1.00  0.00    -0.237 OA
ATOM     95  O   UNL A   1      53.359  25.901  22.836  1.00  0.00    -0.237 OA
ATOM     96  O   UNL A   1      54.453  26.683  24.901  1.00  0.00    -0.744 OA
ENDBRANCH  92  93
ENDBRANCH  66  87
ENDBRANCH  40  41
ENDBRANCH  32  35
ENDBRANCH  30  31
ENDBRANCH  29  30
ENDBRANCH  28  29
ENDBRANCH   1  28
TORSDOF 19
ENDMDL
MODEL 3
REMARK VINA RESULT:     -11.5      6.308     11.539
REMARK SMILES Cc1ccc(S(=O)(=O)Nc2cccc(F)c2C(=O)NCCCCCCNC(=O)c2ccc(-c3c4nc(c(-c5ccc(S(=O)(=O)[O-])cc5)c5ccc([nH]5)c(-c5ccc(S(=O)(=O)[O-])cc5)c5nc(c(-c6ccc(S(=O)(=O)[O-])cc6)c6ccc3[nH]6)C=C5)C=C4)cc2)cc1Cl
REMARK SMILES IDX 22 1 21 2 20 3 19 4 17 5 18 6 16 8 10 9 11 10 12 11 14 12
REMARK SMILES IDX 13 13 15 14 9 15 6 17 7 18 8 19 5 20 1 21 2 22 3 23 90 24
REMARK SMILES IDX 4 25 89 26 91 27 23 28 24 29 25 30 26 31 27 32 28 34 29 35
REMARK SMILES IDX 30 36 88 37 31 38 87 39 32 40 33 41 34 42 81 43 35 44 86 45
REMARK SMILES IDX 80 46 82 47 36 48 85 49 79 50 78 51 37 53 67 54 48 55 66 56
REMARK SMILES IDX 49 57 52 58 65 59 83 60 50 61 51 62 64 64 84 65 53 66 38 67
REMARK SMILES IDX 39 68 47 69 40 70 46 71 41 72 42 73 43 74 44 75 45 76 68 77
REMARK SMILES IDX 69 78 77 79 70 80 76 81 71 82 72 83 73 84 74 85 75 86 54 87
REMARK SMILES IDX 55 88 63 89 56 90 62 91 57 92 58 93 59 94 60 95 61 96
REMARK H PARENT 19 7 9 16 26 33 82 52 52 63
REMARK Flexibility Score: inf
ROOT
ATOM      1  C   UNL A   1      33.250  29.611  27.285  1.00  0.00     0.002 C 
ENDROOT
BRANCH   1   2
ATOM      2  C   UNL A   1      32.840  29.036  25.928  1.00  0.00     0.021 C 
BRANCH   2   3
ATOM      3  C   UNL A   1      32.134  27.683  25.920  1.00  0.00     0.116 C 
BRANCH   3   4
ATOM      4  N   UNL A   1      30.881  27.664  25.190  1.00  0.00    -0.352 N 
ATOM      5  C   UNL A   1      30.448  26.878  24.149  1.00  0.00     0.256 C 
ATOM      6  O   UNL A   1      29.286  27.037  23.766  1.00  0.00    -0.269 OA
ATOM      7  H   UNL A   1      30.225  28.333  25.493  1.00  0.00     0.163 HD
BRANCH   5   8
ATOM      8  C   UNL A   1      31.317  25.926  23.399  1.00  0.00     0.099 A 
ATOM      9  C   UNL A   1      31.162  24.530  23.598  1.00  0.00     0.065 A 
ATOM     10  C   UNL A   1      31.835  23.621  22.772  1.00  0.00     0.028 A 
ATOM     11  C   UNL A   1      32.794  24.079  21.870  1.00  0.00     0.005 A 
ATOM     12  C   UNL A   1      32.362  26.345  22.580  1.00  0.00     0.138 A 
ATOM     13  C   UNL A   1      33.091  25.438  21.812  1.00  0.00     0.040 A 
ATOM     14  F   UNL A   1      32.766  27.623  22.570  1.00  0.00    -0.206 F 
BRANCH   9  15
ATOM     15  N   UNL A   1      30.395  24.055  24.714  1.00  0.00    -0.279 N 
ATOM     16  H   UNL A   1      29.418  24.170  24.695  1.00  0.00     0.180 HD
BRANCH  15  17
ATOM     17  S   UNL A   1      31.094  23.305  26.055  1.00  0.00     0.261 S 
ATOM     18  O   UNL A   1      30.658  21.919  26.025  1.00  0.00    -0.201 OA
ATOM     19  O   UNL A   1      30.803  24.145  27.191  1.00  0.00    -0.201 OA
BRANCH  17  20
ATOM     20  C   UNL A   1      32.873  23.255  25.911  1.00  0.00     0.089 A 
ATOM     21  C   UNL A   1      37.041  23.019  24.804  1.00  0.00     0.046 C 
ATOM     22  C   UNL A   1      35.599  23.062  25.229  1.00  0.00    -0.032 A 
ATOM     23  C   UNL A   1      35.046  24.280  25.661  1.00  0.00     0.006 A 
ATOM     24  C   UNL A   1      34.790  21.918  25.254  1.00  0.00     0.045 A 
ATOM     25  C   UNL A   1      33.700  24.368  26.038  1.00  0.00     0.022 A 
ATOM     26  C   UNL A   1      33.432  22.018  25.564  1.00  0.00     0.043 A 
ATOM     27  Cl  UNL A   1      35.419  20.350  24.894  1.00  0.00    -0.084 Cl
ENDBRANCH  17  20
ENDBRANCH  15  17
ENDBRANCH   9  15
ENDBRANCH   5   8
ENDBRANCH   3   4
ENDBRANCH   2   3
ENDBRANCH   1   2
BRANCH   1  28
ATOM     28  C   UNL A   1      34.658  30.197  27.405  1.00  0.00     0.002 C 
BRANCH  28  29
ATOM     29  C   UNL A   1      34.768  31.683  27.748  1.00  0.00     0.021 C 
BRANCH  29  30
ATOM     30  C   UNL A   1      35.772  32.063  28.833  1.00  0.00     0.116 C 
BRANCH  30  31
ATOM     31  N   UNL A   1      35.562  31.358  30.085  1.00  0.00    -0.352 N 
ATOM     32  C   UNL A   1      36.403  30.512  30.769  1.00  0.00     0.251 C 
ATOM     33  H   UNL A   1      34.686  31.508  30.507  1.00  0.00     0.163 HD
ATOM     34  O   UNL A   1      35.993  29.928  31.769  1.00  0.00    -0.269 OA
BRANCH  32  35
ATOM     35  C   UNL A   1      37.788  30.272  30.294  1.00  0.00     0.039 A 
ATOM     36  C   UNL A   1      38.810  30.167  31.242  1.00  0.00     0.014 A 
ATOM     37  C   UNL A   1      38.089  30.167  28.933  1.00  0.00     0.014 A 
ATOM     38  C   UNL A   1      40.117  29.883  30.833  1.00  0.00     0.010 A 
ATOM     39  C   UNL A   1      39.381  29.825  28.530  1.00  0.00     0.010 A 
ATOM     40  C   UNL A   1      40.408  29.672  29.475  1.00  0.00    -0.014 A 
BRANCH  40  41
ATOM     41  C   UNL A   1      41.768  29.267  29.031  1.00  0.00     0.031 A 
ATOM     42  C   UNL A   1      42.879  30.278  28.949  1.00  0.00     0.074 A 
ATOM     43  C   UNL A   1      41.988  27.997  28.638  1.00  0.00     0.049 A 
ATOM     44  N   UNL A   1      44.105  30.122  28.519  1.00  0.00    -0.248 NA
ATOM     45  C   UNL A   1      42.566  31.647  29.387  1.00  0.00     0.031 C 
ATOM     46  C   UNL A   1      40.988  26.925  28.635  1.00  0.00     0.029 A 
ATOM     47  N   UNL A   1      43.121  27.392  28.153  1.00  0.00    -0.354 N 
ATOM     48  C   UNL A   1      44.705  31.372  28.618  1.00  0.00     0.074 A 
ATOM     49  C   UNL A   1      43.696  32.284  29.113  1.00  0.00     0.031 C 
ATOM     50  C   UNL A   1      41.557  25.794  28.188  1.00  0.00     0.029 A 
ATOM     51  C   UNL A   1      42.948  26.064  27.837  1.00  0.00     0.049 A 
ATOM     52  H   UNL A   1      43.978  27.863  28.041  1.00  0.00     0.167 HD
ATOM     53  C   UNL A   1      45.983  31.727  28.336  1.00  0.00     0.031 A 
ATOM     54  C   UNL A   1      43.805  25.165  27.314  1.00  0.00     0.031 A 
ATOM     55  C   UNL A   1      46.990  30.820  27.854  1.00  0.00     0.049 A 
ATOM     56  C   UNL A   1      45.215  25.585  27.003  1.00  0.00     0.074 A 
ATOM     57  C   UNL A   1      48.325  31.076  27.591  1.00  0.00     0.029 A 
ATOM     58  N   UNL A   1      46.775  29.481  27.560  1.00  0.00    -0.354 N 
ATOM     59  N   UNL A   1      45.776  26.760  27.157  1.00  0.00    -0.248 NA
ATOM     60  C   UNL A   1      46.109  24.554  26.458  1.00  0.00     0.031 C 
ATOM     61  C   UNL A   1      48.907  29.904  27.097  1.00  0.00     0.029 A 
ATOM     62  C   UNL A   1      47.947  28.905  27.097  1.00  0.00     0.049 A 
ATOM     63  H   UNL A   1      45.917  29.011  27.665  1.00  0.00     0.167 HD
ATOM     64  C   UNL A   1      47.096  26.604  26.748  1.00  0.00     0.074 A 
ATOM     65  C   UNL A   1      47.252  25.218  26.354  1.00  0.00     0.031 C 
ATOM     66  C   UNL A   1      48.088  27.525  26.704  1.00  0.00     0.031 A 
BRANCH  53  67
ATOM     67  C   UNL A   1      46.362  33.171  28.537  1.00  0.00    -0.014 A 
ATOM     68  C   UNL A   1      46.883  33.621  29.763  1.00  0.00     0.010 A 
ATOM     69  C   UNL A   1      46.235  34.082  27.472  1.00  0.00     0.010 A 
ATOM     70  C   UNL A   1      47.228  34.964  29.936  1.00  0.00     0.020 A 
ATOM     71  C   UNL A   1      46.604  35.421  27.633  1.00  0.00     0.020 A 
ATOM     72  C   UNL A   1      47.080  35.857  28.871  1.00  0.00     0.054 A 
BRANCH  72  73
ATOM     73  S   UNL A   1      47.550  37.592  29.117  1.00  0.00     0.124 S 
ATOM     74  O   UNL A   1      46.252  38.224  29.341  1.00  0.00    -0.237 OA
ATOM     75  O   UNL A   1      48.426  37.527  30.283  1.00  0.00    -0.237 OA
ATOM     76  O   UNL A   1      48.210  37.954  27.865  1.00  0.00    -0.744 OA
ENDBRANCH  72  73
ENDBRANCH  53  67
BRANCH  54  77
ATOM     77  C   UNL A   1      43.351  23.772  27.060  1.00  0.00    -0.014 A 
ATOM     78  C   UNL A   1      43.256  22.849  28.116  1.00  0.00     0.010 A 
ATOM     79  C   UNL A   1      42.996  23.366  25.760  1.00  0.00     0.010 A 
ATOM     80  C   UNL A   1      42.826  21.541  27.876  1.00  0.00     0.020 A 
ATOM     81  C   UNL A   1      42.543  22.066  25.521  1.00  0.00     0.020 A 
ATOM     82  C   UNL A   1      42.470  21.158  26.579  1.00  0.00     0.054 A 
BRANCH  82  83
ATOM     83  S   UNL A   1      41.859  19.473  26.297  1.00  0.00     0.124 S 
ATOM     84  O   UNL A   1      42.580  19.086  25.089  1.00  0.00    -0.237 OA
ATOM     85  O   UNL A   1      42.258  18.782  27.522  1.00  0.00    -0.237 OA
ATOM     86  O   UNL A   1      40.418  19.657  26.138  1.00  0.00    -0.744 OA
ENDBRANCH  82  83
ENDBRANCH  54  77
BRANCH  66  87
ATOM     87  C   UNL A   1      49.442  27.063  26.238  1.00  0.00    -0.014 A 
ATOM     88  C   UNL A   1      50.357  26.477  27.130  1.00  0.00     0.010 A 
ATOM     89  C   UNL A   1      49.783  27.172  24.877  1.00  0.00     0.010 A 
ATOM     90  C   UNL A   1      51.603  26.035  26.674  1.00  0.00     0.020 A 
ATOM     91  C   UNL A   1      51.017  26.710  24.414  1.00  0.00     0.020 A 
ATOM     92  C   UNL A   1      51.925  26.156  25.319  1.00  0.00     0.054 A 
BRANCH  92  93
ATOM     93  S   UNL A   1      53.531  25.538  24.744  1.00  0.00     0.124 S 
ATOM     94  O   UNL A   1      53.494  24.145  25.181  1.00  0.00    -0.237 OA
ATOM     95  O   UNL A   1      53.457  25.744  23.299  1.00  0.00    -0.237 OA
ATOM     96  O   UNL A   1      54.498  26.385  25.440  1.00  0.00    -0.744 OA
ENDBRANCH  92  93
ENDBRANCH  66  87
ENDBRANCH  40  41
ENDBRANCH  32  35
ENDBRANCH  30  31
ENDBRANCH  29  30
ENDBRANCH  28  29
ENDBRANCH   1  28
TORSDOF 19
ENDMDL
