MODEL 1
REMARK VINA RESULT:     -11.8      0.000      0.000
REMARK SMILES O=C(NCCCCCCNC(=O)c1nccnc1C(=O)N1CCC(Cc2ccccc2)CC1)c1ccc(-c2c3nc(c(-c4ccc(S(=O)(=O)[O-])cc4)c4ccc([nH]4)c(-c4ccc(S(=O)(=O)[O-])cc4)c4nc(c(-c5ccc(S(=O)(=O)[O-])cc5)c5ccc2[nH]5)C=C4)C=C3)cc1
REMARK SMILES IDX 6 1 5 2 4 3 3 4 1 5 2 6 34 8 35 9 93 10 36 11 92 12 37 13
REMARK SMILES IDX 38 14 39 15 86 16 40 17 91 18 85 19 87 20 41 21 90 22 84 23
REMARK SMILES IDX 83 24 42 26 72 27 53 28 71 29 54 30 57 31 70 32 88 33 55 34
REMARK SMILES IDX 56 35 69 37 89 38 58 39 43 40 44 41 52 42 45 43 51 44 46 45
REMARK SMILES IDX 47 46 48 47 49 48 50 49 73 50 74 51 82 52 75 53 81 54 76 55
REMARK SMILES IDX 77 56 78 57 79 58 80 59 59 60 60 61 68 62 61 63 67 64 62 65
REMARK SMILES IDX 63 66 64 67 65 68 66 69 7 70 8 71 9 72 10 73 11 74 12 76
REMARK SMILES IDX 13 77 14 78 18 79 15 80 17 81 16 82 19 83 20 84 21 85 22 86
REMARK SMILES IDX 33 87 23 88 32 89 24 90 25 91 26 92 27 93 31 94 28 95 30 96
REMARK SMILES IDX 29 97
REMARK H PARENT 3 7 87 25 57 36 10 75
REMARK Flexibility Score: inf
ROOT
ATOM      1  C   UNL A   1      39.320  22.628  26.314  1.00  0.00     0.002 C 
ENDROOT
BRANCH   1   2
ATOM      2  C   UNL A   1      40.135  22.825  27.591  1.00  0.00     0.021 C 
BRANCH   2   3
ATOM      3  C   UNL A   1      41.567  23.299  27.384  1.00  0.00     0.116 C 
BRANCH   3   4
ATOM      4  N   UNL A   1      41.732  24.084  26.173  1.00  0.00    -0.352 N 
ATOM      5  O   UNL A   1      41.596  25.909  24.855  1.00  0.00    -0.269 OA
ATOM      6  C   UNL A   1      41.558  25.437  25.988  1.00  0.00     0.251 C 
ATOM      7  H   UNL A   1      42.007  23.578  25.375  1.00  0.00     0.163 HD
BRANCH   6   8
ATOM      8  C   UNL A   1      41.298  26.315  27.153  1.00  0.00     0.039 A 
ATOM      9  C   UNL A   1      42.207  27.313  27.508  1.00  0.00     0.014 A 
ATOM     10  C   UNL A   1      40.130  26.137  27.901  1.00  0.00     0.014 A 
ATOM     11  C   UNL A   1      42.026  28.024  28.690  1.00  0.00     0.010 A 
ATOM     12  C   UNL A   1      39.903  26.919  29.040  1.00  0.00     0.010 A 
ATOM     13  C   UNL A   1      40.865  27.848  29.463  1.00  0.00    -0.014 A 
BRANCH  13  14
ATOM     14  C   UNL A   1      40.669  28.704  30.662  1.00  0.00     0.031 A 
ATOM     15  C   UNL A   1      41.573  28.601  31.863  1.00  0.00     0.074 A 
ATOM     16  C   UNL A   1      39.697  29.638  30.630  1.00  0.00     0.049 A 
ATOM     17  N   UNL A   1      41.584  29.340  32.944  1.00  0.00    -0.248 NA
ATOM     18  C   UNL A   1      42.584  27.534  31.858  1.00  0.00     0.031 C 
ATOM     19  C   UNL A   1      38.743  29.819  29.531  1.00  0.00     0.029 A 
ATOM     20  N   UNL A   1      39.368  30.627  31.520  1.00  0.00    -0.354 N 
ATOM     21  C   UNL A   1      42.594  28.827  33.750  1.00  0.00     0.074 A 
ATOM     22  C   UNL A   1      43.155  27.693  33.045  1.00  0.00     0.031 C 
ATOM     23  C   UNL A   1      37.981  30.893  29.783  1.00  0.00     0.029 A 
ATOM     24  C   UNL A   1      38.349  31.440  31.082  1.00  0.00     0.049 A 
ATOM     25  H   UNL A   1      39.817  30.744  32.388  1.00  0.00     0.167 HD
ATOM     26  C   UNL A   1      43.021  29.266  34.960  1.00  0.00     0.031 A 
ATOM     27  C   UNL A   1      37.769  32.508  31.660  1.00  0.00     0.031 A 
ATOM     28  C   UNL A   1      42.456  30.389  35.663  1.00  0.00     0.049 A 
ATOM     29  C   UNL A   1      38.262  32.972  32.997  1.00  0.00     0.074 A 
ATOM     30  C   UNL A   1      42.822  30.909  36.894  1.00  0.00     0.029 A 
ATOM     31  N   UNL A   1      41.409  31.171  35.197  1.00  0.00    -0.354 N 
ATOM     32  N   UNL A   1      39.232  32.481  33.731  1.00  0.00    -0.248 NA
ATOM     33  C   UNL A   1      37.588  34.137  33.584  1.00  0.00     0.031 C 
ATOM     34  C   UNL A   1      41.972  31.981  37.188  1.00  0.00     0.029 A 
ATOM     35  C   UNL A   1      41.109  32.161  36.119  1.00  0.00     0.049 A 
ATOM     36  H   UNL A   1      40.946  31.042  34.338  1.00  0.00     0.167 HD
ATOM     37  C   UNL A   1      39.284  33.278  34.867  1.00  0.00     0.074 A 
ATOM     38  C   UNL A   1      38.274  34.304  34.706  1.00  0.00     0.031 C 
ATOM     39  C   UNL A   1      40.089  33.164  35.951  1.00  0.00     0.031 A 
BRANCH  26  40
ATOM     40  C   UNL A   1      44.156  28.520  35.613  1.00  0.00    -0.014 A 
ATOM     41  C   UNL A   1      43.923  27.328  36.322  1.00  0.00     0.010 A 
ATOM     42  C   UNL A   1      45.477  28.981  35.465  1.00  0.00     0.010 A 
ATOM     43  C   UNL A   1      44.987  26.626  36.896  1.00  0.00     0.020 A 
ATOM     44  C   UNL A   1      46.547  28.268  36.019  1.00  0.00     0.020 A 
ATOM     45  C   UNL A   1      46.293  27.103  36.743  1.00  0.00     0.054 A 
BRANCH  45  46
ATOM     46  S   UNL A   1      47.657  26.154  37.473  1.00  0.00     0.124 S 
ATOM     47  O   UNL A   1      48.553  25.992  36.332  1.00  0.00    -0.237 OA
ATOM     48  O   UNL A   1      48.137  27.042  38.528  1.00  0.00    -0.237 OA
ATOM     49  O   UNL A   1      47.014  24.928  37.941  1.00  0.00    -0.744 OA
ENDBRANCH  45  46
ENDBRANCH  26  40
BRANCH  27  50
ATOM     50  C   UNL A   1      36.641  33.192  30.974  1.00  0.00    -0.014 A 
ATOM     51  C   UNL A   1      35.327  33.085  31.461  1.00  0.00     0.010 A 
ATOM     52  C   UNL A   1      36.888  33.980  29.835  1.00  0.00     0.010 A 
ATOM     53  C   UNL A   1      34.278  33.742  30.810  1.00  0.00     0.020 A 
ATOM     54  C   UNL A   1      35.848  34.661  29.200  1.00  0.00     0.020 A 
ATOM     55  C   UNL A   1      34.546  34.526  29.684  1.00  0.00     0.054 A 
BRANCH  55  56
ATOM     56  S   UNL A   1      33.182  35.416  28.884  1.00  0.00     0.124 S 
ATOM     57  O   UNL A   1      33.894  36.449  28.138  1.00  0.00    -0.237 OA
ATOM     58  O   UNL A   1      32.550  34.374  28.078  1.00  0.00    -0.237 OA
ATOM     59  O   UNL A   1      32.381  35.892  30.010  1.00  0.00    -0.744 OA
ENDBRANCH  55  56
ENDBRANCH  27  50
BRANCH  39  60
ATOM     60  C   UNL A   1      39.908  34.186  37.040  1.00  0.00    -0.014 A 
ATOM     61  C   UNL A   1      39.130  33.900  38.176  1.00  0.00     0.010 A 
ATOM     62  C   UNL A   1      40.528  35.442  36.929  1.00  0.00     0.010 A 
ATOM     63  C   UNL A   1      38.936  34.873  39.161  1.00  0.00     0.020 A 
ATOM     64  C   UNL A   1      40.357  36.408  37.924  1.00  0.00     0.020 A 
ATOM     65  C   UNL A   1      39.545  36.124  39.023  1.00  0.00     0.054 A 
BRANCH  65  66
ATOM     66  S   UNL A   1      39.290  37.368  40.318  1.00  0.00     0.124 S 
ATOM     67  O   UNL A   1      40.662  37.740  40.653  1.00  0.00    -0.237 OA
ATOM     68  O   UNL A   1      38.511  38.396  39.630  1.00  0.00    -0.237 OA
ATOM     69  O   UNL A   1      38.568  36.640  41.358  1.00  0.00    -0.744 OA
ENDBRANCH  65  66
ENDBRANCH  39  60
ENDBRANCH  13  14
ENDBRANCH   6   8
ENDBRANCH   3   4
ENDBRANCH   2   3
ENDBRANCH   1   2
BRANCH   1  70
ATOM     70  C   UNL A   1      38.189  23.633  26.076  1.00  0.00     0.002 C 
BRANCH  70  71
ATOM     71  C   UNL A   1      37.031  23.151  25.197  1.00  0.00     0.021 C 
BRANCH  71  72
ATOM     72  C   UNL A   1      36.448  21.784  25.552  1.00  0.00     0.116 C 
BRANCH  72  73
ATOM     73  N   UNL A   1      35.547  21.824  26.693  1.00  0.00    -0.351 N 
ATOM     74  C   UNL A   1      34.237  21.392  26.776  1.00  0.00     0.272 C 
ATOM     75  H   UNL A   1      35.921  22.209  27.518  1.00  0.00     0.163 HD
ATOM     76  O   UNL A   1      33.628  21.477  27.838  1.00  0.00    -0.267 OA
BRANCH  74  77
ATOM     77  C   UNL A   1      33.589  20.848  25.564  1.00  0.00     0.159 A 
ATOM     78  N   UNL A   1      34.022  19.593  25.210  1.00  0.00    -0.247 NA
ATOM     79  C   UNL A   1      32.615  21.532  24.850  1.00  0.00     0.159 A 
ATOM     80  C   UNL A   1      33.435  19.050  24.125  1.00  0.00     0.132 A 
ATOM     81  N   UNL A   1      32.068  20.974  23.719  1.00  0.00    -0.247 NA
ATOM     82  C   UNL A   1      32.490  19.732  23.387  1.00  0.00     0.132 A 
BRANCH  79  83
ATOM     83  C   UNL A   1      31.882  22.726  25.362  1.00  0.00     0.274 C 
ATOM     84  O   UNL A   1      30.688  22.558  25.631  1.00  0.00    -0.267 OA
ATOM     85  N   UNL A   1      32.493  23.962  25.590  1.00  0.00    -0.337 N 
ATOM     86  C   UNL A   1      31.950  24.757  26.685  1.00  0.00     0.120 C 
ATOM     87  C   UNL A   1      33.694  24.494  24.947  1.00  0.00     0.120 C 
ATOM     88  C   UNL A   1      31.725  26.203  26.279  1.00  0.00     0.025 C 
ATOM     89  C   UNL A   1      33.533  25.973  24.564  1.00  0.00     0.025 C 
ATOM     90  C   UNL A   1      33.032  26.817  25.755  1.00  0.00    -0.003 C 
BRANCH  90  91
ATOM     91  C   UNL A   1      32.857  28.298  25.364  1.00  0.00     0.039 C 
BRANCH  91  92
ATOM     92  C   UNL A   1      33.513  29.256  26.335  1.00  0.00    -0.048 A 
ATOM     93  C   UNL A   1      34.824  29.028  26.777  1.00  0.00     0.004 A 
ATOM     94  C   UNL A   1      32.846  30.411  26.769  1.00  0.00     0.004 A 
ATOM     95  C   UNL A   1      35.459  29.941  27.621  1.00  0.00     0.000 A 
ATOM     96  C   UNL A   1      33.484  31.325  27.612  1.00  0.00     0.000 A 
ATOM     97  C   UNL A   1      34.791  31.090  28.036  1.00  0.00     0.000 A 
ENDBRANCH  91  92
ENDBRANCH  90  91
ENDBRANCH  79  83
ENDBRANCH  74  77
ENDBRANCH  72  73
ENDBRANCH  71  72
ENDBRANCH  70  71
ENDBRANCH   1  70
TORSDOF 19
ENDMDL
MODEL 2
REMARK VINA RESULT:     -11.5      6.023     11.954
REMARK SMILES O=C(NCCCCCCNC(=O)c1nccnc1C(=O)N1CCC(Cc2ccccc2)CC1)c1ccc(-c2c3nc(c(-c4ccc(S(=O)(=O)[O-])cc4)c4ccc([nH]4)c(-c4ccc(S(=O)(=O)[O-])cc4)c4nc(c(-c5ccc(S(=O)(=O)[O-])cc5)c5ccc2[nH]5)C=C4)C=C3)cc1
REMARK SMILES IDX 6 1 5 2 4 3 3 4 1 5 2 6 34 8 35 9 93 10 36 11 92 12 37 13
REMARK SMILES IDX 38 14 39 15 86 16 40 17 91 18 85 19 87 20 41 21 90 22 84 23
REMARK SMILES IDX 83 24 42 26 72 27 53 28 71 29 54 30 57 31 70 32 88 33 55 34
REMARK SMILES IDX 56 35 69 37 89 38 58 39 43 40 44 41 52 42 45 43 51 44 46 45
REMARK SMILES IDX 47 46 48 47 49 48 50 49 73 50 74 51 82 52 75 53 81 54 76 55
REMARK SMILES IDX 77 56 78 57 79 58 80 59 59 60 60 61 68 62 61 63 67 64 62 65
REMARK SMILES IDX 63 66 64 67 65 68 66 69 7 70 8 71 9 72 10 73 11 74 12 76
REMARK SMILES IDX 13 77 14 78 18 79 15 80 17 81 16 82 19 83 20 84 21 85 22 86
REMARK SMILES IDX 33 87 23 88 32 89 24 90 25 91 26 92 27 93 31 94 28 95 30 96
REMARK SMILES IDX 29 97
REMARK H PARENT 3 7 87 25 57 36 10 75
REMARK Flexibility Score: inf
ROOT
ATOM      1  C   UNL A   1      35.331  32.152  27.766  1.00  0.00     0.002 C 
ENDROOT
BRANCH   1   2
ATOM      2  C   UNL A   1      35.674  33.418  28.551  1.00  0.00     0.021 C 
BRANCH   2   3
ATOM      3  C   UNL A   1      36.577  33.212  29.758  1.00  0.00     0.116 C 
BRANCH   3   4
ATOM      4  N   UNL A   1      36.107  32.159  30.642  1.00  0.00    -0.352 N 
ATOM      5  O   UNL A   1      36.063  30.107  31.577  1.00  0.00    -0.269 OA
ATOM      6  C   UNL A   1      36.681  30.939  30.916  1.00  0.00     0.251 C 
ATOM      7  H   UNL A   1      35.261  32.345  31.109  1.00  0.00     0.163 HD
BRANCH   6   8
ATOM      8  C   UNL A   1      38.028  30.620  30.391  1.00  0.00     0.039 A 
ATOM      9  C   UNL A   1      38.227  30.400  29.027  1.00  0.00     0.014 A 
ATOM     10  C   UNL A   1      39.110  30.539  31.274  1.00  0.00     0.014 A 
ATOM     11  C   UNL A   1      39.462  29.951  28.571  1.00  0.00     0.010 A 
ATOM     12  C   UNL A   1      40.376  30.177  30.799  1.00  0.00     0.010 A 
ATOM     13  C   UNL A   1      40.557  29.849  29.447  1.00  0.00    -0.014 A 
BRANCH  13  14
ATOM     14  C   UNL A   1      41.881  29.463  28.893  1.00  0.00     0.031 A 
ATOM     15  C   UNL A   1      43.037  30.427  28.864  1.00  0.00     0.074 A 
ATOM     16  C   UNL A   1      42.052  28.193  28.471  1.00  0.00     0.049 A 
ATOM     17  N   UNL A   1      44.276  30.209  28.496  1.00  0.00    -0.248 NA
ATOM     18  C   UNL A   1      42.776  31.809  29.294  1.00  0.00     0.031 C 
ATOM     19  C   UNL A   1      40.999  27.173  28.428  1.00  0.00     0.029 A 
ATOM     20  N   UNL A   1      43.171  27.533  28.034  1.00  0.00    -0.354 N 
ATOM     21  C   UNL A   1      44.939  31.422  28.642  1.00  0.00     0.074 A 
ATOM     22  C   UNL A   1      43.958  32.381  29.105  1.00  0.00     0.031 C 
ATOM     23  C   UNL A   1      41.535  26.004  28.051  1.00  0.00     0.029 A 
ATOM     24  C   UNL A   1      42.951  26.201  27.769  1.00  0.00     0.049 A 
ATOM     25  H   UNL A   1      44.045  27.969  27.919  1.00  0.00     0.167 HD
ATOM     26  C   UNL A   1      46.245  31.707  28.419  1.00  0.00     0.031 A 
ATOM     27  C   UNL A   1      43.792  25.241  27.341  1.00  0.00     0.031 A 
ATOM     28  C   UNL A   1      47.218  30.752  27.951  1.00  0.00     0.049 A 
ATOM     29  C   UNL A   1      45.232  25.585  27.106  1.00  0.00     0.074 A 
ATOM     30  C   UNL A   1      48.565  30.948  27.696  1.00  0.00     0.029 A 
ATOM     31  N   UNL A   1      46.950  29.421  27.671  1.00  0.00    -0.354 N 
ATOM     32  N   UNL A   1      45.839  26.736  27.269  1.00  0.00    -0.248 NA
ATOM     33  C   UNL A   1      46.102  24.501  26.633  1.00  0.00     0.031 C 
ATOM     34  C   UNL A   1      49.104  29.745  27.227  1.00  0.00     0.029 A 
ATOM     35  C   UNL A   1      48.103  28.786  27.236  1.00  0.00     0.049 A 
ATOM     36  H   UNL A   1      46.071  28.989  27.765  1.00  0.00     0.167 HD
ATOM     37  C   UNL A   1      47.165  26.514  26.918  1.00  0.00     0.074 A 
ATOM     38  C   UNL A   1      47.277  25.111  26.571  1.00  0.00     0.031 C 
ATOM     39  C   UNL A   1      48.194  27.394  26.878  1.00  0.00     0.031 A 
BRANCH  26  40
ATOM     40  C   UNL A   1      46.705  33.120  28.671  1.00  0.00    -0.014 A 
ATOM     41  C   UNL A   1      46.620  34.098  27.664  1.00  0.00     0.010 A 
ATOM     42  C   UNL A   1      47.169  33.491  29.947  1.00  0.00     0.010 A 
ATOM     43  C   UNL A   1      47.018  35.413  27.919  1.00  0.00     0.020 A 
ATOM     44  C   UNL A   1      47.547  34.812  30.212  1.00  0.00     0.020 A 
ATOM     45  C   UNL A   1      47.482  35.761  29.191  1.00  0.00     0.054 A 
BRANCH  45  46
ATOM     46  S   UNL A   1      47.962  37.484  29.501  1.00  0.00     0.124 S 
ATOM     47  O   UNL A   1      49.312  37.327  30.037  1.00  0.00    -0.237 OA
ATOM     48  O   UNL A   1      47.880  38.085  28.173  1.00  0.00    -0.237 OA
ATOM     49  O   UNL A   1      46.963  37.956  30.457  1.00  0.00    -0.744 OA
ENDBRANCH  45  46
ENDBRANCH  26  40
BRANCH  27  50
ATOM     50  C   UNL A   1      43.275  23.869  27.093  1.00  0.00    -0.014 A 
ATOM     51  C   UNL A   1      42.832  23.484  25.816  1.00  0.00     0.010 A 
ATOM     52  C   UNL A   1      43.250  22.930  28.141  1.00  0.00     0.010 A 
ATOM     53  C   UNL A   1      42.357  22.187  25.596  1.00  0.00     0.020 A 
ATOM     54  C   UNL A   1      42.804  21.626  27.918  1.00  0.00     0.020 A 
ATOM     55  C   UNL A   1      42.348  21.267  26.649  1.00  0.00     0.054 A 
BRANCH  55  56
ATOM     56  S   UNL A   1      41.781  19.572  26.334  1.00  0.00     0.124 S 
ATOM     57  O   UNL A   1      42.558  19.209  25.154  1.00  0.00    -0.237 OA
ATOM     58  O   UNL A   1      42.142  18.880  27.569  1.00  0.00    -0.237 OA
ATOM     59  O   UNL A   1      40.344  19.730  26.117  1.00  0.00    -0.744 OA
ENDBRANCH  55  56
ENDBRANCH  27  50
BRANCH  39  60
ATOM     60  C   UNL A   1      49.531  26.854  26.449  1.00  0.00    -0.014 A 
ATOM     61  C   UNL A   1      49.959  26.962  25.114  1.00  0.00     0.010 A 
ATOM     62  C   UNL A   1      50.371  26.239  27.394  1.00  0.00     0.010 A 
ATOM     63  C   UNL A   1      51.186  26.420  24.721  1.00  0.00     0.020 A 
ATOM     64  C   UNL A   1      51.609  25.719  27.009  1.00  0.00     0.020 A 
ATOM     65  C   UNL A   1      51.999  25.794  25.670  1.00  0.00     0.054 A 
BRANCH  65  66
ATOM     66  S   UNL A   1      53.592  25.107  25.142  1.00  0.00     0.124 S 
ATOM     67  O   UNL A   1      53.705  25.620  23.779  1.00  0.00    -0.237 OA
ATOM     68  O   UNL A   1      54.528  25.678  26.108  1.00  0.00    -0.237 OA
ATOM     69  O   UNL A   1      53.397  23.663  25.251  1.00  0.00    -0.744 OA
ENDBRANCH  65  66
ENDBRANCH  39  60
ENDBRANCH  13  14
ENDBRANCH   6   8
ENDBRANCH   3   4
ENDBRANCH   2   3
ENDBRANCH   1   2
BRANCH   1  70
ATOM     70  C   UNL A   1      33.847  31.778  27.710  1.00  0.00     0.002 C 
BRANCH  70  71
ATOM     71  C   UNL A   1      33.532  30.292  27.512  1.00  0.00     0.021 C 
BRANCH  71  72
ATOM     72  C   UNL A   1      32.941  29.911  26.156  1.00  0.00     0.116 C 
BRANCH  72  73
ATOM     73  N   UNL A   1      33.770  28.975  25.412  1.00  0.00    -0.351 N 
ATOM     74  C   UNL A   1      33.401  28.111  24.399  1.00  0.00     0.272 C 
ATOM     75  H   UNL A   1      34.721  28.956  25.663  1.00  0.00     0.163 HD
ATOM     76  O   UNL A   1      34.245  27.404  23.857  1.00  0.00    -0.267 OA
BRANCH  74  77
ATOM     77  C   UNL A   1      31.979  28.044  24.001  1.00  0.00     0.159 A 
ATOM     78  N   UNL A   1      31.659  28.838  22.926  1.00  0.00    -0.247 NA
ATOM     79  C   UNL A   1      31.046  27.241  24.641  1.00  0.00     0.159 A 
ATOM     80  C   UNL A   1      30.377  28.785  22.514  1.00  0.00     0.132 A 
ATOM     81  N   UNL A   1      29.735  27.243  24.231  1.00  0.00    -0.247 NA
ATOM     82  C   UNL A   1      29.432  28.017  23.162  1.00  0.00     0.132 A 
BRANCH  79  83
ATOM     83  C   UNL A   1      31.394  26.133  25.578  1.00  0.00     0.274 C 
ATOM     84  O   UNL A   1      31.336  26.402  26.783  1.00  0.00    -0.267 OA
ATOM     85  N   UNL A   1      31.715  24.841  25.154  1.00  0.00    -0.337 N 
ATOM     86  C   UNL A   1      31.333  23.755  26.049  1.00  0.00     0.120 C 
ATOM     87  C   UNL A   1      32.269  24.440  23.861  1.00  0.00     0.120 C 
ATOM     88  C   UNL A   1      32.465  22.765  26.255  1.00  0.00     0.025 C 
ATOM     89  C   UNL A   1      33.385  23.396  24.015  1.00  0.00     0.025 C 
ATOM     90  C   UNL A   1      32.941  22.214  24.902  1.00  0.00    -0.003 C 
BRANCH  90  91
ATOM     91  C   UNL A   1      34.068  21.175  25.067  1.00  0.00     0.039 C 
BRANCH  91  92
ATOM     92  C   UNL A   1      33.763  19.848  24.404  1.00  0.00    -0.048 A 
ATOM     93  C   UNL A   1      34.616  18.751  24.593  1.00  0.00     0.004 A 
ATOM     94  C   UNL A   1      32.604  19.677  23.635  1.00  0.00     0.004 A 
ATOM     95  C   UNL A   1      34.307  17.507  24.038  1.00  0.00     0.000 A 
ATOM     96  C   UNL A   1      32.295  18.431  23.083  1.00  0.00     0.000 A 
ATOM     97  C   UNL A   1      33.146  17.346  23.286  1.00  0.00     0.000 A 
ENDBRANCH  91  92
ENDBRANCH  90  91
ENDBRANCH  79  83
ENDBRANCH  74  77
ENDBRANCH  72  73
ENDBRANCH  71  72
ENDBRANCH  70  71
ENDBRANCH   1  70
TORSDOF 19
ENDMDL
MODEL 3
REMARK VINA RESULT:     -11.4      2.698      8.654
REMARK SMILES O=C(NCCCCCCNC(=O)c1nccnc1C(=O)N1CCC(Cc2ccccc2)CC1)c1ccc(-c2c3nc(c(-c4ccc(S(=O)(=O)[O-])cc4)c4ccc([nH]4)c(-c4ccc(S(=O)(=O)[O-])cc4)c4nc(c(-c5ccc(S(=O)(=O)[O-])cc5)c5ccc2[nH]5)C=C4)C=C3)cc1
REMARK SMILES IDX 6 1 5 2 4 3 3 4 1 5 2 6 34 8 35 9 93 10 36 11 92 12 37 13
REMARK SMILES IDX 38 14 39 15 86 16 40 17 91 18 85 19 87 20 41 21 90 22 84 23
REMARK SMILES IDX 83 24 42 26 72 27 53 28 71 29 54 30 57 31 70 32 88 33 55 34
REMARK SMILES IDX 56 35 69 37 89 38 58 39 43 40 44 41 52 42 45 43 51 44 46 45
REMARK SMILES IDX 47 46 48 47 49 48 50 49 73 50 74 51 82 52 75 53 81 54 76 55
REMARK SMILES IDX 77 56 78 57 79 58 80 59 59 60 60 61 68 62 61 63 67 64 62 65
REMARK SMILES IDX 63 66 64 67 65 68 66 69 7 70 8 71 9 72 10 73 11 74 12 76
REMARK SMILES IDX 13 77 14 78 18 79 15 80 17 81 16 82 19 83 20 84 21 85 22 86
REMARK SMILES IDX 33 87 23 88 32 89 24 90 25 91 26 92 27 93 31 94 28 95 30 96
REMARK SMILES IDX 29 97
REMARK H PARENT 3 7 87 25 57 36 10 75
REMARK Flexibility Score: inf
ROOT
ATOM      1  C   UNL A   1      31.789  30.082  26.766  1.00  0.00     0.002 C 
ENDROOT
BRANCH   1   2
ATOM      2  C   UNL A   1      31.749  31.607  26.667  1.00  0.00     0.021 C 
BRANCH   2   3
ATOM      3  C   UNL A   1      32.978  32.327  27.204  1.00  0.00     0.116 C 
BRANCH   3   4
ATOM      4  N   UNL A   1      32.680  33.664  27.688  1.00  0.00    -0.352 N 
ATOM      5  O   UNL A   1      32.807  35.440  29.074  1.00  0.00    -0.269 OA
ATOM      6  C   UNL A   1      33.290  34.374  28.698  1.00  0.00     0.251 C 
ATOM      7  H   UNL A   1      31.942  34.126  27.231  1.00  0.00     0.163 HD
BRANCH   6   8
ATOM      8  C   UNL A   1      34.510  33.839  29.346  1.00  0.00     0.039 A 
ATOM      9  C   UNL A   1      34.417  32.879  30.355  1.00  0.00     0.014 A 
ATOM     10  C   UNL A   1      35.765  34.306  28.942  1.00  0.00     0.014 A 
ATOM     11  C   UNL A   1      35.556  32.503  31.058  1.00  0.00     0.010 A 
ATOM     12  C   UNL A   1      36.921  33.855  29.590  1.00  0.00     0.010 A 
ATOM     13  C   UNL A   1      36.825  32.973  30.676  1.00  0.00    -0.014 A 
BRANCH  13  14
ATOM     14  C   UNL A   1      38.021  32.462  31.394  1.00  0.00     0.031 A 
ATOM     15  C   UNL A   1      38.411  32.983  32.753  1.00  0.00     0.074 A 
ATOM     16  C   UNL A   1      38.726  31.459  30.831  1.00  0.00     0.049 A 
ATOM     17  N   UNL A   1      39.373  32.572  33.541  1.00  0.00    -0.248 NA
ATOM     18  C   UNL A   1      37.632  34.107  33.294  1.00  0.00     0.031 C 
ATOM     19  C   UNL A   1      38.459  30.886  29.507  1.00  0.00     0.029 A 
ATOM     20  N   UNL A   1      39.780  30.722  31.304  1.00  0.00    -0.354 N 
ATOM     21  C   UNL A   1      39.322  33.388  34.666  1.00  0.00     0.074 A 
ATOM     22  C   UNL A   1      38.251  34.338  34.444  1.00  0.00     0.031 C 
ATOM     23  C   UNL A   1      39.283  29.849  29.303  1.00  0.00     0.029 A 
ATOM     24  C   UNL A   1      40.173  29.719  30.450  1.00  0.00     0.049 A 
ATOM     25  H   UNL A   1      40.213  30.895  32.170  1.00  0.00     0.167 HD
ATOM     26  C   UNL A   1      40.089  33.344  35.782  1.00  0.00     0.031 A 
ATOM     27  C   UNL A   1      41.145  28.796  30.569  1.00  0.00     0.031 A 
ATOM     28  C   UNL A   1      41.159  32.403  35.997  1.00  0.00     0.049 A 
ATOM     29  C   UNL A   1      41.977  28.769  31.816  1.00  0.00     0.074 A 
ATOM     30  C   UNL A   1      41.992  32.281  37.097  1.00  0.00     0.029 A 
ATOM     31  N   UNL A   1      41.542  31.420  35.098  1.00  0.00    -0.354 N 
ATOM     32  N   UNL A   1      41.897  29.540  32.874  1.00  0.00    -0.248 NA
ATOM     33  C   UNL A   1      43.027  27.745  31.888  1.00  0.00     0.031 C 
ATOM     34  C   UNL A   1      42.902  31.248  36.846  1.00  0.00     0.029 A 
ATOM     35  C   UNL A   1      42.605  30.694  35.612  1.00  0.00     0.049 A 
ATOM     36  H   UNL A   1      41.121  31.260  34.222  1.00  0.00     0.167 HD
ATOM     37  C   UNL A   1      42.887  29.094  33.739  1.00  0.00     0.074 A 
ATOM     38  C   UNL A   1      43.527  27.963  33.097  1.00  0.00     0.031 C 
ATOM     39  C   UNL A   1      43.242  29.583  34.952  1.00  0.00     0.031 A 
BRANCH  26  40
ATOM     40  C   UNL A   1      39.807  34.354  36.865  1.00  0.00    -0.014 A 
ATOM     41  C   UNL A   1      39.081  33.996  38.015  1.00  0.00     0.010 A 
ATOM     42  C   UNL A   1      40.325  35.659  36.761  1.00  0.00     0.010 A 
ATOM     43  C   UNL A   1      38.853  34.932  39.028  1.00  0.00     0.020 A 
ATOM     44  C   UNL A   1      40.118  36.591  37.784  1.00  0.00     0.020 A 
ATOM     45  C   UNL A   1      39.371  36.225  38.905  1.00  0.00     0.054 A 
BRANCH  45  46
ATOM     46  S   UNL A   1      39.086  37.409  40.250  1.00  0.00     0.124 S 
ATOM     47  O   UNL A   1      38.245  38.408  39.597  1.00  0.00    -0.237 OA
ATOM     48  O   UNL A   1      38.420  36.592  41.261  1.00  0.00    -0.237 OA
ATOM     49  O   UNL A   1      40.429  37.860  40.605  1.00  0.00    -0.744 OA
ENDBRANCH  45  46
ENDBRANCH  26  40
BRANCH  27  50
ATOM     50  C   UNL A   1      41.387  27.836  29.458  1.00  0.00    -0.014 A 
ATOM     51  C   UNL A   1      42.445  28.031  28.554  1.00  0.00     0.010 A 
ATOM     52  C   UNL A   1      40.566  26.702  29.321  1.00  0.00     0.010 A 
ATOM     53  C   UNL A   1      42.666  27.115  27.520  1.00  0.00     0.020 A 
ATOM     54  C   UNL A   1      40.802  25.771  28.308  1.00  0.00     0.020 A 
ATOM     55  C   UNL A   1      41.843  25.991  27.405  1.00  0.00     0.054 A 
BRANCH  55  56
ATOM     56  S   UNL A   1      42.178  24.783  26.092  1.00  0.00     0.124 S 
ATOM     57  O   UNL A   1      42.083  25.609  24.893  1.00  0.00    -0.237 OA
ATOM     58  O   UNL A   1      43.516  24.306  26.431  1.00  0.00    -0.237 OA
ATOM     59  O   UNL A   1      41.113  23.796  26.262  1.00  0.00    -0.744 OA
ENDBRANCH  55  56
ENDBRANCH  27  50
BRANCH  39  60
ATOM     60  C   UNL A   1      44.370  28.885  35.661  1.00  0.00    -0.014 A 
ATOM     61  C   UNL A   1      45.706  29.262  35.437  1.00  0.00     0.010 A 
ATOM     62  C   UNL A   1      44.090  27.846  36.565  1.00  0.00     0.010 A 
ATOM     63  C   UNL A   1      46.747  28.577  36.071  1.00  0.00     0.020 A 
ATOM     64  C   UNL A   1      45.127  27.177  37.220  1.00  0.00     0.020 A 
ATOM     65  C   UNL A   1      46.450  27.534  36.953  1.00  0.00     0.054 A 
BRANCH  65  66
ATOM     66  S   UNL A   1      47.815  26.666  37.773  1.00  0.00     0.124 S 
ATOM     67  O   UNL A   1      47.116  25.930  38.824  1.00  0.00    -0.237 OA
ATOM     68  O   UNL A   1      48.372  25.848  36.698  1.00  0.00    -0.237 OA
ATOM     69  O   UNL A   1      48.680  27.747  38.238  1.00  0.00    -0.744 OA
ENDBRANCH  65  66
ENDBRANCH  39  60
ENDBRANCH  13  14
ENDBRANCH   6   8
ENDBRANCH   3   4
ENDBRANCH   2   3
ENDBRANCH   1   2
BRANCH   1  70
ATOM     70  C   UNL A   1      32.773  29.373  25.832  1.00  0.00     0.002 C 
BRANCH  70  71
ATOM     71  C   UNL A   1      33.620  28.263  26.460  1.00  0.00     0.021 C 
BRANCH  71  72
ATOM     72  C   UNL A   1      33.680  26.948  25.683  1.00  0.00     0.116 C 
BRANCH  72  73
ATOM     73  N   UNL A   1      33.262  25.798  26.469  1.00  0.00    -0.351 N 
ATOM     74  C   UNL A   1      33.212  24.469  26.097  1.00  0.00     0.272 C 
ATOM     75  H   UNL A   1      32.976  25.993  27.391  1.00  0.00     0.163 HD
ATOM     76  O   UNL A   1      32.857  23.616  26.905  1.00  0.00    -0.267 OA
BRANCH  74  77
ATOM     77  C   UNL A   1      33.576  24.103  24.711  1.00  0.00     0.159 A 
ATOM     78  N   UNL A   1      34.839  23.576  24.583  1.00  0.00    -0.247 NA
ATOM     79  C   UNL A   1      32.718  24.259  23.632  1.00  0.00     0.159 A 
ATOM     80  C   UNL A   1      35.200  23.205  23.339  1.00  0.00     0.132 A 
ATOM     81  N   UNL A   1      33.130  23.916  22.367  1.00  0.00    -0.247 NA
ATOM     82  C   UNL A   1      34.369  23.385  22.252  1.00  0.00     0.132 A 
BRANCH  79  83
ATOM     83  C   UNL A   1      31.252  24.507  23.755  1.00  0.00     0.274 C 
ATOM     84  O   UNL A   1      30.541  23.507  23.896  1.00  0.00    -0.267 OA
ATOM     85  N   UNL A   1      30.689  25.786  23.772  1.00  0.00    -0.337 N 
ATOM     86  C   UNL A   1      29.482  25.949  24.574  1.00  0.00     0.120 C 
ATOM     87  C   UNL A   1      31.239  27.009  23.188  1.00  0.00     0.120 C 
ATOM     88  C   UNL A   1      28.398  26.698  23.821  1.00  0.00     0.025 C 
ATOM     89  C   UNL A   1      30.165  27.830  22.459  1.00  0.00     0.025 C 
ATOM     90  C   UNL A   1      28.924  28.061  23.347  1.00  0.00    -0.003 C 
BRANCH  90  91
ATOM     91  C   UNL A   1      27.842  28.872  22.607  1.00  0.00     0.039 C 
BRANCH  91  92
ATOM     92  C   UNL A   1      28.124  30.359  22.575  1.00  0.00    -0.048 A 
ATOM     93  C   UNL A   1      28.669  31.000  23.697  1.00  0.00     0.004 A 
ATOM     94  C   UNL A   1      27.894  31.111  21.414  1.00  0.00     0.004 A 
ATOM     95  C   UNL A   1      28.991  32.358  23.654  1.00  0.00     0.000 A 
ATOM     96  C   UNL A   1      28.219  32.469  21.372  1.00  0.00     0.000 A 
ATOM     97  C   UNL A   1      28.769  33.092  22.491  1.00  0.00     0.000 A 
ENDBRANCH  91  92
ENDBRANCH  90  91
ENDBRANCH  79  83
ENDBRANCH  74  77
ENDBRANCH  72  73
ENDBRANCH  71  72
ENDBRANCH  70  71
ENDBRANCH   1  70
TORSDOF 19
ENDMDL
