MODEL 1
REMARK VINA RESULT:      -9.2      0.000      0.000
REMARK SMILES CC(C)[C@H](NC(=O)[C@H](C)NC(=O)C[NH3+])C(=O)NCCCCCCNC(=O)c1ccc(-c2c3nc(c(-c4ccc(S(=O)(=O)[O-])cc4)c4ccc([nH]4)c(-c4ccc(S(=O)(=O)[O-])cc4)c4nc(c(-c5ccc(S(=O)(=O)[O-])cc5)c5ccc2[nH]5)C=C4)C=C3)cc1
REMARK SMILES IDX 19 1 18 2 17 3 15 4 16 5 4 7 2 8 1 9 3 10 5 11 6 12 7 14
REMARK SMILES IDX 8 15 9 16 10 17 11 18 12 20 13 21 14 22 20 26 21 27 22 28
REMARK SMILES IDX 23 29 24 30 25 31 26 33 27 34 28 35 86 36 29 37 85 38 30 39
REMARK SMILES IDX 31 40 32 41 79 42 33 43 84 44 78 45 80 46 34 47 83 48 77 49
REMARK SMILES IDX 76 50 35 52 65 53 46 54 64 55 47 56 50 57 63 58 81 59 48 60
REMARK SMILES IDX 49 61 62 63 82 64 51 65 36 66 37 67 45 68 38 69 44 70 39 71
REMARK SMILES IDX 40 72 41 73 42 74 43 75 66 76 67 77 75 78 68 79 74 80 69 81
REMARK SMILES IDX 70 82 71 83 72 84 73 85 52 86 53 87 61 88 54 89 60 90 55 91
REMARK SMILES IDX 56 92 57 93 58 94 59 95
REMARK H PARENT 17 6 5 13 10 19 14 23 14 24 14 25 24 32 80 51 50 62
REMARK Flexibility Score: inf
ROOT
ATOM      1  C   UNL A   1      39.507  22.576  26.146  1.00  0.00     0.021 C 
ENDROOT
BRANCH   1   2
ATOM      2  C   UNL A   1      38.465  23.662  26.485  1.00  0.00     0.116 C 
BRANCH   2   3
ATOM      3  N   UNL A   1      37.056  23.242  26.368  1.00  0.00    -0.354 N 
ATOM      4  C   UNL A   1      36.233  23.514  25.265  1.00  0.00     0.242 C 
ATOM      5  O   UNL A   1      36.618  23.327  24.111  1.00  0.00    -0.273 OA
ATOM      6  H   UNL A   1      36.666  22.734  27.116  1.00  0.00     0.163 HD
BRANCH   4   7
ATOM      7  C   UNL A   1      34.756  23.980  25.573  1.00  0.00     0.173 C 
BRANCH   7   8
ATOM      8  C   UNL A   1      34.263  25.461  25.341  1.00  0.00     0.015 C 
ATOM      9  C   UNL A   1      34.038  25.693  23.833  1.00  0.00     0.010 C 
ATOM     10  C   UNL A   1      32.941  25.935  25.982  1.00  0.00     0.010 C 
ENDBRANCH   7   8
BRANCH   7  11
ATOM     11  N   UNL A   1      34.268  23.398  26.795  1.00  0.00    -0.342 N 
ATOM     12  C   UNL A   1      33.614  22.245  27.030  1.00  0.00     0.242 C 
ATOM     13  H   UNL A   1      34.443  23.938  27.599  1.00  0.00     0.164 HD
ATOM     14  O   UNL A   1      33.214  22.162  28.203  1.00  0.00    -0.273 OA
BRANCH  12  15
ATOM     15  C   UNL A   1      33.147  21.196  25.941  1.00  0.00     0.168 C 
ATOM     16  C   UNL A   1      31.741  21.742  25.565  1.00  0.00     0.041 C 
BRANCH  15  17
ATOM     17  N   UNL A   1      32.977  19.713  26.048  1.00  0.00    -0.340 N 
ATOM     18  C   UNL A   1      32.898  18.558  25.335  1.00  0.00     0.275 C 
ATOM     19  H   UNL A   1      32.888  19.486  27.002  1.00  0.00     0.164 HD
ATOM     20  O   UNL A   1      32.206  17.686  25.886  1.00  0.00    -0.268 OA
BRANCH  18  21
ATOM     21  C   UNL A   1      33.606  18.162  24.039  1.00  0.00     0.360 C 
BRANCH  21  22
ATOM     22  N   UNL A   1      32.697  18.011  22.894  1.00  0.00    -0.350 N 
ATOM     23  H   UNL A   1      32.028  17.266  23.087  1.00  0.00     0.344 HD
ATOM     24  H   UNL A   1      33.236  17.777  22.060  1.00  0.00     0.344 HD
ATOM     25  H   UNL A   1      32.195  18.886  22.740  1.00  0.00     0.344 HD
ENDBRANCH  21  22
ENDBRANCH  18  21
ENDBRANCH  15  17
ENDBRANCH  12  15
ENDBRANCH   7  11
ENDBRANCH   4   7
ENDBRANCH   2   3
ENDBRANCH   1   2
BRANCH   1  26
ATOM     26  C   UNL A   1      40.775  22.578  27.040  1.00  0.00     0.002 C 
BRANCH  26  27
ATOM     27  C   UNL A   1      41.116  21.351  27.909  1.00  0.00     0.002 C 
BRANCH  27  28
ATOM     28  C   UNL A   1      42.036  20.265  27.345  1.00  0.00     0.021 C 
BRANCH  28  29
ATOM     29  C   UNL A   1      41.757  19.738  25.940  1.00  0.00     0.116 C 
BRANCH  29  30
ATOM     30  N   UNL A   1      42.963  19.337  25.241  1.00  0.00    -0.352 N 
ATOM     31  C   UNL A   1      44.062  20.063  24.849  1.00  0.00     0.251 C 
ATOM     32  H   UNL A   1      43.001  18.381  25.009  1.00  0.00     0.163 HD
ATOM     33  O   UNL A   1      44.904  19.522  24.136  1.00  0.00    -0.269 OA
BRANCH  31  34
ATOM     34  C   UNL A   1      44.245  21.478  25.250  1.00  0.00     0.039 A 
ATOM     35  C   UNL A   1      44.914  21.748  26.451  1.00  0.00     0.014 A 
ATOM     36  C   UNL A   1      43.719  22.536  24.504  1.00  0.00     0.014 A 
ATOM     37  C   UNL A   1      45.108  23.068  26.867  1.00  0.00     0.010 A 
ATOM     38  C   UNL A   1      43.967  23.857  24.888  1.00  0.00     0.010 A 
ATOM     39  C   UNL A   1      44.668  24.137  26.071  1.00  0.00    -0.014 A 
BRANCH  39  40
ATOM     40  C   UNL A   1      44.963  25.546  26.449  1.00  0.00     0.031 A 
ATOM     41  C   UNL A   1      46.359  26.096  26.341  1.00  0.00     0.074 A 
ATOM     42  C   UNL A   1      43.974  26.314  26.949  1.00  0.00     0.049 A 
ATOM     43  N   UNL A   1      46.804  27.284  26.666  1.00  0.00    -0.248 NA
ATOM     44  C   UNL A   1      47.395  25.191  25.819  1.00  0.00     0.031 C 
ATOM     45  C   UNL A   1      42.586  25.884  27.140  1.00  0.00     0.029 A 
ATOM     46  N   UNL A   1      43.982  27.612  27.395  1.00  0.00    -0.354 N 
ATOM     47  C   UNL A   1      48.169  27.265  26.403  1.00  0.00     0.074 A 
ATOM     48  C   UNL A   1      48.487  25.933  25.932  1.00  0.00     0.031 C 
ATOM     49  C   UNL A   1      41.874  26.906  27.642  1.00  0.00     0.029 A 
ATOM     50  C   UNL A   1      42.759  28.048  27.850  1.00  0.00     0.049 A 
ATOM     51  H   UNL A   1      44.787  28.178  27.390  1.00  0.00     0.167 HD
ATOM     52  C   UNL A   1      49.073  28.267  26.529  1.00  0.00     0.031 A 
ATOM     53  C   UNL A   1      42.388  29.229  28.384  1.00  0.00     0.031 A 
ATOM     54  C   UNL A   1      48.751  29.591  26.997  1.00  0.00     0.049 A 
ATOM     55  C   UNL A   1      43.413  30.318  28.533  1.00  0.00     0.074 A 
ATOM     56  C   UNL A   1      49.582  30.693  27.100  1.00  0.00     0.029 A 
ATOM     57  N   UNL A   1      47.502  29.990  27.450  1.00  0.00    -0.354 N 
ATOM     58  N   UNL A   1      44.683  30.304  28.205  1.00  0.00    -0.248 NA
ATOM     59  C   UNL A   1      42.954  31.586  29.118  1.00  0.00     0.031 C 
ATOM     60  C   UNL A   1      48.852  31.740  27.672  1.00  0.00     0.029 A 
ATOM     61  C   UNL A   1      47.549  31.310  27.867  1.00  0.00     0.049 A 
ATOM     62  H   UNL A   1      46.700  29.419  27.470  1.00  0.00     0.167 HD
ATOM     63  C   UNL A   1      45.172  31.564  28.530  1.00  0.00     0.074 A 
ATOM     64  C   UNL A   1      44.056  32.322  29.057  1.00  0.00     0.031 C 
ATOM     65  C   UNL A   1      46.432  32.048  28.405  1.00  0.00     0.031 A 
BRANCH  52  66
ATOM     66  C   UNL A   1      50.506  27.967  26.169  1.00  0.00    -0.014 A 
ATOM     67  C   UNL A   1      51.009  28.245  24.885  1.00  0.00     0.010 A 
ATOM     68  C   UNL A   1      51.376  27.439  27.141  1.00  0.00     0.010 A 
ATOM     69  C   UNL A   1      52.340  27.960  24.566  1.00  0.00     0.020 A 
ATOM     70  C   UNL A   1      52.716  27.180  26.835  1.00  0.00     0.020 A 
ATOM     71  C   UNL A   1      53.184  27.425  25.543  1.00  0.00     0.054 A 
BRANCH  71  72
ATOM     72  S   UNL A   1      54.910  27.079  25.103  1.00  0.00     0.124 S 
ATOM     73  O   UNL A   1      54.759  26.100  24.031  1.00  0.00    -0.237 OA
ATOM     74  O   UNL A   1      55.405  28.389  24.693  1.00  0.00    -0.237 OA
ATOM     75  O   UNL A   1      55.486  26.559  26.343  1.00  0.00    -0.744 OA
ENDBRANCH  71  72
ENDBRANCH  52  66
BRANCH  53  76
ATOM     76  C   UNL A   1      40.979  29.435  28.818  1.00  0.00    -0.014 A 
ATOM     77  C   UNL A   1      40.675  29.684  30.168  1.00  0.00     0.010 A 
ATOM     78  C   UNL A   1      39.933  29.409  27.876  1.00  0.00     0.010 A 
ATOM     79  C   UNL A   1      39.352  29.891  30.569  1.00  0.00     0.020 A 
ATOM     80  C   UNL A   1      38.613  29.644  28.269  1.00  0.00     0.020 A 
ATOM     81  C   UNL A   1      38.329  29.874  29.616  1.00  0.00     0.054 A 
BRANCH  81  82
ATOM     82  S   UNL A   1      36.628  30.204  30.153  1.00  0.00     0.124 S 
ATOM     83  O   UNL A   1      36.454  29.233  31.228  1.00  0.00    -0.237 OA
ATOM     84  O   UNL A   1      36.694  31.603  30.567  1.00  0.00    -0.237 OA
ATOM     85  O   UNL A   1      35.836  29.956  28.949  1.00  0.00    -0.744 OA
ENDBRANCH  81  82
ENDBRANCH  53  76
BRANCH  65  86
ATOM     86  C   UNL A   1      46.673  33.469  28.841  1.00  0.00    -0.014 A 
ATOM     87  C   UNL A   1      47.261  33.756  30.086  1.00  0.00     0.010 A 
ATOM     88  C   UNL A   1      46.357  34.530  27.972  1.00  0.00     0.010 A 
ATOM     89  C   UNL A   1      47.501  35.079  30.466  1.00  0.00     0.020 A 
ATOM     90  C   UNL A   1      46.622  35.852  28.336  1.00  0.00     0.020 A 
ATOM     91  C   UNL A   1      47.181  36.119  29.588  1.00  0.00     0.054 A 
BRANCH  91  92
ATOM     92  S   UNL A   1      47.548  37.824  30.086  1.00  0.00     0.124 S 
ATOM     93  O   UNL A   1      47.398  37.755  31.537  1.00  0.00    -0.237 OA
ATOM     94  O   UNL A   1      48.914  38.012  29.603  1.00  0.00    -0.237 OA
ATOM     95  O   UNL A   1      46.534  38.614  29.392  1.00  0.00    -0.744 OA
ENDBRANCH  91  92
ENDBRANCH  65  86
ENDBRANCH  39  40
ENDBRANCH  31  34
ENDBRANCH  29  30
ENDBRANCH  28  29
ENDBRANCH  27  28
ENDBRANCH  26  27
ENDBRANCH   1  26
TORSDOF 22
ENDMDL
MODEL 2
REMARK VINA RESULT:      -9.1      5.773      9.170
REMARK SMILES CC(C)[C@H](NC(=O)[C@H](C)NC(=O)C[NH3+])C(=O)NCCCCCCNC(=O)c1ccc(-c2c3nc(c(-c4ccc(S(=O)(=O)[O-])cc4)c4ccc([nH]4)c(-c4ccc(S(=O)(=O)[O-])cc4)c4nc(c(-c5ccc(S(=O)(=O)[O-])cc5)c5ccc2[nH]5)C=C4)C=C3)cc1
REMARK SMILES IDX 19 1 18 2 17 3 15 4 16 5 4 7 2 8 1 9 3 10 5 11 6 12 7 14
REMARK SMILES IDX 8 15 9 16 10 17 11 18 12 20 13 21 14 22 20 26 21 27 22 28
REMARK SMILES IDX 23 29 24 30 25 31 26 33 27 34 28 35 86 36 29 37 85 38 30 39
REMARK SMILES IDX 31 40 32 41 79 42 33 43 84 44 78 45 80 46 34 47 83 48 77 49
REMARK SMILES IDX 76 50 35 52 65 53 46 54 64 55 47 56 50 57 63 58 81 59 48 60
REMARK SMILES IDX 49 61 62 63 82 64 51 65 36 66 37 67 45 68 38 69 44 70 39 71
REMARK SMILES IDX 40 72 41 73 42 74 43 75 66 76 67 77 75 78 68 79 74 80 69 81
REMARK SMILES IDX 70 82 71 83 72 84 73 85 52 86 53 87 61 88 54 89 60 90 55 91
REMARK SMILES IDX 56 92 57 93 58 94 59 95
REMARK H PARENT 17 6 5 13 10 19 14 23 14 24 14 25 24 32 80 51 50 62
REMARK Flexibility Score: inf
ROOT
ATOM      1  C   UNL A   1      31.525  27.897  23.339  1.00  0.00     0.021 C 
ENDROOT
BRANCH   1   2
ATOM      2  C   UNL A   1      31.137  27.087  22.085  1.00  0.00     0.116 C 
BRANCH   2   3
ATOM      3  N   UNL A   1      31.539  25.667  22.103  1.00  0.00    -0.354 N 
ATOM      4  C   UNL A   1      31.226  24.764  23.130  1.00  0.00     0.242 C 
ATOM      5  O   UNL A   1      30.087  24.680  23.590  1.00  0.00    -0.273 OA
ATOM      6  H   UNL A   1      32.062  25.330  21.341  1.00  0.00     0.163 HD
BRANCH   4   7
ATOM      7  C   UNL A   1      32.377  23.793  23.602  1.00  0.00     0.173 C 
BRANCH   7   8
ATOM      8  C   UNL A   1      33.899  24.210  23.598  1.00  0.00     0.015 C 
ATOM      9  C   UNL A   1      34.349  24.514  25.042  1.00  0.00     0.010 C 
ATOM     10  C   UNL A   1      34.962  23.212  23.090  1.00  0.00     0.010 C 
ENDBRANCH   7   8
BRANCH   7  11
ATOM     11  N   UNL A   1      32.150  22.449  23.144  1.00  0.00    -0.342 N 
ATOM     12  C   UNL A   1      32.412  21.259  23.716  1.00  0.00     0.242 C 
ATOM     13  H   UNL A   1      31.728  22.389  22.256  1.00  0.00     0.164 HD
ATOM     14  O   UNL A   1      32.217  20.310  22.939  1.00  0.00    -0.273 OA
BRANCH  12  15
ATOM     15  C   UNL A   1      33.128  21.029  25.108  1.00  0.00     0.168 C 
ATOM     16  C   UNL A   1      33.175  19.476  25.183  1.00  0.00     0.041 C 
BRANCH  15  17
ATOM     17  N   UNL A   1      32.727  21.476  26.480  1.00  0.00    -0.340 N 
ATOM     18  C   UNL A   1      32.092  22.452  27.179  1.00  0.00     0.275 C 
ATOM     19  H   UNL A   1      33.047  20.802  27.124  1.00  0.00     0.164 HD
ATOM     20  O   UNL A   1      32.531  22.596  28.333  1.00  0.00    -0.268 OA
BRANCH  18  21
ATOM     21  C   UNL A   1      30.882  23.302  26.789  1.00  0.00     0.360 C 
BRANCH  21  22
ATOM     22  N   UNL A   1      29.610  22.565  26.822  1.00  0.00    -0.350 N 
ATOM     23  H   UNL A   1      28.866  23.187  27.139  1.00  0.00     0.344 HD
ATOM     24  H   UNL A   1      29.691  21.776  27.463  1.00  0.00     0.344 HD
ATOM     25  H   UNL A   1      29.391  22.222  25.887  1.00  0.00     0.344 HD
ENDBRANCH  21  22
ENDBRANCH  18  21
ENDBRANCH  15  17
ENDBRANCH  12  15
ENDBRANCH   7  11
ENDBRANCH   4   7
ENDBRANCH   2   3
ENDBRANCH   1   2
BRANCH   1  26
ATOM     26  C   UNL A   1      33.032  27.866  23.705  1.00  0.00     0.002 C 
BRANCH  26  27
ATOM     27  C   UNL A   1      33.595  28.832  24.766  1.00  0.00     0.002 C 
BRANCH  27  28
ATOM     28  C   UNL A   1      34.050  28.277  26.119  1.00  0.00     0.021 C 
BRANCH  28  29
ATOM     29  C   UNL A   1      33.442  28.873  27.386  1.00  0.00     0.116 C 
BRANCH  29  30
ATOM     30  N   UNL A   1      33.436  30.324  27.377  1.00  0.00    -0.352 N 
ATOM     31  C   UNL A   1      34.316  31.233  27.911  1.00  0.00     0.251 C 
ATOM     32  H   UNL A   1      32.671  30.725  26.905  1.00  0.00     0.163 HD
ATOM     33  O   UNL A   1      34.017  32.425  27.895  1.00  0.00    -0.269 OA
BRANCH  31  34
ATOM     34  C   UNL A   1      35.601  30.810  28.518  1.00  0.00     0.039 A 
ATOM     35  C   UNL A   1      36.759  31.527  28.191  1.00  0.00     0.014 A 
ATOM     36  C   UNL A   1      35.697  29.690  29.348  1.00  0.00     0.014 A 
ATOM     37  C   UNL A   1      37.991  31.163  28.741  1.00  0.00     0.010 A 
ATOM     38  C   UNL A   1      36.918  29.364  29.946  1.00  0.00     0.010 A 
ATOM     39  C   UNL A   1      38.076  30.099  29.653  1.00  0.00    -0.014 A 
BRANCH  39  40
ATOM     40  C   UNL A   1      39.362  29.768  30.327  1.00  0.00     0.031 A 
ATOM     41  C   UNL A   1      40.231  28.649  29.821  1.00  0.00     0.074 A 
ATOM     42  C   UNL A   1      39.716  30.446  31.437  1.00  0.00     0.049 A 
ATOM     43  N   UNL A   1      41.359  28.197  30.309  1.00  0.00    -0.248 NA
ATOM     44  C   UNL A   1      39.766  27.931  28.624  1.00  0.00     0.031 C 
ATOM     45  C   UNL A   1      38.939  31.527  32.050  1.00  0.00     0.029 A 
ATOM     46  N   UNL A   1      40.813  30.324  32.254  1.00  0.00    -0.354 N 
ATOM     47  C   UNL A   1      41.729  27.135  29.491  1.00  0.00     0.074 A 
ATOM     48  C   UNL A   1      40.684  26.984  28.501  1.00  0.00     0.031 C 
ATOM     49  C   UNL A   1      39.595  31.983  33.129  1.00  0.00     0.029 A 
ATOM     50  C   UNL A   1      40.814  31.201  33.313  1.00  0.00     0.049 A 
ATOM     51  H   UNL A   1      41.531  29.669  32.096  1.00  0.00     0.167 HD
ATOM     52  C   UNL A   1      42.844  26.366  29.550  1.00  0.00     0.031 A 
ATOM     53  C   UNL A   1      41.688  31.356  34.326  1.00  0.00     0.031 A 
ATOM     54  C   UNL A   1      43.882  26.522  30.537  1.00  0.00     0.049 A 
ATOM     55  C   UNL A   1      42.907  30.477  34.383  1.00  0.00     0.074 A 
ATOM     56  C   UNL A   1      45.079  25.835  30.643  1.00  0.00     0.029 A 
ATOM     57  N   UNL A   1      43.843  27.420  31.594  1.00  0.00    -0.354 N 
ATOM     58  N   UNL A   1      43.277  29.530  33.553  1.00  0.00    -0.248 NA
ATOM     59  C   UNL A   1      43.829  30.691  35.507  1.00  0.00     0.031 C 
ATOM     60  C   UNL A   1      45.735  26.274  31.798  1.00  0.00     0.029 A 
ATOM     61  C   UNL A   1      44.976  27.279  32.377  1.00  0.00     0.049 A 
ATOM     62  H   UNL A   1      43.116  28.063  31.761  1.00  0.00     0.167 HD
ATOM     63  C   UNL A   1      44.483  29.046  34.047  1.00  0.00     0.074 A 
ATOM     64  C   UNL A   1      44.791  29.820  35.233  1.00  0.00     0.031 C 
ATOM     65  C   UNL A   1      45.262  28.047  33.564  1.00  0.00     0.031 A 
BRANCH  52  66
ATOM     66  C   UNL A   1      42.994  25.270  28.525  1.00  0.00    -0.014 A 
ATOM     67  C   UNL A   1      43.686  25.489  27.320  1.00  0.00     0.010 A 
ATOM     68  C   UNL A   1      42.472  23.990  28.788  1.00  0.00     0.010 A 
ATOM     69  C   UNL A   1      43.815  24.464  26.379  1.00  0.00     0.020 A 
ATOM     70  C   UNL A   1      42.625  22.953  27.862  1.00  0.00     0.020 A 
ATOM     71  C   UNL A   1      43.280  23.202  26.654  1.00  0.00     0.054 A 
BRANCH  71  72
ATOM     72  S   UNL A   1      43.477  21.887  25.420  1.00  0.00     0.124 S 
ATOM     73  O   UNL A   1      43.401  22.634  24.168  1.00  0.00    -0.237 OA
ATOM     74  O   UNL A   1      44.789  21.336  25.745  1.00  0.00    -0.237 OA
ATOM     75  O   UNL A   1      42.347  20.995  25.681  1.00  0.00    -0.744 OA
ENDBRANCH  71  72
ENDBRANCH  52  66
BRANCH  53  76
ATOM     76  C   UNL A   1      41.437  32.388  35.370  1.00  0.00    -0.014 A 
ATOM     77  C   UNL A   1      40.690  32.076  36.520  1.00  0.00     0.010 A 
ATOM     78  C   UNL A   1      41.967  33.684  35.232  1.00  0.00     0.010 A 
ATOM     79  C   UNL A   1      40.467  33.043  37.504  1.00  0.00     0.020 A 
ATOM     80  C   UNL A   1      41.770  34.645  36.227  1.00  0.00     0.020 A 
ATOM     81  C   UNL A   1      41.013  34.321  37.353  1.00  0.00     0.054 A 
BRANCH  81  82
ATOM     82  S   UNL A   1      40.760  35.541  38.673  1.00  0.00     0.124 S 
ATOM     83  O   UNL A   1      42.008  36.296  38.633  1.00  0.00    -0.237 OA
ATOM     84  O   UNL A   1      39.572  36.256  38.217  1.00  0.00    -0.237 OA
ATOM     85  O   UNL A   1      40.564  34.718  39.865  1.00  0.00    -0.744 OA
ENDBRANCH  81  82
ENDBRANCH  53  76
BRANCH  65  86
ATOM     86  C   UNL A   1      46.531  27.737  34.314  1.00  0.00    -0.014 A 
ATOM     87  C   UNL A   1      47.729  28.413  34.022  1.00  0.00     0.010 A 
ATOM     88  C   UNL A   1      46.512  26.797  35.361  1.00  0.00     0.010 A 
ATOM     89  C   UNL A   1      48.892  28.133  34.745  1.00  0.00     0.020 A 
ATOM     90  C   UNL A   1      47.665  26.535  36.105  1.00  0.00     0.020 A 
ATOM     91  C   UNL A   1      48.853  27.196  35.783  1.00  0.00     0.054 A 
BRANCH  91  92
ATOM     92  S   UNL A   1      50.364  26.887  36.735  1.00  0.00     0.124 S 
ATOM     93  O   UNL A   1      49.858  26.851  38.105  1.00  0.00    -0.237 OA
ATOM     94  O   UNL A   1      50.823  25.607  36.201  1.00  0.00    -0.237 OA
ATOM     95  O   UNL A   1      51.216  28.030  36.416  1.00  0.00    -0.744 OA
ENDBRANCH  91  92
ENDBRANCH  65  86
ENDBRANCH  39  40
ENDBRANCH  31  34
ENDBRANCH  29  30
ENDBRANCH  28  29
ENDBRANCH  27  28
ENDBRANCH  26  27
ENDBRANCH   1  26
TORSDOF 22
ENDMDL
MODEL 3
REMARK VINA RESULT:      -8.6      5.421      9.807
REMARK SMILES CC(C)[C@H](NC(=O)[C@H](C)NC(=O)C[NH3+])C(=O)NCCCCCCNC(=O)c1ccc(-c2c3nc(c(-c4ccc(S(=O)(=O)[O-])cc4)c4ccc([nH]4)c(-c4ccc(S(=O)(=O)[O-])cc4)c4nc(c(-c5ccc(S(=O)(=O)[O-])cc5)c5ccc2[nH]5)C=C4)C=C3)cc1
REMARK SMILES IDX 19 1 18 2 17 3 15 4 16 5 4 7 2 8 1 9 3 10 5 11 6 12 7 14
REMARK SMILES IDX 8 15 9 16 10 17 11 18 12 20 13 21 14 22 20 26 21 27 22 28
REMARK SMILES IDX 23 29 24 30 25 31 26 33 27 34 28 35 86 36 29 37 85 38 30 39
REMARK SMILES IDX 31 40 32 41 79 42 33 43 84 44 78 45 80 46 34 47 83 48 77 49
REMARK SMILES IDX 76 50 35 52 65 53 46 54 64 55 47 56 50 57 63 58 81 59 48 60
REMARK SMILES IDX 49 61 62 63 82 64 51 65 36 66 37 67 45 68 38 69 44 70 39 71
REMARK SMILES IDX 40 72 41 73 42 74 43 75 66 76 67 77 75 78 68 79 74 80 69 81
REMARK SMILES IDX 70 82 71 83 72 84 73 85 52 86 53 87 61 88 54 89 60 90 55 91
REMARK SMILES IDX 56 92 57 93 58 94 59 95
REMARK H PARENT 17 6 5 13 10 19 14 23 14 24 14 25 24 32 80 51 50 62
REMARK Flexibility Score: inf
ROOT
ATOM      1  C   UNL A   1      48.213  25.285  27.918  1.00  0.00     0.021 C 
ENDROOT
BRANCH   1   2
ATOM      2  C   UNL A   1      47.671  24.837  26.545  1.00  0.00     0.116 C 
BRANCH   2   3
ATOM      3  N   UNL A   1      46.391  24.104  26.580  1.00  0.00    -0.354 N 
ATOM      4  C   UNL A   1      45.137  24.680  26.325  1.00  0.00     0.242 C 
ATOM      5  O   UNL A   1      44.948  25.410  25.353  1.00  0.00    -0.273 OA
ATOM      6  H   UNL A   1      46.419  23.145  26.798  1.00  0.00     0.163 HD
BRANCH   4   7
ATOM      7  C   UNL A   1      43.954  24.269  27.287  1.00  0.00     0.173 C 
BRANCH   7   8
ATOM      8  C   UNL A   1      44.193  23.745  28.756  1.00  0.00     0.015 C 
ATOM      9  C   UNL A   1      43.955  24.898  29.754  1.00  0.00     0.010 C 
ATOM     10  C   UNL A   1      43.318  22.600  29.311  1.00  0.00     0.010 C 
ENDBRANCH   7   8
BRANCH   7  11
ATOM     11  N   UNL A   1      42.932  23.546  26.580  1.00  0.00    -0.342 N 
ATOM     12  C   UNL A   1      42.991  22.430  25.829  1.00  0.00     0.242 C 
ATOM     13  H   UNL A   1      42.031  23.935  26.661  1.00  0.00     0.164 HD
ATOM     14  O   UNL A   1      41.919  22.198  25.247  1.00  0.00    -0.273 OA
BRANCH  12  15
ATOM     15  C   UNL A   1      44.297  21.611  25.473  1.00  0.00     0.168 C 
ATOM     16  C   UNL A   1      44.668  22.202  24.084  1.00  0.00     0.041 C 
BRANCH  15  17
ATOM     17  N   UNL A   1      44.496  20.133  25.337  1.00  0.00    -0.340 N 
ATOM     18  C   UNL A   1      44.068  18.919  25.770  1.00  0.00     0.275 C 
ATOM     19  H   UNL A   1      45.215  19.984  24.681  1.00  0.00     0.164 HD
ATOM     20  O   UNL A   1      44.951  18.045  25.739  1.00  0.00    -0.268 OA
BRANCH  18  21
ATOM     21  C   UNL A   1      42.665  18.468  26.180  1.00  0.00     0.360 C 
BRANCH  21  22
ATOM     22  N   UNL A   1      42.238  18.989  27.486  1.00  0.00    -0.350 N 
ATOM     23  H   UNL A   1      41.381  19.532  27.372  1.00  0.00     0.344 HD
ATOM     24  H   UNL A   1      42.970  19.586  27.871  1.00  0.00     0.344 HD
ATOM     25  H   UNL A   1      42.064  18.211  28.122  1.00  0.00     0.344 HD
ENDBRANCH  21  22
ENDBRANCH  18  21
ENDBRANCH  15  17
ENDBRANCH  12  15
ENDBRANCH   7  11
ENDBRANCH   4   7
ENDBRANCH   2   3
ENDBRANCH   1   2
BRANCH   1  26
ATOM     26  C   UNL A   1      49.640  24.781  28.259  1.00  0.00     0.002 C 
BRANCH  26  27
ATOM     27  C   UNL A   1      50.840  25.748  28.202  1.00  0.00     0.002 C 
BRANCH  27  28
ATOM     28  C   UNL A   1      51.710  25.789  26.943  1.00  0.00     0.021 C 
BRANCH  28  29
ATOM     29  C   UNL A   1      51.035  26.093  25.607  1.00  0.00     0.116 C 
BRANCH  29  30
ATOM     30  N   UNL A   1      51.397  27.395  25.079  1.00  0.00    -0.352 N 
ATOM     31  C   UNL A   1      50.861  28.640  25.304  1.00  0.00     0.251 C 
ATOM     32  H   UNL A   1      52.157  27.385  24.454  1.00  0.00     0.163 HD
ATOM     33  O   UNL A   1      51.253  29.584  24.622  1.00  0.00    -0.269 OA
BRANCH  31  34
ATOM     34  C   UNL A   1      49.816  28.864  26.331  1.00  0.00     0.039 A 
ATOM     35  C   UNL A   1      50.205  29.379  27.574  1.00  0.00     0.014 A 
ATOM     36  C   UNL A   1      48.478  28.522  26.117  1.00  0.00     0.014 A 
ATOM     37  C   UNL A   1      49.252  29.607  28.572  1.00  0.00     0.010 A 
ATOM     38  C   UNL A   1      47.517  28.806  27.091  1.00  0.00     0.010 A 
ATOM     39  C   UNL A   1      47.893  29.356  28.327  1.00  0.00    -0.014 A 
BRANCH  39  40
ATOM     40  C   UNL A   1      46.857  29.694  29.340  1.00  0.00     0.031 A 
ATOM     41  C   UNL A   1      46.482  28.709  30.415  1.00  0.00     0.074 A 
ATOM     42  C   UNL A   1      46.211  30.873  29.253  1.00  0.00     0.049 A 
ATOM     43  N   UNL A   1      45.573  28.819  31.352  1.00  0.00    -0.248 NA
ATOM     44  C   UNL A   1      47.205  27.428  30.429  1.00  0.00     0.031 C 
ATOM     45  C   UNL A   1      46.456  31.897  28.234  1.00  0.00     0.029 A 
ATOM     46  N   UNL A   1      45.211  31.410  30.026  1.00  0.00    -0.354 N 
ATOM     47  C   UNL A   1      45.605  27.620  32.055  1.00  0.00     0.074 A 
ATOM     48  C   UNL A   1      46.592  26.781  31.410  1.00  0.00     0.031 C 
ATOM     49  C   UNL A   1      45.647  32.945  28.458  1.00  0.00     0.029 A 
ATOM     50  C   UNL A   1      44.795  32.653  29.608  1.00  0.00     0.049 A 
ATOM     51  H   UNL A   1      44.827  30.949  30.807  1.00  0.00     0.167 HD
ATOM     52  C   UNL A   1      44.887  27.256  33.146  1.00  0.00     0.031 A 
ATOM     53  C   UNL A   1      43.832  33.465  30.084  1.00  0.00     0.031 A 
ATOM     54  C   UNL A   1      43.906  28.095  33.785  1.00  0.00     0.049 A 
ATOM     55  C   UNL A   1      43.035  33.031  31.283  1.00  0.00     0.074 A 
ATOM     56  C   UNL A   1      43.173  27.843  34.932  1.00  0.00     0.029 A 
ATOM     57  N   UNL A   1      43.513  29.345  33.328  1.00  0.00    -0.354 N 
ATOM     58  N   UNL A   1      43.136  31.924  31.981  1.00  0.00    -0.248 NA
ATOM     59  C   UNL A   1      42.000  33.957  31.763  1.00  0.00     0.031 C 
ATOM     60  C   UNL A   1      42.294  28.912  35.133  1.00  0.00     0.029 A 
ATOM     61  C   UNL A   1      42.523  29.859  34.148  1.00  0.00     0.049 A 
ATOM     62  H   UNL A   1      43.885  29.799  32.538  1.00  0.00     0.167 HD
ATOM     63  C   UNL A   1      42.186  32.028  32.991  1.00  0.00     0.074 A 
ATOM     64  C   UNL A   1      41.540  33.314  32.828  1.00  0.00     0.031 C 
ATOM     65  C   UNL A   1      41.877  31.136  33.964  1.00  0.00     0.031 A 
BRANCH  52  66
ATOM     66  C   UNL A   1      45.125  25.879  33.713  1.00  0.00    -0.014 A 
ATOM     67  C   UNL A   1      44.410  24.763  33.243  1.00  0.00     0.010 A 
ATOM     68  C   UNL A   1      46.110  25.690  34.701  1.00  0.00     0.010 A 
ATOM     69  C   UNL A   1      44.641  23.493  33.780  1.00  0.00     0.020 A 
ATOM     70  C   UNL A   1      46.366  24.416  35.220  1.00  0.00     0.020 A 
ATOM     71  C   UNL A   1      45.616  23.328  34.768  1.00  0.00     0.054 A 
BRANCH  71  72
ATOM     72  S   UNL A   1      45.905  21.666  35.435  1.00  0.00     0.124 S 
ATOM     73  O   UNL A   1      47.293  21.425  35.054  1.00  0.00    -0.237 OA
ATOM     74  O   UNL A   1      45.667  21.847  36.863  1.00  0.00    -0.237 OA
ATOM     75  O   UNL A   1      44.917  20.838  34.741  1.00  0.00    -0.744 OA
ENDBRANCH  71  72
ENDBRANCH  52  66
BRANCH  53  76
ATOM     76  C   UNL A   1      43.570  34.773  29.421  1.00  0.00    -0.014 A 
ATOM     77  C   UNL A   1      42.597  34.881  28.412  1.00  0.00     0.010 A 
ATOM     78  C   UNL A   1      44.277  35.924  29.814  1.00  0.00     0.010 A 
ATOM     79  C   UNL A   1      42.345  36.112  27.800  1.00  0.00     0.020 A 
ATOM     80  C   UNL A   1      44.008  37.163  29.225  1.00  0.00     0.020 A 
ATOM     81  C   UNL A   1      43.049  37.247  28.214  1.00  0.00     0.054 A 
BRANCH  81  82
ATOM     82  S   UNL A   1      42.661  38.845  27.447  1.00  0.00     0.124 S 
ATOM     83  O   UNL A   1      41.604  38.484  26.509  1.00  0.00    -0.237 OA
ATOM     84  O   UNL A   1      42.245  39.651  28.592  1.00  0.00    -0.237 OA
ATOM     85  O   UNL A   1      43.928  39.248  26.839  1.00  0.00    -0.744 OA
ENDBRANCH  81  82
ENDBRANCH  53  76
BRANCH  65  86
ATOM     86  C   UNL A   1      40.793  31.522  34.936  1.00  0.00    -0.014 A 
ATOM     87  C   UNL A   1      39.439  31.273  34.648  1.00  0.00     0.010 A 
ATOM     88  C   UNL A   1      41.137  32.093  36.176  1.00  0.00     0.010 A 
ATOM     89  C   UNL A   1      38.447  31.614  35.571  1.00  0.00     0.020 A 
ATOM     90  C   UNL A   1      40.149  32.409  37.112  1.00  0.00     0.020 A 
ATOM     91  C   UNL A   1      38.808  32.179  36.798  1.00  0.00     0.054 A 
BRANCH  91  92
ATOM     92  S   UNL A   1      37.504  32.567  37.997  1.00  0.00     0.124 S 
ATOM     93  O   UNL A   1      38.161  33.554  38.851  1.00  0.00    -0.237 OA
ATOM     94  O   UNL A   1      36.433  33.083  37.149  1.00  0.00    -0.237 OA
ATOM     95  O   UNL A   1      37.223  31.282  38.632  1.00  0.00    -0.744 OA
ENDBRANCH  91  92
ENDBRANCH  65  86
ENDBRANCH  39  40
ENDBRANCH  31  34
ENDBRANCH  29  30
ENDBRANCH  28  29
ENDBRANCH  27  28
ENDBRANCH  26  27
ENDBRANCH   1  26
TORSDOF 22
ENDMDL
