MODEL 1
REMARK VINA RESULT:     -12.3      0.000      0.000
REMARK SMILES COc1cc(OC)cc(-c2cc3nc(C)c(CCC(=O)NCCCCCCNC(=O)c4ccc(-c5c6nc(c(-c7ccc(S(=O)(=O)[O-])cc7)c7ccc([nH]7)c(-c7ccc(S(=O)(=O)[O-])cc7)c7nc(c(-c8ccc(S(=O)(=O)[O-])cc8)c8ccc5[nH]8)C=C7)C=C6)cc4)c(C)n3n2)c1
REMARK SMILES IDX 24 1 23 2 22 3 21 4 19 5 20 6 18 8 17 9 16 10 10 11 11 12
REMARK SMILES IDX 94 13 12 14 93 15 13 16 91 17 14 18 92 19 15 20 9 21 3 22
REMARK SMILES IDX 4 23 95 24 5 25 8 26 2 27 1 28 6 29 7 30 25 31 26 32 27 33
REMARK SMILES IDX 28 34 29 35 30 37 31 38 32 39 90 40 33 41 89 42 34 43 35 44
REMARK SMILES IDX 36 45 83 46 37 47 88 48 82 49 84 50 38 51 87 52 81 53 80 54
REMARK SMILES IDX 39 56 69 57 50 58 68 59 51 60 54 61 67 62 85 63 52 64 53 65
REMARK SMILES IDX 66 67 86 68 55 69 40 70 41 71 49 72 42 73 48 74 43 75 44 76
REMARK SMILES IDX 45 77 46 78 47 79 70 80 71 81 79 82 72 83 78 84 73 85 74 86
REMARK SMILES IDX 75 87 76 88 77 89 56 90 57 91 65 92 58 93 64 94 59 95 60 96
REMARK SMILES IDX 61 97 62 98 63 99
REMARK H PARENT 21 7 28 36 84 55 54 66
REMARK Flexibility Score: inf
ROOT
ATOM      1  C   UNL A   1      31.092  27.001  23.573  1.00  0.00     0.002 C 
ENDROOT
BRANCH   1   2
ATOM      2  C   UNL A   1      31.603  25.623  23.161  1.00  0.00     0.021 C 
BRANCH   2   3
ATOM      3  C   UNL A   1      30.593  24.488  23.089  1.00  0.00     0.116 C 
BRANCH   3   4
ATOM      4  N   UNL A   1      30.343  23.958  24.426  1.00  0.00    -0.356 N 
ATOM      5  C   UNL A   1      30.930  22.921  25.095  1.00  0.00     0.220 C 
ATOM      6  O   UNL A   1      30.361  22.490  26.101  1.00  0.00    -0.275 OA
ATOM      7  H   UNL A   1      29.636  24.425  24.928  1.00  0.00     0.163 HD
BRANCH   5   8
ATOM      8  C   UNL A   1      32.273  22.349  24.660  1.00  0.00     0.105 C 
BRANCH   8   9
ATOM      9  C   UNL A   1      33.211  22.025  25.839  1.00  0.00     0.049 C 
BRANCH   9  10
ATOM     10  C   UNL A   1      34.640  22.015  25.387  1.00  0.00    -0.005 A 
ATOM     11  C   UNL A   1      38.872  22.936  26.332  1.00  0.00     0.095 A 
ATOM     12  C   UNL A   1      38.582  21.650  25.691  1.00  0.00     0.080 A 
ATOM     13  N   UNL A   1      37.851  23.758  26.015  1.00  0.00    -0.166 NA
ATOM     14  C   UNL A   1      37.308  21.627  25.282  1.00  0.00     0.156 A 
ATOM     15  N   UNL A   1      36.849  22.907  25.483  1.00  0.00    -0.219 N 
ATOM     16  N   UNL A   1      36.577  20.545  24.941  1.00  0.00    -0.234 NA
ATOM     17  C   UNL A   1      35.460  23.108  25.419  1.00  0.00     0.046 A 
ATOM     18  C   UNL A   1      35.296  20.686  25.051  1.00  0.00     0.045 A 
ATOM     19  C   UNL A   1      35.037  24.529  25.584  1.00  0.00     0.067 C 
ATOM     20  C   UNL A   1      34.508  19.407  24.826  1.00  0.00     0.067 C 
BRANCH  11  21
ATOM     21  C   UNL A   1      40.342  23.303  26.853  1.00  0.00     0.009 A 
ATOM     22  C   UNL A   1      43.153  23.759  25.373  1.00  0.00     0.123 A 
ATOM     23  C   UNL A   1      42.675  25.512  25.095  1.00  0.00     0.092 A 
ATOM     24  C   UNL A   1      41.950  22.700  26.273  1.00  0.00     0.057 A 
ATOM     25  C   UNL A   1      41.038  26.045  25.908  1.00  0.00     0.123 A 
ATOM     26  C   UNL A   1      40.020  24.931  26.755  1.00  0.00     0.057 A 
BRANCH  22  27
ATOM     27  O   UNL A   1      44.475  23.421  25.288  1.00  0.00    -0.497 OA
ATOM     28  C   UNL A   1      44.835  22.947  24.001  1.00  0.00     0.278 C 
ENDBRANCH  22  27
BRANCH  25  29
ATOM     29  O   UNL A   1      40.841  26.985  27.023  1.00  0.00    -0.497 OA
ATOM     30  C   UNL A   1      40.792  28.465  26.878  1.00  0.00     0.278 C 
ENDBRANCH  25  29
ENDBRANCH  11  21
ENDBRANCH   9  10
ENDBRANCH   8   9
ENDBRANCH   5   8
ENDBRANCH   3   4
ENDBRANCH   2   3
ENDBRANCH   1   2
BRANCH   1  31
ATOM     31  C   UNL A   1      31.202  27.310  25.069  1.00  0.00     0.002 C 
BRANCH  31  32
ATOM     32  C   UNL A   1      31.622  28.709  25.630  1.00  0.00     0.021 C 
BRANCH  32  33
ATOM     33  C   UNL A   1      32.827  29.258  26.814  1.00  0.00     0.116 C 
BRANCH  33  34
ATOM     34  N   UNL A   1      34.314  30.747  26.858  1.00  0.00    -0.352 N 
ATOM     35  C   UNL A   1      35.630  31.109  27.952  1.00  0.00     0.251 C 
ATOM     36  H   UNL A   1      34.258  31.372  26.100  1.00  0.00     0.163 HD
ATOM     37  O   UNL A   1      36.023  32.284  27.906  1.00  0.00    -0.269 OA
BRANCH  35  38
ATOM     38  C   UNL A   1      36.628  29.965  28.940  1.00  0.00     0.039 A 
ATOM     39  C   UNL A   1      36.095  29.714  30.225  1.00  0.00     0.014 A 
ATOM     40  C   UNL A   1      38.053  29.883  28.998  1.00  0.00     0.014 A 
ATOM     41  C   UNL A   1      36.806  30.127  31.421  1.00  0.00     0.010 A 
ATOM     42  C   UNL A   1      38.757  30.361  30.150  1.00  0.00     0.010 A 
ATOM     43  C   UNL A   1      38.058  30.743  31.320  1.00  0.00    -0.014 A 
BRANCH  43  44
ATOM     44  C   UNL A   1      38.649  31.804  32.268  1.00  0.00     0.031 A 
ATOM     45  C   UNL A   1      39.339  32.796  31.440  1.00  0.00     0.074 A 
ATOM     46  C   UNL A   1      38.672  32.178  33.597  1.00  0.00     0.049 A 
ATOM     47  N   UNL A   1      40.459  32.515  30.876  1.00  0.00    -0.248 NA
ATOM     48  C   UNL A   1      38.697  34.034  30.985  1.00  0.00     0.031 C 
ATOM     49  C   UNL A   1      37.981  31.699  34.800  1.00  0.00     0.029 A 
ATOM     50  N   UNL A   1      39.431  33.203  34.173  1.00  0.00    -0.354 N 
ATOM     51  C   UNL A   1      40.796  33.638  30.173  1.00  0.00     0.074 A 
ATOM     52  C   UNL A   1      39.573  34.399  30.043  1.00  0.00     0.031 C 
ATOM     53  C   UNL A   1      38.157  32.526  35.867  1.00  0.00     0.029 A 
ATOM     54  C   UNL A   1      39.190  33.482  35.528  1.00  0.00     0.049 A 
ATOM     55  H   UNL A   1      40.100  33.705  33.653  1.00  0.00     0.167 HD
ATOM     56  C   UNL A   1      42.105  33.957  30.009  1.00  0.00     0.031 A 
ATOM     57  C   UNL A   1      39.917  34.239  36.404  1.00  0.00     0.031 A 
ATOM     58  C   UNL A   1      42.982  32.938  30.564  1.00  0.00     0.049 A 
ATOM     59  C   UNL A   1      41.308  34.219  35.901  1.00  0.00     0.074 A 
ATOM     60  C   UNL A   1      43.133  31.573  30.383  1.00  0.00     0.029 A 
ATOM     61  N   UNL A   1      43.542  33.208  31.796  1.00  0.00    -0.354 N 
ATOM     62  N   UNL A   1      42.053  33.150  35.884  1.00  0.00    -0.248 NA
ATOM     63  C   UNL A   1      41.747  35.308  35.051  1.00  0.00     0.031 C 
ATOM     64  C   UNL A   1      43.358  31.036  31.688  1.00  0.00     0.029 A 
ATOM     65  C   UNL A   1      43.396  32.097  32.594  1.00  0.00     0.049 A 
ATOM     66  H   UNL A   1      43.973  34.053  32.059  1.00  0.00     0.167 HD
ATOM     67  C   UNL A   1      42.769  33.250  34.702  1.00  0.00     0.074 A 
ATOM     68  C   UNL A   1      42.621  34.644  34.292  1.00  0.00     0.031 C 
ATOM     69  C   UNL A   1      43.185  32.136  34.032  1.00  0.00     0.031 A 
BRANCH  56  70
ATOM     70  C   UNL A   1      42.563  35.349  29.716  1.00  0.00    -0.014 A 
ATOM     71  C   UNL A   1      42.398  35.843  28.412  1.00  0.00     0.010 A 
ATOM     72  C   UNL A   1      43.328  36.119  30.615  1.00  0.00     0.010 A 
ATOM     73  C   UNL A   1      43.011  37.035  28.019  1.00  0.00     0.020 A 
ATOM     74  C   UNL A   1      43.897  37.332  30.250  1.00  0.00     0.020 A 
ATOM     75  C   UNL A   1      43.761  37.767  28.942  1.00  0.00     0.054 A 
BRANCH  75  76
ATOM     76  S   UNL A   1      44.622  39.257  28.401  1.00  0.00     0.124 S 
ATOM     77  O   UNL A   1      43.554  40.250  28.453  1.00  0.00    -0.237 OA
ATOM     78  O   UNL A   1      45.666  39.390  29.413  1.00  0.00    -0.237 OA
ATOM     79  O   UNL A   1      45.096  38.911  27.064  1.00  0.00    -0.744 OA
ENDBRANCH  75  76
ENDBRANCH  56  70
BRANCH  57  80
ATOM     80  C   UNL A   1      39.540  35.099  37.571  1.00  0.00    -0.014 A 
ATOM     81  C   UNL A   1      38.989  34.553  38.757  1.00  0.00     0.010 A 
ATOM     82  C   UNL A   1      40.044  36.410  37.651  1.00  0.00     0.010 A 
ATOM     83  C   UNL A   1      39.032  35.248  39.985  1.00  0.00     0.020 A 
ATOM     84  C   UNL A   1      40.089  37.111  38.873  1.00  0.00     0.020 A 
ATOM     85  C   UNL A   1      39.614  36.515  40.041  1.00  0.00     0.054 A 
BRANCH  85  86
ATOM     86  S   UNL A   1      39.886  37.317  41.658  1.00  0.00     0.124 S 
ATOM     87  O   UNL A   1      41.338  37.258  41.801  1.00  0.00    -0.237 OA
ATOM     88  O   UNL A   1      39.328  38.651  41.455  1.00  0.00    -0.237 OA
ATOM     89  O   UNL A   1      39.137  36.475  42.591  1.00  0.00    -0.744 OA
ENDBRANCH  85  86
ENDBRANCH  57  80
BRANCH  69  90
ATOM     90  C   UNL A   1      43.212  30.810  34.771  1.00  0.00    -0.014 A 
ATOM     91  C   UNL A   1      42.101  29.956  34.927  1.00  0.00     0.010 A 
ATOM     92  C   UNL A   1      44.462  30.354  35.229  1.00  0.00     0.010 A 
ATOM     93  C   UNL A   1      42.238  28.694  35.534  1.00  0.00     0.020 A 
ATOM     94  C   UNL A   1      44.610  29.093  35.817  1.00  0.00     0.020 A 
ATOM     95  C   UNL A   1      43.496  28.269  35.971  1.00  0.00     0.054 A 
BRANCH  95  96
ATOM     96  S   UNL A   1      43.686  26.612  36.691  1.00  0.00     0.124 S 
ATOM     97  O   UNL A   1      43.410  26.845  38.106  1.00  0.00    -0.237 OA
ATOM     98  O   UNL A   1      42.680  25.829  35.975  1.00  0.00    -0.237 OA
ATOM     99  O   UNL A   1      45.069  26.253  36.383  1.00  0.00    -0.744 OA
ENDBRANCH  95  96
ENDBRANCH  69  90
ENDBRANCH  43  44
ENDBRANCH  35  38
ENDBRANCH  33  34
ENDBRANCH  32  33
ENDBRANCH  31  32
ENDBRANCH   1  31
TORSDOF 21
ENDMDL
MODEL 2
REMARK VINA RESULT:     -12.0      4.358     12.401
REMARK SMILES COc1cc(OC)cc(-c2cc3nc(C)c(CCC(=O)NCCCCCCNC(=O)c4ccc(-c5c6nc(c(-c7ccc(S(=O)(=O)[O-])cc7)c7ccc([nH]7)c(-c7ccc(S(=O)(=O)[O-])cc7)c7nc(c(-c8ccc(S(=O)(=O)[O-])cc8)c8ccc5[nH]8)C=C7)C=C6)cc4)c(C)n3n2)c1
REMARK SMILES IDX 24 1 23 2 22 3 21 4 19 5 20 6 18 8 17 9 16 10 10 11 11 12
REMARK SMILES IDX 94 13 12 14 93 15 13 16 91 17 14 18 92 19 15 20 9 21 3 22
REMARK SMILES IDX 4 23 95 24 5 25 8 26 2 27 1 28 6 29 7 30 25 31 26 32 27 33
REMARK SMILES IDX 28 34 29 35 30 37 31 38 32 39 90 40 33 41 89 42 34 43 35 44
REMARK SMILES IDX 36 45 83 46 37 47 88 48 82 49 84 50 38 51 87 52 81 53 80 54
REMARK SMILES IDX 39 56 69 57 50 58 68 59 51 60 54 61 67 62 85 63 52 64 53 65
REMARK SMILES IDX 66 67 86 68 55 69 40 70 41 71 49 72 42 73 48 74 43 75 44 76
REMARK SMILES IDX 45 77 46 78 47 79 70 80 71 81 79 82 72 83 78 84 73 85 74 86
REMARK SMILES IDX 75 87 76 88 77 89 56 90 57 91 65 92 58 93 64 94 59 95 60 96
REMARK SMILES IDX 61 97 62 98 63 99
REMARK H PARENT 21 7 28 36 84 55 54 66
REMARK Flexibility Score: inf
ROOT
ATOM      1  C   UNL A   1      40.489  32.059  34.826  1.00  0.00     0.002 C 
ENDROOT
BRANCH   1   2
ATOM      2  C   UNL A   1      39.992  30.743  35.419  1.00  0.00     0.021 C 
BRANCH   2   3
ATOM      3  C   UNL A   1      38.811  30.065  34.741  1.00  0.00     0.116 C 
BRANCH   3   4
ATOM      4  N   UNL A   1      37.763  31.044  34.469  1.00  0.00    -0.356 N 
ATOM      5  C   UNL A   1      37.196  31.434  33.289  1.00  0.00     0.220 C 
ATOM      6  O   UNL A   1      36.529  32.472  33.286  1.00  0.00    -0.275 OA
ATOM      7  H   UNL A   1      37.407  31.498  35.267  1.00  0.00     0.163 HD
BRANCH   5   8
ATOM      8  C   UNL A   1      37.322  30.592  32.026  1.00  0.00     0.105 C 
BRANCH   8   9
ATOM      9  C   UNL A   1      38.085  31.300  30.890  1.00  0.00     0.049 C 
BRANCH   9  10
ATOM     10  C   UNL A   1      37.243  31.368  29.652  1.00  0.00    -0.005 A 
ATOM     11  C   UNL A   1      33.969  29.593  27.248  1.00  0.00     0.095 A 
ATOM     12  C   UNL A   1      33.982  31.050  27.410  1.00  0.00     0.080 A 
ATOM     13  N   UNL A   1      35.239  29.179  27.432  1.00  0.00    -0.166 NA
ATOM     14  C   UNL A   1      35.137  31.431  27.966  1.00  0.00     0.156 A 
ATOM     15  N   UNL A   1      35.911  30.295  27.992  1.00  0.00    -0.219 N 
ATOM     16  N   UNL A   1      35.410  32.615  28.556  1.00  0.00    -0.234 NA
ATOM     17  C   UNL A   1      37.068  30.325  28.788  1.00  0.00     0.046 A 
ATOM     18  C   UNL A   1      36.373  32.592  29.421  1.00  0.00     0.045 A 
ATOM     19  C   UNL A   1      37.890  29.082  28.720  1.00  0.00     0.067 C 
ATOM     20  C   UNL A   1      36.546  33.890  30.191  1.00  0.00     0.067 C 
BRANCH  11  21
ATOM     21  C   UNL A   1      32.752  28.838  26.531  1.00  0.00     0.009 A 
ATOM     22  C   UNL A   1      31.537  28.945  23.562  1.00  0.00     0.123 A 
ATOM     23  C   UNL A   1      32.783  27.693  23.052  1.00  0.00     0.092 A 
ATOM     24  C   UNL A   1      31.559  29.472  25.323  1.00  0.00     0.057 A 
ATOM     25  C   UNL A   1      33.854  26.994  24.461  1.00  0.00     0.123 A 
ATOM     26  C   UNL A   1      33.738  27.574  26.087  1.00  0.00     0.057 A 
BRANCH  22  27
ATOM     27  O   UNL A   1      30.431  29.123  22.779  1.00  0.00    -0.497 OA
ATOM     28  C   UNL A   1      29.474  28.090  22.943  1.00  0.00     0.278 C 
ENDBRANCH  22  27
BRANCH  25  29
ATOM     29  O   UNL A   1      33.857  25.628  25.009  1.00  0.00    -0.497 OA
ATOM     30  C   UNL A   1      34.637  24.495  24.442  1.00  0.00     0.278 C 
ENDBRANCH  25  29
ENDBRANCH  11  21
ENDBRANCH   9  10
ENDBRANCH   8   9
ENDBRANCH   5   8
ENDBRANCH   3   4
ENDBRANCH   2   3
ENDBRANCH   1   2
BRANCH   1  31
ATOM     31  C   UNL A   1      41.162  31.937  33.456  1.00  0.00     0.002 C 
BRANCH  31  32
ATOM     32  C   UNL A   1      41.021  33.013  32.329  1.00  0.00     0.021 C 
BRANCH  32  33
ATOM     33  C   UNL A   1      42.133  33.702  31.127  1.00  0.00     0.116 C 
BRANCH  33  34
ATOM     34  N   UNL A   1      41.954  34.408  29.152  1.00  0.00    -0.352 N 
ATOM     35  C   UNL A   1      43.110  34.817  27.906  1.00  0.00     0.251 C 
ATOM     36  H   UNL A   1      41.020  34.533  28.870  1.00  0.00     0.163 HD
ATOM     37  O   UNL A   1      42.676  35.593  27.042  1.00  0.00    -0.269 OA
BRANCH  35  38
ATOM     38  C   UNL A   1      44.737  34.086  27.586  1.00  0.00     0.039 A 
ATOM     39  C   UNL A   1      44.798  33.347  26.382  1.00  0.00     0.014 A 
ATOM     40  C   UNL A   1      45.633  33.510  28.538  1.00  0.00     0.014 A 
ATOM     41  C   UNL A   1      45.030  31.914  26.399  1.00  0.00     0.010 A 
ATOM     42  C   UNL A   1      45.802  32.089  28.600  1.00  0.00     0.010 A 
ATOM     43  C   UNL A   1      45.242  31.248  27.610  1.00  0.00    -0.014 A 
BRANCH  43  44
ATOM     44  C   UNL A   1      44.850  29.798  27.952  1.00  0.00     0.031 A 
ATOM     45  C   UNL A   1      44.382  29.785  29.339  1.00  0.00     0.074 A 
ATOM     46  C   UNL A   1      44.709  28.548  27.380  1.00  0.00     0.049 A 
ATOM     47  N   UNL A   1      45.211  29.909  30.314  1.00  0.00    -0.248 NA
ATOM     48  C   UNL A   1      42.965  29.907  29.699  1.00  0.00     0.031 C 
ATOM     49  C   UNL A   1      44.809  28.044  26.005  1.00  0.00     0.029 A 
ATOM     50  N   UNL A   1      44.405  27.349  28.034  1.00  0.00    -0.354 N 
ATOM     51  C   UNL A   1      44.441  29.883  31.443  1.00  0.00     0.074 A 
ATOM     52  C   UNL A   1      43.093  30.171  31.004  1.00  0.00     0.031 C 
ATOM     53  C   UNL A   1      44.368  26.761  25.888  1.00  0.00     0.029 A 
ATOM     54  C   UNL A   1      44.185  26.225  27.220  1.00  0.00     0.049 A 
ATOM     55  H   UNL A   1      44.347  27.296  29.015  1.00  0.00     0.167 HD
ATOM     56  C   UNL A   1      44.948  29.357  32.586  1.00  0.00     0.031 A 
ATOM     57  C   UNL A   1      44.108  24.904  27.564  1.00  0.00     0.031 A 
ATOM     58  C   UNL A   1      46.341  28.969  32.430  1.00  0.00     0.049 A 
ATOM     59  C   UNL A   1      44.897  24.761  28.806  1.00  0.00     0.074 A 
ATOM     60  C   UNL A   1      47.498  29.618  32.034  1.00  0.00     0.029 A 
ATOM     61  N   UNL A   1      46.591  27.625  32.240  1.00  0.00    -0.354 N 
ATOM     62  N   UNL A   1      46.190  24.914  28.861  1.00  0.00    -0.248 NA
ATOM     63  C   UNL A   1      44.200  24.828  30.075  1.00  0.00     0.031 C 
ATOM     64  C   UNL A   1      48.201  28.682  31.212  1.00  0.00     0.029 A 
ATOM     65  C   UNL A   1      47.476  27.491  31.195  1.00  0.00     0.049 A 
ATOM     66  H   UNL A   1      46.203  26.888  32.764  1.00  0.00     0.167 HD
ATOM     67  C   UNL A   1      46.410  25.548  30.072  1.00  0.00     0.074 A 
ATOM     68  C   UNL A   1      45.167  25.368  30.819  1.00  0.00     0.031 C 
ATOM     69  C   UNL A   1      47.473  26.386  30.250  1.00  0.00     0.031 A 
BRANCH  56  70
ATOM     70  C   UNL A   1      44.080  28.837  33.686  1.00  0.00    -0.014 A 
ATOM     71  C   UNL A   1      44.670  28.577  34.933  1.00  0.00     0.010 A 
ATOM     72  C   UNL A   1      42.753  28.407  33.489  1.00  0.00     0.010 A 
ATOM     73  C   UNL A   1      43.972  27.878  35.921  1.00  0.00     0.020 A 
ATOM     74  C   UNL A   1      42.031  27.759  34.483  1.00  0.00     0.020 A 
ATOM     75  C   UNL A   1      42.658  27.470  35.684  1.00  0.00     0.054 A 
BRANCH  75  76
ATOM     76  S   UNL A   1      41.796  26.491  36.929  1.00  0.00     0.124 S 
ATOM     77  O   UNL A   1      40.620  27.314  37.190  1.00  0.00    -0.237 OA
ATOM     78  O   UNL A   1      41.553  25.238  36.219  1.00  0.00    -0.237 OA
ATOM     79  O   UNL A   1      42.760  26.404  38.023  1.00  0.00    -0.744 OA
ENDBRANCH  75  76
ENDBRANCH  56  70
BRANCH  57  80
ATOM     80  C   UNL A   1      43.324  23.749  27.020  1.00  0.00    -0.014 A 
ATOM     81  C   UNL A   1      43.629  23.161  25.767  1.00  0.00     0.010 A 
ATOM     82  C   UNL A   1      42.502  23.006  27.887  1.00  0.00     0.010 A 
ATOM     83  C   UNL A   1      43.213  21.851  25.441  1.00  0.00     0.020 A 
ATOM     84  C   UNL A   1      42.083  21.699  27.568  1.00  0.00     0.020 A 
ATOM     85  C   UNL A   1      42.467  21.114  26.362  1.00  0.00     0.054 A 
BRANCH  85  86
ATOM     86  S   UNL A   1      42.131  19.348  26.048  1.00  0.00     0.124 S 
ATOM     87  O   UNL A   1      42.966  19.067  24.884  1.00  0.00    -0.237 OA
ATOM     88  O   UNL A   1      42.554  18.713  27.294  1.00  0.00    -0.237 OA
ATOM     89  O   UNL A   1      40.690  19.310  25.801  1.00  0.00    -0.744 OA
ENDBRANCH  85  86
ENDBRANCH  57  80
BRANCH  69  90
ATOM     90  C   UNL A   1      48.625  26.318  29.262  1.00  0.00    -0.014 A 
ATOM     91  C   UNL A   1      49.765  25.502  29.413  1.00  0.00     0.010 A 
ATOM     92  C   UNL A   1      48.483  27.034  28.059  1.00  0.00     0.010 A 
ATOM     93  C   UNL A   1      50.735  25.419  28.398  1.00  0.00     0.020 A 
ATOM     94  C   UNL A   1      49.434  26.943  27.037  1.00  0.00     0.020 A 
ATOM     95  C   UNL A   1      50.559  26.138  27.212  1.00  0.00     0.054 A 
BRANCH  95  96
ATOM     96  S   UNL A   1      51.776  25.976  25.873  1.00  0.00     0.124 S 
ATOM     97  O   UNL A   1      52.197  24.583  25.991  1.00  0.00    -0.237 OA
ATOM     98  O   UNL A   1      50.994  26.299  24.681  1.00  0.00    -0.237 OA
ATOM     99  O   UNL A   1      52.803  26.961  26.213  1.00  0.00    -0.744 OA
ENDBRANCH  95  96
ENDBRANCH  69  90
ENDBRANCH  43  44
ENDBRANCH  35  38
ENDBRANCH  33  34
ENDBRANCH  32  33
ENDBRANCH  31  32
ENDBRANCH   1  31
TORSDOF 21
ENDMDL
MODEL 3
REMARK VINA RESULT:     -12.0      4.859      9.248
REMARK SMILES COc1cc(OC)cc(-c2cc3nc(C)c(CCC(=O)NCCCCCCNC(=O)c4ccc(-c5c6nc(c(-c7ccc(S(=O)(=O)[O-])cc7)c7ccc([nH]7)c(-c7ccc(S(=O)(=O)[O-])cc7)c7nc(c(-c8ccc(S(=O)(=O)[O-])cc8)c8ccc5[nH]8)C=C7)C=C6)cc4)c(C)n3n2)c1
REMARK SMILES IDX 24 1 23 2 22 3 21 4 19 5 20 6 18 8 17 9 16 10 10 11 11 12
REMARK SMILES IDX 94 13 12 14 93 15 13 16 91 17 14 18 92 19 15 20 9 21 3 22
REMARK SMILES IDX 4 23 95 24 5 25 8 26 2 27 1 28 6 29 7 30 25 31 26 32 27 33
REMARK SMILES IDX 28 34 29 35 30 37 31 38 32 39 90 40 33 41 89 42 34 43 35 44
REMARK SMILES IDX 36 45 83 46 37 47 88 48 82 49 84 50 38 51 87 52 81 53 80 54
REMARK SMILES IDX 39 56 69 57 50 58 68 59 51 60 54 61 67 62 85 63 52 64 53 65
REMARK SMILES IDX 66 67 86 68 55 69 40 70 41 71 49 72 42 73 48 74 43 75 44 76
REMARK SMILES IDX 45 77 46 78 47 79 70 80 71 81 79 82 72 83 78 84 73 85 74 86
REMARK SMILES IDX 75 87 76 88 77 89 56 90 57 91 65 92 58 93 64 94 59 95 60 96
REMARK SMILES IDX 61 97 62 98 63 99
REMARK H PARENT 21 7 28 36 84 55 54 66
REMARK Flexibility Score: inf
ROOT
ATOM      1  C   UNL A   1      44.948  26.064  28.933  1.00  0.00     0.002 C 
ENDROOT
BRANCH   1   2
ATOM      2  C   UNL A   1      44.960  24.605  28.487  1.00  0.00     0.021 C 
BRANCH   2   3
ATOM      3  C   UNL A   1      44.292  23.583  29.394  1.00  0.00     0.116 C 
BRANCH   3   4
ATOM      4  N   UNL A   1      42.844  23.631  29.217  1.00  0.00    -0.356 N 
ATOM      5  C   UNL A   1      42.049  23.096  28.243  1.00  0.00     0.220 C 
ATOM      6  O   UNL A   1      40.889  23.504  28.158  1.00  0.00    -0.275 OA
ATOM      7  H   UNL A   1      42.361  24.132  29.914  1.00  0.00     0.163 HD
BRANCH   5   8
ATOM      8  C   UNL A   1      42.547  21.986  27.327  1.00  0.00     0.105 C 
BRANCH   8   9
ATOM      9  C   UNL A   1      42.232  22.230  25.839  1.00  0.00     0.049 C 
BRANCH   9  10
ATOM     10  C   UNL A   1      43.395  22.881  25.154  1.00  0.00    -0.005 A 
ATOM     11  C   UNL A   1      46.672  25.859  25.354  1.00  0.00     0.095 A 
ATOM     12  C   UNL A   1      46.985  24.539  24.797  1.00  0.00     0.080 A 
ATOM     13  N   UNL A   1      45.344  26.033  25.198  1.00  0.00    -0.166 NA
ATOM     14  C   UNL A   1      45.853  23.850  24.609  1.00  0.00     0.156 A 
ATOM     15  N   UNL A   1      44.844  24.750  24.858  1.00  0.00    -0.219 N 
ATOM     16  N   UNL A   1      45.728  22.520  24.417  1.00  0.00    -0.234 NA
ATOM     17  C   UNL A   1      43.549  24.232  25.025  1.00  0.00     0.046 A 
ATOM     18  C   UNL A   1      44.578  22.022  24.738  1.00  0.00     0.045 A 
ATOM     19  C   UNL A   1      42.496  25.268  25.231  1.00  0.00     0.067 C 
ATOM     20  C   UNL A   1      44.518  20.505  24.674  1.00  0.00     0.067 C 
BRANCH  11  21
ATOM     21  C   UNL A   1      47.813  26.954  25.613  1.00  0.00     0.009 A 
ATOM     22  C   UNL A   1      50.980  26.762  26.094  1.00  0.00     0.123 A 
ATOM     23  C   UNL A   1      51.215  26.762  24.270  1.00  0.00     0.092 A 
ATOM     24  C   UNL A   1      49.252  26.874  26.712  1.00  0.00     0.057 A 
ATOM     25  C   UNL A   1      49.630  27.023  23.249  1.00  0.00     0.123 A 
ATOM     26  C   UNL A   1      48.066  27.142  23.981  1.00  0.00     0.057 A 
BRANCH  22  27
ATOM     27  O   UNL A   1      52.043  27.086  26.889  1.00  0.00    -0.497 OA
ATOM     28  C   UNL A   1      52.891  25.980  27.146  1.00  0.00     0.278 C 
ENDBRANCH  22  27
BRANCH  25  29
ATOM     29  O   UNL A   1      49.266  28.180  22.416  1.00  0.00    -0.497 OA
ATOM     30  C   UNL A   1      49.873  28.490  21.094  1.00  0.00     0.278 C 
ENDBRANCH  25  29
ENDBRANCH  11  21
ENDBRANCH   9  10
ENDBRANCH   8   9
ENDBRANCH   5   8
ENDBRANCH   3   4
ENDBRANCH   2   3
ENDBRANCH   1   2
BRANCH   1  31
ATOM     31  C   UNL A   1      46.324  26.735  28.985  1.00  0.00     0.002 C 
BRANCH  31  32
ATOM     32  C   UNL A   1      46.553  28.186  29.524  1.00  0.00     0.021 C 
BRANCH  32  33
ATOM     33  C   UNL A   1      46.497  29.803  28.790  1.00  0.00     0.116 C 
BRANCH  33  34
ATOM     34  N   UNL A   1      45.625  30.635  27.065  1.00  0.00    -0.352 N 
ATOM     35  C   UNL A   1      44.555  31.990  26.785  1.00  0.00     0.251 C 
ATOM     36  H   UNL A   1      45.873  30.161  26.239  1.00  0.00     0.163 HD
ATOM     37  O   UNL A   1      43.915  31.924  25.725  1.00  0.00    -0.269 OA
BRANCH  35  38
ATOM     38  C   UNL A   1      44.443  33.551  27.696  1.00  0.00     0.039 A 
ATOM     39  C   UNL A   1      45.355  33.645  28.772  1.00  0.00     0.014 A 
ATOM     40  C   UNL A   1      43.262  34.288  28.015  1.00  0.00     0.014 A 
ATOM     41  C   UNL A   1      44.884  33.720  30.143  1.00  0.00     0.010 A 
ATOM     42  C   UNL A   1      42.759  34.299  29.356  1.00  0.00     0.010 A 
ATOM     43  C   UNL A   1      43.513  33.747  30.418  1.00  0.00    -0.014 A 
BRANCH  43  44
ATOM     44  C   UNL A   1      42.804  33.172  31.659  1.00  0.00     0.031 A 
ATOM     45  C   UNL A   1      43.481  31.922  32.012  1.00  0.00     0.074 A 
ATOM     46  C   UNL A   1      41.826  33.473  32.587  1.00  0.00     0.049 A 
ATOM     47  N   UNL A   1      43.325  30.866  31.295  1.00  0.00    -0.248 NA
ATOM     48  C   UNL A   1      44.561  31.857  33.002  1.00  0.00     0.031 C 
ATOM     49  C   UNL A   1      41.009  34.664  32.852  1.00  0.00     0.029 A 
ATOM     50  N   UNL A   1      41.332  32.638  33.595  1.00  0.00    -0.354 N 
ATOM     51  C   UNL A   1      44.109  29.915  31.886  1.00  0.00     0.074 A 
ATOM     52  C   UNL A   1      45.041  30.640  32.722  1.00  0.00     0.031 C 
ATOM     53  C   UNL A   1      40.323  34.575  34.024  1.00  0.00     0.029 A 
ATOM     54  C   UNL A   1      40.425  33.212  34.502  1.00  0.00     0.049 A 
ATOM     55  H   UNL A   1      41.607  31.695  33.665  1.00  0.00     0.167 HD
ATOM     56  C   UNL A   1      43.731  28.613  31.838  1.00  0.00     0.031 A 
ATOM     57  C   UNL A   1      39.613  32.607  35.420  1.00  0.00     0.031 A 
ATOM     58  C   UNL A   1      42.531  28.429  31.037  1.00  0.00     0.049 A 
ATOM     59  C   UNL A   1      39.364  31.243  34.907  1.00  0.00     0.074 A 
ATOM     60  C   UNL A   1      42.163  28.743  29.740  1.00  0.00     0.029 A 
ATOM     61  N   UNL A   1      41.346  28.272  31.727  1.00  0.00    -0.354 N 
ATOM     62  N   UNL A   1      38.678  30.993  33.828  1.00  0.00    -0.248 NA
ATOM     63  C   UNL A   1      40.209  30.165  35.381  1.00  0.00     0.031 C 
ATOM     64  C   UNL A   1      40.811  29.201  29.825  1.00  0.00     0.029 A 
ATOM     65  C   UNL A   1      40.398  29.088  31.153  1.00  0.00     0.049 A 
ATOM     66  H   UNL A   1      41.203  27.678  32.498  1.00  0.00     0.167 HD
ATOM     67  C   UNL A   1      39.342  29.930  33.237  1.00  0.00     0.074 A 
ATOM     68  C   UNL A   1      40.203  29.396  34.290  1.00  0.00     0.031 C 
ATOM     69  C   UNL A   1      39.331  29.753  31.884  1.00  0.00     0.031 A 
BRANCH  56  70
ATOM     70  C   UNL A   1      44.211  27.599  32.825  1.00  0.00    -0.014 A 
ATOM     71  C   UNL A   1      45.005  26.539  32.360  1.00  0.00     0.010 A 
ATOM     72  C   UNL A   1      43.749  27.534  34.155  1.00  0.00     0.010 A 
ATOM     73  C   UNL A   1      45.287  25.444  33.180  1.00  0.00     0.020 A 
ATOM     74  C   UNL A   1      44.068  26.476  34.997  1.00  0.00     0.020 A 
ATOM     75  C   UNL A   1      44.809  25.420  34.492  1.00  0.00     0.054 A 
BRANCH  75  76
ATOM     76  S   UNL A   1      45.101  23.964  35.514  1.00  0.00     0.124 S 
ATOM     77  O   UNL A   1      43.754  23.416  35.639  1.00  0.00    -0.237 OA
ATOM     78  O   UNL A   1      46.028  23.193  34.691  1.00  0.00    -0.237 OA
ATOM     79  O   UNL A   1      45.672  24.515  36.740  1.00  0.00    -0.744 OA
ENDBRANCH  75  76
ENDBRANCH  56  70
BRANCH  57  80
ATOM     80  C   UNL A   1      39.115  33.017  36.772  1.00  0.00    -0.014 A 
ATOM     81  C   UNL A   1      37.751  32.896  37.137  1.00  0.00     0.010 A 
ATOM     82  C   UNL A   1      40.037  33.200  37.819  1.00  0.00     0.010 A 
ATOM     83  C   UNL A   1      37.343  32.859  38.488  1.00  0.00     0.020 A 
ATOM     84  C   UNL A   1      39.638  33.166  39.170  1.00  0.00     0.020 A 
ATOM     85  C   UNL A   1      38.298  32.963  39.501  1.00  0.00     0.054 A 
BRANCH  85  86
ATOM     86  S   UNL A   1      37.812  32.680  41.237  1.00  0.00     0.124 S 
ATOM     87  O   UNL A   1      37.483  34.026  41.698  1.00  0.00    -0.237 OA
ATOM     88  O   UNL A   1      36.682  31.764  41.110  1.00  0.00    -0.237 OA
ATOM     89  O   UNL A   1      39.010  32.095  41.839  1.00  0.00    -0.744 OA
ENDBRANCH  85  86
ENDBRANCH  57  80
BRANCH  69  90
ATOM     90  C   UNL A   1      38.280  30.480  31.064  1.00  0.00    -0.014 A 
ATOM     91  C   UNL A   1      38.416  31.791  30.565  1.00  0.00     0.010 A 
ATOM     92  C   UNL A   1      37.142  29.745  30.682  1.00  0.00     0.010 A 
ATOM     93  C   UNL A   1      37.438  32.350  29.723  1.00  0.00     0.020 A 
ATOM     94  C   UNL A   1      36.174  30.287  29.830  1.00  0.00     0.020 A 
ATOM     95  C   UNL A   1      36.323  31.590  29.357  1.00  0.00     0.054 A 
BRANCH  95  96
ATOM     96  S   UNL A   1      35.095  32.287  28.213  1.00  0.00     0.124 S 
ATOM     97  O   UNL A   1      34.629  31.109  27.488  1.00  0.00    -0.237 OA
ATOM     98  O   UNL A   1      34.121  32.898  29.115  1.00  0.00    -0.237 OA
ATOM     99  O   UNL A   1      35.865  33.239  27.413  1.00  0.00    -0.744 OA
ENDBRANCH  95  96
ENDBRANCH  69  90
ENDBRANCH  43  44
ENDBRANCH  35  38
ENDBRANCH  33  34
ENDBRANCH  32  33
ENDBRANCH  31  32
ENDBRANCH   1  31
TORSDOF 21
ENDMDL
