MODEL 1
REMARK VINA RESULT:      -9.5      0.000      0.000
REMARK SMILES CS(=O)(=O)c1ccc(N2N=C(C(=O)NCCCCCCNC(=O)c3ccc(-c4c5nc(c(-c6ccc(S(=O)(=O)[O-])cc6)c6ccc([nH]6)c(-c6ccc(S(=O)(=O)[O-])cc6)c6nc(c(-c7ccc(S(=O)(=O)[O-])cc7)c7ccc4[nH]7)C=C6)C=C5)cc3)C[C@H]2c2ccco2)cc1
REMARK SMILES IDX 18 1 17 2 16 3 15 4 14 5 12 6 13 7 11 9 9 10 10 11 85 12
REMARK SMILES IDX 84 13 8 14 5 15 6 16 92 17 7 18 91 19 2 20 1 21 3 22 4 23
REMARK SMILES IDX 86 24 87 25 90 26 88 27 89 28 19 29 20 30 21 31 22 32 23 34
REMARK SMILES IDX 24 35 25 36 83 37 26 38 82 39 27 40 28 41 29 42 76 43 30 44
REMARK SMILES IDX 81 45 75 46 77 47 31 48 80 49 74 50 73 51 32 53 62 54 43 55
REMARK SMILES IDX 61 56 44 57 47 58 60 59 78 60 45 61 46 62 59 64 79 65 48 66
REMARK SMILES IDX 33 67 34 68 42 69 35 70 41 71 36 72 37 73 38 74 39 75 40 76
REMARK SMILES IDX 63 77 64 78 72 79 65 80 71 81 66 82 67 83 68 84 69 85 70 86
REMARK SMILES IDX 49 87 50 88 58 89 51 90 57 91 52 92 53 93 54 94 55 95 56 96
REMARK H PARENT 14 8 21 33 77 52 47 63
REMARK Flexibility Score: inf
ROOT
ATOM      1  C   UNL A   1      36.678  33.429  29.051  1.00  0.00     0.002 C 
ENDROOT
BRANCH   1   2
ATOM      2  C   UNL A   1      36.410  33.480  30.559  1.00  0.00     0.002 C 
BRANCH   2   3
ATOM      3  C   UNL A   1      37.633  33.217  31.439  1.00  0.00     0.021 C 
BRANCH   3   4
ATOM      4  C   UNL A   1      37.291  32.756  32.851  1.00  0.00     0.116 C 
BRANCH   4   5
ATOM      5  N   UNL A   1      37.674  31.374  33.055  1.00  0.00    -0.351 N 
ATOM      6  C   UNL A   1      38.300  30.698  34.069  1.00  0.00     0.267 C 
ATOM      7  O   UNL A   1      38.564  29.512  33.883  1.00  0.00    -0.268 OA
ATOM      8  H   UNL A   1      37.430  30.793  32.298  1.00  0.00     0.163 HD
BRANCH   6   9
ATOM      9  C   UNL A   1      38.639  31.316  35.416  1.00  0.00     0.128 C 
ATOM     10  N   UNL A   1      38.301  32.100  37.364  1.00  0.00    -0.254 N 
ATOM     11  N   UNL A   1      37.761  31.346  36.374  1.00  0.00    -0.171 NA
ATOM     12  C   UNL A   1      39.685  32.510  37.132  1.00  0.00     0.180 C 
ATOM     13  C   UNL A   1      39.952  31.948  35.734  1.00  0.00     0.099 C 
BRANCH  10  14
ATOM     14  C   UNL A   1      37.631  32.257  38.564  1.00  0.00     0.060 A 
ATOM     15  C   UNL A   1      36.247  32.538  40.990  1.00  0.00     0.067 A 
ATOM     16  C   UNL A   1      37.091  33.561  40.547  1.00  0.00     0.022 A 
ATOM     17  C   UNL A   1      36.103  31.371  40.244  1.00  0.00     0.022 A 
ATOM     18  C   UNL A   1      37.790  33.409  39.345  1.00  0.00     0.029 A 
ATOM     19  C   UNL A   1      36.797  31.240  39.042  1.00  0.00     0.029 A 
BRANCH  15  20
ATOM     20  S   UNL A   1      35.363  32.773  42.508  1.00  0.00     0.175 S 
ATOM     21  C   UNL A   1      35.957  31.541  43.635  1.00  0.00     0.163 C 
ATOM     22  O   UNL A   1      33.973  32.461  42.238  1.00  0.00    -0.224 OA
ATOM     23  O   UNL A   1      35.754  34.071  43.026  1.00  0.00    -0.224 OA
ENDBRANCH  15  20
ENDBRANCH  10  14
BRANCH  12  24
ATOM     24  C   UNL A   1      40.025  33.967  37.246  1.00  0.00     0.128 A 
ATOM     25  C   UNL A   1      39.571  35.089  36.577  1.00  0.00     0.048 A 
ATOM     26  O   UNL A   1      40.943  34.346  38.187  1.00  0.00    -0.467 OA
ATOM     27  C   UNL A   1      40.257  36.198  37.129  1.00  0.00     0.042 A 
ATOM     28  C   UNL A   1      41.063  35.694  38.120  1.00  0.00     0.195 A 
ENDBRANCH  12  24
ENDBRANCH   6   9
ENDBRANCH   4   5
ENDBRANCH   3   4
ENDBRANCH   2   3
ENDBRANCH   1   2
BRANCH   1  29
ATOM     29  C   UNL A   1      35.471  33.054  28.186  1.00  0.00     0.021 C 
BRANCH  29  30
ATOM     30  C   UNL A   1      34.344  32.359  28.941  1.00  0.00     0.116 C 
BRANCH  30  31
ATOM     31  N   UNL A   1      33.823  31.219  28.208  1.00  0.00    -0.352 N 
ATOM     32  C   UNL A   1      34.490  30.126  27.715  1.00  0.00     0.251 C 
ATOM     33  H   UNL A   1      32.853  31.233  28.039  1.00  0.00     0.163 HD
ATOM     34  O   UNL A   1      33.929  29.369  26.929  1.00  0.00    -0.269 OA
BRANCH  32  35
ATOM     35  C   UNL A   1      35.889  29.877  28.121  1.00  0.00     0.039 A 
ATOM     36  C   UNL A   1      36.145  29.402  29.408  1.00  0.00     0.014 A 
ATOM     37  C   UNL A   1      36.945  30.119  27.236  1.00  0.00     0.014 A 
ATOM     38  C   UNL A   1      37.458  29.117  29.791  1.00  0.00     0.010 A 
ATOM     39  C   UNL A   1      38.243  29.762  27.592  1.00  0.00     0.010 A 
ATOM     40  C   UNL A   1      38.514  29.264  28.875  1.00  0.00    -0.014 A 
BRANCH  40  41
ATOM     41  C   UNL A   1      39.906  28.901  29.243  1.00  0.00     0.031 A 
ATOM     42  C   UNL A   1      40.791  29.899  29.941  1.00  0.00     0.074 A 
ATOM     43  C   UNL A   1      40.391  27.691  28.900  1.00  0.00     0.049 A 
ATOM     44  N   UNL A   1      42.044  29.781  30.299  1.00  0.00    -0.248 NA
ATOM     45  C   UNL A   1      40.198  31.210  30.257  1.00  0.00     0.031 C 
ATOM     46  C   UNL A   1      39.647  26.649  28.189  1.00  0.00     0.029 A 
ATOM     47  N   UNL A   1      41.629  27.133  29.101  1.00  0.00    -0.354 N 
ATOM     48  C   UNL A   1      42.393  31.001  30.866  1.00  0.00     0.074 A 
ATOM     49  C   UNL A   1      41.237  31.864  30.758  1.00  0.00     0.031 C 
ATOM     50  C   UNL A   1      40.431  25.571  28.039  1.00  0.00     0.029 A 
ATOM     51  C   UNL A   1      41.748  25.857  28.599  1.00  0.00     0.049 A 
ATOM     52  H   UNL A   1      42.364  27.601  29.559  1.00  0.00     0.167 HD
ATOM     53  C   UNL A   1      43.563  31.365  31.443  1.00  0.00     0.031 A 
ATOM     54  C   UNL A   1      42.799  25.015  28.582  1.00  0.00     0.031 A 
ATOM     55  C   UNL A   1      44.708  30.501  31.554  1.00  0.00     0.049 A 
ATOM     56  C   UNL A   1      44.095  25.448  29.212  1.00  0.00     0.074 A 
ATOM     57  C   UNL A   1      45.922  30.757  32.169  1.00  0.00     0.029 A 
ATOM     58  N   UNL A   1      44.786  29.216  31.036  1.00  0.00    -0.354 N 
ATOM     59  N   UNL A   1      44.383  26.583  29.803  1.00  0.00    -0.248 NA
ATOM     60  C   UNL A   1      45.202  24.484  29.184  1.00  0.00     0.031 C 
ATOM     61  C   UNL A   1      46.755  29.653  31.967  1.00  0.00     0.029 A 
ATOM     62  C   UNL A   1      46.037  28.679  31.290  1.00  0.00     0.049 A 
ATOM     63  H   UNL A   1      44.060  28.755  30.558  1.00  0.00     0.167 HD
ATOM     64  C   UNL A   1      45.696  26.458  30.244  1.00  0.00     0.074 A 
ATOM     65  C   UNL A   1      46.139  25.131  29.864  1.00  0.00     0.031 C 
ATOM     66  C   UNL A   1      46.466  27.358  30.904  1.00  0.00     0.031 A 
BRANCH  53  67
ATOM     67  C   UNL A   1      43.669  32.766  31.990  1.00  0.00    -0.014 A 
ATOM     68  C   UNL A   1      44.028  33.847  31.164  1.00  0.00     0.010 A 
ATOM     69  C   UNL A   1      43.355  33.014  33.339  1.00  0.00     0.010 A 
ATOM     70  C   UNL A   1      44.111  35.141  31.685  1.00  0.00     0.020 A 
ATOM     71  C   UNL A   1      43.405  34.311  33.857  1.00  0.00     0.020 A 
ATOM     72  C   UNL A   1      43.798  35.365  33.030  1.00  0.00     0.054 A 
BRANCH  72  73
ATOM     73  S   UNL A   1      43.886  37.059  33.671  1.00  0.00     0.124 S 
ATOM     74  O   UNL A   1      45.081  37.001  34.509  1.00  0.00    -0.237 OA
ATOM     75  O   UNL A   1      44.012  37.854  32.452  1.00  0.00    -0.237 OA
ATOM     76  O   UNL A   1      42.627  37.223  34.392  1.00  0.00    -0.744 OA
ENDBRANCH  72  73
ENDBRANCH  53  67
BRANCH  54  77
ATOM     77  C   UNL A   1      42.666  23.672  27.952  1.00  0.00    -0.014 A 
ATOM     78  C   UNL A   1      42.201  22.572  28.694  1.00  0.00     0.010 A 
ATOM     79  C   UNL A   1      42.994  23.489  26.595  1.00  0.00     0.010 A 
ATOM     80  C   UNL A   1      42.086  21.312  28.099  1.00  0.00     0.020 A 
ATOM     81  C   UNL A   1      42.850  22.239  25.988  1.00  0.00     0.020 A 
ATOM     82  C   UNL A   1      42.408  21.155  26.748  1.00  0.00     0.054 A 
BRANCH  82  83
ATOM     83  S   UNL A   1      42.203  19.522  25.984  1.00  0.00     0.124 S 
ATOM     84  O   UNL A   1      43.046  19.633  24.798  1.00  0.00    -0.237 OA
ATOM     85  O   UNL A   1      42.690  18.624  27.027  1.00  0.00    -0.237 OA
ATOM     86  O   UNL A   1      40.767  19.444  25.726  1.00  0.00    -0.744 OA
ENDBRANCH  82  83
ENDBRANCH  54  77
BRANCH  66  87
ATOM     87  C   UNL A   1      47.856  26.931  31.296  1.00  0.00    -0.014 A 
ATOM     88  C   UNL A   1      48.103  26.257  32.507  1.00  0.00     0.010 A 
ATOM     89  C   UNL A   1      48.925  27.157  30.410  1.00  0.00     0.010 A 
ATOM     90  C   UNL A   1      49.398  25.850  32.837  1.00  0.00     0.020 A 
ATOM     91  C   UNL A   1      50.215  26.721  30.721  1.00  0.00     0.020 A 
ATOM     92  C   UNL A   1      50.445  26.083  31.940  1.00  0.00     0.054 A 
BRANCH  92  93
ATOM     93  S   UNL A   1      52.109  25.503  32.374  1.00  0.00     0.124 S 
ATOM     94  O   UNL A   1      52.409  26.300  33.559  1.00  0.00    -0.237 OA
ATOM     95  O   UNL A   1      51.898  24.078  32.611  1.00  0.00    -0.237 OA
ATOM     96  O   UNL A   1      52.906  25.821  31.192  1.00  0.00    -0.744 OA
ENDBRANCH  92  93
ENDBRANCH  66  87
ENDBRANCH  40  41
ENDBRANCH  32  35
ENDBRANCH  30  31
ENDBRANCH  29  30
ENDBRANCH   1  29
TORSDOF 19
ENDMDL
MODEL 2
REMARK VINA RESULT:      -9.4      5.016      7.773
REMARK SMILES CS(=O)(=O)c1ccc(N2N=C(C(=O)NCCCCCCNC(=O)c3ccc(-c4c5nc(c(-c6ccc(S(=O)(=O)[O-])cc6)c6ccc([nH]6)c(-c6ccc(S(=O)(=O)[O-])cc6)c6nc(c(-c7ccc(S(=O)(=O)[O-])cc7)c7ccc4[nH]7)C=C6)C=C5)cc3)C[C@H]2c2ccco2)cc1
REMARK SMILES IDX 18 1 17 2 16 3 15 4 14 5 12 6 13 7 11 9 9 10 10 11 85 12
REMARK SMILES IDX 84 13 8 14 5 15 6 16 92 17 7 18 91 19 2 20 1 21 3 22 4 23
REMARK SMILES IDX 86 24 87 25 90 26 88 27 89 28 19 29 20 30 21 31 22 32 23 34
REMARK SMILES IDX 24 35 25 36 83 37 26 38 82 39 27 40 28 41 29 42 76 43 30 44
REMARK SMILES IDX 81 45 75 46 77 47 31 48 80 49 74 50 73 51 32 53 62 54 43 55
REMARK SMILES IDX 61 56 44 57 47 58 60 59 78 60 45 61 46 62 59 64 79 65 48 66
REMARK SMILES IDX 33 67 34 68 42 69 35 70 41 71 36 72 37 73 38 74 39 75 40 76
REMARK SMILES IDX 63 77 64 78 72 79 65 80 71 81 66 82 67 83 68 84 69 85 70 86
REMARK SMILES IDX 49 87 50 88 58 89 51 90 57 91 52 92 53 93 54 94 55 95 56 96
REMARK H PARENT 14 8 21 33 77 52 47 63
REMARK Flexibility Score: inf
ROOT
ATOM      1  C   UNL A   1      38.734  34.093  29.821  1.00  0.00     0.002 C 
ENDROOT
BRANCH   1   2
ATOM      2  C   UNL A   1      40.035  33.737  30.546  1.00  0.00     0.002 C 
BRANCH   2   3
ATOM      3  C   UNL A   1      41.211  34.674  30.259  1.00  0.00     0.021 C 
BRANCH   3   4
ATOM      4  C   UNL A   1      40.896  35.766  29.242  1.00  0.00     0.116 C 
BRANCH   4   5
ATOM      5  N   UNL A   1      41.544  35.498  27.975  1.00  0.00    -0.351 N 
ATOM      6  C   UNL A   1      42.400  36.207  27.173  1.00  0.00     0.267 C 
ATOM      7  O   UNL A   1      42.699  35.717  26.087  1.00  0.00    -0.268 OA
ATOM      8  H   UNL A   1      41.320  34.612  27.609  1.00  0.00     0.163 HD
BRANCH   6   9
ATOM      9  C   UNL A   1      43.032  37.531  27.573  1.00  0.00     0.128 C 
ATOM     10  N   UNL A   1      43.276  39.354  28.640  1.00  0.00    -0.254 N 
ATOM     11  N   UNL A   1      42.661  38.145  28.656  1.00  0.00    -0.171 NA
ATOM     12  C   UNL A   1      44.229  39.538  27.547  1.00  0.00     0.180 C 
ATOM     13  C   UNL A   1      44.075  38.230  26.769  1.00  0.00     0.099 C 
BRANCH  10  14
ATOM     14  C   UNL A   1      43.138  40.220  29.710  1.00  0.00     0.060 A 
ATOM     15  C   UNL A   1      42.815  41.986  31.868  1.00  0.00     0.067 A 
ATOM     16  C   UNL A   1      44.080  41.467  31.576  1.00  0.00     0.022 A 
ATOM     17  C   UNL A   1      41.709  41.617  31.106  1.00  0.00     0.022 A 
ATOM     18  C   UNL A   1      44.232  40.576  30.509  1.00  0.00     0.029 A 
ATOM     19  C   UNL A   1      41.880  40.738  30.039  1.00  0.00     0.029 A 
BRANCH  15  20
ATOM     20  S   UNL A   1      42.662  43.127  33.216  1.00  0.00     0.175 S 
ATOM     21  C   UNL A   1      44.297  43.381  33.852  1.00  0.00     0.163 C 
ATOM     22  O   UNL A   1      41.907  42.453  34.254  1.00  0.00    -0.224 OA
ATOM     23  O   UNL A   1      42.207  44.385  32.653  1.00  0.00    -0.224 OA
ENDBRANCH  15  20
ENDBRANCH  10  14
BRANCH  12  24
ATOM     24  C   UNL A   1      44.089  40.753  26.676  1.00  0.00     0.128 A 
ATOM     25  C   UNL A   1      43.342  41.008  25.540  1.00  0.00     0.048 A 
ATOM     26  O   UNL A   1      44.790  41.877  27.014  1.00  0.00    -0.467 OA
ATOM     27  C   UNL A   1      43.615  42.345  25.165  1.00  0.00     0.042 A 
ATOM     28  C   UNL A   1      44.486  42.836  26.108  1.00  0.00     0.195 A 
ENDBRANCH  12  24
ENDBRANCH   6   9
ENDBRANCH   4   5
ENDBRANCH   3   4
ENDBRANCH   2   3
ENDBRANCH   1   2
BRANCH   1  29
ATOM     29  C   UNL A   1      37.472  34.048  30.686  1.00  0.00     0.021 C 
BRANCH  29  30
ATOM     30  C   UNL A   1      37.612  33.233  31.967  1.00  0.00     0.116 C 
BRANCH  30  31
ATOM     31  N   UNL A   1      36.764  32.054  31.954  1.00  0.00    -0.352 N 
ATOM     32  C   UNL A   1      36.971  30.843  31.345  1.00  0.00     0.251 C 
ATOM     33  H   UNL A   1      35.918  32.137  32.452  1.00  0.00     0.163 HD
ATOM     34  O   UNL A   1      36.051  30.037  31.253  1.00  0.00    -0.269 OA
BRANCH  32  35
ATOM     35  C   UNL A   1      38.302  30.521  30.787  1.00  0.00     0.039 A 
ATOM     36  C   UNL A   1      39.348  30.221  31.662  1.00  0.00     0.014 A 
ATOM     37  C   UNL A   1      38.518  30.524  29.406  1.00  0.00     0.014 A 
ATOM     38  C   UNL A   1      40.598  29.870  31.148  1.00  0.00     0.010 A 
ATOM     39  C   UNL A   1      39.741  30.099  28.895  1.00  0.00     0.010 A 
ATOM     40  C   UNL A   1      40.796  29.774  29.761  1.00  0.00    -0.014 A 
BRANCH  40  41
ATOM     41  C   UNL A   1      42.100  29.336  29.199  1.00  0.00     0.031 A 
ATOM     42  C   UNL A   1      43.229  30.319  29.048  1.00  0.00     0.074 A 
ATOM     43  C   UNL A   1      42.248  28.066  28.774  1.00  0.00     0.049 A 
ATOM     44  N   UNL A   1      44.420  30.134  28.538  1.00  0.00    -0.248 NA
ATOM     45  C   UNL A   1      42.982  31.696  29.509  1.00  0.00     0.031 C 
ATOM     46  C   UNL A   1      41.216  27.026  28.831  1.00  0.00     0.029 A 
ATOM     47  N   UNL A   1      43.324  27.430  28.206  1.00  0.00    -0.354 N 
ATOM     48  C   UNL A   1      45.055  31.369  28.601  1.00  0.00     0.074 A 
ATOM     49  C   UNL A   1      44.102  32.308  29.151  1.00  0.00     0.031 C 
ATOM     50  C   UNL A   1      41.718  25.881  28.347  1.00  0.00     0.029 A 
ATOM     51  C   UNL A   1      43.089  26.110  27.901  1.00  0.00     0.049 A 
ATOM     52  H   UNL A   1      44.184  27.878  28.032  1.00  0.00     0.167 HD
ATOM     53  C   UNL A   1      46.325  31.688  28.253  1.00  0.00     0.031 A 
ATOM     54  C   UNL A   1      43.882  25.188  27.321  1.00  0.00     0.031 A 
ATOM     55  C   UNL A   1      47.272  30.749  27.713  1.00  0.00     0.049 A 
ATOM     56  C   UNL A   1      45.281  25.572  26.925  1.00  0.00     0.074 A 
ATOM     57  C   UNL A   1      48.598  30.963  27.379  1.00  0.00     0.029 A 
ATOM     58  N   UNL A   1      46.995  29.421  27.423  1.00  0.00    -0.354 N 
ATOM     59  N   UNL A   1      45.886  26.729  27.055  1.00  0.00    -0.248 NA
ATOM     60  C   UNL A   1      46.110  24.524  26.314  1.00  0.00     0.031 C 
ATOM     61  C   UNL A   1      49.104  29.782  26.827  1.00  0.00     0.029 A 
ATOM     62  C   UNL A   1      48.116  28.811  26.884  1.00  0.00     0.049 A 
ATOM     63  H   UNL A   1      46.129  28.978  27.575  1.00  0.00     0.167 HD
ATOM     64  C   UNL A   1      47.176  26.539  26.571  1.00  0.00     0.074 A 
ATOM     65  C   UNL A   1      47.267  25.153  26.159  1.00  0.00     0.031 C 
ATOM     66  C   UNL A   1      48.193  27.431  26.477  1.00  0.00     0.031 A 
BRANCH  53  67
ATOM     67  C   UNL A   1      46.762  33.120  28.435  1.00  0.00    -0.014 A 
ATOM     68  C   UNL A   1      46.483  34.097  27.462  1.00  0.00     0.010 A 
ATOM     69  C   UNL A   1      47.416  33.505  29.619  1.00  0.00     0.010 A 
ATOM     70  C   UNL A   1      46.886  35.422  27.651  1.00  0.00     0.020 A 
ATOM     71  C   UNL A   1      47.792  34.835  29.827  1.00  0.00     0.020 A 
ATOM     72  C   UNL A   1      47.538  35.783  28.834  1.00  0.00     0.054 A 
BRANCH  72  73
ATOM     73  S   UNL A   1      48.023  37.515  29.064  1.00  0.00     0.124 S 
ATOM     74  O   UNL A   1      49.465  37.399  29.268  1.00  0.00    -0.237 OA
ATOM     75  O   UNL A   1      47.615  38.130  27.804  1.00  0.00    -0.237 OA
ATOM     76  O   UNL A   1      47.261  37.936  30.237  1.00  0.00    -0.744 OA
ENDBRANCH  72  73
ENDBRANCH  53  67
BRANCH  54  77
ATOM     77  C   UNL A   1      43.371  23.809  27.086  1.00  0.00    -0.014 A 
ATOM     78  C   UNL A   1      43.105  23.353  25.783  1.00  0.00     0.010 A 
ATOM     79  C   UNL A   1      43.158  22.937  28.171  1.00  0.00     0.010 A 
ATOM     80  C   UNL A   1      42.618  22.060  25.570  1.00  0.00     0.020 A 
ATOM     81  C   UNL A   1      42.702  21.633  27.959  1.00  0.00     0.020 A 
ATOM     82  C   UNL A   1      42.423  21.207  26.660  1.00  0.00     0.054 A 
BRANCH  82  83
ATOM     83  S   UNL A   1      41.838  19.517  26.355  1.00  0.00     0.124 S 
ATOM     84  O   UNL A   1      40.394  19.707  26.262  1.00  0.00    -0.237 OA
ATOM     85  O   UNL A   1      42.515  19.170  25.109  1.00  0.00    -0.237 OA
ATOM     86  O   UNL A   1      42.298  18.780  27.531  1.00  0.00    -0.744 OA
ENDBRANCH  82  83
ENDBRANCH  54  77
BRANCH  66  87
ATOM     87  C   UNL A   1      49.510  26.931  25.942  1.00  0.00    -0.014 A 
ATOM     88  C   UNL A   1      49.886  27.143  24.603  1.00  0.00     0.010 A 
ATOM     89  C   UNL A   1      50.410  26.288  26.812  1.00  0.00     0.010 A 
ATOM     90  C   UNL A   1      51.123  26.691  24.138  1.00  0.00     0.020 A 
ATOM     91  C   UNL A   1      51.661  25.865  26.359  1.00  0.00     0.020 A 
ATOM     92  C   UNL A   1      52.004  26.056  25.020  1.00  0.00     0.054 A 
BRANCH  92  93
ATOM     93  S   UNL A   1      53.622  25.520  24.400  1.00  0.00     0.124 S 
ATOM     94  O   UNL A   1      53.546  25.892  22.991  1.00  0.00    -0.237 OA
ATOM     95  O   UNL A   1      54.550  26.305  25.209  1.00  0.00    -0.237 OA
ATOM     96  O   UNL A   1      53.636  24.083  24.665  1.00  0.00    -0.744 OA
ENDBRANCH  92  93
ENDBRANCH  66  87
ENDBRANCH  40  41
ENDBRANCH  32  35
ENDBRANCH  30  31
ENDBRANCH  29  30
ENDBRANCH   1  29
TORSDOF 19
ENDMDL
MODEL 3
REMARK VINA RESULT:      -9.0      4.707     12.767
REMARK SMILES CS(=O)(=O)c1ccc(N2N=C(C(=O)NCCCCCCNC(=O)c3ccc(-c4c5nc(c(-c6ccc(S(=O)(=O)[O-])cc6)c6ccc([nH]6)c(-c6ccc(S(=O)(=O)[O-])cc6)c6nc(c(-c7ccc(S(=O)(=O)[O-])cc7)c7ccc4[nH]7)C=C6)C=C5)cc3)C[C@H]2c2ccco2)cc1
REMARK SMILES IDX 18 1 17 2 16 3 15 4 14 5 12 6 13 7 11 9 9 10 10 11 85 12
REMARK SMILES IDX 84 13 8 14 5 15 6 16 92 17 7 18 91 19 2 20 1 21 3 22 4 23
REMARK SMILES IDX 86 24 87 25 90 26 88 27 89 28 19 29 20 30 21 31 22 32 23 34
REMARK SMILES IDX 24 35 25 36 83 37 26 38 82 39 27 40 28 41 29 42 76 43 30 44
REMARK SMILES IDX 81 45 75 46 77 47 31 48 80 49 74 50 73 51 32 53 62 54 43 55
REMARK SMILES IDX 61 56 44 57 47 58 60 59 78 60 45 61 46 62 59 64 79 65 48 66
REMARK SMILES IDX 33 67 34 68 42 69 35 70 41 71 36 72 37 73 38 74 39 75 40 76
REMARK SMILES IDX 63 77 64 78 72 79 65 80 71 81 66 82 67 83 68 84 69 85 70 86
REMARK SMILES IDX 49 87 50 88 58 89 51 90 57 91 52 92 53 93 54 94 55 95 56 96
REMARK H PARENT 14 8 21 33 77 52 47 63
REMARK Flexibility Score: inf
ROOT
ATOM      1  C   UNL A   1      43.062  24.128  28.350  1.00  0.00     0.002 C 
ENDROOT
BRANCH   1   2
ATOM      2  C   UNL A   1      41.601  23.672  28.264  1.00  0.00     0.002 C 
BRANCH   2   3
ATOM      3  C   UNL A   1      40.708  24.540  27.375  1.00  0.00     0.021 C 
BRANCH   3   4
ATOM      4  C   UNL A   1      39.370  23.897  27.029  1.00  0.00     0.116 C 
BRANCH   4   5
ATOM      5  N   UNL A   1      39.550  22.533  26.575  1.00  0.00    -0.351 N 
ATOM      6  C   UNL A   1      38.749  21.631  25.926  1.00  0.00     0.267 C 
ATOM      7  O   UNL A   1      39.186  20.494  25.767  1.00  0.00    -0.268 OA
ATOM      8  H   UNL A   1      40.445  22.177  26.778  1.00  0.00     0.163 HD
BRANCH   6   9
ATOM      9  C   UNL A   1      37.380  21.971  25.356  1.00  0.00     0.128 C 
ATOM     10  N   UNL A   1      35.476  22.909  25.232  1.00  0.00    -0.254 N 
ATOM     11  N   UNL A   1      36.698  22.975  25.818  1.00  0.00    -0.171 NA
ATOM     12  C   UNL A   1      35.347  21.875  24.207  1.00  0.00     0.180 C 
ATOM     13  C   UNL A   1      36.714  21.190  24.274  1.00  0.00     0.099 C 
BRANCH  10  14
ATOM     14  C   UNL A   1      34.537  23.898  25.467  1.00  0.00     0.060 A 
ATOM     15  C   UNL A   1      32.655  25.931  25.916  1.00  0.00     0.067 A 
ATOM     16  C   UNL A   1      32.580  24.740  26.644  1.00  0.00     0.022 A 
ATOM     17  C   UNL A   1      33.647  26.108  24.955  1.00  0.00     0.022 A 
ATOM     18  C   UNL A   1      33.511  23.724  26.404  1.00  0.00     0.029 A 
ATOM     19  C   UNL A   1      34.575  25.091  24.737  1.00  0.00     0.029 A 
BRANCH  15  20
ATOM     20  S   UNL A   1      31.470  27.204  26.258  1.00  0.00     0.175 S 
ATOM     21  C   UNL A   1      32.156  28.199  27.556  1.00  0.00     0.163 C 
ATOM     22  O   UNL A   1      30.297  26.550  26.805  1.00  0.00    -0.224 OA
ATOM     23  O   UNL A   1      31.383  28.030  25.068  1.00  0.00    -0.224 OA
ENDBRANCH  15  20
ENDBRANCH  10  14
BRANCH  12  24
ATOM     24  C   UNL A   1      34.206  20.905  24.313  1.00  0.00     0.128 A 
ATOM     25  C   UNL A   1      34.011  19.770  25.078  1.00  0.00     0.048 A 
ATOM     26  O   UNL A   1      33.093  21.129  23.549  1.00  0.00    -0.467 OA
ATOM     27  C   UNL A   1      32.726  19.274  24.751  1.00  0.00     0.042 A 
ATOM     28  C   UNL A   1      32.201  20.150  23.833  1.00  0.00     0.195 A 
ENDBRANCH  12  24
ENDBRANCH   6   9
ENDBRANCH   4   5
ENDBRANCH   3   4
ENDBRANCH   2   3
ENDBRANCH   1   2
BRANCH   1  29
ATOM     29  C   UNL A   1      43.755  24.352  27.004  1.00  0.00     0.021 C 
BRANCH  29  30
ATOM     30  C   UNL A   1      44.358  25.741  26.826  1.00  0.00     0.116 C 
BRANCH  30  31
ATOM     31  N   UNL A   1      43.810  26.424  25.667  1.00  0.00    -0.352 N 
ATOM     32  C   UNL A   1      42.863  27.414  25.611  1.00  0.00     0.251 C 
ATOM     33  H   UNL A   1      44.169  26.133  24.797  1.00  0.00     0.163 HD
ATOM     34  O   UNL A   1      42.358  27.720  24.536  1.00  0.00    -0.269 OA
BRANCH  32  35
ATOM     35  C   UNL A   1      42.442  28.096  26.854  1.00  0.00     0.039 A 
ATOM     36  C   UNL A   1      41.501  27.479  27.678  1.00  0.00     0.014 A 
ATOM     37  C   UNL A   1      42.970  29.344  27.199  1.00  0.00     0.014 A 
ATOM     38  C   UNL A   1      41.128  28.088  28.878  1.00  0.00     0.010 A 
ATOM     39  C   UNL A   1      42.657  29.912  28.431  1.00  0.00     0.010 A 
ATOM     40  C   UNL A   1      41.728  29.294  29.280  1.00  0.00    -0.014 A 
BRANCH  40  41
ATOM     41  C   UNL A   1      41.393  29.921  30.585  1.00  0.00     0.031 A 
ATOM     42  C   UNL A   1      40.182  30.805  30.713  1.00  0.00     0.074 A 
ATOM     43  C   UNL A   1      42.212  29.738  31.640  1.00  0.00     0.049 A 
ATOM     44  N   UNL A   1      39.757  31.473  31.754  1.00  0.00    -0.248 NA
ATOM     45  C   UNL A   1      39.352  30.979  29.509  1.00  0.00     0.031 C 
ATOM     46  C   UNL A   1      43.438  28.935  31.633  1.00  0.00     0.029 A 
ATOM     47  N   UNL A   1      42.140  30.219  32.923  1.00  0.00    -0.354 N 
ATOM     48  C   UNL A   1      38.624  32.157  31.329  1.00  0.00     0.074 A 
ATOM     49  C   UNL A   1      38.456  31.865  29.922  1.00  0.00     0.031 C 
ATOM     50  C   UNL A   1      43.984  28.956  32.858  1.00  0.00     0.029 A 
ATOM     51  C   UNL A   1      43.179  29.808  33.726  1.00  0.00     0.049 A 
ATOM     52  H   UNL A   1      41.414  30.804  33.240  1.00  0.00     0.167 HD
ATOM     53  C   UNL A   1      37.786  32.942  32.049  1.00  0.00     0.031 A 
ATOM     54  C   UNL A   1      43.458  30.091  35.013  1.00  0.00     0.031 A 
ATOM     55  C   UNL A   1      37.953  33.224  33.450  1.00  0.00     0.049 A 
ATOM     56  C   UNL A   1      42.524  30.981  35.787  1.00  0.00     0.074 A 
ATOM     57  C   UNL A   1      37.129  33.963  34.281  1.00  0.00     0.029 A 
ATOM     58  N   UNL A   1      39.016  32.786  34.227  1.00  0.00    -0.354 N 
ATOM     59  N   UNL A   1      41.419  31.564  35.383  1.00  0.00    -0.248 NA
ATOM     60  C   UNL A   1      42.865  31.241  37.192  1.00  0.00     0.031 C 
ATOM     61  C   UNL A   1      37.726  34.026  35.543  1.00  0.00     0.029 A 
ATOM     62  C   UNL A   1      38.885  33.265  35.519  1.00  0.00     0.049 A 
ATOM     63  H   UNL A   1      39.754  32.220  33.906  1.00  0.00     0.167 HD
ATOM     64  C   UNL A   1      40.919  32.236  36.493  1.00  0.00     0.074 A 
ATOM     65  C   UNL A   1      41.832  31.973  37.587  1.00  0.00     0.031 C 
ATOM     66  C   UNL A   1      39.803  32.999  36.598  1.00  0.00     0.031 A 
BRANCH  53  67
ATOM     67  C   UNL A   1      36.616  33.562  31.329  1.00  0.00    -0.014 A 
ATOM     68  C   UNL A   1      35.448  33.935  32.019  1.00  0.00     0.010 A 
ATOM     69  C   UNL A   1      36.703  33.822  29.949  1.00  0.00     0.010 A 
ATOM     70  C   UNL A   1      34.376  34.519  31.338  1.00  0.00     0.020 A 
ATOM     71  C   UNL A   1      35.647  34.435  29.269  1.00  0.00     0.020 A 
ATOM     72  C   UNL A   1      34.484  34.765  29.965  1.00  0.00     0.054 A 
BRANCH  72  73
ATOM     73  S   UNL A   1      33.088  35.550  29.113  1.00  0.00     0.124 S 
ATOM     74  O   UNL A   1      32.183  35.839  30.222  1.00  0.00    -0.237 OA
ATOM     75  O   UNL A   1      33.710  36.715  28.490  1.00  0.00    -0.237 OA
ATOM     76  O   UNL A   1      32.626  34.521  28.184  1.00  0.00    -0.744 OA
ENDBRANCH  72  73
ENDBRANCH  53  67
BRANCH  54  77
ATOM     77  C   UNL A   1      44.676  29.520  35.653  1.00  0.00    -0.014 A 
ATOM     78  C   UNL A   1      45.853  30.280  35.765  1.00  0.00     0.010 A 
ATOM     79  C   UNL A   1      44.659  28.209  36.168  1.00  0.00     0.010 A 
ATOM     80  C   UNL A   1      46.995  29.735  36.359  1.00  0.00     0.020 A 
ATOM     81  C   UNL A   1      45.788  27.673  36.792  1.00  0.00     0.020 A 
ATOM     82  C   UNL A   1      46.954  28.435  36.872  1.00  0.00     0.054 A 
BRANCH  82  83
ATOM     83  S   UNL A   1      48.432  27.767  37.684  1.00  0.00     0.124 S 
ATOM     84  O   UNL A   1      49.394  27.738  36.588  1.00  0.00    -0.237 OA
ATOM     85  O   UNL A   1      48.690  28.754  38.729  1.00  0.00    -0.237 OA
ATOM     86  O   UNL A   1      47.994  26.459  38.168  1.00  0.00    -0.744 OA
ENDBRANCH  82  83
ENDBRANCH  54  77
BRANCH  66  87
ATOM     87  C   UNL A   1      39.480  33.578  37.951  1.00  0.00    -0.014 A 
ATOM     88  C   UNL A   1      38.626  32.913  38.849  1.00  0.00     0.010 A 
ATOM     89  C   UNL A   1      40.089  34.782  38.351  1.00  0.00     0.010 A 
ATOM     90  C   UNL A   1      38.361  33.459  40.108  1.00  0.00     0.020 A 
ATOM     91  C   UNL A   1      39.853  35.313  39.621  1.00  0.00     0.020 A 
ATOM     92  C   UNL A   1      38.979  34.655  40.486  1.00  0.00     0.054 A 
BRANCH  92  93
ATOM     93  S   UNL A   1      38.653  35.318  42.143  1.00  0.00     0.124 S 
ATOM     94  O   UNL A   1      37.208  35.146  42.260  1.00  0.00    -0.237 OA
ATOM     95  O   UNL A   1      39.460  34.452  42.997  1.00  0.00    -0.237 OA
ATOM     96  O   UNL A   1      39.110  36.703  42.059  1.00  0.00    -0.744 OA
ENDBRANCH  92  93
ENDBRANCH  66  87
ENDBRANCH  40  41
ENDBRANCH  32  35
ENDBRANCH  30  31
ENDBRANCH  29  30
ENDBRANCH   1  29
TORSDOF 19
ENDMDL
