MODEL 1
REMARK VINA RESULT:      -8.3      0.000      0.000
REMARK SMILES CC[C@H](C)[C@H](NC(=O)N1CCc2cc(OC)c(OC)cc2[C@@H]1c1ccc(F)cc1)C(=O)NCCCCCCNC(=O)c1ccc(-c2c3nc(c(-c4ccc(S(=O)(=O)[O-])cc4)c4ccc([nH]4)c(-c4ccc(S(=O)(=O)[O-])cc4)c4nc(c(-c5ccc(S(=O)(=O)[O-])cc5)c5ccc2[nH]5)C=C4)C=C3)cc1
REMARK SMILES IDX 35 1 34 2 33 3 32 4 30 5 31 6 5 8 3 9 4 10 2 11 1 12 6 13
REMARK SMILES IDX 7 14 8 16 9 17 10 18 22 19 11 20 21 21 12 22 20 23 13 24
REMARK SMILES IDX 17 25 14 26 23 27 24 28 29 29 25 30 28 31 26 32 27 33 18 34
REMARK SMILES IDX 19 35 15 36 16 37 36 38 37 39 38 40 39 41 40 42 41 44 42 45
REMARK SMILES IDX 43 46 101 47 44 48 100 49 45 50 46 51 47 52 94 53 48 54
REMARK SMILES IDX 99 55 93 56 95 57 49 58 98 59 92 60 91 61 50 63 80 64 61 65
REMARK SMILES IDX 79 66 62 67 65 68 78 69 96 70 63 71 64 72 77 74 97 75 66 76
REMARK SMILES IDX 51 77 52 78 60 79 53 80 59 81 54 82 55 83 56 84 57 85 58 86
REMARK SMILES IDX 81 87 82 88 90 89 83 90 89 91 84 92 85 93 86 94 87 95 88 96
REMARK SMILES IDX 67 97 68 98 76 99 69 100 75 101 70 102 71 103 72 104 73 105
REMARK SMILES IDX 74 106
REMARK H PARENT 32 7 6 15 39 43 95 62 65 73
REMARK Flexibility Score: inf
ROOT
ATOM      1  C   UNL A   1      45.918  22.818  24.178  1.00  0.00     0.002 C 
ENDROOT
BRANCH   1   2
ATOM      2  C   UNL A   1      46.397  21.482  24.762  1.00  0.00     0.021 C 
BRANCH   2   3
ATOM      3  C   UNL A   1      45.328  20.763  25.582  1.00  0.00     0.116 C 
BRANCH   3   4
ATOM      4  N   UNL A   1      43.949  21.102  25.240  1.00  0.00    -0.354 N 
ATOM      5  C   UNL A   1      43.143  22.159  25.582  1.00  0.00     0.242 C 
ATOM      6  O   UNL A   1      41.985  22.143  25.146  1.00  0.00    -0.273 OA
ATOM      7  H   UNL A   1      43.514  20.447  24.649  1.00  0.00     0.163 HD
BRANCH   5   8
ATOM      8  C   UNL A   1      43.607  23.329  26.509  1.00  0.00     0.176 C 
BRANCH   8   9
ATOM      9  C   UNL A   1      43.128  23.037  28.006  1.00  0.00     0.018 C 
ATOM     10  C   UNL A   1      42.404  21.692  28.185  1.00  0.00     0.010 C 
BRANCH   9  11
ATOM     11  C   UNL A   1      44.264  23.271  29.058  1.00  0.00     0.002 C 
ATOM     12  C   UNL A   1      43.879  23.381  30.524  1.00  0.00     0.004 C 
ENDBRANCH   9  11
ENDBRANCH   8   9
BRANCH   8  13
ATOM     13  N   UNL A   1      43.473  24.779  26.069  1.00  0.00    -0.326 N 
ATOM     14  C   UNL A   1      42.360  25.572  25.836  1.00  0.00     0.318 C 
ATOM     15  H   UNL A   1      44.332  25.236  25.921  1.00  0.00     0.166 HD
ATOM     16  O   UNL A   1      42.283  26.141  24.748  1.00  0.00    -0.249 OA
BRANCH  14  17
ATOM     17  N   UNL A   1      41.432  25.777  26.828  1.00  0.00    -0.313 N 
ATOM     18  C   UNL A   1      41.834  26.052  28.165  1.00  0.00     0.127 C 
ATOM     19  C   UNL A   1      39.948  25.986  26.628  1.00  0.00     0.148 C 
ATOM     20  C   UNL A   1      40.951  25.348  29.180  1.00  0.00     0.057 C 
ATOM     21  C   UNL A   1      39.379  26.768  27.892  1.00  0.00    -0.014 A 
ATOM     22  C   UNL A   1      39.776  26.283  29.166  1.00  0.00    -0.037 A 
ATOM     23  C   UNL A   1      38.707  27.999  27.861  1.00  0.00     0.057 A 
ATOM     24  C   UNL A   1      39.444  26.929  30.352  1.00  0.00     0.054 A 
ATOM     25  C   UNL A   1      38.445  28.713  29.067  1.00  0.00     0.161 A 
ATOM     26  C   UNL A   1      38.813  28.164  30.314  1.00  0.00     0.161 A 
BRANCH  19  27
ATOM     27  C   UNL A   1      39.209  24.628  26.511  1.00  0.00    -0.021 A 
ATOM     28  C   UNL A   1      39.906  23.422  26.727  1.00  0.00     0.009 A 
ATOM     29  C   UNL A   1      37.873  24.540  26.068  1.00  0.00     0.009 A 
ATOM     30  C   UNL A   1      39.328  22.192  26.402  1.00  0.00     0.039 A 
ATOM     31  C   UNL A   1      37.296  23.310  25.744  1.00  0.00     0.039 A 
ATOM     32  C   UNL A   1      38.037  22.151  25.894  1.00  0.00     0.123 A 
ATOM     33  F   UNL A   1      37.506  20.976  25.530  1.00  0.00    -0.207 F 
ENDBRANCH  19  27
BRANCH  25  34
ATOM     34  O   UNL A   1      37.897  29.967  29.103  1.00  0.00    -0.493 OA
ATOM     35  C   UNL A   1      38.736  31.075  29.377  1.00  0.00     0.278 C 
ENDBRANCH  25  34
BRANCH  26  36
ATOM     36  O   UNL A   1      38.728  28.691  31.576  1.00  0.00    -0.493 OA
ATOM     37  C   UNL A   1      39.841  28.638  32.447  1.00  0.00     0.278 C 
ENDBRANCH  26  36
ENDBRANCH  14  17
ENDBRANCH   8  13
ENDBRANCH   5   8
ENDBRANCH   3   4
ENDBRANCH   2   3
ENDBRANCH   1   2
BRANCH   1  38
ATOM     38  C   UNL A   1      46.937  23.946  24.237  1.00  0.00     0.002 C 
BRANCH  38  39
ATOM     39  C   UNL A   1      47.084  24.558  25.624  1.00  0.00     0.021 C 
BRANCH  39  40
ATOM     40  C   UNL A   1      48.199  25.593  25.713  1.00  0.00     0.116 C 
BRANCH  40  41
ATOM     41  N   UNL A   1      48.333  26.345  24.471  1.00  0.00    -0.352 N 
ATOM     42  C   UNL A   1      47.628  27.466  24.093  1.00  0.00     0.251 C 
ATOM     43  H   UNL A   1      49.003  26.014  23.830  1.00  0.00     0.163 HD
ATOM     44  O   UNL A   1      47.636  27.880  22.948  1.00  0.00    -0.269 OA
BRANCH  42  45
ATOM     45  C   UNL A   1      46.849  28.143  25.147  1.00  0.00     0.039 A 
ATOM     46  C   UNL A   1      45.488  27.872  25.281  1.00  0.00     0.014 A 
ATOM     47  C   UNL A   1      47.532  28.917  26.088  1.00  0.00     0.014 A 
ATOM     48  C   UNL A   1      44.817  28.329  26.416  1.00  0.00     0.010 A 
ATOM     49  C   UNL A   1      46.882  29.295  27.253  1.00  0.00     0.010 A 
ATOM     50  C   UNL A   1      45.519  29.006  27.430  1.00  0.00    -0.014 A 
BRANCH  50  51
ATOM     51  C   UNL A   1      44.858  29.422  28.690  1.00  0.00     0.031 A 
ATOM     52  C   UNL A   1      44.311  30.819  28.810  1.00  0.00     0.074 A 
ATOM     53  C   UNL A   1      44.839  28.587  29.748  1.00  0.00     0.049 A 
ATOM     54  N   UNL A   1      43.791  31.411  29.852  1.00  0.00    -0.248 NA
ATOM     55  C   UNL A   1      44.390  31.672  27.611  1.00  0.00     0.031 C 
ATOM     56  C   UNL A   1      45.391  27.229  29.771  1.00  0.00     0.029 A 
ATOM     57  N   UNL A   1      44.352  28.763  31.020  1.00  0.00    -0.354 N 
ATOM     58  C   UNL A   1      43.512  32.711  29.445  1.00  0.00     0.074 A 
ATOM     59  C   UNL A   1      43.958  32.835  28.076  1.00  0.00     0.031 C 
ATOM     60  C   UNL A   1      45.198  26.693  30.987  1.00  0.00     0.029 A 
ATOM     61  C   UNL A   1      44.548  27.680  31.845  1.00  0.00     0.049 A 
ATOM     62  H   UNL A   1      43.904  29.589  31.314  1.00  0.00     0.167 HD
ATOM     63  C   UNL A   1      42.923  33.706  30.146  1.00  0.00     0.031 A 
ATOM     64  C   UNL A   1      44.255  27.506  33.149  1.00  0.00     0.031 A 
ATOM     65  C   UNL A   1      42.449  33.563  31.495  1.00  0.00     0.049 A 
ATOM     66  C   UNL A   1      43.589  28.628  33.902  1.00  0.00     0.074 A 
ATOM     67  C   UNL A   1      41.746  34.478  32.257  1.00  0.00     0.029 A 
ATOM     68  N   UNL A   1      42.637  32.440  32.284  1.00  0.00    -0.354 N 
ATOM     69  N   UNL A   1      43.234  29.814  33.466  1.00  0.00    -0.248 NA
ATOM     70  C   UNL A   1      43.283  28.390  35.320  1.00  0.00     0.031 C 
ATOM     71  C   UNL A   1      41.562  33.931  33.530  1.00  0.00     0.029 A 
ATOM     72  C   UNL A   1      42.100  32.654  33.541  1.00  0.00     0.049 A 
ATOM     73  H   UNL A   1      43.087  31.614  31.994  1.00  0.00     0.167 HD
ATOM     74  C   UNL A   1      42.645  30.455  34.550  1.00  0.00     0.074 A 
ATOM     75  C   UNL A   1      42.673  29.520  35.655  1.00  0.00     0.031 C 
ATOM     76  C   UNL A   1      42.133  31.707  34.627  1.00  0.00     0.031 A 
BRANCH  63  77
ATOM     77  C   UNL A   1      42.756  35.040  29.472  1.00  0.00    -0.014 A 
ATOM     78  C   UNL A   1      43.777  36.007  29.502  1.00  0.00     0.010 A 
ATOM     79  C   UNL A   1      41.584  35.304  28.738  1.00  0.00     0.010 A 
ATOM     80  C   UNL A   1      43.619  37.223  28.831  1.00  0.00     0.020 A 
ATOM     81  C   UNL A   1      41.434  36.507  28.045  1.00  0.00     0.020 A 
ATOM     82  C   UNL A   1      42.448  37.464  28.106  1.00  0.00     0.054 A 
BRANCH  82  83
ATOM     83  S   UNL A   1      42.295  39.029  27.202  1.00  0.00     0.124 S 
ATOM     84  O   UNL A   1      41.784  39.925  28.238  1.00  0.00    -0.237 OA
ATOM     85  O   UNL A   1      43.667  39.285  26.772  1.00  0.00    -0.237 OA
ATOM     86  O   UNL A   1      41.355  38.720  26.128  1.00  0.00    -0.744 OA
ENDBRANCH  82  83
ENDBRANCH  63  77
BRANCH  64  87
ATOM     87  C   UNL A   1      44.600  26.229  33.835  1.00  0.00    -0.014 A 
ATOM     88  C   UNL A   1      43.650  25.201  33.962  1.00  0.00     0.010 A 
ATOM     89  C   UNL A   1      45.884  26.043  34.381  1.00  0.00     0.010 A 
ATOM     90  C   UNL A   1      43.967  24.023  34.644  1.00  0.00     0.020 A 
ATOM     91  C   UNL A   1      46.214  24.855  35.038  1.00  0.00     0.020 A 
ATOM     92  C   UNL A   1      45.248  23.858  35.180  1.00  0.00     0.054 A 
BRANCH  92  93
ATOM     93  S   UNL A   1      45.649  22.309  36.038  1.00  0.00     0.124 S 
ATOM     94  O   UNL A   1      44.784  21.352  35.357  1.00  0.00    -0.237 OA
ATOM     95  O   UNL A   1      47.080  22.167  35.781  1.00  0.00    -0.237 OA
ATOM     96  O   UNL A   1      45.300  22.592  37.429  1.00  0.00    -0.744 OA
ENDBRANCH  92  93
ENDBRANCH  64  87
BRANCH  76  97
ATOM     97  C   UNL A   1      41.544  32.142  35.939  1.00  0.00    -0.014 A 
ATOM     98  C   UNL A   1      42.340  32.757  36.921  1.00  0.00     0.010 A 
ATOM     99  C   UNL A   1      40.159  32.015  36.156  1.00  0.00     0.010 A 
ATOM    100  C   UNL A   1      41.764  33.226  38.104  1.00  0.00     0.020 A 
ATOM    101  C   UNL A   1      39.575  32.509  37.325  1.00  0.00     0.020 A 
ATOM    102  C   UNL A   1      40.384  33.106  38.295  1.00  0.00     0.054 A 
BRANCH 102 103
ATOM    103  S   UNL A   1      39.652  33.792  39.805  1.00  0.00     0.124 S 
ATOM    104  O   UNL A   1      39.220  35.114  39.360  1.00  0.00    -0.237 OA
ATOM    105  O   UNL A   1      38.579  32.846  40.099  1.00  0.00    -0.237 OA
ATOM    106  O   UNL A   1      40.758  33.786  40.761  1.00  0.00    -0.744 OA
ENDBRANCH 102 103
ENDBRANCH  76  97
ENDBRANCH  50  51
ENDBRANCH  42  45
ENDBRANCH  40  41
ENDBRANCH  39  40
ENDBRANCH  38  39
ENDBRANCH   1  38
TORSDOF 23
ENDMDL
MODEL 2
REMARK VINA RESULT:      -8.0      4.164      7.550
REMARK SMILES CC[C@H](C)[C@H](NC(=O)N1CCc2cc(OC)c(OC)cc2[C@@H]1c1ccc(F)cc1)C(=O)NCCCCCCNC(=O)c1ccc(-c2c3nc(c(-c4ccc(S(=O)(=O)[O-])cc4)c4ccc([nH]4)c(-c4ccc(S(=O)(=O)[O-])cc4)c4nc(c(-c5ccc(S(=O)(=O)[O-])cc5)c5ccc2[nH]5)C=C4)C=C3)cc1
REMARK SMILES IDX 35 1 34 2 33 3 32 4 30 5 31 6 5 8 3 9 4 10 2 11 1 12 6 13
REMARK SMILES IDX 7 14 8 16 9 17 10 18 22 19 11 20 21 21 12 22 20 23 13 24
REMARK SMILES IDX 17 25 14 26 23 27 24 28 29 29 25 30 28 31 26 32 27 33 18 34
REMARK SMILES IDX 19 35 15 36 16 37 36 38 37 39 38 40 39 41 40 42 41 44 42 45
REMARK SMILES IDX 43 46 101 47 44 48 100 49 45 50 46 51 47 52 94 53 48 54
REMARK SMILES IDX 99 55 93 56 95 57 49 58 98 59 92 60 91 61 50 63 80 64 61 65
REMARK SMILES IDX 79 66 62 67 65 68 78 69 96 70 63 71 64 72 77 74 97 75 66 76
REMARK SMILES IDX 51 77 52 78 60 79 53 80 59 81 54 82 55 83 56 84 57 85 58 86
REMARK SMILES IDX 81 87 82 88 90 89 83 90 89 91 84 92 85 93 86 94 87 95 88 96
REMARK SMILES IDX 67 97 68 98 76 99 69 100 75 101 70 102 71 103 72 104 73 105
REMARK SMILES IDX 74 106
REMARK H PARENT 32 7 6 15 39 43 95 62 65 73
REMARK Flexibility Score: inf
ROOT
ATOM      1  C   UNL A   1      46.942  30.776  31.231  1.00  0.00     0.002 C 
ENDROOT
BRANCH   1   2
ATOM      2  C   UNL A   1      46.204  29.716  32.061  1.00  0.00     0.021 C 
BRANCH   2   3
ATOM      3  C   UNL A   1      44.880  29.276  31.440  1.00  0.00     0.116 C 
BRANCH   3   4
ATOM      4  N   UNL A   1      44.359  28.001  31.925  1.00  0.00    -0.354 N 
ATOM      5  C   UNL A   1      43.169  27.648  32.511  1.00  0.00     0.242 C 
ATOM      6  O   UNL A   1      43.039  26.464  32.844  1.00  0.00    -0.273 OA
ATOM      7  H   UNL A   1      44.981  27.247  31.808  1.00  0.00     0.163 HD
BRANCH   5   8
ATOM      8  C   UNL A   1      42.019  28.667  32.802  1.00  0.00     0.176 C 
BRANCH   8   9
ATOM      9  C   UNL A   1      42.330  29.437  34.168  1.00  0.00     0.018 C 
ATOM     10  C   UNL A   1      41.077  29.891  34.934  1.00  0.00     0.010 C 
BRANCH   9  11
ATOM     11  C   UNL A   1      43.361  28.674  35.067  1.00  0.00     0.002 C 
ATOM     12  C   UNL A   1      43.328  28.915  36.567  1.00  0.00     0.004 C 
ENDBRANCH   9  11
ENDBRANCH   8   9
BRANCH   8  13
ATOM     13  N   UNL A   1      40.561  28.281  32.605  1.00  0.00    -0.326 N 
ATOM     14  C   UNL A   1      39.609  28.714  31.696  1.00  0.00     0.318 C 
ATOM     15  H   UNL A   1      40.235  27.602  33.239  1.00  0.00     0.166 HD
ATOM     16  O   UNL A   1      38.537  29.123  32.144  1.00  0.00    -0.249 OA
BRANCH  14  17
ATOM     17  N   UNL A   1      39.832  28.597  30.345  1.00  0.00    -0.313 N 
ATOM     18  C   UNL A   1      41.154  28.597  29.817  1.00  0.00     0.127 C 
ATOM     19  C   UNL A   1      38.805  28.217  29.304  1.00  0.00     0.148 C 
ATOM     20  C   UNL A   1      41.245  29.381  28.519  1.00  0.00     0.057 C 
ATOM     21  C   UNL A   1      39.570  27.616  28.044  1.00  0.00    -0.014 A 
ATOM     22  C   UNL A   1      40.692  28.351  27.577  1.00  0.00    -0.037 A 
ATOM     23  C   UNL A   1      39.371  26.341  27.495  1.00  0.00     0.057 A 
ATOM     24  C   UNL A   1      41.517  27.892  26.556  1.00  0.00     0.054 A 
ATOM     25  C   UNL A   1      40.268  25.826  26.513  1.00  0.00     0.161 A 
ATOM     26  C   UNL A   1      41.339  26.616  26.042  1.00  0.00     0.161 A 
BRANCH  19  27
ATOM     27  C   UNL A   1      37.996  29.459  28.847  1.00  0.00    -0.021 A 
ATOM     28  C   UNL A   1      38.309  30.734  29.357  1.00  0.00     0.009 A 
ATOM     29  C   UNL A   1      36.857  29.346  28.022  1.00  0.00     0.009 A 
ATOM     30  C   UNL A   1      37.456  31.820  29.144  1.00  0.00     0.039 A 
ATOM     31  C   UNL A   1      36.006  30.432  27.809  1.00  0.00     0.039 A 
ATOM     32  C   UNL A   1      36.302  31.653  28.391  1.00  0.00     0.123 A 
ATOM     33  F   UNL A   1      35.457  32.681  28.236  1.00  0.00    -0.207 F 
ENDBRANCH  19  27
BRANCH  25  34
ATOM     34  O   UNL A   1      40.201  24.551  26.018  1.00  0.00    -0.493 OA
ATOM     35  C   UNL A   1      39.586  23.543  26.800  1.00  0.00     0.278 C 
ENDBRANCH  25  34
BRANCH  26  36
ATOM     36  O   UNL A   1      42.351  26.310  25.171  1.00  0.00    -0.493 OA
ATOM     37  C   UNL A   1      43.551  25.731  25.647  1.00  0.00     0.278 C 
ENDBRANCH  26  36
ENDBRANCH  14  17
ENDBRANCH   8  13
ENDBRANCH   5   8
ENDBRANCH   3   4
ENDBRANCH   2   3
ENDBRANCH   1   2
BRANCH   1  38
ATOM     38  C   UNL A   1      47.589  30.257  29.956  1.00  0.00     0.002 C 
BRANCH  38  39
ATOM     39  C   UNL A   1      47.238  31.074  28.721  1.00  0.00     0.021 C 
BRANCH  39  40
ATOM     40  C   UNL A   1      47.008  32.551  29.017  1.00  0.00     0.116 C 
BRANCH  40  41
ATOM     41  N   UNL A   1      46.507  33.261  27.847  1.00  0.00    -0.352 N 
ATOM     42  C   UNL A   1      45.205  33.623  27.584  1.00  0.00     0.251 C 
ATOM     43  H   UNL A   1      47.175  33.510  27.167  1.00  0.00     0.163 HD
ATOM     44  O   UNL A   1      44.847  33.995  26.481  1.00  0.00    -0.269 OA
BRANCH  42  45
ATOM     45  C   UNL A   1      44.254  33.531  28.707  1.00  0.00     0.039 A 
ATOM     46  C   UNL A   1      43.731  32.290  29.069  1.00  0.00     0.014 A 
ATOM     47  C   UNL A   1      44.028  34.670  29.485  1.00  0.00     0.014 A 
ATOM     48  C   UNL A   1      43.026  32.178  30.268  1.00  0.00     0.010 A 
ATOM     49  C   UNL A   1      43.401  34.536  30.714  1.00  0.00     0.010 A 
ATOM     50  C   UNL A   1      42.894  33.290  31.119  1.00  0.00    -0.014 A 
BRANCH  50  51
ATOM     51  C   UNL A   1      42.233  33.183  32.443  1.00  0.00     0.031 A 
ATOM     52  C   UNL A   1      40.754  33.437  32.551  1.00  0.00     0.074 A 
ATOM     53  C   UNL A   1      42.972  32.961  33.548  1.00  0.00     0.049 A 
ATOM     54  N   UNL A   1      40.007  33.494  33.621  1.00  0.00    -0.248 NA
ATOM     55  C   UNL A   1      40.026  33.692  31.295  1.00  0.00     0.031 C 
ATOM     56  C   UNL A   1      44.424  32.759  33.575  1.00  0.00     0.029 A 
ATOM     57  N   UNL A   1      42.607  32.885  34.869  1.00  0.00    -0.354 N 
ATOM     58  C   UNL A   1      38.732  33.823  33.172  1.00  0.00     0.074 A 
ATOM     59  C   UNL A   1      38.815  33.994  31.740  1.00  0.00     0.031 C 
ATOM     60  C   UNL A   1      44.820  32.568  34.844  1.00  0.00     0.029 A 
ATOM     61  C   UNL A   1      43.662  32.674  35.726  1.00  0.00     0.049 A 
ATOM     62  H   UNL A   1      41.675  32.972  35.175  1.00  0.00     0.167 HD
ATOM     63  C   UNL A   1      37.593  33.955  33.890  1.00  0.00     0.031 A 
ATOM     64  C   UNL A   1      43.697  32.595  37.071  1.00  0.00     0.031 A 
ATOM     65  C   UNL A   1      37.513  33.747  35.309  1.00  0.00     0.049 A 
ATOM     66  C   UNL A   1      42.411  32.736  37.843  1.00  0.00     0.074 A 
ATOM     67  C   UNL A   1      36.387  33.755  36.113  1.00  0.00     0.029 A 
ATOM     68  N   UNL A   1      38.598  33.504  36.135  1.00  0.00    -0.354 N 
ATOM     69  N   UNL A   1      41.198  32.938  37.388  1.00  0.00    -0.248 NA
ATOM     70  C   UNL A   1      42.499  32.636  39.307  1.00  0.00     0.031 C 
ATOM     71  C   UNL A   1      36.800  33.577  37.436  1.00  0.00     0.029 A 
ATOM     72  C   UNL A   1      38.174  33.401  37.448  1.00  0.00     0.049 A 
ATOM     73  H   UNL A   1      39.531  33.418  35.834  1.00  0.00     0.167 HD
ATOM     74  C   UNL A   1      40.375  32.970  38.509  1.00  0.00     0.074 A 
ATOM     75  C   UNL A   1      41.224  32.746  39.659  1.00  0.00     0.031 C 
ATOM     76  C   UNL A   1      39.037  33.173  38.580  1.00  0.00     0.031 A 
BRANCH  63  77
ATOM     77  C   UNL A   1      36.339  34.343  33.156  1.00  0.00    -0.014 A 
ATOM     78  C   UNL A   1      35.794  35.635  33.273  1.00  0.00     0.010 A 
ATOM     79  C   UNL A   1      35.734  33.421  32.281  1.00  0.00     0.010 A 
ATOM     80  C   UNL A   1      34.653  35.988  32.548  1.00  0.00     0.020 A 
ATOM     81  C   UNL A   1      34.610  33.779  31.535  1.00  0.00     0.020 A 
ATOM     82  C   UNL A   1      34.069  35.058  31.682  1.00  0.00     0.054 A 
BRANCH  82  83
ATOM     83  S   UNL A   1      32.621  35.564  30.714  1.00  0.00     0.124 S 
ATOM     84  O   UNL A   1      31.528  35.290  31.645  1.00  0.00    -0.237 OA
ATOM     85  O   UNL A   1      32.887  36.977  30.457  1.00  0.00    -0.237 OA
ATOM     86  O   UNL A   1      32.669  34.699  29.538  1.00  0.00    -0.744 OA
ENDBRANCH  82  83
ENDBRANCH  63  77
BRANCH  64  87
ATOM     87  C   UNL A   1      44.992  32.389  37.780  1.00  0.00    -0.014 A 
ATOM     88  C   UNL A   1      45.807  33.483  38.120  1.00  0.00     0.010 A 
ATOM     89  C   UNL A   1      45.423  31.090  38.105  1.00  0.00     0.010 A 
ATOM     90  C   UNL A   1      47.040  33.280  38.747  1.00  0.00     0.020 A 
ATOM     91  C   UNL A   1      46.642  30.885  38.757  1.00  0.00     0.020 A 
ATOM     92  C   UNL A   1      47.451  31.981  39.060  1.00  0.00     0.054 A 
BRANCH  92  93
ATOM     93  S   UNL A   1      49.042  31.741  39.899  1.00  0.00     0.124 S 
ATOM     94  O   UNL A   1      48.888  32.571  41.088  1.00  0.00    -0.237 OA
ATOM     95  O   UNL A   1      49.063  30.298  40.130  1.00  0.00    -0.237 OA
ATOM     96  O   UNL A   1      50.017  32.219  38.921  1.00  0.00    -0.744 OA
ENDBRANCH  92  93
ENDBRANCH  64  87
BRANCH  76  97
ATOM     97  C   UNL A   1      38.397  33.146  39.940  1.00  0.00    -0.014 A 
ATOM     98  C   UNL A   1      38.273  34.320  40.703  1.00  0.00     0.010 A 
ATOM     99  C   UNL A   1      37.833  31.950  40.420  1.00  0.00     0.010 A 
ATOM    100  C   UNL A   1      37.608  34.296  41.931  1.00  0.00     0.020 A 
ATOM    101  C   UNL A   1      37.142  31.928  41.634  1.00  0.00     0.020 A 
ATOM    102  C   UNL A   1      37.040  33.101  42.385  1.00  0.00     0.054 A 
BRANCH 102 103
ATOM    103  S   UNL A   1      36.116  33.115  43.945  1.00  0.00     0.124 S 
ATOM    104  O   UNL A   1      37.190  33.152  44.934  1.00  0.00    -0.237 OA
ATOM    105  O   UNL A   1      35.320  34.333  43.835  1.00  0.00    -0.237 OA
ATOM    106  O   UNL A   1      35.349  31.870  43.905  1.00  0.00    -0.744 OA
ENDBRANCH 102 103
ENDBRANCH  76  97
ENDBRANCH  50  51
ENDBRANCH  42  45
ENDBRANCH  40  41
ENDBRANCH  39  40
ENDBRANCH  38  39
ENDBRANCH   1  38
TORSDOF 23
ENDMDL
MODEL 3
REMARK VINA RESULT:      -7.4      4.656      9.391
REMARK SMILES CC[C@H](C)[C@H](NC(=O)N1CCc2cc(OC)c(OC)cc2[C@@H]1c1ccc(F)cc1)C(=O)NCCCCCCNC(=O)c1ccc(-c2c3nc(c(-c4ccc(S(=O)(=O)[O-])cc4)c4ccc([nH]4)c(-c4ccc(S(=O)(=O)[O-])cc4)c4nc(c(-c5ccc(S(=O)(=O)[O-])cc5)c5ccc2[nH]5)C=C4)C=C3)cc1
REMARK SMILES IDX 35 1 34 2 33 3 32 4 30 5 31 6 5 8 3 9 4 10 2 11 1 12 6 13
REMARK SMILES IDX 7 14 8 16 9 17 10 18 22 19 11 20 21 21 12 22 20 23 13 24
REMARK SMILES IDX 17 25 14 26 23 27 24 28 29 29 25 30 28 31 26 32 27 33 18 34
REMARK SMILES IDX 19 35 15 36 16 37 36 38 37 39 38 40 39 41 40 42 41 44 42 45
REMARK SMILES IDX 43 46 101 47 44 48 100 49 45 50 46 51 47 52 94 53 48 54
REMARK SMILES IDX 99 55 93 56 95 57 49 58 98 59 92 60 91 61 50 63 80 64 61 65
REMARK SMILES IDX 79 66 62 67 65 68 78 69 96 70 63 71 64 72 77 74 97 75 66 76
REMARK SMILES IDX 51 77 52 78 60 79 53 80 59 81 54 82 55 83 56 84 57 85 58 86
REMARK SMILES IDX 81 87 82 88 90 89 83 90 89 91 84 92 85 93 86 94 87 95 88 96
REMARK SMILES IDX 67 97 68 98 76 99 69 100 75 101 70 102 71 103 72 104 73 105
REMARK SMILES IDX 74 106
REMARK H PARENT 32 7 6 15 39 43 95 62 65 73
REMARK Flexibility Score: inf
ROOT
ATOM      1  C   UNL A   1      38.962  31.917  30.568  1.00  0.00     0.002 C 
ENDROOT
BRANCH   1   2
ATOM      2  C   UNL A   1      39.318  30.724  31.466  1.00  0.00     0.021 C 
BRANCH   2   3
ATOM      3  C   UNL A   1      40.821  30.472  31.568  1.00  0.00     0.116 C 
BRANCH   3   4
ATOM      4  N   UNL A   1      41.669  31.564  31.094  1.00  0.00    -0.354 N 
ATOM      5  C   UNL A   1      42.704  31.611  30.195  1.00  0.00     0.242 C 
ATOM      6  O   UNL A   1      43.253  32.707  30.030  1.00  0.00    -0.273 OA
ATOM      7  H   UNL A   1      41.455  32.436  31.498  1.00  0.00     0.163 HD
BRANCH   5   8
ATOM      8  C   UNL A   1      43.228  30.357  29.422  1.00  0.00     0.176 C 
BRANCH   8   9
ATOM      9  C   UNL A   1      44.552  29.814  30.135  1.00  0.00     0.018 C 
ATOM     10  C   UNL A   1      44.526  28.309  30.450  1.00  0.00     0.010 C 
BRANCH   9  11
ATOM     11  C   UNL A   1      45.860  30.269  29.403  1.00  0.00     0.002 C 
ATOM     12  C   UNL A   1      47.039  30.722  30.246  1.00  0.00     0.004 C 
ENDBRANCH   9  11
ENDBRANCH   8   9
BRANCH   8  13
ATOM     13  N   UNL A   1      43.267  30.333  27.902  1.00  0.00    -0.326 N 
ATOM     14  C   UNL A   1      43.577  29.322  27.005  1.00  0.00     0.318 C 
ATOM     15  H   UNL A   1      43.031  31.190  27.479  1.00  0.00     0.166 HD
ATOM     16  O   UNL A   1      44.439  29.556  26.157  1.00  0.00    -0.249 OA
BRANCH  14  17
ATOM     17  N   UNL A   1      42.874  28.142  27.015  1.00  0.00    -0.313 N 
ATOM     18  C   UNL A   1      42.951  27.231  25.924  1.00  0.00     0.127 C 
ATOM     19  C   UNL A   1      42.164  27.541  28.206  1.00  0.00     0.148 C 
ATOM     20  C   UNL A   1      41.603  26.606  25.611  1.00  0.00     0.057 C 
ATOM     21  C   UNL A   1      42.030  25.973  27.970  1.00  0.00    -0.014 A 
ATOM     22  C   UNL A   1      41.564  25.565  26.692  1.00  0.00    -0.037 A 
ATOM     23  C   UNL A   1      42.524  24.970  28.817  1.00  0.00     0.057 A 
ATOM     24  C   UNL A   1      41.499  24.230  26.308  1.00  0.00     0.054 A 
ATOM     25  C   UNL A   1      42.547  23.608  28.393  1.00  0.00     0.161 A 
ATOM     26  C   UNL A   1      42.023  23.246  27.133  1.00  0.00     0.161 A 
BRANCH  19  27
ATOM     27  C   UNL A   1      40.743  28.142  28.364  1.00  0.00    -0.021 A 
ATOM     28  C   UNL A   1      39.887  27.677  29.382  1.00  0.00     0.009 A 
ATOM     29  C   UNL A   1      40.214  29.063  27.436  1.00  0.00     0.009 A 
ATOM     30  C   UNL A   1      38.535  28.030  29.399  1.00  0.00     0.039 A 
ATOM     31  C   UNL A   1      38.864  29.417  27.454  1.00  0.00     0.039 A 
ATOM     32  C   UNL A   1      38.033  28.879  28.422  1.00  0.00     0.123 A 
ATOM     33  F   UNL A   1      36.725  29.171  28.406  1.00  0.00    -0.207 F 
ENDBRANCH  19  27
BRANCH  25  34
ATOM     34  O   UNL A   1      43.116  22.597  29.119  1.00  0.00    -0.493 OA
ATOM     35  C   UNL A   1      44.250  22.880  29.919  1.00  0.00     0.278 C 
ENDBRANCH  25  34
BRANCH  26  36
ATOM     36  O   UNL A   1      42.003  22.033  26.497  1.00  0.00    -0.493 OA
ATOM     37  C   UNL A   1      43.140  21.583  25.785  1.00  0.00     0.278 C 
ENDBRANCH  26  36
ENDBRANCH  14  17
ENDBRANCH   8  13
ENDBRANCH   5   8
ENDBRANCH   3   4
ENDBRANCH   2   3
ENDBRANCH   1   2
BRANCH   1  38
ATOM     38  C   UNL A   1      37.481  32.064  30.255  1.00  0.00     0.002 C 
BRANCH  38  39
ATOM     39  C   UNL A   1      36.598  31.096  31.029  1.00  0.00     0.021 C 
BRANCH  39  40
ATOM     40  C   UNL A   1      35.904  31.733  32.226  1.00  0.00     0.116 C 
BRANCH  40  41
ATOM     41  N   UNL A   1      35.335  33.032  31.887  1.00  0.00    -0.352 N 
ATOM     42  C   UNL A   1      35.511  34.222  32.557  1.00  0.00     0.251 C 
ATOM     43  H   UNL A   1      34.758  33.061  31.089  1.00  0.00     0.163 HD
ATOM     44  O   UNL A   1      34.810  35.195  32.344  1.00  0.00    -0.269 OA
BRANCH  42  45
ATOM     45  C   UNL A   1      36.593  34.262  33.559  1.00  0.00     0.039 A 
ATOM     46  C   UNL A   1      36.338  33.851  34.866  1.00  0.00     0.014 A 
ATOM     47  C   UNL A   1      37.889  34.557  33.129  1.00  0.00     0.014 A 
ATOM     48  C   UNL A   1      37.412  33.668  35.738  1.00  0.00     0.010 A 
ATOM     49  C   UNL A   1      38.958  34.293  33.972  1.00  0.00     0.010 A 
ATOM     50  C   UNL A   1      38.731  33.846  35.284  1.00  0.00    -0.014 A 
BRANCH  50  51
ATOM     51  C   UNL A   1      39.899  33.569  36.156  1.00  0.00     0.031 A 
ATOM     52  C   UNL A   1      40.400  34.644  37.081  1.00  0.00     0.074 A 
ATOM     53  C   UNL A   1      40.560  32.399  36.045  1.00  0.00     0.049 A 
ATOM     54  N   UNL A   1      41.460  34.642  37.845  1.00  0.00    -0.248 NA
ATOM     55  C   UNL A   1      39.629  35.900  37.126  1.00  0.00     0.031 C 
ATOM     56  C   UNL A   1      40.203  31.302  35.140  1.00  0.00     0.029 A 
ATOM     57  N   UNL A   1      41.686  31.943  36.684  1.00  0.00    -0.354 N 
ATOM     58  C   UNL A   1      41.500  35.901  38.435  1.00  0.00     0.074 A 
ATOM     59  C   UNL A   1      40.384  36.655  37.909  1.00  0.00     0.031 C 
ATOM     60  C   UNL A   1      41.081  30.298  35.295  1.00  0.00     0.029 A 
ATOM     61  C   UNL A   1      42.088  30.692  36.276  1.00  0.00     0.049 A 
ATOM     62  H   UNL A   1      42.161  32.462  37.372  1.00  0.00     0.167 HD
ATOM     63  C   UNL A   1      42.379  36.378  39.345  1.00  0.00     0.031 A 
ATOM     64  C   UNL A   1      43.156  29.953  36.635  1.00  0.00     0.031 A 
ATOM     65  C   UNL A   1      43.463  35.609  39.890  1.00  0.00     0.049 A 
ATOM     66  C   UNL A   1      44.114  30.506  37.658  1.00  0.00     0.074 A 
ATOM     67  C   UNL A   1      44.347  35.966  40.893  1.00  0.00     0.029 A 
ATOM     68  N   UNL A   1      43.817  34.336  39.474  1.00  0.00    -0.354 N 
ATOM     69  N   UNL A   1      44.071  31.658  38.286  1.00  0.00    -0.248 NA
ATOM     70  C   UNL A   1      45.260  29.662  38.024  1.00  0.00     0.031 C 
ATOM     71  C   UNL A   1      45.274  34.931  41.040  1.00  0.00     0.029 A 
ATOM     72  C   UNL A   1      44.933  33.907  40.171  1.00  0.00     0.049 A 
ATOM     73  H   UNL A   1      43.346  33.814  38.786  1.00  0.00     0.167 HD
ATOM     74  C   UNL A   1      45.173  31.667  39.134  1.00  0.00     0.074 A 
ATOM     75  C   UNL A   1      45.850  30.400  38.955  1.00  0.00     0.031 C 
ATOM     76  C   UNL A   1      45.590  32.639  39.981  1.00  0.00     0.031 A 
BRANCH  63  77
ATOM     77  C   UNL A   1      42.210  37.798  39.812  1.00  0.00    -0.014 A 
ATOM     78  C   UNL A   1      43.018  38.833  39.309  1.00  0.00     0.010 A 
ATOM     79  C   UNL A   1      41.179  38.112  40.717  1.00  0.00     0.010 A 
ATOM     80  C   UNL A   1      42.815  40.152  39.723  1.00  0.00     0.020 A 
ATOM     81  C   UNL A   1      40.956  39.433  41.112  1.00  0.00     0.020 A 
ATOM     82  C   UNL A   1      41.784  40.444  40.621  1.00  0.00     0.054 A 
BRANCH  82  83
ATOM     83  S   UNL A   1      41.511  42.173  41.097  1.00  0.00     0.124 S 
ATOM     84  O   UNL A   1      40.992  42.030  42.456  1.00  0.00    -0.237 OA
ATOM     85  O   UNL A   1      42.849  42.748  40.993  1.00  0.00    -0.237 OA
ATOM     86  O   UNL A   1      40.549  42.657  40.110  1.00  0.00    -0.744 OA
ENDBRANCH  82  83
ENDBRANCH  63  77
BRANCH  64  87
ATOM     87  C   UNL A   1      43.393  28.619  36.015  1.00  0.00    -0.014 A 
ATOM     88  C   UNL A   1      44.080  28.505  34.794  1.00  0.00     0.010 A 
ATOM     89  C   UNL A   1      42.915  27.452  36.640  1.00  0.00     0.010 A 
ATOM     90  C   UNL A   1      44.261  27.254  34.196  1.00  0.00     0.020 A 
ATOM     91  C   UNL A   1      43.119  26.197  36.061  1.00  0.00     0.020 A 
ATOM     92  C   UNL A   1      43.778  26.108  34.833  1.00  0.00     0.054 A 
BRANCH  92  93
ATOM     93  S   UNL A   1      44.048  24.490  34.055  1.00  0.00     0.124 S 
ATOM     94  O   UNL A   1      42.883  23.737  34.507  1.00  0.00    -0.237 OA
ATOM     95  O   UNL A   1      44.074  24.825  32.633  1.00  0.00    -0.237 OA
ATOM     96  O   UNL A   1      45.329  24.057  34.608  1.00  0.00    -0.744 OA
ENDBRANCH  92  93
ENDBRANCH  64  87
BRANCH  76  97
ATOM     97  C   UNL A   1      46.826  32.373  40.795  1.00  0.00    -0.014 A 
ATOM     98  C   UNL A   1      48.090  32.793  40.347  1.00  0.00     0.010 A 
ATOM     99  C   UNL A   1      46.708  31.778  42.064  1.00  0.00     0.010 A 
ATOM    100  C   UNL A   1      49.219  32.610  41.149  1.00  0.00     0.020 A 
ATOM    101  C   UNL A   1      47.830  31.619  42.881  1.00  0.00     0.020 A 
ATOM    102  C   UNL A   1      49.081  32.030  42.414  1.00  0.00     0.054 A 
BRANCH 102 103
ATOM    103  S   UNL A   1      50.550  31.873  43.464  1.00  0.00     0.124 S 
ATOM    104  O   UNL A   1      50.070  30.996  44.529  1.00  0.00    -0.237 OA
ATOM    105  O   UNL A   1      51.530  31.283  42.557  1.00  0.00    -0.237 OA
ATOM    106  O   UNL A   1      50.834  33.248  43.871  1.00  0.00    -0.744 OA
ENDBRANCH 102 103
ENDBRANCH  76  97
ENDBRANCH  50  51
ENDBRANCH  42  45
ENDBRANCH  40  41
ENDBRANCH  39  40
ENDBRANCH  38  39
ENDBRANCH   1  38
TORSDOF 23
ENDMDL
