MODEL 1
REMARK VINA RESULT:     -10.9      0.000      0.000
REMARK SMILES COc1ccc(-c2nc(NCC(=O)NCCCCCCNC(=O)c3ccc(-c4c5nc(c(-c6ccc(S(=O)(=O)[O-])cc6)c6ccc([nH]6)c(-c6ccc(S(=O)(=O)[O-])cc6)c6nc(c(-c7ccc(S(=O)(=O)[O-])cc7)c7ccc4[nH]7)C=C6)C=C5)cc3)sc2-c2ccc(OC)cc2)cc1
REMARK SMILES IDX 17 1 16 2 15 3 14 4 12 5 13 6 11 8 10 9 9 11 7 12 8 13 85 14
REMARK SMILES IDX 84 15 6 16 3 17 4 18 95 19 5 20 94 21 2 22 1 23 86 24 87 25
REMARK SMILES IDX 93 26 88 27 92 28 89 29 90 30 91 31 18 32 19 33 20 34 21 35
REMARK SMILES IDX 22 36 23 38 24 39 25 40 83 41 26 42 82 43 27 44 28 45 29 46
REMARK SMILES IDX 76 47 30 48 81 49 75 50 77 51 31 52 80 53 74 54 73 55 32 57
REMARK SMILES IDX 62 58 43 59 61 60 44 61 47 62 60 63 78 64 45 65 46 66 59 68
REMARK SMILES IDX 79 69 48 70 33 71 34 72 42 73 35 74 41 75 36 76 37 77 38 78
REMARK SMILES IDX 39 79 40 80 63 81 64 82 72 83 65 84 71 85 66 86 67 87 68 88
REMARK SMILES IDX 69 89 70 90 49 91 50 92 58 93 51 94 57 95 52 96 53 97 54 98
REMARK SMILES IDX 55 99 56 100
REMARK H PARENT 14 7 10 10 21 37 77 56 47 67
REMARK Flexibility Score: inf
ROOT
ATOM      1  C   UNL A   1      33.153  29.370  27.650  1.00  0.00     0.002 C 
ENDROOT
BRANCH   1   2
ATOM      2  C   UNL A   1      31.977  28.709  26.921  1.00  0.00     0.021 C 
BRANCH   2   3
ATOM      3  C   UNL A   1      32.322  27.335  26.347  1.00  0.00     0.116 C 
BRANCH   3   4
ATOM      4  N   UNL A   1      31.213  26.415  26.503  1.00  0.00    -0.355 N 
ATOM      5  C   UNL A   1      30.173  26.180  25.648  1.00  0.00     0.239 C 
ATOM      6  O   UNL A   1      29.270  25.427  26.019  1.00  0.00    -0.273 OA
ATOM      7  H   UNL A   1      31.209  25.890  27.336  1.00  0.00     0.163 HD
BRANCH   5   8
ATOM      8  C   UNL A   1      30.180  26.790  24.241  1.00  0.00     0.215 C 
BRANCH   8   9
ATOM      9  N   UNL A   1      30.566  25.824  23.225  1.00  0.00    -0.352 N 
ATOM     10  H   UNL A   1      30.214  25.961  22.315  1.00  0.00     0.163 HD
BRANCH   9  11
ATOM     11  C   UNL A   1      31.366  24.755  23.426  1.00  0.00     0.184 A 
ATOM     12  C   UNL A   1      33.189  23.667  24.068  1.00  0.00     0.091 A 
ATOM     13  N   UNL A   1      32.608  24.902  23.823  1.00  0.00    -0.220 NA
ATOM     14  C   UNL A   1      32.347  22.573  23.930  1.00  0.00     0.064 A 
ATOM     15  S   UNL A   1      30.870  23.111  23.250  1.00  0.00    -0.096 S 
BRANCH  12  16
ATOM     16  C   UNL A   1      34.582  23.553  24.476  1.00  0.00     0.002 A 
ATOM     17  C   UNL A   1      37.236  23.190  25.306  1.00  0.00     0.118 A 
ATOM     18  C   UNL A   1      36.829  22.747  24.049  1.00  0.00     0.047 A 
ATOM     19  C   UNL A   1      36.329  23.853  26.134  1.00  0.00     0.047 A 
ATOM     20  C   UNL A   1      35.507  22.920  23.637  1.00  0.00     0.014 A 
ATOM     21  C   UNL A   1      35.004  24.041  25.718  1.00  0.00     0.014 A 
BRANCH  17  22
ATOM     22  O   UNL A   1      38.555  22.983  25.603  1.00  0.00    -0.497 OA
ATOM     23  C   UNL A   1      38.901  21.628  25.875  1.00  0.00     0.278 C 
ENDBRANCH  17  22
ENDBRANCH  12  16
BRANCH  14  24
ATOM     24  C   UNL A   1      32.535  21.161  24.280  1.00  0.00    -0.006 A 
ATOM     25  C   UNL A   1      32.794  20.756  25.594  1.00  0.00     0.013 A 
ATOM     26  C   UNL A   1      32.441  20.179  23.282  1.00  0.00     0.013 A 
ATOM     27  C   UNL A   1      32.929  19.398  25.898  1.00  0.00     0.047 A 
ATOM     28  C   UNL A   1      32.571  18.819  23.591  1.00  0.00     0.047 A 
ATOM     29  C   UNL A   1      32.804  18.424  24.905  1.00  0.00     0.118 A 
BRANCH  29  30
ATOM     30  O   UNL A   1      32.931  17.136  25.345  1.00  0.00    -0.497 OA
ATOM     31  C   UNL A   1      33.255  16.153  24.367  1.00  0.00     0.278 C 
ENDBRANCH  29  30
ENDBRANCH  14  24
ENDBRANCH   9  11
ENDBRANCH   8   9
ENDBRANCH   5   8
ENDBRANCH   3   4
ENDBRANCH   2   3
ENDBRANCH   1   2
BRANCH   1  32
ATOM     32  C   UNL A   1      33.371  30.850  27.311  1.00  0.00     0.002 C 
BRANCH  32  33
ATOM     33  C   UNL A   1      34.655  31.459  27.878  1.00  0.00     0.021 C 
BRANCH  33  34
ATOM     34  C   UNL A   1      35.675  30.434  28.360  1.00  0.00     0.116 C 
BRANCH  34  35
ATOM     35  N   UNL A   1      35.646  30.282  29.808  1.00  0.00    -0.352 N 
ATOM     36  C   UNL A   1      36.588  29.736  30.639  1.00  0.00     0.251 C 
ATOM     37  H   UNL A   1      34.834  30.619  30.251  1.00  0.00     0.163 HD
ATOM     38  O   UNL A   1      36.302  29.490  31.811  1.00  0.00    -0.269 OA
BRANCH  36  39
ATOM     39  C   UNL A   1      37.939  29.433  30.125  1.00  0.00     0.039 A 
ATOM     40  C   UNL A   1      38.207  29.615  28.767  1.00  0.00     0.014 A 
ATOM     41  C   UNL A   1      38.936  28.954  30.981  1.00  0.00     0.014 A 
ATOM     42  C   UNL A   1      39.489  29.359  28.274  1.00  0.00     0.010 A 
ATOM     43  C   UNL A   1      40.232  28.776  30.504  1.00  0.00     0.010 A 
ATOM     44  C   UNL A   1      40.519  28.961  29.143  1.00  0.00    -0.014 A 
BRANCH  44  45
ATOM     45  C   UNL A   1      41.893  28.703  28.644  1.00  0.00     0.031 A 
ATOM     46  C   UNL A   1      42.280  27.318  28.193  1.00  0.00     0.074 A 
ATOM     47  C   UNL A   1      42.803  29.696  28.637  1.00  0.00     0.049 A 
ATOM     48  N   UNL A   1      43.441  26.880  27.778  1.00  0.00    -0.248 NA
ATOM     49  C   UNL A   1      41.233  26.285  28.239  1.00  0.00     0.031 C 
ATOM     50  C   UNL A   1      42.560  31.073  29.073  1.00  0.00     0.029 A 
ATOM     51  N   UNL A   1      44.119  29.701  28.247  1.00  0.00    -0.354 N 
ATOM     52  C   UNL A   1      43.265  25.526  27.521  1.00  0.00     0.074 A 
ATOM     53  C   UNL A   1      41.906  25.199  27.890  1.00  0.00     0.031 C 
ATOM     54  C   UNL A   1      43.677  31.796  28.892  1.00  0.00     0.029 A 
ATOM     55  C   UNL A   1      44.728  30.928  28.371  1.00  0.00     0.049 A 
ATOM     56  H   UNL A   1      44.584  28.901  27.909  1.00  0.00     0.167 HD
ATOM     57  C   UNL A   1      44.145  24.637  27.000  1.00  0.00     0.031 A 
ATOM     58  C   UNL A   1      45.991  31.310  28.098  1.00  0.00     0.031 A 
ATOM     59  C   UNL A   1      45.495  24.966  26.626  1.00  0.00     0.049 A 
ATOM     60  C   UNL A   1      46.960  30.296  27.548  1.00  0.00     0.074 A 
ATOM     61  C   UNL A   1      46.457  24.146  26.063  1.00  0.00     0.029 A 
ATOM     62  N   UNL A   1      46.072  26.220  26.769  1.00  0.00    -0.354 N 
ATOM     63  N   UNL A   1      46.761  29.027  27.276  1.00  0.00    -0.248 NA
ATOM     64  C   UNL A   1      48.318  30.770  27.255  1.00  0.00     0.031 C 
ATOM     65  C   UNL A   1      47.632  24.890  25.913  1.00  0.00     0.029 A 
ATOM     66  C   UNL A   1      47.381  26.191  26.320  1.00  0.00     0.049 A 
ATOM     67  H   UNL A   1      45.618  27.012  27.137  1.00  0.00     0.167 HD
ATOM     68  C   UNL A   1      47.958  28.565  26.738  1.00  0.00     0.074 A 
ATOM     69  C   UNL A   1      48.869  29.691  26.716  1.00  0.00     0.031 C 
ATOM     70  C   UNL A   1      48.273  27.322  26.297  1.00  0.00     0.031 A 
BRANCH  57  71
ATOM     71  C   UNL A   1      43.669  23.221  26.802  1.00  0.00    -0.014 A 
ATOM     72  C   UNL A   1      43.487  22.690  25.512  1.00  0.00     0.010 A 
ATOM     73  C   UNL A   1      43.437  22.396  27.919  1.00  0.00     0.010 A 
ATOM     74  C   UNL A   1      43.039  21.378  25.341  1.00  0.00     0.020 A 
ATOM     75  C   UNL A   1      43.019  21.072  27.752  1.00  0.00     0.020 A 
ATOM     76  C   UNL A   1      42.806  20.578  26.462  1.00  0.00     0.054 A 
BRANCH  76  77
ATOM     77  S   UNL A   1      42.245  18.872  26.209  1.00  0.00     0.124 S 
ATOM     78  O   UNL A   1      40.920  19.074  25.629  1.00  0.00    -0.237 OA
ATOM     79  O   UNL A   1      43.254  18.336  25.299  1.00  0.00    -0.237 OA
ATOM     80  O   UNL A   1      42.256  18.300  27.553  1.00  0.00    -0.744 OA
ENDBRANCH  76  77
ENDBRANCH  57  71
BRANCH  58  81
ATOM     81  C   UNL A   1      46.413  32.721  28.320  1.00  0.00    -0.014 A 
ATOM     82  C   UNL A   1      46.956  33.118  29.555  1.00  0.00     0.010 A 
ATOM     83  C   UNL A   1      46.263  33.679  27.300  1.00  0.00     0.010 A 
ATOM     84  C   UNL A   1      47.306  34.453  29.780  1.00  0.00     0.020 A 
ATOM     85  C   UNL A   1      46.642  35.007  27.511  1.00  0.00     0.020 A 
ATOM     86  C   UNL A   1      47.146  35.389  28.755  1.00  0.00     0.054 A 
BRANCH  86  87
ATOM     87  S   UNL A   1      47.629  37.111  29.062  1.00  0.00     0.124 S 
ATOM     88  O   UNL A   1      49.082  37.006  29.147  1.00  0.00    -0.237 OA
ATOM     89  O   UNL A   1      47.109  37.798  27.883  1.00  0.00    -0.237 OA
ATOM     90  O   UNL A   1      46.950  37.436  30.315  1.00  0.00    -0.744 OA
ENDBRANCH  86  87
ENDBRANCH  58  81
BRANCH  70  91
ATOM     91  C   UNL A   1      49.640  27.125  25.694  1.00  0.00    -0.014 A 
ATOM     92  C   UNL A   1      50.708  26.608  26.445  1.00  0.00     0.010 A 
ATOM     93  C   UNL A   1      49.840  27.424  24.333  1.00  0.00     0.010 A 
ATOM     94  C   UNL A   1      51.964  26.431  25.857  1.00  0.00     0.020 A 
ATOM     95  C   UNL A   1      51.084  27.218  23.733  1.00  0.00     0.020 A 
ATOM     96  C   UNL A   1      52.144  26.739  24.505  1.00  0.00     0.054 A 
BRANCH  96  97
ATOM     97  S   UNL A   1      53.773  26.468  23.756  1.00  0.00     0.124 S 
ATOM     98  O   UNL A   1      54.258  25.307  24.498  1.00  0.00    -0.237 OA
ATOM     99  O   UNL A   1      53.446  26.226  22.353  1.00  0.00    -0.237 OA
ATOM    100  O   UNL A   1      54.487  27.716  24.017  1.00  0.00    -0.744 OA
ENDBRANCH  96  97
ENDBRANCH  70  91
ENDBRANCH  44  45
ENDBRANCH  36  39
ENDBRANCH  34  35
ENDBRANCH  33  34
ENDBRANCH  32  33
ENDBRANCH   1  32
TORSDOF 22
ENDMDL
MODEL 2
REMARK VINA RESULT:     -10.6      1.224      7.859
REMARK SMILES COc1ccc(-c2nc(NCC(=O)NCCCCCCNC(=O)c3ccc(-c4c5nc(c(-c6ccc(S(=O)(=O)[O-])cc6)c6ccc([nH]6)c(-c6ccc(S(=O)(=O)[O-])cc6)c6nc(c(-c7ccc(S(=O)(=O)[O-])cc7)c7ccc4[nH]7)C=C6)C=C5)cc3)sc2-c2ccc(OC)cc2)cc1
REMARK SMILES IDX 17 1 16 2 15 3 14 4 12 5 13 6 11 8 10 9 9 11 7 12 8 13 85 14
REMARK SMILES IDX 84 15 6 16 3 17 4 18 95 19 5 20 94 21 2 22 1 23 86 24 87 25
REMARK SMILES IDX 93 26 88 27 92 28 89 29 90 30 91 31 18 32 19 33 20 34 21 35
REMARK SMILES IDX 22 36 23 38 24 39 25 40 83 41 26 42 82 43 27 44 28 45 29 46
REMARK SMILES IDX 76 47 30 48 81 49 75 50 77 51 31 52 80 53 74 54 73 55 32 57
REMARK SMILES IDX 62 58 43 59 61 60 44 61 47 62 60 63 78 64 45 65 46 66 59 68
REMARK SMILES IDX 79 69 48 70 33 71 34 72 42 73 35 74 41 75 36 76 37 77 38 78
REMARK SMILES IDX 39 79 40 80 63 81 64 82 72 83 65 84 71 85 66 86 67 87 68 88
REMARK SMILES IDX 69 89 70 90 49 91 50 92 58 93 51 94 57 95 52 96 53 97 54 98
REMARK SMILES IDX 55 99 56 100
REMARK H PARENT 14 7 10 10 21 37 77 56 47 67
REMARK Flexibility Score: inf
ROOT
ATOM      1  C   UNL A   1      33.707  28.934  27.633  1.00  0.00     0.002 C 
ENDROOT
BRANCH   1   2
ATOM      2  C   UNL A   1      32.481  28.367  26.905  1.00  0.00     0.021 C 
BRANCH   2   3
ATOM      3  C   UNL A   1      32.702  26.955  26.366  1.00  0.00     0.116 C 
BRANCH   3   4
ATOM      4  N   UNL A   1      31.574  26.098  26.677  1.00  0.00    -0.355 N 
ATOM      5  C   UNL A   1      30.403  25.948  25.990  1.00  0.00     0.239 C 
ATOM      6  O   UNL A   1      29.521  25.241  26.485  1.00  0.00    -0.273 OA
ATOM      7  H   UNL A   1      31.665  25.554  27.492  1.00  0.00     0.163 HD
BRANCH   5   8
ATOM      8  C   UNL A   1      30.232  26.593  24.609  1.00  0.00     0.215 C 
BRANCH   8   9
ATOM      9  N   UNL A   1      30.398  25.633  23.530  1.00  0.00    -0.352 N 
ATOM     10  H   UNL A   1      29.882  25.786  22.705  1.00  0.00     0.163 HD
BRANCH   9  11
ATOM     11  C   UNL A   1      31.202  24.548  23.566  1.00  0.00     0.184 A 
ATOM     12  C   UNL A   1      33.052  23.395  23.978  1.00  0.00     0.091 A 
ATOM     13  N   UNL A   1      32.466  24.650  23.905  1.00  0.00    -0.220 NA
ATOM     14  C   UNL A   1      32.196  22.323  23.767  1.00  0.00     0.064 A 
ATOM     15  S   UNL A   1      30.686  22.933  23.236  1.00  0.00    -0.096 S 
BRANCH  12  16
ATOM     16  C   UNL A   1      34.464  23.237  24.292  1.00  0.00     0.002 A 
ATOM     17  C   UNL A   1      37.165  22.781  24.894  1.00  0.00     0.118 A 
ATOM     18  C   UNL A   1      36.722  22.715  23.575  1.00  0.00     0.047 A 
ATOM     19  C   UNL A   1      36.269  23.117  25.911  1.00  0.00     0.047 A 
ATOM     20  C   UNL A   1      35.377  22.934  23.273  1.00  0.00     0.014 A 
ATOM     21  C   UNL A   1      34.920  23.351  25.609  1.00  0.00     0.014 A 
BRANCH  17  22
ATOM     22  O   UNL A   1      38.503  22.564  25.076  1.00  0.00    -0.497 OA
ATOM     23  C   UNL A   1      38.836  21.836  26.255  1.00  0.00     0.278 C 
ENDBRANCH  17  22
ENDBRANCH  12  16
BRANCH  14  24
ATOM     24  C   UNL A   1      32.396  20.882  23.947  1.00  0.00    -0.006 A 
ATOM     25  C   UNL A   1      32.737  20.334  25.188  1.00  0.00     0.013 A 
ATOM     26  C   UNL A   1      32.227  20.015  22.857  1.00  0.00     0.013 A 
ATOM     27  C   UNL A   1      32.881  18.951  25.333  1.00  0.00     0.047 A 
ATOM     28  C   UNL A   1      32.365  18.630  23.005  1.00  0.00     0.047 A 
ATOM     29  C   UNL A   1      32.682  18.092  24.250  1.00  0.00     0.118 A 
BRANCH  29  30
ATOM     30  O   UNL A   1      32.827  16.763  24.536  1.00  0.00    -0.497 OA
ATOM     31  C   UNL A   1      33.907  16.406  25.392  1.00  0.00     0.278 C 
ENDBRANCH  29  30
ENDBRANCH  14  24
ENDBRANCH   9  11
ENDBRANCH   8   9
ENDBRANCH   5   8
ENDBRANCH   3   4
ENDBRANCH   2   3
ENDBRANCH   1   2
BRANCH   1  32
ATOM     32  C   UNL A   1      34.084  30.367  27.239  1.00  0.00     0.002 C 
BRANCH  32  33
ATOM     33  C   UNL A   1      35.497  30.796  27.641  1.00  0.00     0.021 C 
BRANCH  33  34
ATOM     34  C   UNL A   1      36.406  29.645  28.055  1.00  0.00     0.116 C 
BRANCH  34  35
ATOM     35  N   UNL A   1      36.382  29.427  29.494  1.00  0.00    -0.352 N 
ATOM     36  C   UNL A   1      37.366  28.940  30.312  1.00  0.00     0.251 C 
ATOM     37  H   UNL A   1      35.537  29.662  29.942  1.00  0.00     0.163 HD
ATOM     38  O   UNL A   1      37.097  28.615  31.470  1.00  0.00    -0.269 OA
BRANCH  36  39
ATOM     39  C   UNL A   1      38.745  28.794  29.802  1.00  0.00     0.039 A 
ATOM     40  C   UNL A   1      39.050  29.264  28.523  1.00  0.00     0.014 A 
ATOM     41  C   UNL A   1      39.732  28.180  30.579  1.00  0.00     0.014 A 
ATOM     42  C   UNL A   1      40.357  29.157  28.040  1.00  0.00     0.010 A 
ATOM     43  C   UNL A   1      41.048  28.147  30.129  1.00  0.00     0.010 A 
ATOM     44  C   UNL A   1      41.372  28.620  28.849  1.00  0.00    -0.014 A 
BRANCH  44  45
ATOM     45  C   UNL A   1      42.771  28.517  28.363  1.00  0.00     0.031 A 
ATOM     46  C   UNL A   1      43.702  29.693  28.501  1.00  0.00     0.074 A 
ATOM     47  C   UNL A   1      43.191  27.388  27.759  1.00  0.00     0.049 A 
ATOM     48  N   UNL A   1      44.939  29.819  28.090  1.00  0.00    -0.248 NA
ATOM     49  C   UNL A   1      43.167  30.893  29.163  1.00  0.00     0.031 C 
ATOM     50  C   UNL A   1      42.378  26.189  27.541  1.00  0.00     0.029 A 
ATOM     51  N   UNL A   1      44.410  27.063  27.218  1.00  0.00    -0.354 N 
ATOM     52  C   UNL A   1      45.324  31.108  28.438  1.00  0.00     0.074 A 
ATOM     53  C   UNL A   1      44.171  31.748  29.032  1.00  0.00     0.031 C 
ATOM     54  C   UNL A   1      43.130  25.249  26.946  1.00  0.00     0.029 A 
ATOM     55  C   UNL A   1      44.463  25.790  26.699  1.00  0.00     0.049 A 
ATOM     56  H   UNL A   1      45.176  27.682  27.204  1.00  0.00     0.167 HD
ATOM     57  C   UNL A   1      46.535  31.700  28.302  1.00  0.00     0.031 A 
ATOM     58  C   UNL A   1      45.471  25.134  26.092  1.00  0.00     0.031 A 
ATOM     59  C   UNL A   1      47.683  31.060  27.718  1.00  0.00     0.049 A 
ATOM     60  C   UNL A   1      46.799  25.825  25.924  1.00  0.00     0.074 A 
ATOM     61  C   UNL A   1      48.962  31.563  27.559  1.00  0.00     0.029 A 
ATOM     62  N   UNL A   1      47.693  29.771  27.204  1.00  0.00    -0.354 N 
ATOM     63  N   UNL A   1      47.153  27.033  26.296  1.00  0.00    -0.248 NA
ATOM     64  C   UNL A   1      47.866  25.058  25.269  1.00  0.00     0.031 C 
ATOM     65  C   UNL A   1      49.733  30.598  26.903  1.00  0.00     0.029 A 
ATOM     66  C   UNL A   1      48.952  29.469  26.714  1.00  0.00     0.049 A 
ATOM     67  H   UNL A   1      46.920  29.163  27.189  1.00  0.00     0.167 HD
ATOM     68  C   UNL A   1      48.498  27.152  25.957  1.00  0.00     0.074 A 
ATOM     69  C   UNL A   1      48.892  25.893  25.361  1.00  0.00     0.031 C 
ATOM     70  C   UNL A   1      49.332  28.207  26.131  1.00  0.00     0.031 A 
BRANCH  57  71
ATOM     71  C   UNL A   1      46.676  33.117  28.797  1.00  0.00    -0.014 A 
ATOM     72  C   UNL A   1      47.334  33.400  30.009  1.00  0.00     0.010 A 
ATOM     73  C   UNL A   1      46.179  34.184  28.026  1.00  0.00     0.010 A 
ATOM     74  C   UNL A   1      47.453  34.716  30.461  1.00  0.00     0.020 A 
ATOM     75  C   UNL A   1      46.324  35.505  28.459  1.00  0.00     0.020 A 
ATOM     76  C   UNL A   1      46.945  35.760  29.684  1.00  0.00     0.054 A 
BRANCH  76  77
ATOM     77  S   UNL A   1      47.133  37.460  30.287  1.00  0.00     0.124 S 
ATOM     78  O   UNL A   1      46.104  37.528  31.321  1.00  0.00    -0.237 OA
ATOM     79  O   UNL A   1      48.511  37.477  30.771  1.00  0.00    -0.237 OA
ATOM     80  O   UNL A   1      46.881  38.278  29.104  1.00  0.00    -0.744 OA
ENDBRANCH  76  77
ENDBRANCH  57  71
BRANCH  58  81
ATOM     81  C   UNL A   1      45.276  23.737  25.612  1.00  0.00    -0.014 A 
ATOM     82  C   UNL A   1      44.814  23.488  24.307  1.00  0.00     0.010 A 
ATOM     83  C   UNL A   1      45.540  22.647  26.463  1.00  0.00     0.010 A 
ATOM     84  C   UNL A   1      44.584  22.179  23.874  1.00  0.00     0.020 A 
ATOM     85  C   UNL A   1      45.342  21.337  26.022  1.00  0.00     0.020 A 
ATOM     86  C   UNL A   1      44.849  21.111  24.735  1.00  0.00     0.054 A 
BRANCH  86  87
ATOM     87  S   UNL A   1      44.566  19.421  24.143  1.00  0.00     0.124 S 
ATOM     88  O   UNL A   1      44.561  19.604  22.695  1.00  0.00    -0.237 OA
ATOM     89  O   UNL A   1      45.712  18.699  24.690  1.00  0.00    -0.237 OA
ATOM     90  O   UNL A   1      43.276  19.066  24.733  1.00  0.00    -0.744 OA
ENDBRANCH  86  87
ENDBRANCH  58  81
BRANCH  70  91
ATOM     91  C   UNL A   1      50.772  28.027  25.727  1.00  0.00    -0.014 A 
ATOM     92  C   UNL A   1      51.208  28.291  24.418  1.00  0.00     0.010 A 
ATOM     93  C   UNL A   1      51.712  27.627  26.695  1.00  0.00     0.010 A 
ATOM     94  C   UNL A   1      52.553  28.120  24.074  1.00  0.00     0.020 A 
ATOM     95  C   UNL A   1      53.061  27.486  26.364  1.00  0.00     0.020 A 
ATOM     96  C   UNL A   1      53.470  27.717  25.050  1.00  0.00     0.054 A 
BRANCH  96  97
ATOM     97  S   UNL A   1      55.214  27.535  24.586  1.00  0.00     0.124 S 
ATOM     98  O   UNL A   1      55.358  28.548  23.545  1.00  0.00    -0.237 OA
ATOM     99  O   UNL A   1      55.910  27.818  25.839  1.00  0.00    -0.237 OA
ATOM    100  O   UNL A   1      55.309  26.151  24.127  1.00  0.00    -0.744 OA
ENDBRANCH  96  97
ENDBRANCH  70  91
ENDBRANCH  44  45
ENDBRANCH  36  39
ENDBRANCH  34  35
ENDBRANCH  33  34
ENDBRANCH  32  33
ENDBRANCH   1  32
TORSDOF 22
ENDMDL
MODEL 3
REMARK VINA RESULT:     -10.4      5.232     11.768
REMARK SMILES COc1ccc(-c2nc(NCC(=O)NCCCCCCNC(=O)c3ccc(-c4c5nc(c(-c6ccc(S(=O)(=O)[O-])cc6)c6ccc([nH]6)c(-c6ccc(S(=O)(=O)[O-])cc6)c6nc(c(-c7ccc(S(=O)(=O)[O-])cc7)c7ccc4[nH]7)C=C6)C=C5)cc3)sc2-c2ccc(OC)cc2)cc1
REMARK SMILES IDX 17 1 16 2 15 3 14 4 12 5 13 6 11 8 10 9 9 11 7 12 8 13 85 14
REMARK SMILES IDX 84 15 6 16 3 17 4 18 95 19 5 20 94 21 2 22 1 23 86 24 87 25
REMARK SMILES IDX 93 26 88 27 92 28 89 29 90 30 91 31 18 32 19 33 20 34 21 35
REMARK SMILES IDX 22 36 23 38 24 39 25 40 83 41 26 42 82 43 27 44 28 45 29 46
REMARK SMILES IDX 76 47 30 48 81 49 75 50 77 51 31 52 80 53 74 54 73 55 32 57
REMARK SMILES IDX 62 58 43 59 61 60 44 61 47 62 60 63 78 64 45 65 46 66 59 68
REMARK SMILES IDX 79 69 48 70 33 71 34 72 42 73 35 74 41 75 36 76 37 77 38 78
REMARK SMILES IDX 39 79 40 80 63 81 64 82 72 83 65 84 71 85 66 86 67 87 68 88
REMARK SMILES IDX 69 89 70 90 49 91 50 92 58 93 51 94 57 95 52 96 53 97 54 98
REMARK SMILES IDX 55 99 56 100
REMARK H PARENT 14 7 10 10 21 37 77 56 47 67
REMARK Flexibility Score: inf
ROOT
ATOM      1  C   UNL A   1      34.875  32.515  31.873  1.00  0.00     0.002 C 
ENDROOT
BRANCH   1   2
ATOM      2  C   UNL A   1      35.173  33.210  33.207  1.00  0.00     0.021 C 
BRANCH   2   3
ATOM      3  C   UNL A   1      36.668  33.371  33.480  1.00  0.00     0.116 C 
BRANCH   3   4
ATOM      4  N   UNL A   1      37.047  32.695  34.705  1.00  0.00    -0.355 N 
ATOM      5  C   UNL A   1      37.796  31.562  34.856  1.00  0.00     0.239 C 
ATOM      6  O   UNL A   1      37.916  31.087  35.989  1.00  0.00    -0.273 OA
ATOM      7  H   UNL A   1      36.722  33.107  35.538  1.00  0.00     0.163 HD
BRANCH   5   8
ATOM      8  C   UNL A   1      38.517  30.948  33.650  1.00  0.00     0.215 C 
BRANCH   8   9
ATOM      9  N   UNL A   1      39.951  31.182  33.690  1.00  0.00    -0.352 N 
ATOM     10  H   UNL A   1      40.263  32.103  33.534  1.00  0.00     0.163 HD
BRANCH   9  11
ATOM     11  C   UNL A   1      40.890  30.240  33.924  1.00  0.00     0.184 A 
ATOM     12  C   UNL A   1      42.706  29.357  34.843  1.00  0.00     0.091 A 
ATOM     13  N   UNL A   1      41.950  30.504  34.651  1.00  0.00    -0.220 NA
ATOM     14  C   UNL A   1      42.165  28.191  34.319  1.00  0.00     0.064 A 
ATOM     15  S   UNL A   1      40.803  28.608  33.368  1.00  0.00    -0.096 S 
BRANCH  12  16
ATOM     16  C   UNL A   1      43.960  29.391  35.580  1.00  0.00     0.002 A 
ATOM     17  C   UNL A   1      46.400  29.312  36.961  1.00  0.00     0.118 A 
ATOM     18  C   UNL A   1      46.382  29.530  35.585  1.00  0.00     0.047 A 
ATOM     19  C   UNL A   1      45.197  29.175  37.657  1.00  0.00     0.047 A 
ATOM     20  C   UNL A   1      45.170  29.563  34.895  1.00  0.00     0.014 A 
ATOM     21  C   UNL A   1      43.978  29.221  36.969  1.00  0.00     0.014 A 
BRANCH  17  22
ATOM     22  O   UNL A   1      47.639  29.313  37.540  1.00  0.00    -0.497 OA
ATOM     23  C   UNL A   1      47.698  28.711  38.830  1.00  0.00     0.278 C 
ENDBRANCH  17  22
ENDBRANCH  12  16
BRANCH  14  24
ATOM     24  C   UNL A   1      42.560  26.788  34.481  1.00  0.00    -0.006 A 
ATOM     25  C   UNL A   1      41.869  25.921  35.333  1.00  0.00     0.013 A 
ATOM     26  C   UNL A   1      43.650  26.285  33.754  1.00  0.00     0.013 A 
ATOM     27  C   UNL A   1      42.249  24.579  35.433  1.00  0.00     0.047 A 
ATOM     28  C   UNL A   1      44.025  24.939  33.850  1.00  0.00     0.047 A 
ATOM     29  C   UNL A   1      43.316  24.078  34.684  1.00  0.00     0.118 A 
BRANCH  29  30
ATOM     30  O   UNL A   1      43.562  22.744  34.856  1.00  0.00    -0.497 OA
ATOM     31  C   UNL A   1      44.709  22.214  34.200  1.00  0.00     0.278 C 
ENDBRANCH  29  30
ENDBRANCH  14  24
ENDBRANCH   9  11
ENDBRANCH   8   9
ENDBRANCH   5   8
ENDBRANCH   3   4
ENDBRANCH   2   3
ENDBRANCH   1   2
BRANCH   1  32
ATOM     32  C   UNL A   1      35.596  33.116  30.660  1.00  0.00     0.002 C 
BRANCH  32  33
ATOM     33  C   UNL A   1      34.676  33.606  29.540  1.00  0.00     0.021 C 
BRANCH  33  34
ATOM     34  C   UNL A   1      34.925  32.944  28.190  1.00  0.00     0.116 C 
BRANCH  34  35
ATOM     35  N   UNL A   1      34.083  31.772  27.999  1.00  0.00    -0.352 N 
ATOM     36  C   UNL A   1      34.446  30.457  27.876  1.00  0.00     0.251 C 
ATOM     37  H   UNL A   1      33.115  31.950  27.950  1.00  0.00     0.163 HD
ATOM     38  O   UNL A   1      33.619  29.625  27.500  1.00  0.00    -0.269 OA
BRANCH  36  39
ATOM     39  C   UNL A   1      35.829  30.041  28.184  1.00  0.00     0.039 A 
ATOM     40  C   UNL A   1      36.812  30.167  27.199  1.00  0.00     0.014 A 
ATOM     41  C   UNL A   1      36.154  29.512  29.437  1.00  0.00     0.014 A 
ATOM     42  C   UNL A   1      38.130  29.803  27.487  1.00  0.00     0.010 A 
ATOM     43  C   UNL A   1      37.480  29.226  29.747  1.00  0.00     0.010 A 
ATOM     44  C   UNL A   1      38.480  29.353  28.771  1.00  0.00    -0.014 A 
BRANCH  44  45
ATOM     45  C   UNL A   1      39.878  28.981  29.103  1.00  0.00     0.031 A 
ATOM     46  C   UNL A   1      40.787  29.989  29.757  1.00  0.00     0.074 A 
ATOM     47  C   UNL A   1      40.344  27.759  28.779  1.00  0.00     0.049 A 
ATOM     48  N   UNL A   1      42.052  29.875  30.075  1.00  0.00    -0.248 NA
ATOM     49  C   UNL A   1      40.208  31.304  30.073  1.00  0.00     0.031 C 
ATOM     50  C   UNL A   1      39.571  26.704  28.119  1.00  0.00     0.029 A 
ATOM     51  N   UNL A   1      41.582  27.196  28.961  1.00  0.00    -0.354 N 
ATOM     52  C   UNL A   1      42.418  31.101  30.618  1.00  0.00     0.074 A 
ATOM     53  C   UNL A   1      41.262  31.965  30.527  1.00  0.00     0.031 C 
ATOM     54  C   UNL A   1      40.341  25.612  27.985  1.00  0.00     0.029 A 
ATOM     55  C   UNL A   1      41.673  25.901  28.507  1.00  0.00     0.049 A 
ATOM     56  H   UNL A   1      42.335  27.674  29.378  1.00  0.00     0.167 HD
ATOM     57  C   UNL A   1      43.599  31.468  31.170  1.00  0.00     0.031 A 
ATOM     58  C   UNL A   1      42.713  25.044  28.509  1.00  0.00     0.031 A 
ATOM     59  C   UNL A   1      44.745  30.604  31.268  1.00  0.00     0.049 A 
ATOM     60  C   UNL A   1      44.026  25.487  29.100  1.00  0.00     0.074 A 
ATOM     61  C   UNL A   1      45.980  30.871  31.834  1.00  0.00     0.029 A 
ATOM     62  N   UNL A   1      44.795  29.301  30.795  1.00  0.00    -0.354 N 
ATOM     63  N   UNL A   1      44.339  26.639  29.645  1.00  0.00    -0.248 NA
ATOM     64  C   UNL A   1      45.120  24.508  29.089  1.00  0.00     0.031 C 
ATOM     65  C   UNL A   1      46.793  29.747  31.658  1.00  0.00     0.029 A 
ATOM     66  C   UNL A   1      46.044  28.757  31.042  1.00  0.00     0.049 A 
ATOM     67  H   UNL A   1      44.054  28.833  30.348  1.00  0.00     0.167 HD
ATOM     68  C   UNL A   1      45.654  26.505  30.080  1.00  0.00     0.074 A 
ATOM     69  C   UNL A   1      46.071  25.160  29.744  1.00  0.00     0.031 C 
ATOM     70  C   UNL A   1      46.442  27.413  30.709  1.00  0.00     0.031 A 
BRANCH  57  71
ATOM     71  C   UNL A   1      43.707  32.870  31.713  1.00  0.00    -0.014 A 
ATOM     72  C   UNL A   1      43.374  33.159  33.049  1.00  0.00     0.010 A 
ATOM     73  C   UNL A   1      44.184  33.907  30.889  1.00  0.00     0.010 A 
ATOM     74  C   UNL A   1      43.471  34.463  33.539  1.00  0.00     0.020 A 
ATOM     75  C   UNL A   1      44.314  35.208  31.385  1.00  0.00     0.020 A 
ATOM     76  C   UNL A   1      43.939  35.480  32.703  1.00  0.00     0.054 A 
BRANCH  76  77
ATOM     77  S   UNL A   1      44.075  37.160  33.374  1.00  0.00     0.124 S 
ATOM     78  O   UNL A   1      42.772  37.337  34.009  1.00  0.00    -0.237 OA
ATOM     79  O   UNL A   1      45.209  37.048  34.287  1.00  0.00    -0.237 OA
ATOM     80  O   UNL A   1      44.309  37.987  32.193  1.00  0.00    -0.744 OA
ENDBRANCH  76  77
ENDBRANCH  57  71
BRANCH  58  81
ATOM     81  C   UNL A   1      42.556  23.672  27.952  1.00  0.00    -0.014 A 
ATOM     82  C   UNL A   1      43.277  23.277  26.810  1.00  0.00     0.010 A 
ATOM     83  C   UNL A   1      41.673  22.755  28.552  1.00  0.00     0.010 A 
ATOM     84  C   UNL A   1      43.092  22.007  26.258  1.00  0.00     0.020 A 
ATOM     85  C   UNL A   1      41.511  21.472  28.022  1.00  0.00     0.020 A 
ATOM     86  C   UNL A   1      42.209  21.112  26.868  1.00  0.00     0.054 A 
BRANCH  86  87
ATOM     87  S   UNL A   1      42.002  19.460  26.148  1.00  0.00     0.124 S 
ATOM     88  O   UNL A   1      42.475  18.599  27.227  1.00  0.00    -0.237 OA
ATOM     89  O   UNL A   1      40.568  19.412  25.876  1.00  0.00    -0.237 OA
ATOM     90  O   UNL A   1      42.854  19.499  24.959  1.00  0.00    -0.744 OA
ENDBRANCH  86  87
ENDBRANCH  58  81
BRANCH  70  91
ATOM     91  C   UNL A   1      47.817  26.964  31.130  1.00  0.00    -0.014 A 
ATOM     92  C   UNL A   1      48.882  26.897  30.216  1.00  0.00     0.010 A 
ATOM     93  C   UNL A   1      48.052  26.645  32.481  1.00  0.00     0.010 A 
ATOM     94  C   UNL A   1      50.149  26.482  30.637  1.00  0.00     0.020 A 
ATOM     95  C   UNL A   1      49.323  26.261  32.912  1.00  0.00     0.020 A 
ATOM     96  C   UNL A   1      50.360  26.166  31.983  1.00  0.00     0.054 A 
BRANCH  96  97
ATOM     97  S   UNL A   1      52.021  25.663  32.511  1.00  0.00     0.124 S 
ATOM     98  O   UNL A   1      52.017  24.235  32.205  1.00  0.00    -0.237 OA
ATOM     99  O   UNL A   1      52.887  26.485  31.670  1.00  0.00    -0.237 OA
ATOM    100  O   UNL A   1      52.048  25.995  33.934  1.00  0.00    -0.744 OA
ENDBRANCH  96  97
ENDBRANCH  70  91
ENDBRANCH  44  45
ENDBRANCH  36  39
ENDBRANCH  34  35
ENDBRANCH  33  34
ENDBRANCH  32  33
ENDBRANCH   1  32
TORSDOF 22
ENDMDL
