MODEL 1
REMARK VINA RESULT:     -10.7      0.000      0.000
REMARK SMILES O=Cc1ccc2c(c1)C=C(C(=O)NCCCCCCNC(=O)c1ccc(-c3c4nc(c(-c5ccc(S(=O)(=O)[O-])cc5)c5ccc([nH]5)c(-c5ccc(S(=O)(=O)[O-])cc5)c5nc(c(-c6ccc(S(=O)(=O)[O-])cc6)c6ccc3[nH]6)C=C5)C=C4)cc1)[C@H](C(F)(F)F)O2
REMARK SMILES IDX 17 1 16 2 15 3 14 4 13 5 11 6 12 7 10 9 3 10 4 11 8 12 5 13
REMARK SMILES IDX 7 14 6 15 9 16 88 17 83 18 2 19 1 20 84 21 85 22 86 23 87 24
REMARK SMILES IDX 18 25 19 26 20 27 21 28 22 30 23 31 24 32 82 33 25 34 81 35
REMARK SMILES IDX 26 36 27 37 28 38 75 39 29 40 80 41 74 42 76 43 30 44 79 45
REMARK SMILES IDX 73 46 72 47 31 49 61 50 42 51 60 52 43 53 46 54 59 55 77 56
REMARK SMILES IDX 44 57 45 58 58 60 78 61 47 62 32 63 33 64 41 65 34 66 40 67
REMARK SMILES IDX 35 68 36 69 37 70 38 71 39 72 62 73 63 74 71 75 64 76 70 77
REMARK SMILES IDX 65 78 66 79 67 80 68 81 69 82 48 83 49 84 57 85 50 86 56 87
REMARK SMILES IDX 51 88 52 89 53 90 54 91 55 92
REMARK H PARENT 13 8 20 29 76 48 46 59
REMARK Flexibility Score: inf
ROOT
ATOM      1  C   UNL A   1      37.391  21.890  24.065  1.00  0.00     0.002 C 
ENDROOT
BRANCH   1   2
ATOM      2  C   UNL A   1      36.182  22.833  24.113  1.00  0.00     0.002 C 
BRANCH   2   3
ATOM      3  C   UNL A   1      36.198  23.827  25.283  1.00  0.00     0.021 C 
BRANCH   3   4
ATOM      4  C   UNL A   1      34.874  24.585  25.436  1.00  0.00     0.116 C 
BRANCH   4   5
ATOM      5  N   UNL A   1      34.107  23.995  26.521  1.00  0.00    -0.352 N 
ATOM      6  C   UNL A   1      33.210  22.977  26.575  1.00  0.00     0.251 C 
ATOM      7  O   UNL A   1      32.536  22.864  27.596  1.00  0.00    -0.270 OA
ATOM      8  H   UNL A   1      34.270  24.422  27.392  1.00  0.00     0.163 HD
BRANCH   6   9
ATOM      9  C   UNL A   1      33.079  21.953  25.504  1.00  0.00     0.067 C 
ATOM     10  C   UNL A   1      33.539  17.494  23.717  1.00  0.00     0.015 A 
ATOM     11  C   UNL A   1      32.696  17.823  22.653  1.00  0.00     0.015 A 
ATOM     12  C   UNL A   1      33.888  18.457  24.667  1.00  0.00     0.023 A 
ATOM     13  C   UNL A   1      32.176  19.113  22.557  1.00  0.00     0.048 A 
ATOM     14  C   UNL A   1      33.380  19.758  24.554  1.00  0.00     0.018 A 
ATOM     15  C   UNL A   1      32.511  20.075  23.511  1.00  0.00     0.128 A 
ATOM     16  C   UNL A   1      33.671  20.751  25.572  1.00  0.00     0.025 C 
ATOM     17  O   UNL A   1      31.894  21.283  23.396  1.00  0.00    -0.475 OA
ATOM     18  C   UNL A   1      32.353  22.387  24.230  1.00  0.00     0.314 C 
BRANCH  10  19
ATOM     19  C   UNL A   1      34.044  16.114  23.863  1.00  0.00     0.260 C 
ATOM     20  O   UNL A   1      33.866  15.471  24.890  1.00  0.00    -0.298 OA
ENDBRANCH  10  19
BRANCH  18  21
ATOM     21  C   UNL A   1      31.163  23.363  24.384  1.00  0.00     0.429 C 
ATOM     22  F   UNL A   1      31.552  24.644  24.569  1.00  0.00    -0.167 F 
ATOM     23  F   UNL A   1      30.407  23.384  23.251  1.00  0.00    -0.167 F 
ATOM     24  F   UNL A   1      30.335  23.019  25.396  1.00  0.00    -0.167 F 
ENDBRANCH  18  21
ENDBRANCH   6   9
ENDBRANCH   4   5
ENDBRANCH   3   4
ENDBRANCH   2   3
ENDBRANCH   1   2
BRANCH   1  25
ATOM     25  C   UNL A   1      37.598  21.054  25.330  1.00  0.00     0.021 C 
BRANCH  25  26
ATOM     26  C   UNL A   1      38.888  21.371  26.077  1.00  0.00     0.116 C 
BRANCH  26  27
ATOM     27  N   UNL A   1      39.777  20.217  26.114  1.00  0.00    -0.352 N 
ATOM     28  C   UNL A   1      41.150  20.185  26.146  1.00  0.00     0.251 C 
ATOM     29  H   UNL A   1      39.331  19.339  26.115  1.00  0.00     0.163 HD
ATOM     30  O   UNL A   1      41.749  19.143  25.908  1.00  0.00    -0.269 OA
BRANCH  28  31
ATOM     31  C   UNL A   1      41.893  21.423  26.459  1.00  0.00     0.039 A 
ATOM     32  C   UNL A   1      42.230  22.298  25.424  1.00  0.00     0.014 A 
ATOM     33  C   UNL A   1      42.240  21.720  27.780  1.00  0.00     0.014 A 
ATOM     34  C   UNL A   1      42.857  23.509  25.726  1.00  0.00     0.010 A 
ATOM     35  C   UNL A   1      42.794  22.958  28.085  1.00  0.00     0.010 A 
ATOM     36  C   UNL A   1      43.106  23.865  27.062  1.00  0.00    -0.014 A 
BRANCH  36  37
ATOM     37  C   UNL A   1      43.670  25.190  27.417  1.00  0.00     0.031 A 
ATOM     38  C   UNL A   1      45.123  25.487  27.171  1.00  0.00     0.074 A 
ATOM     39  C   UNL A   1      42.888  26.100  28.030  1.00  0.00     0.049 A 
ATOM     40  N   UNL A   1      45.805  26.564  27.464  1.00  0.00    -0.248 NA
ATOM     41  C   UNL A   1      45.918  24.424  26.539  1.00  0.00     0.031 C 
ATOM     42  C   UNL A   1      41.469  25.921  28.345  1.00  0.00     0.029 A 
ATOM     43  N   UNL A   1      43.175  27.356  28.499  1.00  0.00    -0.354 N 
ATOM     44  C   UNL A   1      47.110  26.306  27.061  1.00  0.00     0.074 A 
ATOM     45  C   UNL A   1      47.134  24.948  26.562  1.00  0.00     0.031 C 
ATOM     46  C   UNL A   1      41.000  27.043  28.915  1.00  0.00     0.029 A 
ATOM     47  C   UNL A   1      42.094  27.999  29.055  1.00  0.00     0.049 A 
ATOM     48  H   UNL A   1      44.072  27.761  28.443  1.00  0.00     0.167 HD
ATOM     49  C   UNL A   1      48.187  27.128  27.088  1.00  0.00     0.031 A 
ATOM     50  C   UNL A   1      41.994  29.219  29.616  1.00  0.00     0.031 A 
ATOM     51  C   UNL A   1      48.158  28.472  27.604  1.00  0.00     0.049 A 
ATOM     52  C   UNL A   1      43.214  30.093  29.692  1.00  0.00     0.074 A 
ATOM     53  C   UNL A   1      49.181  29.404  27.639  1.00  0.00     0.029 A 
ATOM     54  N   UNL A   1      47.053  29.072  28.191  1.00  0.00    -0.354 N 
ATOM     55  N   UNL A   1      44.426  29.857  29.247  1.00  0.00    -0.248 NA
ATOM     56  C   UNL A   1      43.052  31.400  30.343  1.00  0.00     0.031 C 
ATOM     57  C   UNL A   1      48.714  30.540  28.308  1.00  0.00     0.029 A 
ATOM     58  C   UNL A   1      47.379  30.346  28.627  1.00  0.00     0.049 A 
ATOM     59  H   UNL A   1      46.167  28.653  28.285  1.00  0.00     0.167 HD
ATOM     60  C   UNL A   1      45.165  30.998  29.540  1.00  0.00     0.074 A 
ATOM     61  C   UNL A   1      44.260  31.926  30.189  1.00  0.00     0.031 C 
ATOM     62  C   UNL A   1      46.472  31.254  29.286  1.00  0.00     0.031 A 
BRANCH  49  63
ATOM     63  C   UNL A   1      49.490  26.572  26.569  1.00  0.00    -0.014 A 
ATOM     64  C   UNL A   1      50.287  25.722  27.358  1.00  0.00     0.010 A 
ATOM     65  C   UNL A   1      49.931  26.914  25.278  1.00  0.00     0.010 A 
ATOM     66  C   UNL A   1      51.535  25.290  26.899  1.00  0.00     0.020 A 
ATOM     67  C   UNL A   1      51.162  26.453  24.800  1.00  0.00     0.020 A 
ATOM     68  C   UNL A   1      51.970  25.670  25.626  1.00  0.00     0.054 A 
BRANCH  68  69
ATOM     69  S   UNL A   1      53.608  25.127  25.070  1.00  0.00     0.124 S 
ATOM     70  O   UNL A   1      54.491  25.938  25.905  1.00  0.00    -0.237 OA
ATOM     71  O   UNL A   1      53.593  23.699  25.375  1.00  0.00    -0.237 OA
ATOM     72  O   UNL A   1      53.619  25.459  23.647  1.00  0.00    -0.744 OA
ENDBRANCH  68  69
ENDBRANCH  49  63
BRANCH  50  73
ATOM     73  C   UNL A   1      40.674  29.694  30.113  1.00  0.00    -0.014 A 
ATOM     74  C   UNL A   1      40.350  29.573  31.476  1.00  0.00     0.010 A 
ATOM     75  C   UNL A   1      39.757  30.314  29.243  1.00  0.00     0.010 A 
ATOM     76  C   UNL A   1      39.135  30.063  31.962  1.00  0.00     0.020 A 
ATOM     77  C   UNL A   1      38.553  30.830  29.731  1.00  0.00     0.020 A 
ATOM     78  C   UNL A   1      38.249  30.699  31.087  1.00  0.00     0.054 A 
BRANCH  78  79
ATOM     79  S   UNL A   1      36.718  31.403  31.761  1.00  0.00     0.124 S 
ATOM     80  O   UNL A   1      36.180  30.284  32.527  1.00  0.00    -0.237 OA
ATOM     81  O   UNL A   1      37.213  32.530  32.547  1.00  0.00    -0.237 OA
ATOM     82  O   UNL A   1      35.958  31.771  30.568  1.00  0.00    -0.744 OA
ENDBRANCH  78  79
ENDBRANCH  50  73
BRANCH  62  83
ATOM     83  C   UNL A   1      47.006  32.603  29.694  1.00  0.00    -0.014 A 
ATOM     84  C   UNL A   1      47.616  32.800  30.945  1.00  0.00     0.010 A 
ATOM     85  C   UNL A   1      46.952  33.675  28.783  1.00  0.00     0.010 A 
ATOM     86  C   UNL A   1      48.142  34.048  31.286  1.00  0.00     0.020 A 
ATOM     87  C   UNL A   1      47.504  34.916  29.108  1.00  0.00     0.020 A 
ATOM     88  C   UNL A   1      48.087  35.097  30.364  1.00  0.00     0.054 A 
BRANCH  88  89
ATOM     89  S   UNL A   1      48.833  36.690  30.809  1.00  0.00     0.124 S 
ATOM     90  O   UNL A   1      50.142  36.283  31.312  1.00  0.00    -0.237 OA
ATOM     91  O   UNL A   1      48.843  37.405  29.535  1.00  0.00    -0.237 OA
ATOM     92  O   UNL A   1      47.920  37.232  31.814  1.00  0.00    -0.744 OA
ENDBRANCH  88  89
ENDBRANCH  62  83
ENDBRANCH  36  37
ENDBRANCH  28  31
ENDBRANCH  26  27
ENDBRANCH  25  26
ENDBRANCH   1  25
TORSDOF 18
ENDMDL
MODEL 2
REMARK VINA RESULT:     -10.5      1.649      3.234
REMARK SMILES O=Cc1ccc2c(c1)C=C(C(=O)NCCCCCCNC(=O)c1ccc(-c3c4nc(c(-c5ccc(S(=O)(=O)[O-])cc5)c5ccc([nH]5)c(-c5ccc(S(=O)(=O)[O-])cc5)c5nc(c(-c6ccc(S(=O)(=O)[O-])cc6)c6ccc3[nH]6)C=C5)C=C4)cc1)[C@H](C(F)(F)F)O2
REMARK SMILES IDX 17 1 16 2 15 3 14 4 13 5 11 6 12 7 10 9 3 10 4 11 8 12 5 13
REMARK SMILES IDX 7 14 6 15 9 16 88 17 83 18 2 19 1 20 84 21 85 22 86 23 87 24
REMARK SMILES IDX 18 25 19 26 20 27 21 28 22 30 23 31 24 32 82 33 25 34 81 35
REMARK SMILES IDX 26 36 27 37 28 38 75 39 29 40 80 41 74 42 76 43 30 44 79 45
REMARK SMILES IDX 73 46 72 47 31 49 61 50 42 51 60 52 43 53 46 54 59 55 77 56
REMARK SMILES IDX 44 57 45 58 58 60 78 61 47 62 32 63 33 64 41 65 34 66 40 67
REMARK SMILES IDX 35 68 36 69 37 70 38 71 39 72 62 73 63 74 71 75 64 76 70 77
REMARK SMILES IDX 65 78 66 79 67 80 68 81 69 82 48 83 49 84 57 85 50 86 56 87
REMARK SMILES IDX 51 88 52 89 53 90 54 91 55 92
REMARK H PARENT 13 8 20 29 76 48 46 59
REMARK Flexibility Score: inf
ROOT
ATOM      1  C   UNL A   1      37.302  20.423  24.827  1.00  0.00     0.002 C 
ENDROOT
BRANCH   1   2
ATOM      2  C   UNL A   1      37.755  21.887  24.753  1.00  0.00     0.002 C 
BRANCH   2   3
ATOM      3  C   UNL A   1      36.606  22.905  24.706  1.00  0.00     0.021 C 
BRANCH   3   4
ATOM      4  C   UNL A   1      36.207  23.414  26.097  1.00  0.00     0.116 C 
BRANCH   4   5
ATOM      5  N   UNL A   1      35.386  22.411  26.756  1.00  0.00    -0.352 N 
ATOM      6  C   UNL A   1      34.047  22.295  26.956  1.00  0.00     0.251 C 
ATOM      7  O   UNL A   1      33.662  21.456  27.767  1.00  0.00    -0.270 OA
ATOM      8  H   UNL A   1      35.905  21.667  27.136  1.00  0.00     0.163 HD
BRANCH   6   9
ATOM      9  C   UNL A   1      33.040  23.064  26.176  1.00  0.00     0.067 C 
ATOM     10  C   UNL A   1      31.036  27.144  24.556  1.00  0.00     0.015 A 
ATOM     11  C   UNL A   1      30.320  26.423  23.598  1.00  0.00     0.015 A 
ATOM     12  C   UNL A   1      31.855  26.481  25.473  1.00  0.00     0.023 A 
ATOM     13  C   UNL A   1      30.449  25.036  23.538  1.00  0.00     0.048 A 
ATOM     14  C   UNL A   1      31.963  25.085  25.424  1.00  0.00     0.018 A 
ATOM     15  C   UNL A   1      31.275  24.371  24.445  1.00  0.00     0.128 A 
ATOM     16  C   UNL A   1      32.866  24.386  26.321  1.00  0.00     0.025 C 
ATOM     17  O   UNL A   1      31.414  23.028  24.266  1.00  0.00    -0.475 OA
ATOM     18  C   UNL A   1      32.092  22.250  25.295  1.00  0.00     0.314 C 
BRANCH  10  19
ATOM     19  C   UNL A   1      30.957  28.618  24.586  1.00  0.00     0.260 C 
ATOM     20  O   UNL A   1      30.970  29.283  23.557  1.00  0.00    -0.298 OA
ENDBRANCH  10  19
BRANCH  18  21
ATOM     21  C   UNL A   1      32.663  20.989  24.606  1.00  0.00     0.429 C 
ATOM     22  F   UNL A   1      33.991  21.074  24.367  1.00  0.00    -0.167 F 
ATOM     23  F   UNL A   1      32.519  19.895  25.405  1.00  0.00    -0.167 F 
ATOM     24  F   UNL A   1      32.038  20.703  23.442  1.00  0.00    -0.167 F 
ENDBRANCH  18  21
ENDBRANCH   6   9
ENDBRANCH   4   5
ENDBRANCH   3   4
ENDBRANCH   2   3
ENDBRANCH   1   2
BRANCH   1  25
ATOM     25  C   UNL A   1      38.407  19.433  25.198  1.00  0.00     0.021 C 
BRANCH  25  26
ATOM     26  C   UNL A   1      39.455  20.002  26.148  1.00  0.00     0.116 C 
BRANCH  26  27
ATOM     27  N   UNL A   1      40.670  19.200  26.139  1.00  0.00    -0.352 N 
ATOM     28  C   UNL A   1      41.980  19.616  26.116  1.00  0.00     0.251 C 
ATOM     29  H   UNL A   1      40.535  18.225  26.150  1.00  0.00     0.163 HD
ATOM     30  O   UNL A   1      42.874  18.825  25.846  1.00  0.00    -0.269 OA
BRANCH  28  31
ATOM     31  C   UNL A   1      42.292  21.030  26.411  1.00  0.00     0.039 A 
ATOM     32  C   UNL A   1      42.578  21.408  27.724  1.00  0.00     0.014 A 
ATOM     33  C   UNL A   1      42.316  21.974  25.380  1.00  0.00     0.014 A 
ATOM     34  C   UNL A   1      42.956  22.725  27.992  1.00  0.00     0.010 A 
ATOM     35  C   UNL A   1      42.766  23.263  25.637  1.00  0.00     0.010 A 
ATOM     36  C   UNL A   1      43.092  23.652  26.944  1.00  0.00    -0.014 A 
BRANCH  36  37
ATOM     37  C   UNL A   1      43.598  25.025  27.187  1.00  0.00     0.031 A 
ATOM     38  C   UNL A   1      45.044  25.355  26.948  1.00  0.00     0.074 A 
ATOM     39  C   UNL A   1      42.766  25.956  27.696  1.00  0.00     0.049 A 
ATOM     40  N   UNL A   1      45.678  26.481  27.155  1.00  0.00    -0.248 NA
ATOM     41  C   UNL A   1      45.895  24.271  26.435  1.00  0.00     0.031 C 
ATOM     42  C   UNL A   1      41.347  25.751  27.993  1.00  0.00     0.029 A 
ATOM     43  N   UNL A   1      42.994  27.260  28.053  1.00  0.00    -0.354 N 
ATOM     44  C   UNL A   1      47.002  26.239  26.808  1.00  0.00     0.074 A 
ATOM     45  C   UNL A   1      47.089  24.843  26.437  1.00  0.00     0.031 C 
ATOM     46  C   UNL A   1      40.822  26.901  28.446  1.00  0.00     0.029 A 
ATOM     47  C   UNL A   1      41.876  27.908  28.521  1.00  0.00     0.049 A 
ATOM     48  H   UNL A   1      43.877  27.693  27.980  1.00  0.00     0.167 HD
ATOM     49  C   UNL A   1      48.046  27.102  26.782  1.00  0.00     0.031 A 
ATOM     50  C   UNL A   1      41.715  29.169  28.964  1.00  0.00     0.031 A 
ATOM     51  C   UNL A   1      47.954  28.485  27.171  1.00  0.00     0.049 A 
ATOM     52  C   UNL A   1      42.899  30.095  28.987  1.00  0.00     0.074 A 
ATOM     53  C   UNL A   1      48.940  29.455  27.143  1.00  0.00     0.029 A 
ATOM     54  N   UNL A   1      46.812  29.092  27.675  1.00  0.00    -0.354 N 
ATOM     55  N   UNL A   1      44.130  29.866  28.593  1.00  0.00    -0.248 NA
ATOM     56  C   UNL A   1      42.672  31.448  29.510  1.00  0.00     0.031 C 
ATOM     57  C   UNL A   1      48.413  30.629  27.693  1.00  0.00     0.029 A 
ATOM     58  C   UNL A   1      47.079  30.412  27.997  1.00  0.00     0.049 A 
ATOM     59  H   UNL A   1      45.940  28.648  27.787  1.00  0.00     0.167 HD
ATOM     60  C   UNL A   1      44.819  31.057  28.796  1.00  0.00     0.074 A 
ATOM     61  C   UNL A   1      43.864  32.005  29.336  1.00  0.00     0.031 C 
ATOM     62  C   UNL A   1      46.122  31.341  28.549  1.00  0.00     0.031 A 
BRANCH  49  63
ATOM     63  C   UNL A   1      49.382  26.552  26.346  1.00  0.00    -0.014 A 
ATOM     64  C   UNL A   1      50.207  25.845  27.241  1.00  0.00     0.010 A 
ATOM     65  C   UNL A   1      49.826  26.756  25.028  1.00  0.00     0.010 A 
ATOM     66  C   UNL A   1      51.481  25.423  26.849  1.00  0.00     0.020 A 
ATOM     67  C   UNL A   1      51.084  26.303  24.620  1.00  0.00     0.020 A 
ATOM     68  C   UNL A   1      51.916  25.666  25.543  1.00  0.00     0.054 A 
BRANCH  68  69
ATOM     69  S   UNL A   1      53.587  25.142  25.072  1.00  0.00     0.124 S 
ATOM     70  O   UNL A   1      53.508  23.694  25.254  1.00  0.00    -0.237 OA
ATOM     71  O   UNL A   1      53.688  25.597  23.689  1.00  0.00    -0.237 OA
ATOM     72  O   UNL A   1      54.450  25.841  26.021  1.00  0.00    -0.744 OA
ENDBRANCH  68  69
ENDBRANCH  49  63
BRANCH  50  73
ATOM     73  C   UNL A   1      40.366  29.635  29.386  1.00  0.00    -0.014 A 
ATOM     74  C   UNL A   1      40.057  29.754  30.752  1.00  0.00     0.010 A 
ATOM     75  C   UNL A   1      39.403  30.012  28.430  1.00  0.00     0.010 A 
ATOM     76  C   UNL A   1      38.811  30.240  31.157  1.00  0.00     0.020 A 
ATOM     77  C   UNL A   1      38.166  30.525  28.832  1.00  0.00     0.020 A 
ATOM     78  C   UNL A   1      37.877  30.633  30.194  1.00  0.00     0.054 A 
BRANCH  78  79
ATOM     79  S   UNL A   1      36.302  31.342  30.748  1.00  0.00     0.124 S 
ATOM     80  O   UNL A   1      35.902  30.411  31.798  1.00  0.00    -0.237 OA
ATOM     81  O   UNL A   1      36.700  32.673  31.198  1.00  0.00    -0.237 OA
ATOM     82  O   UNL A   1      35.476  31.321  29.543  1.00  0.00    -0.744 OA
ENDBRANCH  78  79
ENDBRANCH  50  73
BRANCH  62  83
ATOM     83  C   UNL A   1      46.594  32.741  28.842  1.00  0.00    -0.014 A 
ATOM     84  C   UNL A   1      47.174  33.074  30.079  1.00  0.00     0.010 A 
ATOM     85  C   UNL A   1      46.513  33.725  27.838  1.00  0.00     0.010 A 
ATOM     86  C   UNL A   1      47.644  34.368  30.315  1.00  0.00     0.020 A 
ATOM     87  C   UNL A   1      47.010  35.012  28.058  1.00  0.00     0.020 A 
ATOM     88  C   UNL A   1      47.563  35.328  29.301  1.00  0.00     0.054 A 
BRANCH  88  89
ATOM     89  S   UNL A   1      48.237  36.983  29.613  1.00  0.00     0.124 S 
ATOM     90  O   UNL A   1      47.024  37.778  29.786  1.00  0.00    -0.237 OA
ATOM     91  O   UNL A   1      49.034  36.781  30.820  1.00  0.00    -0.237 OA
ATOM     92  O   UNL A   1      49.007  37.278  28.406  1.00  0.00    -0.744 OA
ENDBRANCH  88  89
ENDBRANCH  62  83
ENDBRANCH  36  37
ENDBRANCH  28  31
ENDBRANCH  26  27
ENDBRANCH  25  26
ENDBRANCH   1  25
TORSDOF 18
ENDMDL
MODEL 3
REMARK VINA RESULT:     -10.4      3.906      9.158
REMARK SMILES O=Cc1ccc2c(c1)C=C(C(=O)NCCCCCCNC(=O)c1ccc(-c3c4nc(c(-c5ccc(S(=O)(=O)[O-])cc5)c5ccc([nH]5)c(-c5ccc(S(=O)(=O)[O-])cc5)c5nc(c(-c6ccc(S(=O)(=O)[O-])cc6)c6ccc3[nH]6)C=C5)C=C4)cc1)[C@H](C(F)(F)F)O2
REMARK SMILES IDX 17 1 16 2 15 3 14 4 13 5 11 6 12 7 10 9 3 10 4 11 8 12 5 13
REMARK SMILES IDX 7 14 6 15 9 16 88 17 83 18 2 19 1 20 84 21 85 22 86 23 87 24
REMARK SMILES IDX 18 25 19 26 20 27 21 28 22 30 23 31 24 32 82 33 25 34 81 35
REMARK SMILES IDX 26 36 27 37 28 38 75 39 29 40 80 41 74 42 76 43 30 44 79 45
REMARK SMILES IDX 73 46 72 47 31 49 61 50 42 51 60 52 43 53 46 54 59 55 77 56
REMARK SMILES IDX 44 57 45 58 58 60 78 61 47 62 32 63 33 64 41 65 34 66 40 67
REMARK SMILES IDX 35 68 36 69 37 70 38 71 39 72 62 73 63 74 71 75 64 76 70 77
REMARK SMILES IDX 65 78 66 79 67 80 68 81 69 82 48 83 49 84 57 85 50 86 56 87
REMARK SMILES IDX 51 88 52 89 53 90 54 91 55 92
REMARK H PARENT 13 8 20 29 76 48 46 59
REMARK Flexibility Score: inf
ROOT
ATOM      1  C   UNL A   1      31.436  27.486  26.979  1.00  0.00     0.002 C 
ENDROOT
BRANCH   1   2
ATOM      2  C   UNL A   1      30.662  26.370  26.266  1.00  0.00     0.002 C 
BRANCH   2   3
ATOM      3  C   UNL A   1      31.365  25.005  26.274  1.00  0.00     0.021 C 
BRANCH   3   4
ATOM      4  C   UNL A   1      32.875  25.117  26.520  1.00  0.00     0.116 C 
BRANCH   4   5
ATOM      5  N   UNL A   1      33.553  25.320  25.250  1.00  0.00    -0.352 N 
ATOM      6  C   UNL A   1      34.366  24.534  24.497  1.00  0.00     0.251 C 
ATOM      7  O   UNL A   1      34.991  25.069  23.584  1.00  0.00    -0.270 OA
ATOM      8  H   UNL A   1      33.391  26.207  24.857  1.00  0.00     0.163 HD
BRANCH   6   9
ATOM      9  C   UNL A   1      34.458  23.059  24.671  1.00  0.00     0.067 C 
ATOM     10  C   UNL A   1      33.127  18.514  23.746  1.00  0.00     0.015 A 
ATOM     11  C   UNL A   1      34.290  18.039  24.356  1.00  0.00     0.015 A 
ATOM     12  C   UNL A   1      32.852  19.883  23.718  1.00  0.00     0.023 A 
ATOM     13  C   UNL A   1      35.196  18.942  24.912  1.00  0.00     0.048 A 
ATOM     14  C   UNL A   1      33.754  20.784  24.297  1.00  0.00     0.018 A 
ATOM     15  C   UNL A   1      34.932  20.311  24.875  1.00  0.00     0.128 A 
ATOM     16  C   UNL A   1      33.523  22.215  24.212  1.00  0.00     0.025 C 
ATOM     17  O   UNL A   1      35.905  21.129  25.361  1.00  0.00    -0.475 OA
ATOM     18  C   UNL A   1      35.606  22.545  25.540  1.00  0.00     0.314 C 
BRANCH  10  19
ATOM     19  C   UNL A   1      32.193  17.573  23.098  1.00  0.00     0.260 C 
ATOM     20  O   UNL A   1      32.077  17.520  21.879  1.00  0.00    -0.298 OA
ENDBRANCH  10  19
BRANCH  18  21
ATOM     21  C   UNL A   1      36.952  23.304  25.467  1.00  0.00     0.429 C 
ATOM     22  F   UNL A   1      36.924  24.491  26.114  1.00  0.00    -0.167 F 
ATOM     23  F   UNL A   1      37.940  22.593  26.078  1.00  0.00    -0.167 F 
ATOM     24  F   UNL A   1      37.359  23.521  24.197  1.00  0.00    -0.167 F 
ENDBRANCH  18  21
ENDBRANCH   6   9
ENDBRANCH   4   5
ENDBRANCH   3   4
ENDBRANCH   2   3
ENDBRANCH   1   2
BRANCH   1  25
ATOM     25  C   UNL A   1      32.223  28.411  26.048  1.00  0.00     0.021 C 
BRANCH  25  26
ATOM     26  C   UNL A   1      33.572  28.849  26.608  1.00  0.00     0.116 C 
BRANCH  26  27
ATOM     27  N   UNL A   1      33.571  30.265  26.946  1.00  0.00    -0.352 N 
ATOM     28  C   UNL A   1      34.448  30.966  27.738  1.00  0.00     0.251 C 
ATOM     29  H   UNL A   1      32.840  30.795  26.553  1.00  0.00     0.163 HD
ATOM     30  O   UNL A   1      34.162  32.088  28.135  1.00  0.00    -0.269 OA
BRANCH  28  31
ATOM     31  C   UNL A   1      35.735  30.343  28.113  1.00  0.00     0.039 A 
ATOM     32  C   UNL A   1      36.792  30.354  27.201  1.00  0.00     0.014 A 
ATOM     33  C   UNL A   1      35.894  29.763  29.375  1.00  0.00     0.014 A 
ATOM     34  C   UNL A   1      38.033  29.842  27.583  1.00  0.00     0.010 A 
ATOM     35  C   UNL A   1      37.149  29.325  29.779  1.00  0.00     0.010 A 
ATOM     36  C   UNL A   1      38.232  29.362  28.889  1.00  0.00    -0.014 A 
BRANCH  36  37
ATOM     37  C   UNL A   1      39.568  28.915  29.354  1.00  0.00     0.031 A 
ATOM     38  C   UNL A   1      40.427  29.826  30.185  1.00  0.00     0.074 A 
ATOM     39  C   UNL A   1      40.037  27.713  28.962  1.00  0.00     0.049 A 
ATOM     40  N   UNL A   1      41.639  29.632  30.636  1.00  0.00    -0.248 NA
ATOM     41  C   UNL A   1      39.858  31.137  30.532  1.00  0.00     0.031 C 
ATOM     42  C   UNL A   1      39.309  26.749  28.135  1.00  0.00     0.029 A 
ATOM     43  N   UNL A   1      41.239  27.099  29.207  1.00  0.00    -0.354 N 
ATOM     44  C   UNL A   1      41.983  30.797  31.310  1.00  0.00     0.074 A 
ATOM     45  C   UNL A   1      40.874  31.714  31.154  1.00  0.00     0.031 C 
ATOM     46  C   UNL A   1      40.061  25.648  27.978  1.00  0.00     0.029 A 
ATOM     47  C   UNL A   1      41.343  25.848  28.646  1.00  0.00     0.049 A 
ATOM     48  H   UNL A   1      41.959  27.515  29.735  1.00  0.00     0.167 HD
ATOM     49  C   UNL A   1      43.110  31.075  32.010  1.00  0.00     0.031 A 
ATOM     50  C   UNL A   1      42.357  24.962  28.665  1.00  0.00     0.031 A 
ATOM     51  C   UNL A   1      44.216  30.163  32.144  1.00  0.00     0.049 A 
ATOM     52  C   UNL A   1      43.623  25.312  29.395  1.00  0.00     0.074 A 
ATOM     53  C   UNL A   1      45.385  30.328  32.865  1.00  0.00     0.029 A 
ATOM     54  N   UNL A   1      44.298  28.921  31.530  1.00  0.00    -0.354 N 
ATOM     55  N   UNL A   1      43.905  26.395  30.082  1.00  0.00    -0.248 NA
ATOM     56  C   UNL A   1      44.706  24.321  29.355  1.00  0.00     0.031 C 
ATOM     57  C   UNL A   1      46.202  29.216  32.632  1.00  0.00     0.029 A 
ATOM     58  C   UNL A   1      45.513  28.325  31.824  1.00  0.00     0.049 A 
ATOM     59  H   UNL A   1      43.594  28.522  30.968  1.00  0.00     0.167 HD
ATOM     60  C   UNL A   1      45.189  26.202  30.580  1.00  0.00     0.074 A 
ATOM     61  C   UNL A   1      45.622  24.896  30.124  1.00  0.00     0.031 C 
ATOM     62  C   UNL A   1      45.938  27.029  31.350  1.00  0.00     0.031 A 
BRANCH  49  63
ATOM     63  C   UNL A   1      43.202  32.436  32.653  1.00  0.00    -0.014 A 
ATOM     64  C   UNL A   1      42.773  32.650  33.976  1.00  0.00     0.010 A 
ATOM     65  C   UNL A   1      43.713  33.522  31.920  1.00  0.00     0.010 A 
ATOM     66  C   UNL A   1      42.778  33.935  34.526  1.00  0.00     0.020 A 
ATOM     67  C   UNL A   1      43.756  34.803  32.479  1.00  0.00     0.020 A 
ATOM     68  C   UNL A   1      43.259  35.007  33.768  1.00  0.00     0.054 A 
BRANCH  68  69
ATOM     69  S   UNL A   1      43.220  36.669  34.492  1.00  0.00     0.124 S 
ATOM     70  O   UNL A   1      44.388  36.640  35.370  1.00  0.00    -0.237 OA
ATOM     71  O   UNL A   1      43.336  37.532  33.320  1.00  0.00    -0.237 OA
ATOM     72  O   UNL A   1      41.930  36.719  35.175  1.00  0.00    -0.744 OA
ENDBRANCH  68  69
ENDBRANCH  49  63
BRANCH  50  73
ATOM     73  C   UNL A   1      42.192  23.641  28.000  1.00  0.00    -0.014 A 
ATOM     74  C   UNL A   1      42.778  23.408  26.743  1.00  0.00     0.010 A 
ATOM     75  C   UNL A   1      41.497  22.595  28.636  1.00  0.00     0.010 A 
ATOM     76  C   UNL A   1      42.673  22.155  26.134  1.00  0.00     0.020 A 
ATOM     77  C   UNL A   1      41.414  21.333  28.042  1.00  0.00     0.020 A 
ATOM     78  C   UNL A   1      42.001  21.121  26.793  1.00  0.00     0.054 A 
BRANCH  78  79
ATOM     79  S   UNL A   1      41.955  19.481  26.019  1.00  0.00     0.124 S 
ATOM     80  O   UNL A   1      40.534  19.319  25.733  1.00  0.00    -0.237 OA
ATOM     81  O   UNL A   1      42.819  19.662  24.855  1.00  0.00    -0.237 OA
ATOM     82  O   UNL A   1      42.492  18.601  27.054  1.00  0.00    -0.744 OA
ENDBRANCH  78  79
ENDBRANCH  50  73
BRANCH  62  83
ATOM     83  C   UNL A   1      47.300  26.543  31.771  1.00  0.00    -0.014 A 
ATOM     84  C   UNL A   1      47.480  25.802  32.952  1.00  0.00     0.010 A 
ATOM     85  C   UNL A   1      48.409  26.779  30.936  1.00  0.00     0.010 A 
ATOM     86  C   UNL A   1      48.746  25.325  33.301  1.00  0.00     0.020 A 
ATOM     87  C   UNL A   1      49.670  26.277  31.265  1.00  0.00     0.020 A 
ATOM     88  C   UNL A   1      49.832  25.561  32.453  1.00  0.00     0.054 A 
BRANCH  88  89
ATOM     89  S   UNL A   1      51.452  24.877  32.900  1.00  0.00     0.124 S 
ATOM     90  O   UNL A   1      51.970  25.893  33.814  1.00  0.00    -0.237 OA
ATOM     91  O   UNL A   1      51.099  23.600  33.514  1.00  0.00    -0.237 OA
ATOM     92  O   UNL A   1      52.151  24.776  31.621  1.00  0.00    -0.744 OA
ENDBRANCH  88  89
ENDBRANCH  62  83
ENDBRANCH  36  37
ENDBRANCH  28  31
ENDBRANCH  26  27
ENDBRANCH  25  26
ENDBRANCH   1  25
TORSDOF 18
ENDMDL
