MODEL 1
REMARK VINA RESULT:     -10.1      0.000      0.000
REMARK SMILES O=C(CCCN1C(=O)/C(=C\c2ccc(O)c(O)c2)SC1=S)NCCCCCCNC(=O)c1ccc(-c2c3nc(c(-c4ccc(S(=O)(=O)[O-])cc4)c4ccc([nH]4)c(-c4ccc(S(=O)(=O)[O-])cc4)c4nc(c(-c5ccc(S(=O)(=O)[O-])cc5)c5ccc2[nH]5)C=C4)C=C3)cc1
REMARK SMILES IDX 24 1 23 2 22 3 1 4 2 5 3 7 4 8 5 9 6 10 7 11 20 12 8 13 9 14
REMARK SMILES IDX 19 15 21 16 10 17 11 18 12 19 18 20 13 21 16 22 14 23 17 24
REMARK SMILES IDX 15 26 25 28 26 29 27 30 28 31 29 32 30 33 31 35 32 36 33 37
REMARK SMILES IDX 91 38 34 39 90 40 35 41 36 42 37 43 84 44 38 45 89 46 83 47
REMARK SMILES IDX 85 48 39 49 88 50 82 51 81 52 40 54 70 55 51 56 69 57 52 58
REMARK SMILES IDX 55 59 68 60 86 61 53 62 54 63 67 65 87 66 56 67 41 68 42 69
REMARK SMILES IDX 50 70 43 71 49 72 44 73 45 74 46 75 47 76 48 77 71 78 72 79
REMARK SMILES IDX 80 80 73 81 79 82 74 83 75 84 76 85 77 86 78 87 57 88 58 89
REMARK SMILES IDX 66 90 59 91 65 92 60 93 61 94 62 95 63 96 64 97
REMARK H PARENT 22 6 17 25 15 27 29 34 85 53 55 64
REMARK Flexibility Score: inf
ROOT
ATOM      1  C   UNL A   1      37.385  23.132  24.806  1.00  0.00     0.021 C 
ENDROOT
BRANCH   1   2
ATOM      2  C   UNL A   1      35.906  22.738  24.861  1.00  0.00     0.116 C 
BRANCH   2   3
ATOM      3  N   UNL A   1      35.088  23.692  24.143  1.00  0.00    -0.356 N 
ATOM      4  O   UNL A   1      34.439  24.978  25.925  1.00  0.00    -0.275 OA
ATOM      5  C   UNL A   1      34.457  24.763  24.719  1.00  0.00     0.220 C 
ATOM      6  H   UNL A   1      34.978  23.563  23.173  1.00  0.00     0.163 HD
BRANCH   5   7
ATOM      7  C   UNL A   1      33.796  25.697  23.714  1.00  0.00     0.102 C 
BRANCH   7   8
ATOM      8  C   UNL A   1      33.729  27.146  24.206  1.00  0.00     0.032 C 
BRANCH   8   9
ATOM      9  C   UNL A   1      32.640  27.492  25.234  1.00  0.00     0.128 C 
BRANCH   9  10
ATOM     10  N   UNL A   1      31.251  27.194  24.847  1.00  0.00    -0.293 N 
ATOM     11  C   UNL A   1      30.577  28.156  24.097  1.00  0.00     0.266 C 
ATOM     12  C   UNL A   1      30.571  26.010  25.037  1.00  0.00     0.148 C 
ATOM     13  O   UNL A   1      30.986  29.279  23.876  1.00  0.00    -0.268 OA
ATOM     14  C   UNL A   1      29.288  27.599  23.580  1.00  0.00     0.081 C 
ATOM     15  S   UNL A   1      29.165  25.937  23.992  1.00  0.00    -0.054 SA
ATOM     16  S   UNL A   1      30.874  24.750  26.078  1.00  0.00    -0.052 S 
ATOM     17  C   UNL A   1      28.294  28.222  22.939  1.00  0.00     0.029 C 
BRANCH  17  18
ATOM     18  C   UNL A   1      28.226  29.656  22.690  1.00  0.00    -0.020 A 
ATOM     19  C   UNL A   1      27.828  30.559  23.684  1.00  0.00     0.012 A 
ATOM     20  C   UNL A   1      28.557  30.119  21.412  1.00  0.00     0.058 A 
ATOM     21  C   UNL A   1      27.722  31.921  23.396  1.00  0.00     0.051 A 
ATOM     22  C   UNL A   1      28.455  31.472  21.137  1.00  0.00     0.157 A 
ATOM     23  C   UNL A   1      28.033  32.368  22.117  1.00  0.00     0.157 A 
BRANCH  22  24
ATOM     24  O   UNL A   1      28.761  31.920  19.885  1.00  0.00    -0.504 OA
ATOM     25  H   UNL A   1      29.193  32.744  19.774  1.00  0.00     0.293 HD
ENDBRANCH  22  24
BRANCH  23  26
ATOM     26  O   UNL A   1      27.931  33.686  21.770  1.00  0.00    -0.504 OA
ATOM     27  H   UNL A   1      28.001  33.941  20.871  1.00  0.00     0.293 HD
ENDBRANCH  23  26
ENDBRANCH  17  18
ENDBRANCH   9  10
ENDBRANCH   8   9
ENDBRANCH   7   8
ENDBRANCH   5   7
ENDBRANCH   2   3
ENDBRANCH   1   2
BRANCH   1  28
ATOM     28  C   UNL A   1      38.042  23.391  26.172  1.00  0.00     0.002 C 
BRANCH  28  29
ATOM     29  C   UNL A   1      39.314  22.598  26.465  1.00  0.00     0.002 C 
BRANCH  29  30
ATOM     30  C   UNL A   1      39.336  21.185  25.893  1.00  0.00     0.021 C 
BRANCH  30  31
ATOM     31  C   UNL A   1      39.954  20.133  26.807  1.00  0.00     0.116 C 
BRANCH  31  32
ATOM     32  N   UNL A   1      41.017  19.379  26.162  1.00  0.00    -0.352 N 
ATOM     33  C   UNL A   1      42.245  19.823  25.730  1.00  0.00     0.251 C 
ATOM     34  H   UNL A   1      40.835  18.422  26.015  1.00  0.00     0.163 HD
ATOM     35  O   UNL A   1      42.969  19.092  25.062  1.00  0.00    -0.269 OA
BRANCH  33  36
ATOM     36  C   UNL A   1      42.672  21.202  26.055  1.00  0.00     0.039 A 
ATOM     37  C   UNL A   1      43.049  21.507  27.365  1.00  0.00     0.014 A 
ATOM     38  C   UNL A   1      42.724  22.184  25.061  1.00  0.00     0.014 A 
ATOM     39  C   UNL A   1      43.534  22.783  27.664  1.00  0.00     0.010 A 
ATOM     40  C   UNL A   1      43.284  23.427  25.344  1.00  0.00     0.010 A 
ATOM     41  C   UNL A   1      43.685  23.744  26.650  1.00  0.00    -0.014 A 
BRANCH  41  42
ATOM     42  C   UNL A   1      44.230  25.095  26.944  1.00  0.00     0.031 A 
ATOM     43  C   UNL A   1      43.321  26.168  27.486  1.00  0.00     0.074 A 
ATOM     44  C   UNL A   1      45.523  25.372  26.684  1.00  0.00     0.049 A 
ATOM     45  N   UNL A   1      43.592  27.419  27.757  1.00  0.00    -0.248 NA
ATOM     46  C   UNL A   1      41.919  25.792  27.734  1.00  0.00     0.031 C 
ATOM     47  C   UNL A   1      46.496  24.435  26.117  1.00  0.00     0.029 A 
ATOM     48  N   UNL A   1      46.243  26.527  26.860  1.00  0.00    -0.354 N 
ATOM     49  C   UNL A   1      42.399  27.977  28.202  1.00  0.00     0.074 A 
ATOM     50  C   UNL A   1      41.387  26.949  28.100  1.00  0.00     0.031 C 
ATOM     51  C   UNL A   1      47.688  25.046  26.014  1.00  0.00     0.029 A 
ATOM     52  C   UNL A   1      47.559  26.425  26.473  1.00  0.00     0.049 A 
ATOM     53  H   UNL A   1      45.854  27.353  27.230  1.00  0.00     0.167 HD
ATOM     54  C   UNL A   1      42.169  29.222  28.684  1.00  0.00     0.031 A 
ATOM     55  C   UNL A   1      48.549  27.340  26.482  1.00  0.00     0.031 A 
ATOM     56  C   UNL A   1      43.176  30.242  28.792  1.00  0.00     0.049 A 
ATOM     57  C   UNL A   1      48.265  28.720  27.014  1.00  0.00     0.074 A 
ATOM     58  C   UNL A   1      43.048  31.530  29.284  1.00  0.00     0.029 A 
ATOM     59  N   UNL A   1      44.501  30.089  28.414  1.00  0.00    -0.354 N 
ATOM     60  N   UNL A   1      47.138  29.213  27.470  1.00  0.00    -0.248 NA
ATOM     61  C   UNL A   1      49.393  29.661  27.052  1.00  0.00     0.031 C 
ATOM     62  C   UNL A   1      44.288  32.167  29.168  1.00  0.00     0.029 A 
ATOM     63  C   UNL A   1      45.200  31.257  28.659  1.00  0.00     0.049 A 
ATOM     64  H   UNL A   1      44.887  29.269  28.028  1.00  0.00     0.167 HD
ATOM     65  C   UNL A   1      47.433  30.508  27.884  1.00  0.00     0.074 A 
ATOM     66  C   UNL A   1      48.845  30.714  27.638  1.00  0.00     0.031 C 
ATOM     67  C   UNL A   1      46.610  31.442  28.422  1.00  0.00     0.031 A 
BRANCH  54  68
ATOM     68  C   UNL A   1      40.771  29.537  29.149  1.00  0.00    -0.014 A 
ATOM     69  C   UNL A   1      39.733  29.736  28.220  1.00  0.00     0.010 A 
ATOM     70  C   UNL A   1      40.478  29.593  30.523  1.00  0.00     0.010 A 
ATOM     71  C   UNL A   1      38.436  30.020  28.655  1.00  0.00     0.020 A 
ATOM     72  C   UNL A   1      39.175  29.846  30.964  1.00  0.00     0.020 A 
ATOM     73  C   UNL A   1      38.166  30.074  30.025  1.00  0.00     0.054 A 
BRANCH  73  74
ATOM     74  S   UNL A   1      36.465  30.410  30.559  1.00  0.00     0.124 S 
ATOM     75  O   UNL A   1      36.439  31.870  30.582  1.00  0.00    -0.237 OA
ATOM     76  O   UNL A   1      35.670  29.784  29.506  1.00  0.00    -0.237 OA
ATOM     77  O   UNL A   1      36.378  29.766  31.868  1.00  0.00    -0.744 OA
ENDBRANCH  73  74
ENDBRANCH  54  68
BRANCH  55  78
ATOM     78  C   UNL A   1      49.906  26.983  25.981  1.00  0.00    -0.014 A 
ATOM     79  C   UNL A   1      50.847  26.366  26.825  1.00  0.00     0.010 A 
ATOM     80  C   UNL A   1      50.276  27.286  24.657  1.00  0.00     0.010 A 
ATOM     81  C   UNL A   1      52.141  26.097  26.369  1.00  0.00     0.020 A 
ATOM     82  C   UNL A   1      51.558  26.989  24.188  1.00  0.00     0.020 A 
ATOM     83  C   UNL A   1      52.489  26.415  25.054  1.00  0.00     0.054 A 
BRANCH  83  84
ATOM     84  S   UNL A   1      54.170  26.046  24.478  1.00  0.00     0.124 S 
ATOM     85  O   UNL A   1      54.340  24.662  24.908  1.00  0.00    -0.237 OA
ATOM     86  O   UNL A   1      54.063  26.254  23.036  1.00  0.00    -0.237 OA
ATOM     87  O   UNL A   1      54.994  27.027  25.182  1.00  0.00    -0.744 OA
ENDBRANCH  83  84
ENDBRANCH  55  78
BRANCH  67  88
ATOM     88  C   UNL A   1      47.226  32.750  28.841  1.00  0.00    -0.014 A 
ATOM     89  C   UNL A   1      47.765  32.933  30.127  1.00  0.00     0.010 A 
ATOM     90  C   UNL A   1      47.299  33.805  27.911  1.00  0.00     0.010 A 
ATOM     91  C   UNL A   1      48.320  34.163  30.490  1.00  0.00     0.020 A 
ATOM     92  C   UNL A   1      47.882  35.024  28.261  1.00  0.00     0.020 A 
ATOM     93  C   UNL A   1      48.372  35.202  29.556  1.00  0.00     0.054 A 
BRANCH  93  94
ATOM     94  S   UNL A   1      49.118  36.781  30.044  1.00  0.00     0.124 S 
ATOM     95  O   UNL A   1      49.480  36.529  31.436  1.00  0.00    -0.237 OA
ATOM     96  O   UNL A   1      50.241  36.906  29.116  1.00  0.00    -0.237 OA
ATOM     97  O   UNL A   1      48.043  37.749  29.845  1.00  0.00    -0.744 OA
ENDBRANCH  93  94
ENDBRANCH  67  88
ENDBRANCH  41  42
ENDBRANCH  33  36
ENDBRANCH  31  32
ENDBRANCH  30  31
ENDBRANCH  29  30
ENDBRANCH  28  29
ENDBRANCH   1  28
TORSDOF 22
ENDMDL
MODEL 2
REMARK VINA RESULT:     -10.0      6.662     10.884
REMARK SMILES O=C(CCCN1C(=O)/C(=C\c2ccc(O)c(O)c2)SC1=S)NCCCCCCNC(=O)c1ccc(-c2c3nc(c(-c4ccc(S(=O)(=O)[O-])cc4)c4ccc([nH]4)c(-c4ccc(S(=O)(=O)[O-])cc4)c4nc(c(-c5ccc(S(=O)(=O)[O-])cc5)c5ccc2[nH]5)C=C4)C=C3)cc1
REMARK SMILES IDX 24 1 23 2 22 3 1 4 2 5 3 7 4 8 5 9 6 10 7 11 20 12 8 13 9 14
REMARK SMILES IDX 19 15 21 16 10 17 11 18 12 19 18 20 13 21 16 22 14 23 17 24
REMARK SMILES IDX 15 26 25 28 26 29 27 30 28 31 29 32 30 33 31 35 32 36 33 37
REMARK SMILES IDX 91 38 34 39 90 40 35 41 36 42 37 43 84 44 38 45 89 46 83 47
REMARK SMILES IDX 85 48 39 49 88 50 82 51 81 52 40 54 70 55 51 56 69 57 52 58
REMARK SMILES IDX 55 59 68 60 86 61 53 62 54 63 67 65 87 66 56 67 41 68 42 69
REMARK SMILES IDX 50 70 43 71 49 72 44 73 45 74 46 75 47 76 48 77 71 78 72 79
REMARK SMILES IDX 80 80 73 81 79 82 74 83 75 84 76 85 77 86 78 87 57 88 58 89
REMARK SMILES IDX 66 90 59 91 65 92 60 93 61 94 62 95 63 96 64 97
REMARK H PARENT 22 6 17 25 15 27 29 34 85 53 55 64
REMARK Flexibility Score: inf
ROOT
ATOM      1  C   UNL A   1      35.803  32.678  28.453  1.00  0.00     0.021 C 
ENDROOT
BRANCH   1   2
ATOM      2  C   UNL A   1      34.930  31.684  29.224  1.00  0.00     0.116 C 
BRANCH   2   3
ATOM      3  N   UNL A   1      34.446  30.635  28.352  1.00  0.00    -0.356 N 
ATOM      4  O   UNL A   1      36.417  29.497  28.080  1.00  0.00    -0.275 OA
ATOM      5  C   UNL A   1      35.211  29.598  27.885  1.00  0.00     0.220 C 
ATOM      6  H   UNL A   1      33.501  30.667  28.075  1.00  0.00     0.163 HD
BRANCH   5   7
ATOM      7  C   UNL A   1      34.418  28.548  27.120  1.00  0.00     0.102 C 
BRANCH   7   8
ATOM      8  C   UNL A   1      33.788  29.099  25.837  1.00  0.00     0.032 C 
BRANCH   8   9
ATOM      9  C   UNL A   1      33.550  28.108  24.687  1.00  0.00     0.128 C 
BRANCH   9  10
ATOM     10  N   UNL A   1      32.180  27.589  24.538  1.00  0.00    -0.293 N 
ATOM     11  C   UNL A   1      31.285  28.354  23.794  1.00  0.00     0.266 C 
ATOM     12  C   UNL A   1      31.707  26.361  24.950  1.00  0.00     0.148 C 
ATOM     13  O   UNL A   1      31.497  29.483  23.396  1.00  0.00    -0.268 OA
ATOM     14  C   UNL A   1      30.034  27.576  23.529  1.00  0.00     0.081 C 
ATOM     15  S   UNL A   1      30.205  25.977  24.132  1.00  0.00    -0.054 SA
ATOM     16  S   UNL A   1      32.318  25.291  26.067  1.00  0.00    -0.052 S 
ATOM     17  C   UNL A   1      28.887  27.981  22.975  1.00  0.00     0.029 C 
BRANCH  17  18
ATOM     18  C   UNL A   1      28.583  29.352  22.585  1.00  0.00    -0.020 A 
ATOM     19  C   UNL A   1      29.012  29.884  21.363  1.00  0.00     0.012 A 
ATOM     20  C   UNL A   1      27.853  30.143  23.478  1.00  0.00     0.058 A 
ATOM     21  C   UNL A   1      28.750  31.218  21.045  1.00  0.00     0.051 A 
ATOM     22  C   UNL A   1      27.592  31.463  23.152  1.00  0.00     0.157 A 
ATOM     23  C   UNL A   1      28.042  32.002  21.949  1.00  0.00     0.157 A 
BRANCH  22  24
ATOM     24  O   UNL A   1      26.895  32.239  24.032  1.00  0.00    -0.504 OA
ATOM     25  H   UNL A   1      25.964  32.315  23.955  1.00  0.00     0.293 HD
ENDBRANCH  22  24
BRANCH  23  26
ATOM     26  O   UNL A   1      27.771  33.318  21.702  1.00  0.00    -0.504 OA
ATOM     27  H   UNL A   1      26.913  33.659  21.865  1.00  0.00     0.293 HD
ENDBRANCH  23  26
ENDBRANCH  17  18
ENDBRANCH   9  10
ENDBRANCH   8   9
ENDBRANCH   7   8
ENDBRANCH   5   7
ENDBRANCH   2   3
ENDBRANCH   1   2
BRANCH   1  28
ATOM     28  C   UNL A   1      35.036  33.806  27.743  1.00  0.00     0.002 C 
BRANCH  28  29
ATOM     29  C   UNL A   1      35.103  35.181  28.403  1.00  0.00     0.002 C 
BRANCH  29  30
ATOM     30  C   UNL A   1      33.752  35.786  28.767  1.00  0.00     0.021 C 
BRANCH  30  31
ATOM     31  C   UNL A   1      32.902  34.937  29.706  1.00  0.00     0.116 C 
BRANCH  31  32
ATOM     32  N   UNL A   1      32.461  35.667  30.884  1.00  0.00    -0.352 N 
ATOM     33  C   UNL A   1      32.951  35.602  32.167  1.00  0.00     0.251 C 
ATOM     34  H   UNL A   1      31.712  36.291  30.745  1.00  0.00     0.163 HD
ATOM     35  O   UNL A   1      32.365  36.169  33.083  1.00  0.00    -0.269 OA
BRANCH  33  36
ATOM     36  C   UNL A   1      34.177  34.818  32.436  1.00  0.00     0.039 A 
ATOM     37  C   UNL A   1      35.423  35.399  32.190  1.00  0.00     0.014 A 
ATOM     38  C   UNL A   1      34.094  33.522  32.955  1.00  0.00     0.014 A 
ATOM     39  C   UNL A   1      36.587  34.699  32.520  1.00  0.00     0.010 A 
ATOM     40  C   UNL A   1      35.252  32.863  33.358  1.00  0.00     0.010 A 
ATOM     41  C   UNL A   1      36.511  33.438  33.135  1.00  0.00    -0.014 A 
BRANCH  41  42
ATOM     42  C   UNL A   1      37.738  32.695  33.523  1.00  0.00     0.031 A 
ATOM     43  C   UNL A   1      38.469  33.062  34.788  1.00  0.00     0.074 A 
ATOM     44  C   UNL A   1      38.221  31.725  32.720  1.00  0.00     0.049 A 
ATOM     45  N   UNL A   1      39.582  32.571  35.270  1.00  0.00    -0.248 NA
ATOM     46  C   UNL A   1      37.886  34.139  35.607  1.00  0.00     0.031 C 
ATOM     47  C   UNL A   1      37.632  31.305  31.446  1.00  0.00     0.029 A 
ATOM     48  N   UNL A   1      39.322  30.918  32.856  1.00  0.00    -0.354 N 
ATOM     49  C   UNL A   1      39.831  33.277  36.441  1.00  0.00     0.074 A 
ATOM     50  C   UNL A   1      38.794  34.277  36.561  1.00  0.00     0.031 C 
ATOM     51  C   UNL A   1      38.366  30.304  30.931  1.00  0.00     0.029 A 
ATOM     52  C   UNL A   1      39.493  30.034  31.816  1.00  0.00     0.049 A 
ATOM     53  H   UNL A   1      39.934  30.967  33.627  1.00  0.00     0.167 HD
ATOM     54  C   UNL A   1      40.815  33.093  37.354  1.00  0.00     0.031 A 
ATOM     55  C   UNL A   1      40.453  29.113  31.598  1.00  0.00     0.031 A 
ATOM     56  C   UNL A   1      41.843  32.094  37.239  1.00  0.00     0.049 A 
ATOM     57  C   UNL A   1      41.542  28.934  32.623  1.00  0.00     0.074 A 
ATOM     58  C   UNL A   1      42.874  31.814  38.118  1.00  0.00     0.029 A 
ATOM     59  N   UNL A   1      41.965  31.202  36.184  1.00  0.00    -0.354 N 
ATOM     60  N   UNL A   1      41.735  29.585  33.746  1.00  0.00    -0.248 NA
ATOM     61  C   UNL A   1      42.531  27.878  32.362  1.00  0.00     0.031 C 
ATOM     62  C   UNL A   1      43.641  30.778  37.576  1.00  0.00     0.029 A 
ATOM     63  C   UNL A   1      43.053  30.374  36.389  1.00  0.00     0.049 A 
ATOM     64  H   UNL A   1      41.364  31.165  35.404  1.00  0.00     0.167 HD
ATOM     65  C   UNL A   1      42.843  28.992  34.341  1.00  0.00     0.074 A 
ATOM     66  C   UNL A   1      43.267  27.922  33.462  1.00  0.00     0.031 C 
ATOM     67  C   UNL A   1      43.454  29.303  35.511  1.00  0.00     0.031 A 
BRANCH  54  68
ATOM     68  C   UNL A   1      40.809  33.983  38.569  1.00  0.00    -0.014 A 
ATOM     69  C   UNL A   1      41.440  35.241  38.541  1.00  0.00     0.010 A 
ATOM     70  C   UNL A   1      40.132  33.584  39.735  1.00  0.00     0.010 A 
ATOM     71  C   UNL A   1      41.426  36.067  39.667  1.00  0.00     0.020 A 
ATOM     72  C   UNL A   1      40.088  34.421  40.855  1.00  0.00     0.020 A 
ATOM     73  C   UNL A   1      40.750  35.651  40.818  1.00  0.00     0.054 A 
BRANCH  73  74
ATOM     74  S   UNL A   1      40.719  36.762  42.252  1.00  0.00     0.124 S 
ATOM     75  O   UNL A   1      41.375  37.955  41.723  1.00  0.00    -0.237 OA
ATOM     76  O   UNL A   1      39.290  36.898  42.520  1.00  0.00    -0.237 OA
ATOM     77  O   UNL A   1      41.475  36.036  43.270  1.00  0.00    -0.744 OA
ENDBRANCH  73  74
ENDBRANCH  54  68
BRANCH  55  78
ATOM     78  C   UNL A   1      40.429  28.280  30.363  1.00  0.00    -0.014 A 
ATOM     79  C   UNL A   1      39.562  27.177  30.255  1.00  0.00     0.010 A 
ATOM     80  C   UNL A   1      41.295  28.571  29.293  1.00  0.00     0.010 A 
ATOM     81  C   UNL A   1      39.593  26.358  29.122  1.00  0.00     0.020 A 
ATOM     82  C   UNL A   1      41.305  27.775  28.145  1.00  0.00     0.020 A 
ATOM     83  C   UNL A   1      40.469  26.661  28.076  1.00  0.00     0.054 A 
BRANCH  83  84
ATOM     84  S   UNL A   1      40.483  25.593  26.608  1.00  0.00     0.124 S 
ATOM     85  O   UNL A   1      41.445  24.565  26.992  1.00  0.00    -0.237 OA
ATOM     86  O   UNL A   1      39.091  25.158  26.519  1.00  0.00    -0.237 OA
ATOM     87  O   UNL A   1      40.917  26.490  25.539  1.00  0.00    -0.744 OA
ENDBRANCH  83  84
ENDBRANCH  55  78
BRANCH  67  88
ATOM     88  C   UNL A   1      44.608  28.437  35.942  1.00  0.00    -0.014 A 
ATOM     89  C   UNL A   1      44.407  27.246  36.662  1.00  0.00     0.010 A 
ATOM     90  C   UNL A   1      45.917  28.809  35.585  1.00  0.00     0.010 A 
ATOM     91  C   UNL A   1      45.499  26.469  37.058  1.00  0.00     0.020 A 
ATOM     92  C   UNL A   1      47.008  28.018  35.951  1.00  0.00     0.020 A 
ATOM     93  C   UNL A   1      46.793  26.861  36.703  1.00  0.00     0.054 A 
BRANCH  93  94
ATOM     94  S   UNL A   1      48.192  25.824  37.209  1.00  0.00     0.124 S 
ATOM     95  O   UNL A   1      48.042  24.664  36.335  1.00  0.00    -0.237 OA
ATOM     96  O   UNL A   1      49.343  26.679  36.926  1.00  0.00    -0.237 OA
ATOM     97  O   UNL A   1      47.943  25.574  38.626  1.00  0.00    -0.744 OA
ENDBRANCH  93  94
ENDBRANCH  67  88
ENDBRANCH  41  42
ENDBRANCH  33  36
ENDBRANCH  31  32
ENDBRANCH  30  31
ENDBRANCH  29  30
ENDBRANCH  28  29
ENDBRANCH   1  28
TORSDOF 22
ENDMDL
MODEL 3
REMARK VINA RESULT:      -9.6      6.493     10.972
REMARK SMILES O=C(CCCN1C(=O)/C(=C\c2ccc(O)c(O)c2)SC1=S)NCCCCCCNC(=O)c1ccc(-c2c3nc(c(-c4ccc(S(=O)(=O)[O-])cc4)c4ccc([nH]4)c(-c4ccc(S(=O)(=O)[O-])cc4)c4nc(c(-c5ccc(S(=O)(=O)[O-])cc5)c5ccc2[nH]5)C=C4)C=C3)cc1
REMARK SMILES IDX 24 1 23 2 22 3 1 4 2 5 3 7 4 8 5 9 6 10 7 11 20 12 8 13 9 14
REMARK SMILES IDX 19 15 21 16 10 17 11 18 12 19 18 20 13 21 16 22 14 23 17 24
REMARK SMILES IDX 15 26 25 28 26 29 27 30 28 31 29 32 30 33 31 35 32 36 33 37
REMARK SMILES IDX 91 38 34 39 90 40 35 41 36 42 37 43 84 44 38 45 89 46 83 47
REMARK SMILES IDX 85 48 39 49 88 50 82 51 81 52 40 54 70 55 51 56 69 57 52 58
REMARK SMILES IDX 55 59 68 60 86 61 53 62 54 63 67 65 87 66 56 67 41 68 42 69
REMARK SMILES IDX 50 70 43 71 49 72 44 73 45 74 46 75 47 76 48 77 71 78 72 79
REMARK SMILES IDX 80 80 73 81 79 82 74 83 75 84 76 85 77 86 78 87 57 88 58 89
REMARK SMILES IDX 66 90 59 91 65 92 60 93 61 94 62 95 63 96 64 97
REMARK H PARENT 22 6 17 25 15 27 29 34 85 53 55 64
REMARK Flexibility Score: inf
ROOT
ATOM      1  C   UNL A   1      35.659  31.706  28.280  1.00  0.00     0.021 C 
ENDROOT
BRANCH   1   2
ATOM      2  C   UNL A   1      34.429  30.942  28.777  1.00  0.00     0.116 C 
BRANCH   2   3
ATOM      3  N   UNL A   1      33.825  30.178  27.706  1.00  0.00    -0.356 N 
ATOM      4  O   UNL A   1      32.184  31.668  27.122  1.00  0.00    -0.275 OA
ATOM      5  C   UNL A   1      32.783  30.616  26.931  1.00  0.00     0.220 C 
ATOM      6  H   UNL A   1      34.188  29.282  27.520  1.00  0.00     0.163 HD
BRANCH   5   7
ATOM      7  C   UNL A   1      32.447  29.685  25.774  1.00  0.00     0.102 C 
BRANCH   7   8
ATOM      8  C   UNL A   1      33.035  28.282  25.951  1.00  0.00     0.032 C 
BRANCH   8   9
ATOM      9  C   UNL A   1      32.050  27.134  26.223  1.00  0.00     0.128 C 
BRANCH   9  10
ATOM     10  N   UNL A   1      31.792  26.210  25.105  1.00  0.00    -0.293 N 
ATOM     11  C   UNL A   1      32.551  25.043  25.055  1.00  0.00     0.266 C 
ATOM     12  C   UNL A   1      30.792  26.307  24.161  1.00  0.00     0.148 C 
ATOM     13  O   UNL A   1      33.511  24.804  25.761  1.00  0.00    -0.268 OA
ATOM     14  C   UNL A   1      31.997  24.111  24.023  1.00  0.00     0.081 C 
ATOM     15  S   UNL A   1      30.554  24.765  23.362  1.00  0.00    -0.054 SA
ATOM     16  S   UNL A   1      29.874  27.612  23.695  1.00  0.00    -0.052 S 
ATOM     17  C   UNL A   1      32.499  22.958  23.568  1.00  0.00     0.029 C 
BRANCH  17  18
ATOM     18  C   UNL A   1      33.794  22.403  23.940  1.00  0.00    -0.020 A 
ATOM     19  C   UNL A   1      33.906  21.312  24.811  1.00  0.00     0.012 A 
ATOM     20  C   UNL A   1      34.943  23.001  23.411  1.00  0.00     0.058 A 
ATOM     21  C   UNL A   1      35.164  20.840  25.189  1.00  0.00     0.051 A 
ATOM     22  C   UNL A   1      36.186  22.522  23.787  1.00  0.00     0.157 A 
ATOM     23  C   UNL A   1      36.300  21.455  24.675  1.00  0.00     0.157 A 
BRANCH  22  24
ATOM     24  O   UNL A   1      37.306  23.118  23.285  1.00  0.00    -0.504 OA
ATOM     25  H   UNL A   1      38.148  22.913  23.644  1.00  0.00     0.293 HD
ENDBRANCH  22  24
BRANCH  23  26
ATOM     26  O   UNL A   1      37.558  21.049  25.023  1.00  0.00    -0.504 OA
ATOM     27  H   UNL A   1      37.767  20.892  25.923  1.00  0.00     0.293 HD
ENDBRANCH  23  26
ENDBRANCH  17  18
ENDBRANCH   9  10
ENDBRANCH   8   9
ENDBRANCH   7   8
ENDBRANCH   5   7
ENDBRANCH   2   3
ENDBRANCH   1   2
BRANCH   1  28
ATOM     28  C   UNL A   1      35.367  33.087  27.671  1.00  0.00     0.002 C 
BRANCH  28  29
ATOM     29  C   UNL A   1      35.712  34.292  28.543  1.00  0.00     0.002 C 
BRANCH  29  30
ATOM     30  C   UNL A   1      34.565  35.268  28.775  1.00  0.00     0.021 C 
BRANCH  30  31
ATOM     31  C   UNL A   1      33.228  34.618  29.113  1.00  0.00     0.116 C 
BRANCH  31  32
ATOM     32  N   UNL A   1      32.621  35.168  30.315  1.00  0.00    -0.352 N 
ATOM     33  C   UNL A   1      33.036  35.044  31.621  1.00  0.00     0.251 C 
ATOM     34  H   UNL A   1      31.805  35.701  30.176  1.00  0.00     0.163 HD
ATOM     35  O   UNL A   1      32.323  35.439  32.537  1.00  0.00    -0.269 OA
BRANCH  33  36
ATOM     36  C   UNL A   1      34.337  34.402  31.910  1.00  0.00     0.039 A 
ATOM     37  C   UNL A   1      35.466  35.204  32.092  1.00  0.00     0.014 A 
ATOM     38  C   UNL A   1      34.435  33.012  32.026  1.00  0.00     0.014 A 
ATOM     39  C   UNL A   1      36.681  34.614  32.449  1.00  0.00     0.010 A 
ATOM     40  C   UNL A   1      35.625  32.436  32.462  1.00  0.00     0.010 A 
ATOM     41  C   UNL A   1      36.763  33.228  32.667  1.00  0.00    -0.014 A 
BRANCH  41  42
ATOM     42  C   UNL A   1      38.041  32.588  33.080  1.00  0.00     0.031 A 
ATOM     43  C   UNL A   1      38.602  32.852  34.452  1.00  0.00     0.074 A 
ATOM     44  C   UNL A   1      38.716  31.810  32.211  1.00  0.00     0.049 A 
ATOM     45  N   UNL A   1      39.724  32.433  34.979  1.00  0.00    -0.248 NA
ATOM     46  C   UNL A   1      37.812  33.721  35.341  1.00  0.00     0.031 C 
ATOM     47  C   UNL A   1      38.302  31.512  30.836  1.00  0.00     0.029 A 
ATOM     48  N   UNL A   1      39.899  31.129  32.353  1.00  0.00    -0.354 N 
ATOM     49  C   UNL A   1      39.774  32.987  36.253  1.00  0.00     0.074 A 
ATOM     50  C   UNL A   1      38.607  33.827  36.396  1.00  0.00     0.031 C 
ATOM     51  C   UNL A   1      39.204  30.691  30.273  1.00  0.00     0.029 A 
ATOM     52  C   UNL A   1      40.276  30.432  31.228  1.00  0.00     0.049 A 
ATOM     53  H   UNL A   1      40.429  31.138  33.184  1.00  0.00     0.167 HD
ATOM     54  C   UNL A   1      40.690  32.790  37.232  1.00  0.00     0.031 A 
ATOM     55  C   UNL A   1      41.366  29.674  30.992  1.00  0.00     0.031 A 
ATOM     56  C   UNL A   1      41.848  31.949  37.094  1.00  0.00     0.049 A 
ATOM     57  C   UNL A   1      42.375  29.479  32.093  1.00  0.00     0.074 A 
ATOM     58  C   UNL A   1      42.826  31.669  38.032  1.00  0.00     0.029 A 
ATOM     59  N   UNL A   1      42.178  31.241  35.949  1.00  0.00    -0.354 N 
ATOM     60  N   UNL A   1      42.380  29.979  33.306  1.00  0.00    -0.248 NA
ATOM     61  C   UNL A   1      43.514  28.599  31.800  1.00  0.00     0.031 C 
ATOM     62  C   UNL A   1      43.769  30.822  37.441  1.00  0.00     0.029 A 
ATOM     63  C   UNL A   1      43.345  30.527  36.155  1.00  0.00     0.049 A 
ATOM     64  H   UNL A   1      41.659  31.245  35.112  1.00  0.00     0.167 HD
ATOM     65  C   UNL A   1      43.501  29.442  33.931  1.00  0.00     0.074 A 
ATOM     66  C   UNL A   1      44.139  28.570  32.967  1.00  0.00     0.031 C 
ATOM     67  C   UNL A   1      43.960  29.651  35.190  1.00  0.00     0.031 A 
BRANCH  54  68
ATOM     68  C   UNL A   1      40.460  33.487  38.547  1.00  0.00    -0.014 A 
ATOM     69  C   UNL A   1      39.661  32.896  39.543  1.00  0.00     0.010 A 
ATOM     70  C   UNL A   1      41.081  34.721  38.813  1.00  0.00     0.010 A 
ATOM     71  C   UNL A   1      39.456  33.540  40.765  1.00  0.00     0.020 A 
ATOM     72  C   UNL A   1      40.904  35.355  40.047  1.00  0.00     0.020 A 
ATOM     73  C   UNL A   1      40.080  34.767  41.009  1.00  0.00     0.054 A 
BRANCH  73  74
ATOM     74  S   UNL A   1      39.824  35.563  42.619  1.00  0.00     0.124 S 
ATOM     75  O   UNL A   1      41.166  35.519  43.193  1.00  0.00    -0.237 OA
ATOM     76  O   UNL A   1      39.343  36.891  42.247  1.00  0.00    -0.237 OA
ATOM     77  O   UNL A   1      38.838  34.708  43.276  1.00  0.00    -0.744 OA
ENDBRANCH  73  74
ENDBRANCH  54  68
BRANCH  55  78
ATOM     78  C   UNL A   1      41.560  29.032  29.661  1.00  0.00    -0.014 A 
ATOM     79  C   UNL A   1      41.224  27.682  29.457  1.00  0.00     0.010 A 
ATOM     80  C   UNL A   1      42.110  29.766  28.594  1.00  0.00     0.010 A 
ATOM     81  C   UNL A   1      41.473  27.067  28.227  1.00  0.00     0.020 A 
ATOM     82  C   UNL A   1      42.330  29.163  27.352  1.00  0.00     0.020 A 
ATOM     83  C   UNL A   1      42.029  27.811  27.183  1.00  0.00     0.054 A 
BRANCH  83  84
ATOM     84  S   UNL A   1      42.332  26.998  25.589  1.00  0.00     0.124 S 
ATOM     85  O   UNL A   1      43.571  26.273  25.851  1.00  0.00    -0.237 OA
ATOM     86  O   UNL A   1      41.138  26.173  25.423  1.00  0.00    -0.237 OA
ATOM     87  O   UNL A   1      42.445  28.114  24.653  1.00  0.00    -0.744 OA
ENDBRANCH  83  84
ENDBRANCH  55  78
BRANCH  67  88
ATOM     88  C   UNL A   1      45.177  28.875  35.620  1.00  0.00    -0.014 A 
ATOM     89  C   UNL A   1      45.070  27.602  36.206  1.00  0.00     0.010 A 
ATOM     90  C   UNL A   1      46.455  29.422  35.399  1.00  0.00     0.010 A 
ATOM     91  C   UNL A   1      46.217  26.911  36.607  1.00  0.00     0.020 A 
ATOM     92  C   UNL A   1      47.605  28.721  35.768  1.00  0.00     0.020 A 
ATOM     93  C   UNL A   1      47.478  27.476  36.388  1.00  0.00     0.054 A 
BRANCH  93  94
ATOM     94  S   UNL A   1      48.952  26.551  36.895  1.00  0.00     0.124 S 
ATOM     95  O   UNL A   1      48.857  26.603  38.352  1.00  0.00    -0.237 OA
ATOM     96  O   UNL A   1      48.727  25.237  36.298  1.00  0.00    -0.237 OA
ATOM     97  O   UNL A   1      50.056  27.312  36.315  1.00  0.00    -0.744 OA
ENDBRANCH  93  94
ENDBRANCH  67  88
ENDBRANCH  41  42
ENDBRANCH  33  36
ENDBRANCH  31  32
ENDBRANCH  30  31
ENDBRANCH  29  30
ENDBRANCH  28  29
ENDBRANCH   1  28
TORSDOF 22
ENDMDL
