MODEL 1
REMARK VINA RESULT:     -11.7      0.000      0.000
REMARK SMILES COc1ccc(NC(=O)c2nn(C)cc2C(=O)NCCCCCCNC(=O)c2ccc(-c3c4nc(c(-c5ccc(S(=O)(=O)[O-])cc5)c5ccc([nH]5)c(-c5ccc(S(=O)(=O)[O-])cc5)c5nc(c(-c6ccc(S(=O)(=O)[O-])cc6)c6ccc3[nH]6)C=C5)C=C4)cc2)c(C)c1
REMARK SMILES IDX 21 1 20 2 19 3 18 4 16 5 17 6 15 8 10 9 11 10 12 11 14 12
REMARK SMILES IDX 13 13 8 14 7 15 9 17 6 18 3 19 4 20 90 21 5 22 88 23 89 24
REMARK SMILES IDX 2 25 1 26 22 27 23 28 24 29 25 30 26 31 27 33 28 34 29 35
REMARK SMILES IDX 87 36 30 37 86 38 31 39 32 40 33 41 80 42 34 43 85 44 79 45
REMARK SMILES IDX 81 46 35 47 84 48 78 49 77 50 36 52 66 53 47 54 65 55 48 56
REMARK SMILES IDX 51 57 64 58 82 59 49 60 50 61 63 63 83 64 52 65 37 66 38 67
REMARK SMILES IDX 46 68 39 69 45 70 40 71 41 72 42 73 43 74 44 75 67 76 68 77
REMARK SMILES IDX 76 78 69 79 75 80 70 81 71 82 72 83 73 84 74 85 53 86 54 87
REMARK SMILES IDX 62 88 55 89 61 90 56 91 57 92 58 93 59 94 60 95
REMARK H PARENT 18 7 7 16 25 32 81 51 51 62
REMARK Flexibility Score: inf
ROOT
ATOM      1  C   UNL A   1      38.036  24.026  26.339  1.00  0.00     0.002 C 
ENDROOT
BRANCH   1   2
ATOM      2  C   UNL A   1      38.381  22.656  25.751  1.00  0.00     0.021 C 
BRANCH   2   3
ATOM      3  C   UNL A   1      37.293  21.875  25.014  1.00  0.00     0.116 C 
BRANCH   3   4
ATOM      4  N   UNL A   1      36.687  22.566  23.893  1.00  0.00    -0.352 N 
ATOM      5  C   UNL A   1      35.427  23.098  23.727  1.00  0.00     0.255 C 
ATOM      6  O   UNL A   1      35.196  23.714  22.688  1.00  0.00    -0.269 OA
ATOM      7  H   UNL A   1      37.278  22.674  23.113  1.00  0.00     0.163 HD
BRANCH   5   8
ATOM      8  C   UNL A   1      34.385  22.902  24.728  1.00  0.00     0.090 A 
ATOM      9  C   UNL A   1      33.014  22.548  24.472  1.00  0.00     0.163 A 
ATOM     10  N   UNL A   1      32.323  22.411  25.623  1.00  0.00    -0.167 NA
ATOM     11  N   UNL A   1      33.220  22.661  26.581  1.00  0.00    -0.274 N 
ATOM     12  C   UNL A   1      34.433  23.053  26.103  1.00  0.00     0.123 A 
ATOM     13  C   UNL A   1      32.850  22.462  27.962  1.00  0.00     0.173 C 
BRANCH   9  14
ATOM     14  C   UNL A   1      32.338  22.336  23.187  1.00  0.00     0.277 C 
ATOM     15  N   UNL A   1      31.518  23.298  22.633  1.00  0.00    -0.320 N 
ATOM     16  H   UNL A   1      31.026  22.982  21.841  1.00  0.00     0.170 HD
ATOM     17  O   UNL A   1      32.460  21.276  22.562  1.00  0.00    -0.267 OA
BRANCH  15  18
ATOM     18  C   UNL A   1      31.241  24.637  22.962  1.00  0.00     0.044 A 
ATOM     19  C   UNL A   1      30.561  27.330  23.501  1.00  0.00     0.119 A 
ATOM     20  C   UNL A   1      30.129  26.318  24.346  1.00  0.00     0.048 A 
ATOM     21  C   UNL A   1      31.385  27.001  22.426  1.00  0.00     0.052 A 
ATOM     22  C   UNL A   1      30.484  24.990  24.087  1.00  0.00     0.030 A 
ATOM     23  C   UNL A   1      31.748  25.668  22.146  1.00  0.00    -0.024 A 
ATOM     24  C   UNL A   1      32.686  25.465  20.985  1.00  0.00     0.047 C 
BRANCH  19  25
ATOM     25  O   UNL A   1      30.274  28.660  23.619  1.00  0.00    -0.497 OA
ATOM     26  C   UNL A   1      30.263  29.426  22.419  1.00  0.00     0.278 C 
ENDBRANCH  19  25
ENDBRANCH  15  18
ENDBRANCH   9  14
ENDBRANCH   5   8
ENDBRANCH   3   4
ENDBRANCH   2   3
ENDBRANCH   1   2
BRANCH   1  27
ATOM     27  C   UNL A   1      39.141  24.837  27.027  1.00  0.00     0.002 C 
BRANCH  27  28
ATOM     28  C   UNL A   1      40.411  25.142  26.230  1.00  0.00     0.021 C 
BRANCH  28  29
ATOM     29  C   UNL A   1      41.559  25.750  27.025  1.00  0.00     0.116 C 
BRANCH  29  30
ATOM     30  N   UNL A   1      42.523  26.490  26.222  1.00  0.00    -0.352 N 
ATOM     31  C   UNL A   1      42.241  27.754  25.704  1.00  0.00     0.251 C 
ATOM     32  H   UNL A   1      43.402  26.086  26.040  1.00  0.00     0.163 HD
ATOM     33  O   UNL A   1      42.387  28.072  24.543  1.00  0.00    -0.269 OA
BRANCH  31  34
ATOM     34  C   UNL A   1      41.771  28.732  26.712  1.00  0.00     0.039 A 
ATOM     35  C   UNL A   1      42.705  29.356  27.544  1.00  0.00     0.014 A 
ATOM     36  C   UNL A   1      40.407  28.795  26.982  1.00  0.00     0.014 A 
ATOM     37  C   UNL A   1      42.278  29.913  28.749  1.00  0.00     0.010 A 
ATOM     38  C   UNL A   1      40.001  29.254  28.215  1.00  0.00     0.010 A 
ATOM     39  C   UNL A   1      40.941  29.775  29.118  1.00  0.00    -0.014 A 
BRANCH  39  40
ATOM     40  C   UNL A   1      40.403  30.095  30.435  1.00  0.00     0.031 A 
ATOM     41  C   UNL A   1      39.731  31.397  30.658  1.00  0.00     0.074 A 
ATOM     42  C   UNL A   1      40.358  29.143  31.394  1.00  0.00     0.049 A 
ATOM     43  N   UNL A   1      39.418  31.876  31.815  1.00  0.00    -0.248 NA
ATOM     44  C   UNL A   1      39.423  32.309  29.559  1.00  0.00     0.031 C 
ATOM     45  C   UNL A   1      39.497  29.129  32.574  1.00  0.00     0.029 A 
ATOM     46  N   UNL A   1      41.256  28.099  31.623  1.00  0.00    -0.354 N 
ATOM     47  C   UNL A   1      38.596  32.960  31.602  1.00  0.00     0.074 A 
ATOM     48  C   UNL A   1      38.741  33.263  30.199  1.00  0.00     0.031 C 
ATOM     49  C   UNL A   1      40.073  28.366  33.515  1.00  0.00     0.029 A 
ATOM     50  C   UNL A   1      41.390  28.008  33.019  1.00  0.00     0.049 A 
ATOM     51  H   UNL A   1      41.704  27.542  30.945  1.00  0.00     0.167 HD
ATOM     52  C   UNL A   1      37.764  33.374  32.600  1.00  0.00     0.031 A 
ATOM     53  C   UNL A   1      42.560  28.204  33.696  1.00  0.00     0.031 A 
ATOM     54  C   UNL A   1      38.090  32.728  33.873  1.00  0.00     0.049 A 
ATOM     55  C   UNL A   1      42.462  29.278  34.759  1.00  0.00     0.074 A 
ATOM     56  C   UNL A   1      37.496  31.720  34.614  1.00  0.00     0.029 A 
ATOM     57  N   UNL A   1      39.345  32.940  34.434  1.00  0.00    -0.354 N 
ATOM     58  N   UNL A   1      41.504  30.162  34.816  1.00  0.00    -0.248 NA
ATOM     59  C   UNL A   1      43.451  29.465  35.816  1.00  0.00     0.031 C 
ATOM     60  C   UNL A   1      38.443  31.266  35.573  1.00  0.00     0.029 A 
ATOM     61  C   UNL A   1      39.595  32.022  35.435  1.00  0.00     0.049 A 
ATOM     62  H   UNL A   1      39.970  33.649  34.155  1.00  0.00     0.167 HD
ATOM     63  C   UNL A   1      41.717  31.011  35.871  1.00  0.00     0.074 A 
ATOM     64  C   UNL A   1      42.946  30.524  36.474  1.00  0.00     0.031 C 
ATOM     65  C   UNL A   1      40.867  32.044  36.149  1.00  0.00     0.031 A 
BRANCH  52  66
ATOM     66  C   UNL A   1      36.480  34.155  32.364  1.00  0.00    -0.014 A 
ATOM     67  C   UNL A   1      36.043  35.090  33.327  1.00  0.00     0.010 A 
ATOM     68  C   UNL A   1      35.605  33.950  31.280  1.00  0.00     0.010 A 
ATOM     69  C   UNL A   1      34.779  35.707  33.255  1.00  0.00     0.020 A 
ATOM     70  C   UNL A   1      34.340  34.549  31.195  1.00  0.00     0.020 A 
ATOM     71  C   UNL A   1      33.924  35.413  32.197  1.00  0.00     0.054 A 
BRANCH  71  72
ATOM     72  S   UNL A   1      32.266  36.139  32.147  1.00  0.00     0.124 S 
ATOM     73  O   UNL A   1      31.421  35.014  32.539  1.00  0.00    -0.237 OA
ATOM     74  O   UNL A   1      32.366  37.224  33.117  1.00  0.00    -0.237 OA
ATOM     75  O   UNL A   1      32.115  36.564  30.755  1.00  0.00    -0.744 OA
ENDBRANCH  71  72
ENDBRANCH  52  66
BRANCH  53  76
ATOM     76  C   UNL A   1      43.784  27.888  32.906  1.00  0.00    -0.014 A 
ATOM     77  C   UNL A   1      44.165  26.532  32.831  1.00  0.00     0.010 A 
ATOM     78  C   UNL A   1      44.229  28.779  31.914  1.00  0.00     0.010 A 
ATOM     79  C   UNL A   1      44.789  26.036  31.684  1.00  0.00     0.020 A 
ATOM     80  C   UNL A   1      44.867  28.284  30.767  1.00  0.00     0.020 A 
ATOM     81  C   UNL A   1      45.061  26.905  30.628  1.00  0.00     0.054 A 
BRANCH  81  82
ATOM     82  S   UNL A   1      45.470  26.182  29.008  1.00  0.00     0.124 S 
ATOM     83  O   UNL A   1      44.256  25.443  28.677  1.00  0.00    -0.237 OA
ATOM     84  O   UNL A   1      45.725  27.375  28.196  1.00  0.00    -0.237 OA
ATOM     85  O   UNL A   1      46.647  25.369  29.293  1.00  0.00    -0.744 OA
ENDBRANCH  81  82
ENDBRANCH  53  76
BRANCH  65  86
ATOM     86  C   UNL A   1      41.097  33.148  37.158  1.00  0.00    -0.014 A 
ATOM     87  C   UNL A   1      42.120  34.104  37.073  1.00  0.00     0.010 A 
ATOM     88  C   UNL A   1      40.154  33.319  38.203  1.00  0.00     0.010 A 
ATOM     89  C   UNL A   1      42.235  35.139  38.015  1.00  0.00     0.020 A 
ATOM     90  C   UNL A   1      40.231  34.372  39.120  1.00  0.00     0.020 A 
ATOM     91  C   UNL A   1      41.291  35.265  39.035  1.00  0.00     0.054 A 
BRANCH  91  92
ATOM     92  S   UNL A   1      41.403  36.647  40.200  1.00  0.00     0.124 S 
ATOM     93  O   UNL A   1      41.065  37.786  39.349  1.00  0.00    -0.237 OA
ATOM     94  O   UNL A   1      40.408  36.306  41.213  1.00  0.00    -0.237 OA
ATOM     95  O   UNL A   1      42.789  36.594  40.658  1.00  0.00    -0.744 OA
ENDBRANCH  91  92
ENDBRANCH  65  86
ENDBRANCH  39  40
ENDBRANCH  31  34
ENDBRANCH  29  30
ENDBRANCH  28  29
ENDBRANCH  27  28
ENDBRANCH   1  27
TORSDOF 19
ENDMDL
MODEL 2
REMARK VINA RESULT:     -11.6      3.899      6.053
REMARK SMILES COc1ccc(NC(=O)c2nn(C)cc2C(=O)NCCCCCCNC(=O)c2ccc(-c3c4nc(c(-c5ccc(S(=O)(=O)[O-])cc5)c5ccc([nH]5)c(-c5ccc(S(=O)(=O)[O-])cc5)c5nc(c(-c6ccc(S(=O)(=O)[O-])cc6)c6ccc3[nH]6)C=C5)C=C4)cc2)c(C)c1
REMARK SMILES IDX 21 1 20 2 19 3 18 4 16 5 17 6 15 8 10 9 11 10 12 11 14 12
REMARK SMILES IDX 13 13 8 14 7 15 9 17 6 18 3 19 4 20 90 21 5 22 88 23 89 24
REMARK SMILES IDX 2 25 1 26 22 27 23 28 24 29 25 30 26 31 27 33 28 34 29 35
REMARK SMILES IDX 87 36 30 37 86 38 31 39 32 40 33 41 80 42 34 43 85 44 79 45
REMARK SMILES IDX 81 46 35 47 84 48 78 49 77 50 36 52 66 53 47 54 65 55 48 56
REMARK SMILES IDX 51 57 64 58 82 59 49 60 50 61 63 63 83 64 52 65 37 66 38 67
REMARK SMILES IDX 46 68 39 69 45 70 40 71 41 72 42 73 43 74 44 75 67 76 68 77
REMARK SMILES IDX 76 78 69 79 75 80 70 81 71 82 72 83 73 84 74 85 53 86 54 87
REMARK SMILES IDX 62 88 55 89 61 90 56 91 57 92 58 93 59 94 60 95
REMARK H PARENT 18 7 7 16 25 32 81 51 51 62
REMARK Flexibility Score: inf
ROOT
ATOM      1  C   UNL A   1      34.068  22.122  26.430  1.00  0.00     0.002 C 
ENDROOT
BRANCH   1   2
ATOM      2  C   UNL A   1      33.105  23.061  27.160  1.00  0.00     0.021 C 
BRANCH   2   3
ATOM      3  C   UNL A   1      32.787  24.421  26.537  1.00  0.00     0.116 C 
BRANCH   3   4
ATOM      4  N   UNL A   1      31.387  24.798  26.553  1.00  0.00    -0.352 N 
ATOM      5  C   UNL A   1      30.768  26.002  26.301  1.00  0.00     0.255 C 
ATOM      6  O   UNL A   1      29.538  26.026  26.304  1.00  0.00    -0.269 OA
ATOM      7  H   UNL A   1      30.772  24.066  26.785  1.00  0.00     0.163 HD
BRANCH   5   8
ATOM      8  C   UNL A   1      31.539  27.219  26.081  1.00  0.00     0.090 A 
ATOM      9  C   UNL A   1      31.381  28.141  24.989  1.00  0.00     0.163 A 
ATOM     10  N   UNL A   1      32.231  29.184  25.104  1.00  0.00    -0.167 NA
ATOM     11  N   UNL A   1      32.903  28.940  26.233  1.00  0.00    -0.274 N 
ATOM     12  C   UNL A   1      32.601  27.741  26.799  1.00  0.00     0.123 A 
ATOM     13  C   UNL A   1      33.811  29.942  26.741  1.00  0.00     0.173 C 
BRANCH   9  14
ATOM     14  C   UNL A   1      30.462  28.074  23.846  1.00  0.00     0.277 C 
ATOM     15  N   UNL A   1      30.479  27.012  22.965  1.00  0.00    -0.320 N 
ATOM     16  H   UNL A   1      29.908  27.152  22.176  1.00  0.00     0.170 HD
ATOM     17  O   UNL A   1      29.652  28.980  23.618  1.00  0.00    -0.267 OA
BRANCH  15  18
ATOM     18  C   UNL A   1      31.139  25.771  22.960  1.00  0.00     0.044 A 
ATOM     19  C   UNL A   1      32.530  23.311  23.108  1.00  0.00     0.119 A 
ATOM     20  C   UNL A   1      31.160  23.352  23.316  1.00  0.00     0.048 A 
ATOM     21  C   UNL A   1      33.192  24.489  22.763  1.00  0.00     0.052 A 
ATOM     22  C   UNL A   1      30.472  24.568  23.222  1.00  0.00     0.030 A 
ATOM     23  C   UNL A   1      32.517  25.723  22.669  1.00  0.00    -0.024 A 
ATOM     24  C   UNL A   1      33.347  26.903  22.236  1.00  0.00     0.047 C 
BRANCH  19  25
ATOM     25  O   UNL A   1      33.328  22.206  23.189  1.00  0.00    -0.497 OA
ATOM     26  C   UNL A   1      32.675  20.949  23.334  1.00  0.00     0.278 C 
ENDBRANCH  19  25
ENDBRANCH  15  18
ENDBRANCH   9  14
ENDBRANCH   5   8
ENDBRANCH   3   4
ENDBRANCH   2   3
ENDBRANCH   1   2
BRANCH   1  27
ATOM     27  C   UNL A   1      35.393  22.683  25.901  1.00  0.00     0.002 C 
BRANCH  27  28
ATOM     28  C   UNL A   1      36.584  21.731  25.787  1.00  0.00     0.021 C 
BRANCH  28  29
ATOM     29  C   UNL A   1      37.925  22.383  25.478  1.00  0.00     0.116 C 
BRANCH  29  30
ATOM     30  N   UNL A   1      39.010  21.979  26.360  1.00  0.00    -0.352 N 
ATOM     31  C   UNL A   1      40.163  22.747  26.517  1.00  0.00     0.251 C 
ATOM     32  H   UNL A   1      38.927  21.136  26.864  1.00  0.00     0.163 HD
ATOM     33  O   UNL A   1      41.294  22.323  26.413  1.00  0.00    -0.269 OA
BRANCH  31  34
ATOM     34  C   UNL A   1      39.905  24.161  26.872  1.00  0.00     0.039 A 
ATOM     35  C   UNL A   1      40.460  25.174  26.084  1.00  0.00     0.014 A 
ATOM     36  C   UNL A   1      39.354  24.437  28.120  1.00  0.00     0.014 A 
ATOM     37  C   UNL A   1      40.608  26.452  26.623  1.00  0.00     0.010 A 
ATOM     38  C   UNL A   1      39.592  25.670  28.687  1.00  0.00     0.010 A 
ATOM     39  C   UNL A   1      40.257  26.665  27.955  1.00  0.00    -0.014 A 
BRANCH  39  40
ATOM     40  C   UNL A   1      40.569  27.870  28.715  1.00  0.00     0.031 A 
ATOM     41  C   UNL A   1      39.615  29.003  28.720  1.00  0.00     0.074 A 
ATOM     42  C   UNL A   1      41.632  27.883  29.551  1.00  0.00     0.049 A 
ATOM     43  N   UNL A   1      39.878  30.186  29.166  1.00  0.00    -0.248 NA
ATOM     44  C   UNL A   1      38.280  28.897  28.135  1.00  0.00     0.031 C 
ATOM     45  C   UNL A   1      41.847  28.786  30.679  1.00  0.00     0.029 A 
ATOM     46  N   UNL A   1      42.856  27.228  29.408  1.00  0.00    -0.354 N 
ATOM     47  C   UNL A   1      38.686  30.872  29.236  1.00  0.00     0.074 A 
ATOM     48  C   UNL A   1      37.759  30.081  28.465  1.00  0.00     0.031 C 
ATOM     49  C   UNL A   1      43.165  28.861  30.921  1.00  0.00     0.029 A 
ATOM     50  C   UNL A   1      43.832  28.137  29.852  1.00  0.00     0.049 A 
ATOM     51  H   UNL A   1      43.005  26.316  29.064  1.00  0.00     0.167 HD
ATOM     52  C   UNL A   1      38.581  31.945  30.072  1.00  0.00     0.031 A 
ATOM     53  C   UNL A   1      44.828  28.644  29.068  1.00  0.00     0.031 A 
ATOM     54  C   UNL A   1      39.890  32.360  30.580  1.00  0.00     0.049 A 
ATOM     55  C   UNL A   1      44.844  30.158  29.026  1.00  0.00     0.074 A 
ATOM     56  C   UNL A   1      40.526  32.231  31.802  1.00  0.00     0.029 A 
ATOM     57  N   UNL A   1      40.858  32.789  29.677  1.00  0.00    -0.354 N 
ATOM     58  N   UNL A   1      43.842  30.907  29.398  1.00  0.00    -0.248 NA
ATOM     59  C   UNL A   1      45.969  30.944  28.530  1.00  0.00     0.031 C 
ATOM     60  C   UNL A   1      41.909  32.501  31.607  1.00  0.00     0.029 A 
ATOM     61  C   UNL A   1      42.101  32.828  30.275  1.00  0.00     0.049 A 
ATOM     62  H   UNL A   1      40.680  33.032  28.739  1.00  0.00     0.167 HD
ATOM     63  C   UNL A   1      44.156  32.229  29.210  1.00  0.00     0.074 A 
ATOM     64  C   UNL A   1      45.506  32.199  28.674  1.00  0.00     0.031 C 
ATOM     65  C   UNL A   1      43.273  33.229  29.505  1.00  0.00     0.031 A 
BRANCH  52  66
ATOM     66  C   UNL A   1      37.264  32.446  30.646  1.00  0.00    -0.014 A 
ATOM     67  C   UNL A   1      36.525  33.426  29.949  1.00  0.00     0.010 A 
ATOM     68  C   UNL A   1      36.748  32.081  31.904  1.00  0.00     0.010 A 
ATOM     69  C   UNL A   1      35.400  34.059  30.512  1.00  0.00     0.020 A 
ATOM     70  C   UNL A   1      35.635  32.706  32.484  1.00  0.00     0.020 A 
ATOM     71  C   UNL A   1      34.976  33.709  31.791  1.00  0.00     0.054 A 
BRANCH  71  72
ATOM     72  S   UNL A   1      33.582  34.580  32.550  1.00  0.00     0.124 S 
ATOM     73  O   UNL A   1      32.861  35.090  31.387  1.00  0.00    -0.237 OA
ATOM     74  O   UNL A   1      32.913  33.519  33.295  1.00  0.00    -0.237 OA
ATOM     75  O   UNL A   1      34.222  35.606  33.374  1.00  0.00    -0.744 OA
ENDBRANCH  71  72
ENDBRANCH  52  66
BRANCH  53  76
ATOM     76  C   UNL A   1      45.239  27.752  27.947  1.00  0.00    -0.014 A 
ATOM     77  C   UNL A   1      44.828  28.123  26.649  1.00  0.00     0.010 A 
ATOM     78  C   UNL A   1      46.350  26.904  28.096  1.00  0.00     0.010 A 
ATOM     79  C   UNL A   1      45.633  27.834  25.544  1.00  0.00     0.020 A 
ATOM     80  C   UNL A   1      47.151  26.602  26.985  1.00  0.00     0.020 A 
ATOM     81  C   UNL A   1      46.830  27.145  25.736  1.00  0.00     0.054 A 
BRANCH  81  82
ATOM     82  S   UNL A   1      48.049  27.154  24.384  1.00  0.00     0.124 S 
ATOM     83  O   UNL A   1      47.229  27.481  23.222  1.00  0.00    -0.237 OA
ATOM     84  O   UNL A   1      48.978  28.201  24.817  1.00  0.00    -0.237 OA
ATOM     85  O   UNL A   1      48.591  25.800  24.414  1.00  0.00    -0.744 OA
ENDBRANCH  81  82
ENDBRANCH  53  76
BRANCH  65  86
ATOM     86  C   UNL A   1      43.434  34.695  29.166  1.00  0.00    -0.014 A 
ATOM     87  C   UNL A   1      44.220  35.600  29.896  1.00  0.00     0.010 A 
ATOM     88  C   UNL A   1      42.856  35.182  27.966  1.00  0.00     0.010 A 
ATOM     89  C   UNL A   1      44.372  36.934  29.486  1.00  0.00     0.020 A 
ATOM     90  C   UNL A   1      43.038  36.496  27.524  1.00  0.00     0.020 A 
ATOM     91  C   UNL A   1      43.778  37.375  28.303  1.00  0.00     0.054 A 
BRANCH  91  92
ATOM     92  S   UNL A   1      44.042  39.077  27.743  1.00  0.00     0.124 S 
ATOM     93  O   UNL A   1      43.123  39.167  26.611  1.00  0.00    -0.237 OA
ATOM     94  O   UNL A   1      43.673  39.869  28.913  1.00  0.00    -0.237 OA
ATOM     95  O   UNL A   1      45.462  39.107  27.404  1.00  0.00    -0.744 OA
ENDBRANCH  91  92
ENDBRANCH  65  86
ENDBRANCH  39  40
ENDBRANCH  31  34
ENDBRANCH  29  30
ENDBRANCH  28  29
ENDBRANCH  27  28
ENDBRANCH   1  27
TORSDOF 19
ENDMDL
MODEL 3
REMARK VINA RESULT:     -11.5      3.626      9.645
REMARK SMILES COc1ccc(NC(=O)c2nn(C)cc2C(=O)NCCCCCCNC(=O)c2ccc(-c3c4nc(c(-c5ccc(S(=O)(=O)[O-])cc5)c5ccc([nH]5)c(-c5ccc(S(=O)(=O)[O-])cc5)c5nc(c(-c6ccc(S(=O)(=O)[O-])cc6)c6ccc3[nH]6)C=C5)C=C4)cc2)c(C)c1
REMARK SMILES IDX 21 1 20 2 19 3 18 4 16 5 17 6 15 8 10 9 11 10 12 11 14 12
REMARK SMILES IDX 13 13 8 14 7 15 9 17 6 18 3 19 4 20 90 21 5 22 88 23 89 24
REMARK SMILES IDX 2 25 1 26 22 27 23 28 24 29 25 30 26 31 27 33 28 34 29 35
REMARK SMILES IDX 87 36 30 37 86 38 31 39 32 40 33 41 80 42 34 43 85 44 79 45
REMARK SMILES IDX 81 46 35 47 84 48 78 49 77 50 36 52 66 53 47 54 65 55 48 56
REMARK SMILES IDX 51 57 64 58 82 59 49 60 50 61 63 63 83 64 52 65 37 66 38 67
REMARK SMILES IDX 46 68 39 69 45 70 40 71 41 72 42 73 43 74 44 75 67 76 68 77
REMARK SMILES IDX 76 78 69 79 75 80 70 81 71 82 72 83 73 84 74 85 53 86 54 87
REMARK SMILES IDX 62 88 55 89 61 90 56 91 57 92 58 93 59 94 60 95
REMARK H PARENT 18 7 7 16 25 32 81 51 51 62
REMARK Flexibility Score: inf
ROOT
ATOM      1  C   UNL A   1      33.337  28.310  25.700  1.00  0.00     0.002 C 
ENDROOT
BRANCH   1   2
ATOM      2  C   UNL A   1      33.306  29.386  24.612  1.00  0.00     0.021 C 
BRANCH   2   3
ATOM      3  C   UNL A   1      33.320  28.952  23.146  1.00  0.00     0.116 C 
BRANCH   3   4
ATOM      4  N   UNL A   1      32.119  29.263  22.397  1.00  0.00    -0.352 N 
ATOM      5  C   UNL A   1      30.863  28.696  22.417  1.00  0.00     0.255 C 
ATOM      6  O   UNL A   1      29.988  29.216  21.726  1.00  0.00    -0.269 OA
ATOM      7  H   UNL A   1      32.217  30.009  21.762  1.00  0.00     0.163 HD
BRANCH   5   8
ATOM      8  C   UNL A   1      30.587  27.495  23.195  1.00  0.00     0.090 A 
ATOM      9  C   UNL A   1      31.081  26.171  22.923  1.00  0.00     0.163 A 
ATOM     10  N   UNL A   1      30.664  25.293  23.859  1.00  0.00    -0.167 NA
ATOM     11  N   UNL A   1      29.935  26.029  24.703  1.00  0.00    -0.274 N 
ATOM     12  C   UNL A   1      29.777  27.320  24.303  1.00  0.00     0.123 A 
ATOM     13  C   UNL A   1      29.445  25.426  25.920  1.00  0.00     0.173 C 
BRANCH   9  14
ATOM     14  C   UNL A   1      31.927  25.709  21.817  1.00  0.00     0.277 C 
ATOM     15  N   UNL A   1      33.049  24.935  22.038  1.00  0.00    -0.320 N 
ATOM     16  H   UNL A   1      33.597  24.804  21.231  1.00  0.00     0.170 HD
ATOM     17  O   UNL A   1      31.679  26.014  20.645  1.00  0.00    -0.267 OA
BRANCH  15  18
ATOM     18  C   UNL A   1      33.571  24.293  23.175  1.00  0.00     0.044 A 
ATOM     19  C   UNL A   1      34.746  22.937  25.362  1.00  0.00     0.119 A 
ATOM     20  C   UNL A   1      34.937  24.301  25.203  1.00  0.00     0.048 A 
ATOM     21  C   UNL A   1      33.916  22.265  24.465  1.00  0.00     0.052 A 
ATOM     22  C   UNL A   1      34.338  24.972  24.131  1.00  0.00     0.030 A 
ATOM     23  C   UNL A   1      33.308  22.924  23.377  1.00  0.00    -0.024 A 
ATOM     24  C   UNL A   1      32.395  22.087  22.520  1.00  0.00     0.047 C 
BRANCH  19  25
ATOM     25  O   UNL A   1      35.284  22.153  26.343  1.00  0.00    -0.497 OA
ATOM     26  C   UNL A   1      34.393  21.666  27.340  1.00  0.00     0.278 C 
ENDBRANCH  19  25
ENDBRANCH  15  18
ENDBRANCH   9  14
ENDBRANCH   5   8
ENDBRANCH   3   4
ENDBRANCH   2   3
ENDBRANCH   1   2
BRANCH   1  27
ATOM     27  C   UNL A   1      33.501  28.741  27.163  1.00  0.00     0.002 C 
BRANCH  27  28
ATOM     28  C   UNL A   1      33.143  30.180  27.534  1.00  0.00     0.021 C 
BRANCH  28  29
ATOM     29  C   UNL A   1      34.115  31.248  27.053  1.00  0.00     0.116 C 
BRANCH  29  30
ATOM     30  N   UNL A   1      34.540  32.186  28.083  1.00  0.00    -0.352 N 
ATOM     31  C   UNL A   1      35.100  31.762  29.287  1.00  0.00     0.251 C 
ATOM     32  H   UNL A   1      34.429  33.152  27.924  1.00  0.00     0.163 HD
ATOM     33  O   UNL A   1      34.729  32.118  30.384  1.00  0.00    -0.269 OA
BRANCH  31  34
ATOM     34  C   UNL A   1      36.250  30.841  29.129  1.00  0.00     0.039 A 
ATOM     35  C   UNL A   1      36.298  29.672  29.894  1.00  0.00     0.014 A 
ATOM     36  C   UNL A   1      37.366  31.296  28.433  1.00  0.00     0.014 A 
ATOM     37  C   UNL A   1      37.525  29.040  30.094  1.00  0.00     0.010 A 
ATOM     38  C   UNL A   1      38.591  30.730  28.714  1.00  0.00     0.010 A 
ATOM     39  C   UNL A   1      38.677  29.628  29.578  1.00  0.00    -0.014 A 
BRANCH  39  40
ATOM     40  C   UNL A   1      40.039  29.216  29.900  1.00  0.00     0.031 A 
ATOM     41  C   UNL A   1      40.518  27.877  29.484  1.00  0.00     0.074 A 
ATOM     42  C   UNL A   1      40.911  30.112  30.412  1.00  0.00     0.049 A 
ATOM     43  N   UNL A   1      41.608  27.324  29.898  1.00  0.00    -0.248 NA
ATOM     44  C   UNL A   1      39.737  27.011  28.603  1.00  0.00     0.031 C 
ATOM     45  C   UNL A   1      42.369  30.026  30.388  1.00  0.00     0.029 A 
ATOM     46  N   UNL A   1      40.652  31.181  31.273  1.00  0.00    -0.354 N 
ATOM     47  C   UNL A   1      41.834  26.218  29.108  1.00  0.00     0.074 A 
ATOM     48  C   UNL A   1      40.586  25.997  28.419  1.00  0.00     0.031 C 
ATOM     49  C   UNL A   1      42.857  30.763  31.399  1.00  0.00     0.029 A 
ATOM     50  C   UNL A   1      41.719  31.203  32.187  1.00  0.00     0.049 A 
ATOM     51  H   UNL A   1      39.880  31.791  31.245  1.00  0.00     0.167 HD
ATOM     52  C   UNL A   1      43.098  25.717  29.005  1.00  0.00     0.031 A 
ATOM     53  C   UNL A   1      41.585  31.021  33.534  1.00  0.00     0.031 A 
ATOM     54  C   UNL A   1      43.992  26.307  30.004  1.00  0.00     0.049 A 
ATOM     55  C   UNL A   1      42.435  29.889  34.072  1.00  0.00     0.074 A 
ATOM     56  C   UNL A   1      45.006  27.248  29.942  1.00  0.00     0.029 A 
ATOM     57  N   UNL A   1      43.713  26.119  31.354  1.00  0.00    -0.354 N 
ATOM     58  N   UNL A   1      42.972  28.963  33.325  1.00  0.00    -0.248 NA
ATOM     59  C   UNL A   1      42.715  29.688  35.490  1.00  0.00     0.031 C 
ATOM     60  C   UNL A   1      45.274  27.690  31.266  1.00  0.00     0.029 A 
ATOM     61  C   UNL A   1      44.448  26.992  32.130  1.00  0.00     0.049 A 
ATOM     62  H   UNL A   1      43.078  25.454  31.706  1.00  0.00     0.167 HD
ATOM     63  C   UNL A   1      43.652  28.069  34.111  1.00  0.00     0.074 A 
ATOM     64  C   UNL A   1      43.470  28.574  35.461  1.00  0.00     0.031 C 
ATOM     65  C   UNL A   1      44.297  26.987  33.582  1.00  0.00     0.031 A 
BRANCH  52  66
ATOM     66  C   UNL A   1      43.590  24.894  27.824  1.00  0.00    -0.014 A 
ATOM     67  C   UNL A   1      44.462  23.806  28.044  1.00  0.00     0.010 A 
ATOM     68  C   UNL A   1      43.326  25.194  26.474  1.00  0.00     0.010 A 
ATOM     69  C   UNL A   1      45.093  23.124  26.986  1.00  0.00     0.020 A 
ATOM     70  C   UNL A   1      43.952  24.532  25.408  1.00  0.00     0.020 A 
ATOM     71  C   UNL A   1      44.850  23.510  25.671  1.00  0.00     0.054 A 
BRANCH  71  72
ATOM     72  S   UNL A   1      45.726  22.691  24.313  1.00  0.00     0.124 S 
ATOM     73  O   UNL A   1      46.391  21.583  24.994  1.00  0.00    -0.237 OA
ATOM     74  O   UNL A   1      44.639  22.321  23.413  1.00  0.00    -0.237 OA
ATOM     75  O   UNL A   1      46.625  23.728  23.806  1.00  0.00    -0.744 OA
ENDBRANCH  71  72
ENDBRANCH  52  66
BRANCH  53  76
ATOM     76  C   UNL A   1      40.259  31.430  34.077  1.00  0.00    -0.014 A 
ATOM     77  C   UNL A   1      39.399  30.400  34.511  1.00  0.00     0.010 A 
ATOM     78  C   UNL A   1      40.078  32.729  34.583  1.00  0.00     0.010 A 
ATOM     79  C   UNL A   1      38.525  30.611  35.580  1.00  0.00     0.020 A 
ATOM     80  C   UNL A   1      39.192  32.946  35.648  1.00  0.00     0.020 A 
ATOM     81  C   UNL A   1      38.490  31.865  36.192  1.00  0.00     0.054 A 
BRANCH  81  82
ATOM     82  S   UNL A   1      37.685  32.001  37.818  1.00  0.00     0.124 S 
ATOM     83  O   UNL A   1      38.783  32.424  38.680  1.00  0.00    -0.237 OA
ATOM     84  O   UNL A   1      36.654  33.011  37.566  1.00  0.00    -0.237 OA
ATOM     85  O   UNL A   1      37.179  30.653  38.055  1.00  0.00    -0.744 OA
ENDBRANCH  81  82
ENDBRANCH  53  76
BRANCH  65  86
ATOM     86  C   UNL A   1      44.912  25.842  34.356  1.00  0.00    -0.014 A 
ATOM     87  C   UNL A   1      46.039  25.954  35.184  1.00  0.00     0.010 A 
ATOM     88  C   UNL A   1      44.249  24.588  34.355  1.00  0.00     0.010 A 
ATOM     89  C   UNL A   1      46.517  24.861  35.923  1.00  0.00     0.020 A 
ATOM     90  C   UNL A   1      44.689  23.504  35.121  1.00  0.00     0.020 A 
ATOM     91  C   UNL A   1      45.841  23.641  35.885  1.00  0.00     0.054 A 
BRANCH  91  92
ATOM     92  S   UNL A   1      46.422  22.258  36.899  1.00  0.00     0.124 S 
ATOM     93  O   UNL A   1      46.055  22.696  38.244  1.00  0.00    -0.237 OA
ATOM     94  O   UNL A   1      45.658  21.126  36.381  1.00  0.00    -0.237 OA
ATOM     95  O   UNL A   1      47.855  22.210  36.623  1.00  0.00    -0.744 OA
ENDBRANCH  91  92
ENDBRANCH  65  86
ENDBRANCH  39  40
ENDBRANCH  31  34
ENDBRANCH  29  30
ENDBRANCH  28  29
ENDBRANCH  27  28
ENDBRANCH   1  27
TORSDOF 19
ENDMDL
