MODEL 1
REMARK VINA RESULT:     -10.9      0.000      0.000
REMARK SMILES CS(=O)(=O)c1ccc(C2=NN(c3ccc(C(=O)NCCCCCCNC(=O)c4ccc(-c5c6nc(c(-c7ccc(S(=O)(=O)[O-])cc7)c7ccc([nH]7)c(-c7ccc(S(=O)(=O)[O-])cc7)c7nc(c(-c8ccc(S(=O)(=O)[O-])cc8)c8ccc5[nH]8)C=C7)C=C6)cc4)cc3)[C@H](c3ccc(F)cc3)C2)cc1
REMARK SMILES IDX 21 1 20 2 19 3 18 4 16 5 17 6 15 8 12 9 13 10 89 11 14 12
REMARK SMILES IDX 88 13 11 14 9 15 10 16 98 17 90 18 8 19 5 20 6 21 100 22
REMARK SMILES IDX 7 23 99 24 2 25 1 26 3 27 4 28 91 29 92 30 97 31 93 32 96 33
REMARK SMILES IDX 94 34 95 35 22 36 23 37 24 38 25 39 26 40 27 42 28 43 29 44
REMARK SMILES IDX 87 45 30 46 86 47 31 48 32 49 33 50 80 51 34 52 85 53 79 54
REMARK SMILES IDX 81 55 35 56 84 57 78 58 77 59 36 61 66 62 47 63 65 64 48 65
REMARK SMILES IDX 51 66 64 67 82 68 49 69 50 70 63 72 83 73 52 74 37 75 38 76
REMARK SMILES IDX 46 77 39 78 45 79 40 80 41 81 42 82 43 83 44 84 67 85 68 86
REMARK SMILES IDX 76 87 69 88 75 89 70 90 71 91 72 92 73 93 74 94 53 95 54 96
REMARK SMILES IDX 62 97 55 98 61 99 56 100 57 101 58 102 59 103 60 104
REMARK H PARENT 18 7 25 41 81 60 51 71
REMARK Flexibility Score: inf
ROOT
ATOM      1  C   UNL A   1      37.660  30.882  30.022  1.00  0.00     0.002 C 
ENDROOT
BRANCH   1   2
ATOM      2  C   UNL A   1      37.616  30.067  28.725  1.00  0.00     0.021 C 
BRANCH   2   3
ATOM      3  C   UNL A   1      36.243  29.450  28.448  1.00  0.00     0.116 C 
BRANCH   3   4
ATOM      4  N   UNL A   1      35.244  30.495  28.316  1.00  0.00    -0.352 N 
ATOM      5  C   UNL A   1      34.039  30.516  27.662  1.00  0.00     0.251 C 
ATOM      6  O   UNL A   1      33.350  31.533  27.731  1.00  0.00    -0.269 OA
ATOM      7  H   UNL A   1      35.471  31.334  28.777  1.00  0.00     0.163 HD
BRANCH   5   8
ATOM      8  C   UNL A   1      33.514  29.327  26.941  1.00  0.00     0.039 A 
ATOM      9  C   UNL A   1      32.519  27.199  25.388  1.00  0.00     0.060 A 
ATOM     10  C   UNL A   1      33.670  27.886  24.991  1.00  0.00     0.029 A 
ATOM     11  C   UNL A   1      31.924  27.538  26.605  1.00  0.00     0.029 A 
ATOM     12  C   UNL A   1      34.164  28.947  25.759  1.00  0.00     0.016 A 
ATOM     13  C   UNL A   1      32.430  28.572  27.390  1.00  0.00     0.016 A 
BRANCH   9  14
ATOM     14  N   UNL A   1      31.976  26.168  24.638  1.00  0.00    -0.257 N 
ATOM     15  C   UNL A   1      32.100  24.184  23.899  1.00  0.00     0.071 C 
ATOM     16  N   UNL A   1      32.362  24.909  24.938  1.00  0.00    -0.176 NA
ATOM     17  C   UNL A   1      31.552  24.911  22.705  1.00  0.00     0.091 C 
ATOM     18  C   UNL A   1      31.456  26.341  23.276  1.00  0.00     0.144 C 
BRANCH  15  19
ATOM     19  C   UNL A   1      32.312  22.733  23.919  1.00  0.00    -0.002 A 
ATOM     20  C   UNL A   1      32.559  19.967  23.853  1.00  0.00     0.067 A 
ATOM     21  C   UNL A   1      32.272  20.654  22.673  1.00  0.00     0.021 A 
ATOM     22  C   UNL A   1      32.716  20.658  25.065  1.00  0.00     0.021 A 
ATOM     23  C   UNL A   1      32.138  22.041  22.713  1.00  0.00     0.011 A 
ATOM     24  C   UNL A   1      32.602  22.050  25.099  1.00  0.00     0.011 A 
BRANCH  20  25
ATOM     25  S   UNL A   1      32.716  18.198  23.891  1.00  0.00     0.175 S 
ATOM     26  C   UNL A   1      34.409  17.820  24.245  1.00  0.00     0.163 C 
ATOM     27  O   UNL A   1      32.441  17.732  22.547  1.00  0.00    -0.224 OA
ATOM     28  O   UNL A   1      31.918  17.746  25.017  1.00  0.00    -0.224 OA
ENDBRANCH  20  25
ENDBRANCH  15  19
BRANCH  18  29
ATOM     29  C   UNL A   1      30.085  27.018  23.301  1.00  0.00    -0.023 A 
ATOM     30  C   UNL A   1      29.809  28.268  22.720  1.00  0.00     0.009 A 
ATOM     31  C   UNL A   1      29.011  26.327  23.906  1.00  0.00     0.009 A 
ATOM     32  C   UNL A   1      28.515  28.804  22.748  1.00  0.00     0.039 A 
ATOM     33  C   UNL A   1      27.715  26.849  23.908  1.00  0.00     0.039 A 
ATOM     34  C   UNL A   1      27.479  28.086  23.331  1.00  0.00     0.123 A 
ATOM     35  F   UNL A   1      26.240  28.590  23.328  1.00  0.00    -0.207 F 
ENDBRANCH  18  29
ENDBRANCH   9  14
ENDBRANCH   5   8
ENDBRANCH   3   4
ENDBRANCH   2   3
ENDBRANCH   1   2
BRANCH   1  36
ATOM     36  C   UNL A   1      37.369  32.376  29.845  1.00  0.00     0.002 C 
BRANCH  36  37
ATOM     37  C   UNL A   1      36.290  32.934  30.777  1.00  0.00     0.021 C 
BRANCH  37  38
ATOM     38  C   UNL A   1      35.812  31.946  31.836  1.00  0.00     0.116 C 
BRANCH  38  39
ATOM     39  N   UNL A   1      35.951  32.495  33.177  1.00  0.00    -0.352 N 
ATOM     40  C   UNL A   1      37.014  32.411  34.041  1.00  0.00     0.251 C 
ATOM     41  H   UNL A   1      35.173  32.997  33.511  1.00  0.00     0.163 HD
ATOM     42  O   UNL A   1      36.871  32.711  35.222  1.00  0.00    -0.269 OA
BRANCH  40  43
ATOM     43  C   UNL A   1      38.325  31.949  33.541  1.00  0.00     0.039 A 
ATOM     44  C   UNL A   1      38.728  30.636  33.796  1.00  0.00     0.014 A 
ATOM     45  C   UNL A   1      39.159  32.817  32.829  1.00  0.00     0.014 A 
ATOM     46  C   UNL A   1      39.948  30.180  33.293  1.00  0.00     0.010 A 
ATOM     47  C   UNL A   1      40.335  32.337  32.262  1.00  0.00     0.010 A 
ATOM     48  C   UNL A   1      40.749  31.018  32.498  1.00  0.00    -0.014 A 
BRANCH  48  49
ATOM     49  C   UNL A   1      42.026  30.537  31.914  1.00  0.00     0.031 A 
ATOM     50  C   UNL A   1      43.296  31.313  32.137  1.00  0.00     0.074 A 
ATOM     51  C   UNL A   1      42.033  29.432  31.143  1.00  0.00     0.049 A 
ATOM     52  N   UNL A   1      44.500  31.072  31.682  1.00  0.00    -0.248 NA
ATOM     53  C   UNL A   1      43.197  32.531  32.956  1.00  0.00     0.031 C 
ATOM     54  C   UNL A   1      40.862  28.610  30.831  1.00  0.00     0.029 A 
ATOM     55  N   UNL A   1      43.062  28.808  30.484  1.00  0.00    -0.354 N 
ATOM     56  C   UNL A   1      45.295  32.111  32.153  1.00  0.00     0.074 A 
ATOM     57  C   UNL A   1      44.425  33.016  32.871  1.00  0.00     0.031 C 
ATOM     58  C   UNL A   1      41.246  27.567  30.078  1.00  0.00     0.029 A 
ATOM     59  C   UNL A   1      42.677  27.671  29.816  1.00  0.00     0.049 A 
ATOM     60  H   UNL A   1      43.987  29.143  30.491  1.00  0.00     0.167 HD
ATOM     61  C   UNL A   1      46.633  32.285  32.021  1.00  0.00     0.031 A 
ATOM     62  C   UNL A   1      43.398  26.807  29.074  1.00  0.00     0.031 A 
ATOM     63  C   UNL A   1      47.492  31.385  31.298  1.00  0.00     0.049 A 
ATOM     64  C   UNL A   1      44.873  27.044  28.903  1.00  0.00     0.074 A 
ATOM     65  C   UNL A   1      48.864  31.450  31.133  1.00  0.00     0.029 A 
ATOM     66  N   UNL A   1      47.060  30.257  30.615  1.00  0.00    -0.354 N 
ATOM     67  N   UNL A   1      45.619  28.002  29.401  1.00  0.00    -0.248 NA
ATOM     68  C   UNL A   1      45.606  26.075  28.077  1.00  0.00     0.031 C 
ATOM     69  C   UNL A   1      49.255  30.395  30.301  1.00  0.00     0.029 A 
ATOM     70  C   UNL A   1      48.136  29.633  30.004  1.00  0.00     0.049 A 
ATOM     71  H   UNL A   1      46.127  29.947  30.570  1.00  0.00     0.167 HD
ATOM     72  C   UNL A   1      46.916  27.731  28.977  1.00  0.00     0.074 A 
ATOM     73  C   UNL A   1      46.852  26.516  28.191  1.00  0.00     0.031 C 
ATOM     74  C   UNL A   1      48.056  28.424  29.221  1.00  0.00     0.031 A 
BRANCH  61  75
ATOM     75  C   UNL A   1      47.236  33.508  32.666  1.00  0.00    -0.014 A 
ATOM     76  C   UNL A   1      47.706  33.474  33.993  1.00  0.00     0.010 A 
ATOM     77  C   UNL A   1      47.336  34.708  31.940  1.00  0.00     0.010 A 
ATOM     78  C   UNL A   1      48.202  34.630  34.600  1.00  0.00     0.020 A 
ATOM     79  C   UNL A   1      47.864  35.859  32.532  1.00  0.00     0.020 A 
ATOM     80  C   UNL A   1      48.270  35.819  33.868  1.00  0.00     0.054 A 
BRANCH  80  81
ATOM     81  S   UNL A   1      48.904  37.308  34.686  1.00  0.00     0.124 S 
ATOM     82  O   UNL A   1      50.313  36.968  34.877  1.00  0.00    -0.237 OA
ATOM     83  O   UNL A   1      48.640  38.353  33.700  1.00  0.00    -0.237 OA
ATOM     84  O   UNL A   1      48.114  37.395  35.911  1.00  0.00    -0.744 OA
ENDBRANCH  80  81
ENDBRANCH  61  75
BRANCH  62  85
ATOM     85  C   UNL A   1      42.738  25.616  28.471  1.00  0.00    -0.014 A 
ATOM     86  C   UNL A   1      42.788  24.372  29.125  1.00  0.00     0.010 A 
ATOM     87  C   UNL A   1      42.040  25.719  27.254  1.00  0.00     0.010 A 
ATOM     88  C   UNL A   1      42.165  23.252  28.569  1.00  0.00     0.020 A 
ATOM     89  C   UNL A   1      41.391  24.608  26.709  1.00  0.00     0.020 A 
ATOM     90  C   UNL A   1      41.465  23.378  27.366  1.00  0.00     0.054 A 
BRANCH  90  91
ATOM     91  S   UNL A   1      40.616  21.923  26.693  1.00  0.00     0.124 S 
ATOM     92  O   UNL A   1      40.623  21.013  27.834  1.00  0.00    -0.237 OA
ATOM     93  O   UNL A   1      39.311  22.464  26.322  1.00  0.00    -0.237 OA
ATOM     94  O   UNL A   1      41.459  21.523  25.568  1.00  0.00    -0.744 OA
ENDBRANCH  90  91
ENDBRANCH  62  85
BRANCH  74  95
ATOM     95  C   UNL A   1      49.339  27.863  28.666  1.00  0.00    -0.014 A 
ATOM     96  C   UNL A   1      49.810  28.230  27.392  1.00  0.00     0.010 A 
ATOM     97  C   UNL A   1      50.109  26.988  29.455  1.00  0.00     0.010 A 
ATOM     98  C   UNL A   1      51.011  27.705  26.906  1.00  0.00     0.020 A 
ATOM     99  C   UNL A   1      51.326  26.488  28.985  1.00  0.00     0.020 A 
ATOM    100  C   UNL A   1      51.762  26.838  27.706  1.00  0.00     0.054 A 
BRANCH 100 101
ATOM    101  S   UNL A   1      53.337  26.206  27.067  1.00  0.00     0.124 S 
ATOM    102  O   UNL A   1      53.794  27.312  26.230  1.00  0.00    -0.237 OA
ATOM    103  O   UNL A   1      54.109  25.980  28.287  1.00  0.00    -0.237 OA
ATOM    104  O   UNL A   1      52.957  24.994  26.345  1.00  0.00    -0.744 OA
ENDBRANCH 100 101
ENDBRANCH  74  95
ENDBRANCH  48  49
ENDBRANCH  40  43
ENDBRANCH  38  39
ENDBRANCH  37  38
ENDBRANCH  36  37
ENDBRANCH   1  36
TORSDOF 20
ENDMDL
MODEL 2
REMARK VINA RESULT:     -10.8      4.571      9.788
REMARK SMILES CS(=O)(=O)c1ccc(C2=NN(c3ccc(C(=O)NCCCCCCNC(=O)c4ccc(-c5c6nc(c(-c7ccc(S(=O)(=O)[O-])cc7)c7ccc([nH]7)c(-c7ccc(S(=O)(=O)[O-])cc7)c7nc(c(-c8ccc(S(=O)(=O)[O-])cc8)c8ccc5[nH]8)C=C7)C=C6)cc4)cc3)[C@H](c3ccc(F)cc3)C2)cc1
REMARK SMILES IDX 21 1 20 2 19 3 18 4 16 5 17 6 15 8 12 9 13 10 89 11 14 12
REMARK SMILES IDX 88 13 11 14 9 15 10 16 98 17 90 18 8 19 5 20 6 21 100 22
REMARK SMILES IDX 7 23 99 24 2 25 1 26 3 27 4 28 91 29 92 30 97 31 93 32 96 33
REMARK SMILES IDX 94 34 95 35 22 36 23 37 24 38 25 39 26 40 27 42 28 43 29 44
REMARK SMILES IDX 87 45 30 46 86 47 31 48 32 49 33 50 80 51 34 52 85 53 79 54
REMARK SMILES IDX 81 55 35 56 84 57 78 58 77 59 36 61 66 62 47 63 65 64 48 65
REMARK SMILES IDX 51 66 64 67 82 68 49 69 50 70 63 72 83 73 52 74 37 75 38 76
REMARK SMILES IDX 46 77 39 78 45 79 40 80 41 81 42 82 43 83 44 84 67 85 68 86
REMARK SMILES IDX 76 87 69 88 75 89 70 90 71 91 72 92 73 93 74 94 53 95 54 96
REMARK SMILES IDX 62 97 55 98 61 99 56 100 57 101 58 102 59 103 60 104
REMARK H PARENT 18 7 25 41 81 60 51 71
REMARK Flexibility Score: inf
ROOT
ATOM      1  C   UNL A   1      41.994  24.539  27.766  1.00  0.00     0.002 C 
ENDROOT
BRANCH   1   2
ATOM      2  C   UNL A   1      40.733  25.406  27.682  1.00  0.00     0.021 C 
BRANCH   2   3
ATOM      3  C   UNL A   1      39.731  24.911  26.636  1.00  0.00     0.116 C 
BRANCH   3   4
ATOM      4  N   UNL A   1      39.876  23.479  26.444  1.00  0.00    -0.352 N 
ATOM      5  C   UNL A   1      38.980  22.527  26.030  1.00  0.00     0.251 C 
ATOM      6  O   UNL A   1      39.368  21.365  25.917  1.00  0.00    -0.269 OA
ATOM      7  H   UNL A   1      40.774  23.132  26.646  1.00  0.00     0.163 HD
BRANCH   5   8
ATOM      8  C   UNL A   1      37.586  22.872  25.648  1.00  0.00     0.039 A 
ATOM      9  C   UNL A   1      34.875  23.378  25.078  1.00  0.00     0.060 A 
ATOM     10  C   UNL A   1      35.348  23.456  26.391  1.00  0.00     0.029 A 
ATOM     11  C   UNL A   1      35.788  23.124  24.052  1.00  0.00     0.029 A 
ATOM     12  C   UNL A   1      36.694  23.201  26.678  1.00  0.00     0.016 A 
ATOM     13  C   UNL A   1      37.136  22.900  24.328  1.00  0.00     0.016 A 
BRANCH   9  14
ATOM     14  N   UNL A   1      33.543  23.587  24.757  1.00  0.00    -0.257 N 
ATOM     15  C   UNL A   1      31.886  24.900  24.599  1.00  0.00     0.071 C 
ATOM     16  N   UNL A   1      33.169  24.845  24.440  1.00  0.00    -0.176 NA
ATOM     17  C   UNL A   1      31.230  23.658  25.129  1.00  0.00     0.091 C 
ATOM     18  C   UNL A   1      32.451  22.719  25.215  1.00  0.00     0.144 C 
BRANCH  15  19
ATOM     19  C   UNL A   1      31.134  26.110  24.250  1.00  0.00    -0.002 A 
ATOM     20  C   UNL A   1      29.643  28.310  23.442  1.00  0.00     0.067 A 
ATOM     21  C   UNL A   1      29.048  27.047  23.446  1.00  0.00     0.021 A 
ATOM     22  C   UNL A   1      30.981  28.473  23.834  1.00  0.00     0.021 A 
ATOM     23  C   UNL A   1      29.804  25.945  23.842  1.00  0.00     0.011 A 
ATOM     24  C   UNL A   1      31.730  27.370  24.250  1.00  0.00     0.011 A 
BRANCH  20  25
ATOM     25  S   UNL A   1      28.757  29.760  22.922  1.00  0.00     0.175 S 
ATOM     26  C   UNL A   1      29.362  31.124  23.875  1.00  0.00     0.163 C 
ATOM     27  O   UNL A   1      27.373  29.551  23.297  1.00  0.00    -0.224 OA
ATOM     28  O   UNL A   1      29.131  29.987  21.538  1.00  0.00    -0.224 OA
ENDBRANCH  20  25
ENDBRANCH  15  19
BRANCH  18  29
ATOM     29  C   UNL A   1      32.420  21.417  24.414  1.00  0.00    -0.023 A 
ATOM     30  C   UNL A   1      32.583  20.139  24.976  1.00  0.00     0.009 A 
ATOM     31  C   UNL A   1      32.165  21.494  23.026  1.00  0.00     0.009 A 
ATOM     32  C   UNL A   1      32.499  18.989  24.181  1.00  0.00     0.039 A 
ATOM     33  C   UNL A   1      32.053  20.345  22.239  1.00  0.00     0.039 A 
ATOM     34  C   UNL A   1      32.225  19.101  22.824  1.00  0.00     0.123 A 
ATOM     35  F   UNL A   1      32.116  17.997  22.076  1.00  0.00    -0.207 F 
ENDBRANCH  18  29
ENDBRANCH   9  14
ENDBRANCH   5   8
ENDBRANCH   3   4
ENDBRANCH   2   3
ENDBRANCH   1   2
BRANCH   1  36
ATOM     36  C   UNL A   1      43.010  24.784  26.645  1.00  0.00     0.002 C 
BRANCH  36  37
ATOM     37  C   UNL A   1      43.694  23.523  26.112  1.00  0.00     0.021 C 
BRANCH  37  38
ATOM     38  C   UNL A   1      45.077  23.269  26.703  1.00  0.00     0.116 C 
BRANCH  38  39
ATOM     39  N   UNL A   1      46.120  23.410  25.697  1.00  0.00    -0.352 N 
ATOM     40  C   UNL A   1      46.620  24.551  25.124  1.00  0.00     0.251 C 
ATOM     41  H   UNL A   1      46.523  22.568  25.385  1.00  0.00     0.163 HD
ATOM     42  O   UNL A   1      47.315  24.479  24.115  1.00  0.00    -0.269 OA
BRANCH  40  43
ATOM     43  C   UNL A   1      46.309  25.866  25.723  1.00  0.00     0.039 A 
ATOM     44  C   UNL A   1      46.830  26.183  26.979  1.00  0.00     0.014 A 
ATOM     45  C   UNL A   1      45.493  26.778  25.046  1.00  0.00     0.014 A 
ATOM     46  C   UNL A   1      46.574  27.438  27.534  1.00  0.00     0.010 A 
ATOM     47  C   UNL A   1      45.305  28.055  25.566  1.00  0.00     0.010 A 
ATOM     48  C   UNL A   1      45.833  28.395  26.819  1.00  0.00    -0.014 A 
BRANCH  48  49
ATOM     49  C   UNL A   1      45.589  29.751  27.372  1.00  0.00     0.031 A 
ATOM     50  C   UNL A   1      46.608  30.840  27.173  1.00  0.00     0.074 A 
ATOM     51  C   UNL A   1      44.477  29.987  28.095  1.00  0.00     0.049 A 
ATOM     52  N   UNL A   1      46.591  32.075  27.607  1.00  0.00    -0.248 NA
ATOM     53  C   UNL A   1      47.815  30.491  26.407  1.00  0.00     0.031 C 
ATOM     54  C   UNL A   1      43.428  29.005  28.381  1.00  0.00     0.029 A 
ATOM     55  N   UNL A   1      44.042  31.129  28.719  1.00  0.00    -0.354 N 
ATOM     56  C   UNL A   1      47.784  32.644  27.175  1.00  0.00     0.074 A 
ATOM     57  C   UNL A   1      48.529  31.602  26.503  1.00  0.00     0.031 C 
ATOM     58  C   UNL A   1      42.453  29.599  29.086  1.00  0.00     0.029 A 
ATOM     59  C   UNL A   1      42.825  30.986  29.342  1.00  0.00     0.049 A 
ATOM     60  H   UNL A   1      44.553  31.970  28.719  1.00  0.00     0.167 HD
ATOM     61  C   UNL A   1      48.213  33.923  27.304  1.00  0.00     0.031 A 
ATOM     62  C   UNL A   1      42.091  31.874  30.041  1.00  0.00     0.031 A 
ATOM     63  C   UNL A   1      47.471  34.954  27.981  1.00  0.00     0.049 A 
ATOM     64  C   UNL A   1      42.606  33.276  30.210  1.00  0.00     0.074 A 
ATOM     65  C   UNL A   1      47.798  36.289  28.138  1.00  0.00     0.029 A 
ATOM     66  N   UNL A   1      46.254  34.763  28.619  1.00  0.00    -0.354 N 
ATOM     67  N   UNL A   1      43.712  33.811  29.748  1.00  0.00    -0.248 NA
ATOM     68  C   UNL A   1      41.768  34.198  30.989  1.00  0.00     0.031 C 
ATOM     69  C   UNL A   1      46.808  36.892  28.922  1.00  0.00     0.029 A 
ATOM     70  C   UNL A   1      45.829  35.949  29.195  1.00  0.00     0.049 A 
ATOM     71  H   UNL A   1      45.765  33.909  28.658  1.00  0.00     0.167 HD
ATOM     72  C   UNL A   1      43.685  35.143  30.150  1.00  0.00     0.074 A 
ATOM     73  C   UNL A   1      42.450  35.331  30.884  1.00  0.00     0.031 C 
ATOM     74  C   UNL A   1      44.598  36.121  29.926  1.00  0.00     0.031 A 
BRANCH  61  75
ATOM     75  C   UNL A   1      49.555  34.264  26.707  1.00  0.00    -0.014 A 
ATOM     76  C   UNL A   1      49.654  34.930  25.470  1.00  0.00     0.010 A 
ATOM     77  C   UNL A   1      50.735  33.916  27.387  1.00  0.00     0.010 A 
ATOM     78  C   UNL A   1      50.903  35.182  24.897  1.00  0.00     0.020 A 
ATOM     79  C   UNL A   1      51.988  34.197  26.834  1.00  0.00     0.020 A 
ATOM     80  C   UNL A   1      52.063  34.805  25.579  1.00  0.00     0.054 A 
BRANCH  80  81
ATOM     81  S   UNL A   1      53.670  35.131  24.805  1.00  0.00     0.124 S 
ATOM     82  O   UNL A   1      53.394  34.830  23.402  1.00  0.00    -0.237 OA
ATOM     83  O   UNL A   1      53.895  36.542  25.111  1.00  0.00    -0.237 OA
ATOM     84  O   UNL A   1      54.574  34.199  25.475  1.00  0.00    -0.744 OA
ENDBRANCH  80  81
ENDBRANCH  61  75
BRANCH  62  85
ATOM     85  C   UNL A   1      40.770  31.470  30.597  1.00  0.00    -0.014 A 
ATOM     86  C   UNL A   1      40.693  30.858  31.861  1.00  0.00     0.010 A 
ATOM     87  C   UNL A   1      39.584  31.710  29.881  1.00  0.00     0.010 A 
ATOM     88  C   UNL A   1      39.456  30.483  32.392  1.00  0.00     0.020 A 
ATOM     89  C   UNL A   1      38.343  31.363  30.422  1.00  0.00     0.020 A 
ATOM     90  C   UNL A   1      38.287  30.742  31.672  1.00  0.00     0.054 A 
BRANCH  90  91
ATOM     91  S   UNL A   1      36.691  30.297  32.408  1.00  0.00     0.124 S 
ATOM     92  O   UNL A   1      35.877  30.025  31.228  1.00  0.00    -0.237 OA
ATOM     93  O   UNL A   1      37.033  29.135  33.223  1.00  0.00    -0.237 OA
ATOM     94  O   UNL A   1      36.318  31.491  33.165  1.00  0.00    -0.744 OA
ENDBRANCH  90  91
ENDBRANCH  62  85
BRANCH  74  95
ATOM     95  C   UNL A   1      44.279  37.498  30.448  1.00  0.00    -0.014 A 
ATOM     96  C   UNL A   1      43.652  38.462  29.638  1.00  0.00     0.010 A 
ATOM     97  C   UNL A   1      44.571  37.813  31.787  1.00  0.00     0.010 A 
ATOM     98  C   UNL A   1      43.355  39.728  30.150  1.00  0.00     0.020 A 
ATOM     99  C   UNL A   1      44.245  39.067  32.312  1.00  0.00     0.020 A 
ATOM    100  C   UNL A   1      43.652  40.022  31.485  1.00  0.00     0.054 A 
BRANCH 100 101
ATOM    101  S   UNL A   1      43.217  41.658  32.136  1.00  0.00     0.124 S 
ATOM    102  O   UNL A   1      44.305  41.912  33.076  1.00  0.00    -0.237 OA
ATOM    103  O   UNL A   1      43.217  42.489  30.934  1.00  0.00    -0.237 OA
ATOM    104  O   UNL A   1      41.904  41.452  32.743  1.00  0.00    -0.744 OA
ENDBRANCH 100 101
ENDBRANCH  74  95
ENDBRANCH  48  49
ENDBRANCH  40  43
ENDBRANCH  38  39
ENDBRANCH  37  38
ENDBRANCH  36  37
ENDBRANCH   1  36
TORSDOF 20
ENDMDL
MODEL 3
REMARK VINA RESULT:     -10.3      5.449     10.258
REMARK SMILES CS(=O)(=O)c1ccc(C2=NN(c3ccc(C(=O)NCCCCCCNC(=O)c4ccc(-c5c6nc(c(-c7ccc(S(=O)(=O)[O-])cc7)c7ccc([nH]7)c(-c7ccc(S(=O)(=O)[O-])cc7)c7nc(c(-c8ccc(S(=O)(=O)[O-])cc8)c8ccc5[nH]8)C=C7)C=C6)cc4)cc3)[C@H](c3ccc(F)cc3)C2)cc1
REMARK SMILES IDX 21 1 20 2 19 3 18 4 16 5 17 6 15 8 12 9 13 10 89 11 14 12
REMARK SMILES IDX 88 13 11 14 9 15 10 16 98 17 90 18 8 19 5 20 6 21 100 22
REMARK SMILES IDX 7 23 99 24 2 25 1 26 3 27 4 28 91 29 92 30 97 31 93 32 96 33
REMARK SMILES IDX 94 34 95 35 22 36 23 37 24 38 25 39 26 40 27 42 28 43 29 44
REMARK SMILES IDX 87 45 30 46 86 47 31 48 32 49 33 50 80 51 34 52 85 53 79 54
REMARK SMILES IDX 81 55 35 56 84 57 78 58 77 59 36 61 66 62 47 63 65 64 48 65
REMARK SMILES IDX 51 66 64 67 82 68 49 69 50 70 63 72 83 73 52 74 37 75 38 76
REMARK SMILES IDX 46 77 39 78 45 79 40 80 41 81 42 82 43 83 44 84 67 85 68 86
REMARK SMILES IDX 76 87 69 88 75 89 70 90 71 91 72 92 73 93 74 94 53 95 54 96
REMARK SMILES IDX 62 97 55 98 61 99 56 100 57 101 58 102 59 103 60 104
REMARK H PARENT 18 7 25 41 81 60 51 71
REMARK Flexibility Score: inf
ROOT
ATOM      1  C   UNL A   1      41.684  25.890  27.311  1.00  0.00     0.002 C 
ENDROOT
BRANCH   1   2
ATOM      2  C   UNL A   1      40.685  25.672  26.169  1.00  0.00     0.021 C 
BRANCH   2   3
ATOM      3  C   UNL A   1      39.466  24.846  26.586  1.00  0.00     0.116 C 
BRANCH   3   4
ATOM      4  N   UNL A   1      39.743  23.430  26.423  1.00  0.00    -0.352 N 
ATOM      5  C   UNL A   1      38.927  22.383  26.078  1.00  0.00     0.251 C 
ATOM      6  O   UNL A   1      39.422  21.261  25.974  1.00  0.00    -0.269 OA
ATOM      7  H   UNL A   1      40.680  23.178  26.588  1.00  0.00     0.163 HD
BRANCH   5   8
ATOM      8  C   UNL A   1      37.489  22.578  25.757  1.00  0.00     0.039 A 
ATOM      9  C   UNL A   1      34.811  22.884  24.939  1.00  0.00     0.060 A 
ATOM     10  C   UNL A   1      35.491  21.684  24.704  1.00  0.00     0.029 A 
ATOM     11  C   UNL A   1      35.462  23.891  25.655  1.00  0.00     0.029 A 
ATOM     12  C   UNL A   1      36.822  21.531  25.106  1.00  0.00     0.016 A 
ATOM     13  C   UNL A   1      36.778  23.732  26.085  1.00  0.00     0.016 A 
BRANCH   9  14
ATOM     14  N   UNL A   1      33.506  23.089  24.525  1.00  0.00    -0.257 N 
ATOM     15  C   UNL A   1      31.876  24.409  24.208  1.00  0.00     0.071 C 
ATOM     16  N   UNL A   1      33.165  24.337  24.135  1.00  0.00    -0.176 NA
ATOM     17  C   UNL A   1      31.174  23.194  24.745  1.00  0.00     0.091 C 
ATOM     18  C   UNL A   1      32.377  22.250  24.947  1.00  0.00     0.144 C 
BRANCH  15  19
ATOM     19  C   UNL A   1      31.160  25.609  23.763  1.00  0.00    -0.002 A 
ATOM     20  C   UNL A   1      29.936  27.983  23.000  1.00  0.00     0.067 A 
ATOM     21  C   UNL A   1      31.311  27.834  22.815  1.00  0.00     0.021 A 
ATOM     22  C   UNL A   1      29.174  26.951  23.570  1.00  0.00     0.021 A 
ATOM     23  C   UNL A   1      31.922  26.645  23.210  1.00  0.00     0.011 A 
ATOM     24  C   UNL A   1      29.785  25.752  23.946  1.00  0.00     0.011 A 
BRANCH  20  25
ATOM     25  S   UNL A   1      29.088  29.478  22.551  1.00  0.00     0.175 S 
ATOM     26  C   UNL A   1      29.466  30.695  23.780  1.00  0.00     0.163 C 
ATOM     27  O   UNL A   1      27.670  29.191  22.649  1.00  0.00    -0.224 OA
ATOM     28  O   UNL A   1      29.678  29.916  21.298  1.00  0.00    -0.224 OA
ENDBRANCH  20  25
ENDBRANCH  15  19
BRANCH  18  29
ATOM     29  C   UNL A   1      32.384  20.917  24.198  1.00  0.00    -0.023 A 
ATOM     30  C   UNL A   1      32.509  19.662  24.819  1.00  0.00     0.009 A 
ATOM     31  C   UNL A   1      32.205  20.938  22.797  1.00  0.00     0.009 A 
ATOM     32  C   UNL A   1      32.463  18.481  24.068  1.00  0.00     0.039 A 
ATOM     33  C   UNL A   1      32.130  19.758  22.052  1.00  0.00     0.039 A 
ATOM     34  C   UNL A   1      32.264  18.539  22.695  1.00  0.00     0.123 A 
ATOM     35  F   UNL A   1      32.191  17.406  21.987  1.00  0.00    -0.207 F 
ENDBRANCH  18  29
ENDBRANCH   9  14
ENDBRANCH   5   8
ENDBRANCH   3   4
ENDBRANCH   2   3
ENDBRANCH   1   2
BRANCH   1  36
ATOM     36  C   UNL A   1      42.731  24.780  27.460  1.00  0.00     0.002 C 
BRANCH  36  37
ATOM     37  C   UNL A   1      43.852  25.086  28.457  1.00  0.00     0.021 C 
BRANCH  37  38
ATOM     38  C   UNL A   1      44.433  23.850  29.136  1.00  0.00     0.116 C 
BRANCH  38  39
ATOM     39  N   UNL A   1      44.971  22.911  28.164  1.00  0.00    -0.352 N 
ATOM     40  C   UNL A   1      45.754  23.159  27.064  1.00  0.00     0.251 C 
ATOM     41  H   UNL A   1      44.742  21.967  28.315  1.00  0.00     0.163 HD
ATOM     42  O   UNL A   1      45.909  22.290  26.211  1.00  0.00    -0.269 OA
BRANCH  40  43
ATOM     43  C   UNL A   1      46.399  24.479  26.910  1.00  0.00     0.039 A 
ATOM     44  C   UNL A   1      47.295  24.918  27.888  1.00  0.00     0.014 A 
ATOM     45  C   UNL A   1      46.111  25.285  25.805  1.00  0.00     0.014 A 
ATOM     46  C   UNL A   1      47.940  26.146  27.730  1.00  0.00     0.010 A 
ATOM     47  C   UNL A   1      46.813  26.470  25.611  1.00  0.00     0.010 A 
ATOM     48  C   UNL A   1      47.725  26.919  26.576  1.00  0.00    -0.014 A 
BRANCH  48  49
ATOM     49  C   UNL A   1      48.437  28.205  26.367  1.00  0.00     0.031 A 
ATOM     50  C   UNL A   1      47.731  29.508  26.628  1.00  0.00     0.074 A 
ATOM     51  C   UNL A   1      49.699  28.201  25.895  1.00  0.00     0.049 A 
ATOM     52  N   UNL A   1      48.172  30.731  26.471  1.00  0.00    -0.248 NA
ATOM     53  C   UNL A   1      46.340  29.429  27.102  1.00  0.00     0.031 C 
ATOM     54  C   UNL A   1      50.480  27.003  25.578  1.00  0.00     0.029 A 
ATOM     55  N   UNL A   1      50.548  29.238  25.603  1.00  0.00    -0.354 N 
ATOM     56  C   UNL A   1      47.112  31.562  26.819  1.00  0.00     0.074 A 
ATOM     57  C   UNL A   1      45.989  30.705  27.130  1.00  0.00     0.031 C 
ATOM     58  C   UNL A   1      51.707  27.373  25.177  1.00  0.00     0.029 A 
ATOM     59  C   UNL A   1      51.785  28.830  25.164  1.00  0.00     0.049 A 
ATOM     60  H   UNL A   1      50.295  30.184  25.699  1.00  0.00     0.167 HD
ATOM     61  C   UNL A   1      47.081  32.914  26.897  1.00  0.00     0.031 A 
ATOM     62  C   UNL A   1      52.862  29.550  24.794  1.00  0.00     0.031 A 
ATOM     63  C   UNL A   1      48.200  33.762  26.578  1.00  0.00     0.049 A 
ATOM     64  C   UNL A   1      52.792  31.051  24.844  1.00  0.00     0.074 A 
ATOM     65  C   UNL A   1      48.285  35.141  26.656  1.00  0.00     0.029 A 
ATOM     66  N   UNL A   1      49.427  33.311  26.115  1.00  0.00    -0.354 N 
ATOM     67  N   UNL A   1      51.799  31.818  25.228  1.00  0.00    -0.248 NA
ATOM     68  C   UNL A   1      53.993  31.783  24.420  1.00  0.00     0.031 C 
ATOM     69  C   UNL A   1      49.545  35.528  26.184  1.00  0.00     0.029 A 
ATOM     70  C   UNL A   1      50.268  34.386  25.877  1.00  0.00     0.049 A 
ATOM     71  H   UNL A   1      49.665  32.366  25.975  1.00  0.00     0.167 HD
ATOM     72  C   UNL A   1      52.268  33.124  25.125  1.00  0.00     0.074 A 
ATOM     73  C   UNL A   1      53.635  33.038  24.652  1.00  0.00     0.031 C 
ATOM     74  C   UNL A   1      51.627  34.286  25.402  1.00  0.00     0.031 A 
BRANCH  61  75
ATOM     75  C   UNL A   1      45.785  33.551  27.332  1.00  0.00    -0.014 A 
ATOM     76  C   UNL A   1      44.917  34.148  26.397  1.00  0.00     0.010 A 
ATOM     77  C   UNL A   1      45.426  33.555  28.691  1.00  0.00     0.010 A 
ATOM     78  C   UNL A   1      43.751  34.791  26.821  1.00  0.00     0.020 A 
ATOM     79  C   UNL A   1      44.243  34.167  29.116  1.00  0.00     0.020 A 
ATOM     80  C   UNL A   1      43.427  34.805  28.180  1.00  0.00     0.054 A 
BRANCH  80  81
ATOM     81  S   UNL A   1      41.916  35.660  28.703  1.00  0.00     0.124 S 
ATOM     82  O   UNL A   1      41.080  35.551  27.509  1.00  0.00    -0.237 OA
ATOM     83  O   UNL A   1      41.478  34.867  29.849  1.00  0.00    -0.237 OA
ATOM     84  O   UNL A   1      42.373  37.010  29.021  1.00  0.00    -0.744 OA
ENDBRANCH  80  81
ENDBRANCH  61  75
BRANCH  62  85
ATOM     85  C   UNL A   1      54.112  28.854  24.380  1.00  0.00    -0.014 A 
ATOM     86  C   UNL A   1      54.367  28.607  23.020  1.00  0.00     0.010 A 
ATOM     87  C   UNL A   1      55.063  28.454  25.337  1.00  0.00     0.010 A 
ATOM     88  C   UNL A   1      55.542  27.961  22.625  1.00  0.00     0.020 A 
ATOM     89  C   UNL A   1      56.252  27.834  24.943  1.00  0.00     0.020 A 
ATOM     90  C   UNL A   1      56.480  27.582  23.588  1.00  0.00     0.054 A 
BRANCH  90  91
ATOM     91  S   UNL A   1      58.022  26.798  23.045  1.00  0.00     0.124 S 
ATOM     92  O   UNL A   1      58.382  25.995  24.210  1.00  0.00    -0.237 OA
ATOM     93  O   UNL A   1      57.595  26.047  21.867  1.00  0.00    -0.237 OA
ATOM     94  O   UNL A   1      58.904  27.929  22.767  1.00  0.00    -0.744 OA
ENDBRANCH  90  91
ENDBRANCH  62  85
BRANCH  74  95
ATOM     95  C   UNL A   1      52.408  35.564  25.240  1.00  0.00    -0.014 A 
ATOM     96  C   UNL A   1      52.391  36.287  24.034  1.00  0.00     0.010 A 
ATOM     97  C   UNL A   1      53.135  36.072  26.332  1.00  0.00     0.010 A 
ATOM     98  C   UNL A   1      53.114  37.477  23.914  1.00  0.00     0.020 A 
ATOM     99  C   UNL A   1      53.833  37.278  26.226  1.00  0.00     0.020 A 
ATOM    100  C   UNL A   1      53.829  37.966  25.012  1.00  0.00     0.054 A 
BRANCH 100 101
ATOM    101  S   UNL A   1      54.725  39.534  24.842  1.00  0.00     0.124 S 
ATOM    102  O   UNL A   1      54.509  40.152  26.147  1.00  0.00    -0.237 OA
ATOM    103  O   UNL A   1      56.092  39.093  24.573  1.00  0.00    -0.237 OA
ATOM    104  O   UNL A   1      54.058  40.194  23.722  1.00  0.00    -0.744 OA
ENDBRANCH 100 101
ENDBRANCH  74  95
ENDBRANCH  48  49
ENDBRANCH  40  43
ENDBRANCH  38  39
ENDBRANCH  37  38
ENDBRANCH  36  37
ENDBRANCH   1  36
TORSDOF 20
ENDMDL
