MODEL 1
REMARK VINA RESULT:     -10.3      0.000      0.000
REMARK SMILES C[C@H](Nc1ccc2c(c1)OCCO2)[C@H](C)C(=O)NCCCCCCNC(=O)c1ccc(-c2c3nc(c(-c4ccc(S(=O)(=O)[O-])cc4)c4ccc([nH]4)c(-c4ccc(S(=O)(=O)[O-])cc4)c4nc(c(-c5ccc(S(=O)(=O)[O-])cc5)c5ccc2[nH]5)C=C4)C=C3)cc1
REMARK SMILES IDX 21 1 20 2 19 3 18 4 16 5 17 6 14 8 15 9 2 10 1 11 3 12 4 14
REMARK SMILES IDX 5 15 9 16 6 17 8 18 7 19 10 20 13 21 11 22 12 23 22 24 23 25
REMARK SMILES IDX 24 26 25 27 26 28 27 30 28 31 29 32 87 33 30 34 86 35 31 36
REMARK SMILES IDX 32 37 33 38 80 39 34 40 85 41 79 42 81 43 35 44 84 45 78 46
REMARK SMILES IDX 77 47 36 49 66 50 47 51 65 52 48 53 51 54 64 55 82 56 49 57
REMARK SMILES IDX 50 58 63 60 83 61 52 62 37 63 38 64 46 65 39 66 45 67 40 68
REMARK SMILES IDX 41 69 42 70 43 71 44 72 67 73 68 74 76 75 69 76 75 77 70 78
REMARK SMILES IDX 71 79 72 80 73 81 74 82 53 83 54 84 62 85 55 86 61 87 56 88
REMARK SMILES IDX 57 89 58 90 59 91 60 92
REMARK H PARENT 18 7 3 13 25 29 81 48 51 59
REMARK Flexibility Score: inf
ROOT
ATOM      1  C   UNL A   1      37.376  21.976  24.335  1.00  0.00     0.002 C 
ENDROOT
BRANCH   1   2
ATOM      2  C   UNL A   1      36.645  23.164  24.956  1.00  0.00     0.021 C 
BRANCH   2   3
ATOM      3  C   UNL A   1      35.540  23.787  24.107  1.00  0.00     0.116 C 
BRANCH   3   4
ATOM      4  N   UNL A   1      34.772  24.804  24.812  1.00  0.00    -0.356 N 
ATOM      5  C   UNL A   1      33.626  25.488  24.584  1.00  0.00     0.224 C 
ATOM      6  O   UNL A   1      33.306  26.255  25.508  1.00  0.00    -0.275 OA
ATOM      7  H   UNL A   1      35.190  25.059  25.665  1.00  0.00     0.163 HD
BRANCH   5   8
ATOM      8  C   UNL A   1      32.677  25.403  23.367  1.00  0.00     0.097 C 
ATOM      9  C   UNL A   1      33.393  25.871  22.072  1.00  0.00     0.020 C 
BRANCH   8  10
ATOM     10  C   UNL A   1      31.732  24.241  23.061  1.00  0.00     0.088 C 
ATOM     11  C   UNL A   1      30.605  24.143  24.108  1.00  0.00     0.031 C 
BRANCH  10  12
ATOM     12  N   UNL A   1      32.248  22.907  22.705  1.00  0.00    -0.382 N 
ATOM     13  H   UNL A   1      32.588  22.871  21.782  1.00  0.00     0.160 HD
BRANCH  12  14
ATOM     14  C   UNL A   1      32.367  21.697  23.356  1.00  0.00     0.038 A 
ATOM     15  C   UNL A   1      32.852  21.688  24.678  1.00  0.00     0.030 A 
ATOM     16  C   UNL A   1      32.152  20.447  22.784  1.00  0.00     0.076 A 
ATOM     17  C   UNL A   1      33.199  20.501  25.342  1.00  0.00     0.052 A 
ATOM     18  C   UNL A   1      32.584  19.264  23.389  1.00  0.00     0.163 A 
ATOM     19  C   UNL A   1      33.128  19.294  24.662  1.00  0.00     0.161 A 
ATOM     20  O   UNL A   1      32.567  18.151  22.591  1.00  0.00    -0.486 OA
ATOM     21  O   UNL A   1      33.672  18.181  25.243  1.00  0.00    -0.486 OA
ATOM     22  C   UNL A   1      33.277  17.032  23.128  1.00  0.00     0.271 C 
ATOM     23  C   UNL A   1      34.282  17.393  24.214  1.00  0.00     0.271 C 
ENDBRANCH  12  14
ENDBRANCH  10  12
ENDBRANCH   8  10
ENDBRANCH   5   8
ENDBRANCH   3   4
ENDBRANCH   2   3
ENDBRANCH   1   2
BRANCH   1  24
ATOM     24  C   UNL A   1      37.081  20.632  25.003  1.00  0.00     0.002 C 
BRANCH  24  25
ATOM     25  C   UNL A   1      38.286  19.701  25.199  1.00  0.00     0.021 C 
BRANCH  25  26
ATOM     26  C   UNL A   1      39.427  20.272  26.039  1.00  0.00     0.116 C 
BRANCH  26  27
ATOM     27  N   UNL A   1      40.542  19.342  26.124  1.00  0.00    -0.352 N 
ATOM     28  C   UNL A   1      41.887  19.621  26.148  1.00  0.00     0.251 C 
ATOM     29  H   UNL A   1      40.302  18.388  26.171  1.00  0.00     0.163 HD
ATOM     30  O   UNL A   1      42.707  18.734  25.940  1.00  0.00    -0.269 OA
BRANCH  28  31
ATOM     31  C   UNL A   1      42.335  21.001  26.428  1.00  0.00     0.039 A 
ATOM     32  C   UNL A   1      42.555  21.395  27.749  1.00  0.00     0.014 A 
ATOM     33  C   UNL A   1      42.522  21.905  25.378  1.00  0.00     0.014 A 
ATOM     34  C   UNL A   1      43.004  22.692  28.015  1.00  0.00     0.010 A 
ATOM     35  C   UNL A   1      43.024  23.176  25.641  1.00  0.00     0.010 A 
ATOM     36  C   UNL A   1      43.259  23.588  26.963  1.00  0.00    -0.014 A 
BRANCH  36  37
ATOM     37  C   UNL A   1      43.749  24.964  27.228  1.00  0.00     0.031 A 
ATOM     38  C   UNL A   1      45.205  25.297  27.029  1.00  0.00     0.074 A 
ATOM     39  C   UNL A   1      42.899  25.901  27.692  1.00  0.00     0.049 A 
ATOM     40  N   UNL A   1      45.828  26.430  27.235  1.00  0.00    -0.248 NA
ATOM     41  C   UNL A   1      46.078  24.208  26.562  1.00  0.00     0.031 C 
ATOM     42  C   UNL A   1      41.475  25.693  27.964  1.00  0.00     0.029 A 
ATOM     43  N   UNL A   1      43.110  27.217  28.020  1.00  0.00    -0.354 N 
ATOM     44  C   UNL A   1      47.164  26.186  26.936  1.00  0.00     0.074 A 
ATOM     45  C   UNL A   1      47.270  24.787  26.586  1.00  0.00     0.031 C 
ATOM     46  C   UNL A   1      40.936  26.846  28.392  1.00  0.00     0.029 A 
ATOM     47  C   UNL A   1      41.979  27.866  28.458  1.00  0.00     0.049 A 
ATOM     48  H   UNL A   1      43.989  27.656  27.949  1.00  0.00     0.167 HD
ATOM     49  C   UNL A   1      48.205  27.052  26.933  1.00  0.00     0.031 A 
ATOM     50  C   UNL A   1      41.801  29.137  28.868  1.00  0.00     0.031 A 
ATOM     51  C   UNL A   1      48.094  28.447  27.272  1.00  0.00     0.049 A 
ATOM     52  C   UNL A   1      42.972  30.081  28.855  1.00  0.00     0.074 A 
ATOM     53  C   UNL A   1      49.078  29.419  27.251  1.00  0.00     0.029 A 
ATOM     54  N   UNL A   1      46.928  29.067  27.698  1.00  0.00    -0.354 N 
ATOM     55  N   UNL A   1      44.215  29.849  28.506  1.00  0.00    -0.248 NA
ATOM     56  C   UNL A   1      42.712  31.465  29.275  1.00  0.00     0.031 C 
ATOM     57  C   UNL A   1      48.519  30.617  27.709  1.00  0.00     0.029 A 
ATOM     58  C   UNL A   1      47.172  30.404  27.960  1.00  0.00     0.049 A 
ATOM     59  H   UNL A   1      46.056  28.621  27.799  1.00  0.00     0.167 HD
ATOM     60  C   UNL A   1      44.880  31.064  28.636  1.00  0.00     0.074 A 
ATOM     61  C   UNL A   1      43.897  32.031  29.080  1.00  0.00     0.031 C 
ATOM     62  C   UNL A   1      46.184  31.354  28.403  1.00  0.00     0.031 A 
BRANCH  49  63
ATOM     63  C   UNL A   1      49.559  26.512  26.551  1.00  0.00    -0.014 A 
ATOM     64  C   UNL A   1      50.444  26.015  27.524  1.00  0.00     0.010 A 
ATOM     65  C   UNL A   1      49.939  26.468  25.197  1.00  0.00     0.010 A 
ATOM     66  C   UNL A   1      51.701  25.526  27.157  1.00  0.00     0.020 A 
ATOM     67  C   UNL A   1      51.184  25.953  24.822  1.00  0.00     0.020 A 
ATOM     68  C   UNL A   1      52.064  25.501  25.808  1.00  0.00     0.054 A 
BRANCH  68  69
ATOM     69  S   UNL A   1      53.694  24.844  25.359  1.00  0.00     0.124 S 
ATOM     70  O   UNL A   1      54.443  25.023  26.601  1.00  0.00    -0.237 OA
ATOM     71  O   UNL A   1      53.394  23.460  25.001  1.00  0.00    -0.237 OA
ATOM     72  O   UNL A   1      54.118  25.694  24.249  1.00  0.00    -0.744 OA
ENDBRANCH  68  69
ENDBRANCH  49  63
BRANCH  50  73
ATOM     73  C   UNL A   1      40.453  29.598  29.301  1.00  0.00    -0.014 A 
ATOM     74  C   UNL A   1      40.143  29.718  30.667  1.00  0.00     0.010 A 
ATOM     75  C   UNL A   1      39.475  29.931  28.346  1.00  0.00     0.010 A 
ATOM     76  C   UNL A   1      38.874  30.145  31.071  1.00  0.00     0.020 A 
ATOM     77  C   UNL A   1      38.215  30.385  28.746  1.00  0.00     0.020 A 
ATOM     78  C   UNL A   1      37.918  30.477  30.107  1.00  0.00     0.054 A 
BRANCH  78  79
ATOM     79  S   UNL A   1      36.295  31.078  30.653  1.00  0.00     0.124 S 
ATOM     80  O   UNL A   1      36.614  32.415  31.142  1.00  0.00    -0.237 OA
ATOM     81  O   UNL A   1      35.508  31.023  29.425  1.00  0.00    -0.237 OA
ATOM     82  O   UNL A   1      35.903  30.112  31.679  1.00  0.00    -0.744 OA
ENDBRANCH  78  79
ENDBRANCH  50  73
BRANCH  62  83
ATOM     83  C   UNL A   1      46.618  32.784  28.587  1.00  0.00    -0.014 A 
ATOM     84  C   UNL A   1      46.540  33.716  27.537  1.00  0.00     0.010 A 
ATOM     85  C   UNL A   1      47.070  33.212  29.850  1.00  0.00     0.010 A 
ATOM     86  C   UNL A   1      46.942  35.040  27.736  1.00  0.00     0.020 A 
ATOM     87  C   UNL A   1      47.445  34.540  30.061  1.00  0.00     0.020 A 
ATOM     88  C   UNL A   1      47.395  35.442  28.996  1.00  0.00     0.054 A 
BRANCH  88  89
ATOM     89  S   UNL A   1      47.881  37.173  29.238  1.00  0.00     0.124 S 
ATOM     90  O   UNL A   1      47.313  37.467  30.550  1.00  0.00    -0.237 OA
ATOM     91  O   UNL A   1      49.339  37.108  29.184  1.00  0.00    -0.237 OA
ATOM     92  O   UNL A   1      47.253  37.869  28.116  1.00  0.00    -0.744 OA
ENDBRANCH  88  89
ENDBRANCH  62  83
ENDBRANCH  36  37
ENDBRANCH  28  31
ENDBRANCH  26  27
ENDBRANCH  25  26
ENDBRANCH  24  25
ENDBRANCH   1  24
TORSDOF 19
ENDMDL
MODEL 2
REMARK VINA RESULT:     -10.3      1.351      3.534
REMARK SMILES C[C@H](Nc1ccc2c(c1)OCCO2)[C@H](C)C(=O)NCCCCCCNC(=O)c1ccc(-c2c3nc(c(-c4ccc(S(=O)(=O)[O-])cc4)c4ccc([nH]4)c(-c4ccc(S(=O)(=O)[O-])cc4)c4nc(c(-c5ccc(S(=O)(=O)[O-])cc5)c5ccc2[nH]5)C=C4)C=C3)cc1
REMARK SMILES IDX 21 1 20 2 19 3 18 4 16 5 17 6 14 8 15 9 2 10 1 11 3 12 4 14
REMARK SMILES IDX 5 15 9 16 6 17 8 18 7 19 10 20 13 21 11 22 12 23 22 24 23 25
REMARK SMILES IDX 24 26 25 27 26 28 27 30 28 31 29 32 87 33 30 34 86 35 31 36
REMARK SMILES IDX 32 37 33 38 80 39 34 40 85 41 79 42 81 43 35 44 84 45 78 46
REMARK SMILES IDX 77 47 36 49 66 50 47 51 65 52 48 53 51 54 64 55 82 56 49 57
REMARK SMILES IDX 50 58 63 60 83 61 52 62 37 63 38 64 46 65 39 66 45 67 40 68
REMARK SMILES IDX 41 69 42 70 43 71 44 72 67 73 68 74 76 75 69 76 75 77 70 78
REMARK SMILES IDX 71 79 72 80 73 81 74 82 53 83 54 84 62 85 55 86 61 87 56 88
REMARK SMILES IDX 57 89 58 90 59 91 60 92
REMARK H PARENT 18 7 3 13 25 29 81 48 51 59
REMARK Flexibility Score: inf
ROOT
ATOM      1  C   UNL A   1      35.843  21.378  24.594  1.00  0.00     0.002 C 
ENDROOT
BRANCH   1   2
ATOM      2  C   UNL A   1      35.415  19.969  24.999  1.00  0.00     0.021 C 
BRANCH   2   3
ATOM      3  C   UNL A   1      33.976  19.586  24.664  1.00  0.00     0.116 C 
BRANCH   3   4
ATOM      4  N   UNL A   1      33.002  20.601  25.043  1.00  0.00    -0.356 N 
ATOM      5  C   UNL A   1      32.403  21.648  24.430  1.00  0.00     0.224 C 
ATOM      6  O   UNL A   1      31.573  22.240  25.142  1.00  0.00    -0.275 OA
ATOM      7  H   UNL A   1      32.708  20.501  25.976  1.00  0.00     0.163 HD
BRANCH   5   8
ATOM      8  C   UNL A   1      32.593  22.158  22.984  1.00  0.00     0.097 C 
ATOM      9  C   UNL A   1      31.816  21.269  21.976  1.00  0.00     0.020 C 
BRANCH   8  10
ATOM     10  C   UNL A   1      32.544  23.622  22.547  1.00  0.00     0.088 C 
ATOM     11  C   UNL A   1      33.840  24.366  22.927  1.00  0.00     0.031 C 
BRANCH  10  12
ATOM     12  N   UNL A   1      31.356  24.458  22.799  1.00  0.00    -0.382 N 
ATOM     13  H   UNL A   1      30.544  24.088  22.384  1.00  0.00     0.160 HD
BRANCH  12  14
ATOM     14  C   UNL A   1      31.111  25.633  23.476  1.00  0.00     0.038 A 
ATOM     15  C   UNL A   1      31.132  26.843  22.756  1.00  0.00     0.030 A 
ATOM     16  C   UNL A   1      30.947  25.754  24.853  1.00  0.00     0.076 A 
ATOM     17  C   UNL A   1      31.098  28.096  23.390  1.00  0.00     0.052 A 
ATOM     18  C   UNL A   1      31.013  26.986  25.508  1.00  0.00     0.163 A 
ATOM     19  C   UNL A   1      31.109  28.157  24.775  1.00  0.00     0.161 A 
ATOM     20  O   UNL A   1      31.125  26.925  26.872  1.00  0.00    -0.486 OA
ATOM     21  O   UNL A   1      31.296  29.373  25.376  1.00  0.00    -0.486 OA
ATOM     22  C   UNL A   1      31.481  28.166  27.487  1.00  0.00     0.271 C 
ATOM     23  C   UNL A   1      32.110  29.176  26.538  1.00  0.00     0.271 C 
ENDBRANCH  12  14
ENDBRANCH  10  12
ENDBRANCH   8  10
ENDBRANCH   5   8
ENDBRANCH   3   4
ENDBRANCH   2   3
ENDBRANCH   1   2
BRANCH   1  24
ATOM     24  C   UNL A   1      37.356  21.598  24.575  1.00  0.00     0.002 C 
BRANCH  24  25
ATOM     25  C   UNL A   1      38.215  20.401  25.011  1.00  0.00     0.021 C 
BRANCH  25  26
ATOM     26  C   UNL A   1      39.239  20.693  26.106  1.00  0.00     0.116 C 
BRANCH  26  27
ATOM     27  N   UNL A   1      40.289  19.686  26.135  1.00  0.00    -0.352 N 
ATOM     28  C   UNL A   1      41.650  19.871  26.118  1.00  0.00     0.251 C 
ATOM     29  H   UNL A   1      39.984  18.751  26.171  1.00  0.00     0.163 HD
ATOM     30  O   UNL A   1      42.399  18.934  25.865  1.00  0.00    -0.269 OA
BRANCH  28  31
ATOM     31  C   UNL A   1      42.202  21.210  26.410  1.00  0.00     0.039 A 
ATOM     32  C   UNL A   1      42.427  22.102  25.360  1.00  0.00     0.014 A 
ATOM     33  C   UNL A   1      42.509  21.572  27.725  1.00  0.00     0.014 A 
ATOM     34  C   UNL A   1      42.924  23.379  25.636  1.00  0.00     0.010 A 
ATOM     35  C   UNL A   1      42.949  22.862  28.004  1.00  0.00     0.010 A 
ATOM     36  C   UNL A   1      43.174  23.776  26.961  1.00  0.00    -0.014 A 
BRANCH  36  37
ATOM     37  C   UNL A   1      43.689  25.134  27.271  1.00  0.00     0.031 A 
ATOM     38  C   UNL A   1      45.142  25.459  27.042  1.00  0.00     0.074 A 
ATOM     39  C   UNL A   1      42.865  26.059  27.801  1.00  0.00     0.049 A 
ATOM     40  N   UNL A   1      45.784  26.575  27.277  1.00  0.00    -0.248 NA
ATOM     41  C   UNL A   1      45.987  24.383  26.500  1.00  0.00     0.031 C 
ATOM     42  C   UNL A   1      41.447  25.854  28.109  1.00  0.00     0.029 A 
ATOM     43  N   UNL A   1      43.102  27.357  28.181  1.00  0.00    -0.354 N 
ATOM     44  C   UNL A   1      47.107  26.331  26.927  1.00  0.00     0.074 A 
ATOM     45  C   UNL A   1      47.186  24.947  26.513  1.00  0.00     0.031 C 
ATOM     46  C   UNL A   1      40.936  26.993  28.603  1.00  0.00     0.029 A 
ATOM     47  C   UNL A   1      41.992  27.998  28.681  1.00  0.00     0.049 A 
ATOM     48  H   UNL A   1      43.983  27.789  28.101  1.00  0.00     0.167 HD
ATOM     49  C   UNL A   1      48.158  27.185  26.929  1.00  0.00     0.031 A 
ATOM     50  C   UNL A   1      41.842  29.251  29.151  1.00  0.00     0.031 A 
ATOM     51  C   UNL A   1      48.075  28.565  27.332  1.00  0.00     0.049 A 
ATOM     52  C   UNL A   1      43.024  30.182  29.143  1.00  0.00     0.074 A 
ATOM     53  C   UNL A   1      49.069  29.526  27.323  1.00  0.00     0.029 A 
ATOM     54  N   UNL A   1      46.930  29.178  27.821  1.00  0.00    -0.354 N 
ATOM     55  N   UNL A   1      44.253  29.952  28.746  1.00  0.00    -0.248 NA
ATOM     56  C   UNL A   1      42.794  31.549  29.632  1.00  0.00     0.031 C 
ATOM     57  C   UNL A   1      48.539  30.709  27.850  1.00  0.00     0.029 A 
ATOM     58  C   UNL A   1      47.198  30.499  28.133  1.00  0.00     0.049 A 
ATOM     59  H   UNL A   1      46.056  28.737  27.929  1.00  0.00     0.167 HD
ATOM     60  C   UNL A   1      44.936  31.153  28.908  1.00  0.00     0.074 A 
ATOM     61  C   UNL A   1      43.978  32.110  29.425  1.00  0.00     0.031 C 
ATOM     62  C   UNL A   1      46.235  31.439  28.647  1.00  0.00     0.031 A 
BRANCH  49  63
ATOM     63  C   UNL A   1      49.493  26.648  26.482  1.00  0.00    -0.014 A 
ATOM     64  C   UNL A   1      50.331  25.951  27.371  1.00  0.00     0.010 A 
ATOM     65  C   UNL A   1      49.902  26.810  25.145  1.00  0.00     0.010 A 
ATOM     66  C   UNL A   1      51.571  25.467  26.946  1.00  0.00     0.020 A 
ATOM     67  C   UNL A   1      51.129  26.302  24.708  1.00  0.00     0.020 A 
ATOM     68  C   UNL A   1      51.964  25.649  25.617  1.00  0.00     0.054 A 
BRANCH  68  69
ATOM     69  S   UNL A   1      53.570  24.993  25.088  1.00  0.00     0.124 S 
ATOM     70  O   UNL A   1      54.482  25.634  26.033  1.00  0.00    -0.237 OA
ATOM     71  O   UNL A   1      53.400  23.553  25.258  1.00  0.00    -0.237 OA
ATOM     72  O   UNL A   1      53.691  25.444  23.704  1.00  0.00    -0.744 OA
ENDBRANCH  68  69
ENDBRANCH  49  63
BRANCH  50  73
ATOM     73  C   UNL A   1      40.514  29.707  29.646  1.00  0.00    -0.014 A 
ATOM     74  C   UNL A   1      39.538  30.172  28.747  1.00  0.00     0.010 A 
ATOM     75  C   UNL A   1      40.213  29.665  31.020  1.00  0.00     0.010 A 
ATOM     76  C   UNL A   1      38.293  30.606  29.214  1.00  0.00     0.020 A 
ATOM     77  C   UNL A   1      38.960  30.071  31.487  1.00  0.00     0.020 A 
ATOM     78  C   UNL A   1      38.012  30.551  30.582  1.00  0.00     0.054 A 
BRANCH  78  79
ATOM     79  S   UNL A   1      36.372  31.071  31.161  1.00  0.00     0.124 S 
ATOM     80  O   UNL A   1      36.011  29.986  32.067  1.00  0.00    -0.237 OA
ATOM     81  O   UNL A   1      36.654  32.357  31.792  1.00  0.00    -0.237 OA
ATOM     82  O   UNL A   1      35.586  31.148  29.931  1.00  0.00    -0.744 OA
ENDBRANCH  78  79
ENDBRANCH  50  73
BRANCH  62  83
ATOM     83  C   UNL A   1      46.692  32.855  28.880  1.00  0.00    -0.014 A 
ATOM     84  C   UNL A   1      47.247  33.254  30.108  1.00  0.00     0.010 A 
ATOM     85  C   UNL A   1      46.602  33.791  27.833  1.00  0.00     0.010 A 
ATOM     86  C   UNL A   1      47.670  34.573  30.298  1.00  0.00     0.020 A 
ATOM     87  C   UNL A   1      47.051  35.103  28.008  1.00  0.00     0.020 A 
ATOM     88  C   UNL A   1      47.566  35.489  29.247  1.00  0.00     0.054 A 
BRANCH  88  89
ATOM     89  S   UNL A   1      48.151  37.187  29.506  1.00  0.00     0.124 S 
ATOM     90  O   UNL A   1      48.144  37.720  28.147  1.00  0.00    -0.237 OA
ATOM     91  O   UNL A   1      47.143  37.741  30.404  1.00  0.00    -0.237 OA
ATOM     92  O   UNL A   1      49.475  37.009  30.099  1.00  0.00    -0.744 OA
ENDBRANCH  88  89
ENDBRANCH  62  83
ENDBRANCH  36  37
ENDBRANCH  28  31
ENDBRANCH  26  27
ENDBRANCH  25  26
ENDBRANCH  24  25
ENDBRANCH   1  24
TORSDOF 19
ENDMDL
MODEL 3
REMARK VINA RESULT:     -10.2      6.023      8.800
REMARK SMILES C[C@H](Nc1ccc2c(c1)OCCO2)[C@H](C)C(=O)NCCCCCCNC(=O)c1ccc(-c2c3nc(c(-c4ccc(S(=O)(=O)[O-])cc4)c4ccc([nH]4)c(-c4ccc(S(=O)(=O)[O-])cc4)c4nc(c(-c5ccc(S(=O)(=O)[O-])cc5)c5ccc2[nH]5)C=C4)C=C3)cc1
REMARK SMILES IDX 21 1 20 2 19 3 18 4 16 5 17 6 14 8 15 9 2 10 1 11 3 12 4 14
REMARK SMILES IDX 5 15 9 16 6 17 8 18 7 19 10 20 13 21 11 22 12 23 22 24 23 25
REMARK SMILES IDX 24 26 25 27 26 28 27 30 28 31 29 32 87 33 30 34 86 35 31 36
REMARK SMILES IDX 32 37 33 38 80 39 34 40 85 41 79 42 81 43 35 44 84 45 78 46
REMARK SMILES IDX 77 47 36 49 66 50 47 51 65 52 48 53 51 54 64 55 82 56 49 57
REMARK SMILES IDX 50 58 63 60 83 61 52 62 37 63 38 64 46 65 39 66 45 67 40 68
REMARK SMILES IDX 41 69 42 70 43 71 44 72 67 73 68 74 76 75 69 76 75 77 70 78
REMARK SMILES IDX 71 79 72 80 73 81 74 82 53 83 54 84 62 85 55 86 61 87 56 88
REMARK SMILES IDX 57 89 58 90 59 91 60 92
REMARK H PARENT 18 7 3 13 25 29 81 48 51 59
REMARK Flexibility Score: inf
ROOT
ATOM      1  C   UNL A   1      38.460  23.499  26.183  1.00  0.00     0.002 C 
ENDROOT
BRANCH   1   2
ATOM      2  C   UNL A   1      37.138  22.861  25.761  1.00  0.00     0.021 C 
BRANCH   2   3
ATOM      3  C   UNL A   1      37.129  22.187  24.391  1.00  0.00     0.116 C 
BRANCH   3   4
ATOM      4  N   UNL A   1      36.206  22.804  23.447  1.00  0.00    -0.356 N 
ATOM      5  C   UNL A   1      34.868  22.993  23.380  1.00  0.00     0.224 C 
ATOM      6  O   UNL A   1      34.500  23.633  22.379  1.00  0.00    -0.275 OA
ATOM      7  H   UNL A   1      36.672  23.176  22.664  1.00  0.00     0.163 HD
BRANCH   5   8
ATOM      8  C   UNL A   1      33.780  22.555  24.385  1.00  0.00     0.097 C 
ATOM      9  C   UNL A   1      33.754  21.010  24.537  1.00  0.00     0.020 C 
BRANCH   8  10
ATOM     10  C   UNL A   1      33.494  23.225  25.729  1.00  0.00     0.088 C 
ATOM     11  C   UNL A   1      32.595  22.341  26.618  1.00  0.00     0.031 C 
BRANCH  10  12
ATOM     12  N   UNL A   1      33.098  24.642  25.811  1.00  0.00    -0.382 N 
ATOM     13  H   UNL A   1      33.732  25.178  26.339  1.00  0.00     0.160 HD
BRANCH  12  14
ATOM     14  C   UNL A   1      32.052  25.396  25.324  1.00  0.00     0.038 A 
ATOM     15  C   UNL A   1      31.123  24.782  24.461  1.00  0.00     0.030 A 
ATOM     16  C   UNL A   1      31.879  26.763  25.520  1.00  0.00     0.076 A 
ATOM     17  C   UNL A   1      30.152  25.515  23.758  1.00  0.00     0.052 A 
ATOM     18  C   UNL A   1      30.989  27.521  24.757  1.00  0.00     0.163 A 
ATOM     19  C   UNL A   1      30.138  26.898  23.859  1.00  0.00     0.161 A 
ATOM     20  O   UNL A   1      31.133  28.880  24.857  1.00  0.00    -0.486 OA
ATOM     21  O   UNL A   1      29.337  27.610  23.008  1.00  0.00    -0.486 OA
ATOM     22  C   UNL A   1      30.422  29.621  23.862  1.00  0.00     0.271 C 
ATOM     23  C   UNL A   1      30.032  28.805  22.636  1.00  0.00     0.271 C 
ENDBRANCH  12  14
ENDBRANCH  10  12
ENDBRANCH   8  10
ENDBRANCH   5   8
ENDBRANCH   3   4
ENDBRANCH   2   3
ENDBRANCH   1   2
BRANCH   1  24
ATOM     24  C   UNL A   1      39.629  22.520  26.287  1.00  0.00     0.002 C 
BRANCH  24  25
ATOM     25  C   UNL A   1      40.376  22.506  27.629  1.00  0.00     0.021 C 
BRANCH  25  26
ATOM     26  C   UNL A   1      41.669  23.319  27.669  1.00  0.00     0.116 C 
BRANCH  26  27
ATOM     27  N   UNL A   1      41.849  24.093  26.451  1.00  0.00    -0.352 N 
ATOM     28  C   UNL A   1      41.600  25.427  26.241  1.00  0.00     0.251 C 
ATOM     29  H   UNL A   1      42.195  23.595  25.675  1.00  0.00     0.163 HD
ATOM     30  O   UNL A   1      41.533  25.873  25.102  1.00  0.00    -0.269 OA
BRANCH  28  31
ATOM     31  C   UNL A   1      41.415  26.320  27.404  1.00  0.00     0.039 A 
ATOM     32  C   UNL A   1      42.361  27.314  27.662  1.00  0.00     0.014 A 
ATOM     33  C   UNL A   1      40.309  26.159  28.244  1.00  0.00     0.014 A 
ATOM     34  C   UNL A   1      42.175  28.177  28.746  1.00  0.00     0.010 A 
ATOM     35  C   UNL A   1      40.096  27.055  29.287  1.00  0.00     0.010 A 
ATOM     36  C   UNL A   1      41.033  28.066  29.557  1.00  0.00    -0.014 A 
BRANCH  36  37
ATOM     37  C   UNL A   1      40.814  28.984  30.704  1.00  0.00     0.031 A 
ATOM     38  C   UNL A   1      41.651  28.848  31.949  1.00  0.00     0.074 A 
ATOM     39  C   UNL A   1      39.835  29.908  30.645  1.00  0.00     0.049 A 
ATOM     40  N   UNL A   1      41.591  29.534  33.062  1.00  0.00    -0.248 NA
ATOM     41  C   UNL A   1      42.671  27.788  31.952  1.00  0.00     0.031 C 
ATOM     42  C   UNL A   1      38.929  30.113  29.512  1.00  0.00     0.029 A 
ATOM     43  N   UNL A   1      39.433  30.847  31.563  1.00  0.00    -0.354 N 
ATOM     44  C   UNL A   1      42.553  28.981  33.899  1.00  0.00     0.074 A 
ATOM     45  C   UNL A   1      43.145  27.870  33.187  1.00  0.00     0.031 C 
ATOM     46  C   UNL A   1      38.098  31.130  29.792  1.00  0.00     0.029 A 
ATOM     47  C   UNL A   1      38.386  31.628  31.134  1.00  0.00     0.049 A 
ATOM     48  H   UNL A   1      39.856  30.951  32.447  1.00  0.00     0.167 HD
ATOM     49  C   UNL A   1      42.925  29.372  35.141  1.00  0.00     0.031 A 
ATOM     50  C   UNL A   1      37.730  32.629  31.750  1.00  0.00     0.031 A 
ATOM     51  C   UNL A   1      42.340  30.484  35.845  1.00  0.00     0.049 A 
ATOM     52  C   UNL A   1      38.161  33.048  33.130  1.00  0.00     0.074 A 
ATOM     53  C   UNL A   1      42.681  30.994  37.085  1.00  0.00     0.029 A 
ATOM     54  N   UNL A   1      41.290  31.257  35.370  1.00  0.00    -0.354 N 
ATOM     55  N   UNL A   1      39.117  32.554  33.880  1.00  0.00    -0.248 NA
ATOM     56  C   UNL A   1      37.436  34.172  33.739  1.00  0.00     0.031 C 
ATOM     57  C   UNL A   1      41.806  32.045  37.381  1.00  0.00     0.029 A 
ATOM     58  C   UNL A   1      40.959  32.228  36.299  1.00  0.00     0.049 A 
ATOM     59  H   UNL A   1      40.848  31.133  34.499  1.00  0.00     0.167 HD
ATOM     60  C   UNL A   1      39.128  33.325  35.037  1.00  0.00     0.074 A 
ATOM     61  C   UNL A   1      38.094  34.328  34.880  1.00  0.00     0.031 C 
ATOM     62  C   UNL A   1      39.926  33.217  36.129  1.00  0.00     0.031 A 
BRANCH  49  63
ATOM     63  C   UNL A   1      44.017  28.588  35.821  1.00  0.00    -0.014 A 
ATOM     64  C   UNL A   1      45.372  28.919  35.639  1.00  0.00     0.010 A 
ATOM     65  C   UNL A   1      43.685  27.526  36.681  1.00  0.00     0.010 A 
ATOM     66  C   UNL A   1      46.375  28.177  36.267  1.00  0.00     0.020 A 
ATOM     67  C   UNL A   1      44.684  26.798  37.335  1.00  0.00     0.020 A 
ATOM     68  C   UNL A   1      46.025  27.117  37.109  1.00  0.00     0.054 A 
BRANCH  68  69
ATOM     69  S   UNL A   1      47.347  26.183  37.927  1.00  0.00     0.124 S 
ATOM     70  O   UNL A   1      47.636  27.024  39.087  1.00  0.00    -0.237 OA
ATOM     71  O   UNL A   1      46.703  24.907  38.222  1.00  0.00    -0.237 OA
ATOM     72  O   UNL A   1      48.405  26.127  36.921  1.00  0.00    -0.744 OA
ENDBRANCH  68  69
ENDBRANCH  49  63
BRANCH  50  73
ATOM     73  C   UNL A   1      36.610  33.325  31.056  1.00  0.00    -0.014 A 
ATOM     74  C   UNL A   1      35.319  33.333  31.613  1.00  0.00     0.010 A 
ATOM     75  C   UNL A   1      36.835  33.994  29.839  1.00  0.00     0.010 A 
ATOM     76  C   UNL A   1      34.268  33.981  30.956  1.00  0.00     0.020 A 
ATOM     77  C   UNL A   1      35.793  34.666  29.194  1.00  0.00     0.020 A 
ATOM     78  C   UNL A   1      34.513  34.645  29.750  1.00  0.00     0.054 A 
BRANCH  78  79
ATOM     79  S   UNL A   1      33.146  35.523  28.942  1.00  0.00     0.124 S 
ATOM     80  O   UNL A   1      32.518  34.458  28.166  1.00  0.00    -0.237 OA
ATOM     81  O   UNL A   1      32.374  36.020  30.077  1.00  0.00    -0.237 OA
ATOM     82  O   UNL A   1      33.821  36.555  28.157  1.00  0.00    -0.744 OA
ENDBRANCH  78  79
ENDBRANCH  50  73
BRANCH  62  83
ATOM     83  C   UNL A   1      39.739  34.232  37.225  1.00  0.00    -0.014 A 
ATOM     84  C   UNL A   1      38.975  33.943  38.369  1.00  0.00     0.010 A 
ATOM     85  C   UNL A   1      40.378  35.483  37.126  1.00  0.00     0.010 A 
ATOM     86  C   UNL A   1      38.822  34.900  39.377  1.00  0.00     0.020 A 
ATOM     87  C   UNL A   1      40.252  36.431  38.144  1.00  0.00     0.020 A 
ATOM     88  C   UNL A   1      39.459  36.139  39.256  1.00  0.00     0.054 A 
BRANCH  88  89
ATOM     89  S   UNL A   1      39.272  37.352  40.592  1.00  0.00     0.124 S 
ATOM     90  O   UNL A   1      38.247  38.241  40.052  1.00  0.00    -0.237 OA
ATOM     91  O   UNL A   1      38.857  36.525  41.721  1.00  0.00    -0.237 OA
ATOM     92  O   UNL A   1      40.605  37.940  40.714  1.00  0.00    -0.744 OA
ENDBRANCH  88  89
ENDBRANCH  62  83
ENDBRANCH  36  37
ENDBRANCH  28  31
ENDBRANCH  26  27
ENDBRANCH  25  26
ENDBRANCH  24  25
ENDBRANCH   1  24
TORSDOF 19
ENDMDL
