MODEL 1
REMARK VINA RESULT:     -11.5      0.000      0.000
REMARK SMILES O=C(NCCCCCCNC(=O)c1ccc(-c2c3nc(c(-c4ccc(S(=O)(=O)[O-])cc4)c4ccc([nH]4)c(-c4ccc(S(=O)(=O)[O-])cc4)c4nc(c(-c5ccc(S(=O)(=O)[O-])cc5)c5ccc2[nH]5)C=C4)C=C3)cc1)C1=Cc2cc(S(F)(F)(F)(F)F)ccc2O[C@@H]1C(F)(F)F
REMARK SMILES IDX 7 1 6 2 5 3 4 4 3 5 1 6 2 7 73 9 74 10 88 11 75 12 87 13
REMARK SMILES IDX 76 14 86 15 77 16 85 17 84 18 89 19 90 20 91 21 92 22 78 23
REMARK SMILES IDX 79 24 80 25 81 26 82 27 83 28 8 29 9 30 10 31 11 32 12 34
REMARK SMILES IDX 13 35 14 36 72 37 15 38 71 39 16 40 17 41 18 42 65 43 19 44
REMARK SMILES IDX 70 45 64 46 66 47 20 48 69 49 63 50 62 51 21 53 51 54 32 55
REMARK SMILES IDX 50 56 33 57 36 58 49 59 67 60 34 61 35 62 48 64 68 65 37 66
REMARK SMILES IDX 22 67 23 68 31 69 24 70 30 71 25 72 26 73 27 74 28 75 29 76
REMARK SMILES IDX 52 77 53 78 61 79 54 80 60 81 55 82 56 83 57 84 58 85 59 86
REMARK SMILES IDX 38 87 39 88 47 89 40 90 46 91 41 92 42 93 43 94 44 95 45 96
REMARK H PARENT 3 8 10 33 66 52 36 63
REMARK Flexibility Score: inf
ROOT
ATOM      1  C   UNL A   1      34.716  23.962  23.494  1.00  0.00     0.002 C 
ENDROOT
BRANCH   1   2
ATOM      2  C   UNL A   1      33.935  25.248  23.278  1.00  0.00     0.002 C 
BRANCH   2   3
ATOM      3  C   UNL A   1      32.995  25.078  22.095  1.00  0.00     0.021 C 
BRANCH   3   4
ATOM      4  C   UNL A   1      32.373  26.419  21.746  1.00  0.00     0.116 C 
BRANCH   4   5
ATOM      5  N   UNL A   1      33.093  27.492  22.447  1.00  0.00    -0.352 N 
ATOM      6  O   UNL A   1      32.967  29.506  23.701  1.00  0.00    -0.270 OA
ATOM      7  C   UNL A   1      32.344  28.578  23.094  1.00  0.00     0.251 C 
ATOM      8  H   UNL A   1      34.077  27.481  22.485  1.00  0.00     0.163 HD
BRANCH   7   9
ATOM      9  C   UNL A   1      30.826  28.594  23.037  1.00  0.00     0.067 C 
ATOM     10  C   UNL A   1      30.107  27.722  23.794  1.00  0.00     0.025 C 
ATOM     11  C   UNL A   1      30.109  29.586  22.134  1.00  0.00     0.314 C 
ATOM     12  C   UNL A   1      30.823  26.731  24.697  1.00  0.00     0.019 A 
ATOM     13  O   UNL A   1      32.352  28.462  25.260  1.00  0.00    -0.475 OA
ATOM     14  C   UNL A   1      30.394  25.415  24.744  1.00  0.00     0.036 A 
ATOM     15  C   UNL A   1      31.833  27.153  25.448  1.00  0.00     0.128 A 
ATOM     16  C   UNL A   1      30.912  24.681  25.837  1.00  0.00     0.107 A 
ATOM     17  C   UNL A   1      32.383  26.335  26.405  1.00  0.00     0.048 A 
ATOM     18  C   UNL A   1      31.967  25.040  26.547  1.00  0.00     0.028 A 
BRANCH  11  19
ATOM     19  C   UNL A   1      29.213  30.481  22.975  1.00  0.00     0.429 C 
ATOM     20  F   UNL A   1      29.042  31.645  22.355  1.00  0.00    -0.167 F 
ATOM     21  F   UNL A   1      28.032  29.891  23.145  1.00  0.00    -0.167 F 
ATOM     22  F   UNL A   1      29.780  30.688  24.160  1.00  0.00    -0.167 F 
ENDBRANCH  11  19
BRANCH  16  23
ATOM     23  S   UNL A   1      30.074  23.143  26.293  1.00  0.00     0.310 S 
ATOM     24  F   UNL A   1      31.057  22.895  27.512  1.00  0.00    -0.094 F 
ATOM     25  F   UNL A   1      31.099  22.352  25.394  1.00  0.00    -0.094 F 
ATOM     26  F   UNL A   1      29.354  21.822  26.683  1.00  0.00    -0.094 F 
ATOM     27  F   UNL A   1      29.147  23.935  27.295  1.00  0.00    -0.094 F 
ATOM     28  F   UNL A   1      30.867  24.477  25.993  1.00  0.00    -0.094 F 
ENDBRANCH  16  23
ENDBRANCH   7   9
ENDBRANCH   4   5
ENDBRANCH   3   4
ENDBRANCH   2   3
ENDBRANCH   1   2
BRANCH   1  29
ATOM     29  C   UNL A   1      34.891  23.719  24.984  1.00  0.00     0.021 C 
BRANCH  29  30
ATOM     30  C   UNL A   1      36.320  24.044  25.385  1.00  0.00     0.116 C 
BRANCH  30  31
ATOM     31  N   UNL A   1      37.145  22.832  25.284  1.00  0.00    -0.352 N 
ATOM     32  C   UNL A   1      38.483  22.800  25.894  1.00  0.00     0.251 C 
ATOM     33  H   UNL A   1      36.803  22.041  24.807  1.00  0.00     0.163 HD
ATOM     34  O   UNL A   1      39.196  21.752  25.807  1.00  0.00    -0.269 OA
BRANCH  32  35
ATOM     35  C   UNL A   1      39.011  24.020  26.630  1.00  0.00     0.039 A 
ATOM     36  C   UNL A   1      39.818  24.923  25.956  1.00  0.00     0.014 A 
ATOM     37  C   UNL A   1      38.692  24.201  27.906  1.00  0.00     0.014 A 
ATOM     38  C   UNL A   1      40.479  25.843  26.803  1.00  0.00     0.010 A 
ATOM     39  C   UNL A   1      39.276  25.206  28.638  1.00  0.00     0.010 A 
ATOM     40  C   UNL A   1      40.129  26.099  28.051  1.00  0.00    -0.014 A 
BRANCH  40  41
ATOM     41  C   UNL A   1      40.646  27.320  28.793  1.00  0.00     0.031 A 
ATOM     42  C   UNL A   1      39.809  28.433  28.888  1.00  0.00     0.074 A 
ATOM     43  C   UNL A   1      41.920  27.262  29.334  1.00  0.00     0.049 A 
ATOM     44  N   UNL A   1      40.052  29.583  29.517  1.00  0.00    -0.248 NA
ATOM     45  C   UNL A   1      38.469  28.510  28.284  1.00  0.00     0.031 C 
ATOM     46  C   UNL A   1      42.767  26.140  29.250  1.00  0.00     0.029 A 
ATOM     47  N   UNL A   1      42.587  28.244  30.031  1.00  0.00    -0.354 N 
ATOM     48  C   UNL A   1      39.004  30.402  29.403  1.00  0.00     0.074 A 
ATOM     49  C   UNL A   1      37.973  29.726  28.603  1.00  0.00     0.031 C 
ATOM     50  C   UNL A   1      43.933  26.445  29.878  1.00  0.00     0.029 A 
ATOM     51  C   UNL A   1      43.834  27.762  30.366  1.00  0.00     0.049 A 
ATOM     52  H   UNL A   1      42.235  29.135  30.253  1.00  0.00     0.167 HD
ATOM     53  C   UNL A   1      38.866  31.685  29.937  1.00  0.00     0.031 A 
ATOM     54  C   UNL A   1      44.841  28.420  31.054  1.00  0.00     0.031 A 
ATOM     55  C   UNL A   1      39.858  32.325  30.662  1.00  0.00     0.049 A 
ATOM     56  C   UNL A   1      44.725  29.725  31.537  1.00  0.00     0.074 A 
ATOM     57  C   UNL A   1      39.733  33.614  31.214  1.00  0.00     0.029 A 
ATOM     58  N   UNL A   1      41.113  31.853  30.975  1.00  0.00    -0.354 N 
ATOM     59  N   UNL A   1      43.663  30.527  31.458  1.00  0.00    -0.248 NA
ATOM     60  C   UNL A   1      45.798  30.443  32.239  1.00  0.00     0.031 C 
ATOM     61  C   UNL A   1      40.899  33.921  31.842  1.00  0.00     0.029 A 
ATOM     62  C   UNL A   1      41.773  32.826  31.692  1.00  0.00     0.049 A 
ATOM     63  H   UNL A   1      41.476  30.972  30.728  1.00  0.00     0.167 HD
ATOM     64  C   UNL A   1      43.923  31.694  32.052  1.00  0.00     0.074 A 
ATOM     65  C   UNL A   1      45.303  31.659  32.557  1.00  0.00     0.031 C 
ATOM     66  C   UNL A   1      43.063  32.784  32.197  1.00  0.00     0.031 A 
BRANCH  53  67
ATOM     67  C   UNL A   1      37.556  32.419  29.709  1.00  0.00    -0.014 A 
ATOM     68  C   UNL A   1      36.515  32.222  30.601  1.00  0.00     0.010 A 
ATOM     69  C   UNL A   1      37.448  33.284  28.707  1.00  0.00     0.010 A 
ATOM     70  C   UNL A   1      35.284  32.777  30.179  1.00  0.00     0.020 A 
ATOM     71  C   UNL A   1      36.247  33.894  28.434  1.00  0.00     0.020 A 
ATOM     72  C   UNL A   1      35.161  33.699  29.240  1.00  0.00     0.054 A 
BRANCH  72  73
ATOM     73  S   UNL A   1      33.635  34.649  29.031  1.00  0.00     0.124 S 
ATOM     74  O   UNL A   1      33.967  36.029  28.459  1.00  0.00    -0.237 OA
ATOM     75  O   UNL A   1      32.701  33.910  28.071  1.00  0.00    -0.237 OA
ATOM     76  O   UNL A   1      32.865  34.831  30.547  1.00  0.00    -0.744 OA
ENDBRANCH  72  73
ENDBRANCH  53  67
BRANCH  54  77
ATOM     77  C   UNL A   1      46.146  27.678  31.296  1.00  0.00    -0.014 A 
ATOM     78  C   UNL A   1      47.134  27.817  30.336  1.00  0.00     0.010 A 
ATOM     79  C   UNL A   1      46.353  26.972  32.402  1.00  0.00     0.010 A 
ATOM     80  C   UNL A   1      48.221  26.928  30.500  1.00  0.00     0.020 A 
ATOM     81  C   UNL A   1      47.502  26.232  32.554  1.00  0.00     0.020 A 
ATOM     82  C   UNL A   1      48.496  26.276  31.616  1.00  0.00     0.054 A 
BRANCH  82  83
ATOM     83  S   UNL A   1      50.100  25.485  31.889  1.00  0.00     0.124 S 
ATOM     84  O   UNL A   1      50.052  24.668  33.182  1.00  0.00    -0.237 OA
ATOM     85  O   UNL A   1      50.419  24.560  30.712  1.00  0.00    -0.237 OA
ATOM     86  O   UNL A   1      51.313  26.683  32.017  1.00  0.00    -0.744 OA
ENDBRANCH  82  83
ENDBRANCH  54  77
BRANCH  66  87
ATOM     87  C   UNL A   1      43.574  34.000  32.953  1.00  0.00    -0.014 A 
ATOM     88  C   UNL A   1      43.314  34.116  34.308  1.00  0.00     0.010 A 
ATOM     89  C   UNL A   1      44.264  34.929  32.302  1.00  0.00     0.010 A 
ATOM     90  C   UNL A   1      43.576  35.403  34.834  1.00  0.00     0.020 A 
ATOM     91  C   UNL A   1      44.607  36.107  32.920  1.00  0.00     0.020 A 
ATOM     92  C   UNL A   1      44.327  36.315  34.242  1.00  0.00     0.054 A 
BRANCH  92  93
ATOM     93  S   UNL A   1      44.950  37.761  35.134  1.00  0.00     0.124 S 
ATOM     94  O   UNL A   1      46.208  38.287  34.439  1.00  0.00    -0.237 OA
ATOM     95  O   UNL A   1      43.880  38.854  35.147  1.00  0.00    -0.237 OA
ATOM     96  O   UNL A   1      45.331  37.317  36.742  1.00  0.00    -0.744 OA
ENDBRANCH  92  93
ENDBRANCH  66  87
ENDBRANCH  40  41
ENDBRANCH  32  35
ENDBRANCH  30  31
ENDBRANCH  29  30
ENDBRANCH   1  29
TORSDOF 18
ENDMDL
MODEL 2
REMARK VINA RESULT:     -11.3      3.100      9.179
REMARK SMILES O=C(NCCCCCCNC(=O)c1ccc(-c2c3nc(c(-c4ccc(S(=O)(=O)[O-])cc4)c4ccc([nH]4)c(-c4ccc(S(=O)(=O)[O-])cc4)c4nc(c(-c5ccc(S(=O)(=O)[O-])cc5)c5ccc2[nH]5)C=C4)C=C3)cc1)C1=Cc2cc(S(F)(F)(F)(F)F)ccc2O[C@@H]1C(F)(F)F
REMARK SMILES IDX 7 1 6 2 5 3 4 4 3 5 1 6 2 7 73 9 74 10 88 11 75 12 87 13
REMARK SMILES IDX 76 14 86 15 77 16 85 17 84 18 89 19 90 20 91 21 92 22 78 23
REMARK SMILES IDX 79 24 80 25 81 26 82 27 83 28 8 29 9 30 10 31 11 32 12 34
REMARK SMILES IDX 13 35 14 36 72 37 15 38 71 39 16 40 17 41 18 42 65 43 19 44
REMARK SMILES IDX 70 45 64 46 66 47 20 48 69 49 63 50 62 51 21 53 51 54 32 55
REMARK SMILES IDX 50 56 33 57 36 58 49 59 67 60 34 61 35 62 48 64 68 65 37 66
REMARK SMILES IDX 22 67 23 68 31 69 24 70 30 71 25 72 26 73 27 74 28 75 29 76
REMARK SMILES IDX 52 77 53 78 61 79 54 80 60 81 55 82 56 83 57 84 58 85 59 86
REMARK SMILES IDX 38 87 39 88 47 89 40 90 46 91 41 92 42 93 43 94 44 95 45 96
REMARK H PARENT 3 8 10 33 66 52 36 63
REMARK Flexibility Score: inf
ROOT
ATOM      1  C   UNL A   1      33.103  25.673  26.200  1.00  0.00     0.002 C 
ENDROOT
BRANCH   1   2
ATOM      2  C   UNL A   1      31.968  24.922  26.875  1.00  0.00     0.002 C 
BRANCH   2   3
ATOM      3  C   UNL A   1      31.286  24.016  25.862  1.00  0.00     0.021 C 
BRANCH   3   4
ATOM      4  C   UNL A   1      31.479  22.565  26.271  1.00  0.00     0.116 C 
BRANCH   4   5
ATOM      5  N   UNL A   1      32.843  22.377  26.785  1.00  0.00    -0.352 N 
ATOM      6  O   UNL A   1      34.882  21.164  26.665  1.00  0.00    -0.270 OA
ATOM      7  C   UNL A   1      33.703  21.327  26.221  1.00  0.00     0.251 C 
ATOM      8  H   UNL A   1      33.180  22.955  27.507  1.00  0.00     0.163 HD
BRANCH   7   9
ATOM      9  C   UNL A   1      33.181  20.435  25.106  1.00  0.00     0.067 C 
ATOM     10  C   UNL A   1      33.015  20.939  23.854  1.00  0.00     0.025 C 
ATOM     11  C   UNL A   1      32.846  18.980  25.390  1.00  0.00     0.314 C 
ATOM     12  C   UNL A   1      33.350  22.394  23.569  1.00  0.00     0.019 A 
ATOM     13  O   UNL A   1      35.263  22.147  24.957  1.00  0.00    -0.475 OA
ATOM     14  C   UNL A   1      32.487  23.156  22.799  1.00  0.00     0.036 A 
ATOM     15  C   UNL A   1      34.481  22.902  24.042  1.00  0.00     0.128 A 
ATOM     16  C   UNL A   1      33.050  24.370  22.338  1.00  0.00     0.107 A 
ATOM     17  C   UNL A   1      34.904  24.150  23.655  1.00  0.00     0.048 A 
ATOM     18  C   UNL A   1      34.129  24.936  22.848  1.00  0.00     0.028 A 
BRANCH  11  19
ATOM     19  C   UNL A   1      33.706  18.082  24.516  1.00  0.00     0.429 C 
ATOM     20  F   UNL A   1      34.929  18.595  24.420  1.00  0.00    -0.167 F 
ATOM     21  F   UNL A   1      33.774  16.869  25.059  1.00  0.00    -0.167 F 
ATOM     22  F   UNL A   1      33.165  17.994  23.304  1.00  0.00    -0.167 F 
ENDBRANCH  11  19
BRANCH  16  23
ATOM     23  S   UNL A   1      32.234  25.205  20.954  1.00  0.00     0.310 S 
ATOM     24  F   UNL A   1      33.272  26.403  20.984  1.00  0.00    -0.094 F 
ATOM     25  F   UNL A   1      31.371  26.018  21.992  1.00  0.00    -0.094 F 
ATOM     26  F   UNL A   1      31.533  25.922  19.767  1.00  0.00    -0.094 F 
ATOM     27  F   UNL A   1      33.204  24.485  19.937  1.00  0.00    -0.094 F 
ATOM     28  F   UNL A   1      33.032  24.554  22.153  1.00  0.00    -0.094 F 
ENDBRANCH  16  23
ENDBRANCH   7   9
ENDBRANCH   4   5
ENDBRANCH   3   4
ENDBRANCH   2   3
ENDBRANCH   1   2
BRANCH   1  29
ATOM     29  C   UNL A   1      32.739  27.144  26.082  1.00  0.00     0.021 C 
BRANCH  29  30
ATOM     30  C   UNL A   1      33.782  27.983  26.800  1.00  0.00     0.116 C 
BRANCH  30  31
ATOM     31  N   UNL A   1      33.234  29.320  27.072  1.00  0.00    -0.352 N 
ATOM     32  C   UNL A   1      34.081  30.348  27.695  1.00  0.00     0.251 C 
ATOM     33  H   UNL A   1      32.301  29.526  26.837  1.00  0.00     0.163 HD
ATOM     34  O   UNL A   1      33.607  31.504  27.930  1.00  0.00    -0.269 OA
BRANCH  32  35
ATOM     35  C   UNL A   1      35.523  30.030  28.055  1.00  0.00     0.039 A 
ATOM     36  C   UNL A   1      36.505  30.134  27.083  1.00  0.00     0.014 A 
ATOM     37  C   UNL A   1      35.817  29.657  29.295  1.00  0.00     0.014 A 
ATOM     38  C   UNL A   1      37.736  29.540  27.448  1.00  0.00     0.010 A 
ATOM     39  C   UNL A   1      37.079  29.216  29.612  1.00  0.00     0.010 A 
ATOM     40  C   UNL A   1      38.084  29.235  28.685  1.00  0.00    -0.014 A 
BRANCH  40  41
ATOM     41  C   UNL A   1      39.524  28.922  29.058  1.00  0.00     0.031 A 
ATOM     42  C   UNL A   1      40.023  27.657  28.742  1.00  0.00     0.074 A 
ATOM     43  C   UNL A   1      40.261  29.908  29.692  1.00  0.00     0.049 A 
ATOM     44  N   UNL A   1      41.256  27.194  28.949  1.00  0.00    -0.248 NA
ATOM     45  C   UNL A   1      39.231  26.595  28.100  1.00  0.00     0.031 C 
ATOM     46  C   UNL A   1      39.767  31.189  30.006  1.00  0.00     0.029 A 
ATOM     47  N   UNL A   1      41.566  29.841  30.124  1.00  0.00    -0.354 N 
ATOM     48  C   UNL A   1      41.361  25.943  28.494  1.00  0.00     0.074 A 
ATOM     49  C   UNL A   1      40.059  25.538  27.947  1.00  0.00     0.031 C 
ATOM     50  C   UNL A   1      40.757  31.880  30.630  1.00  0.00     0.029 A 
ATOM     51  C   UNL A   1      41.886  31.044  30.715  1.00  0.00     0.049 A 
ATOM     52  H   UNL A   1      42.167  29.068  30.028  1.00  0.00     0.167 HD
ATOM     53  C   UNL A   1      42.493  25.125  28.512  1.00  0.00     0.031 A 
ATOM     54  C   UNL A   1      43.088  31.408  31.301  1.00  0.00     0.031 A 
ATOM     55  C   UNL A   1      43.707  25.506  29.060  1.00  0.00     0.049 A 
ATOM     56  C   UNL A   1      44.202  30.569  31.371  1.00  0.00     0.074 A 
ATOM     57  C   UNL A   1      44.859  24.697  29.079  1.00  0.00     0.029 A 
ATOM     58  N   UNL A   1      44.020  26.700  29.672  1.00  0.00    -0.354 N 
ATOM     59  N   UNL A   1      44.319  29.334  30.881  1.00  0.00    -0.248 NA
ATOM     60  C   UNL A   1      45.469  30.933  32.019  1.00  0.00     0.031 C 
ATOM     61  C   UNL A   1      45.850  25.388  29.703  1.00  0.00     0.029 A 
ATOM     62  C   UNL A   1      45.332  26.641  30.085  1.00  0.00     0.049 A 
ATOM     63  H   UNL A   1      43.409  27.462  29.794  1.00  0.00     0.167 HD
ATOM     64  C   UNL A   1      45.541  28.856  31.126  1.00  0.00     0.074 A 
ATOM     65  C   UNL A   1      46.296  29.875  31.868  1.00  0.00     0.031 C 
ATOM     66  C   UNL A   1      46.057  27.612  30.757  1.00  0.00     0.031 A 
BRANCH  53  67
ATOM     67  C   UNL A   1      42.386  23.740  27.897  1.00  0.00    -0.014 A 
ATOM     68  C   UNL A   1      42.694  23.579  26.556  1.00  0.00     0.010 A 
ATOM     69  C   UNL A   1      42.068  22.701  28.659  1.00  0.00     0.010 A 
ATOM     70  C   UNL A   1      42.355  22.306  26.038  1.00  0.00     0.020 A 
ATOM     71  C   UNL A   1      41.884  21.456  28.107  1.00  0.00     0.020 A 
ATOM     72  C   UNL A   1      42.114  21.237  26.777  1.00  0.00     0.054 A 
BRANCH  72  73
ATOM     73  S   UNL A   1      42.088  19.574  26.066  1.00  0.00     0.124 S 
ATOM     74  O   UNL A   1      40.650  19.197  25.699  1.00  0.00    -0.237 OA
ATOM     75  O   UNL A   1      42.960  19.541  24.809  1.00  0.00    -0.237 OA
ATOM     76  O   UNL A   1      42.695  18.456  27.209  1.00  0.00    -0.744 OA
ENDBRANCH  72  73
ENDBRANCH  53  67
BRANCH  54  77
ATOM     77  C   UNL A   1      43.199  32.800  31.901  1.00  0.00    -0.014 A 
ATOM     78  C   UNL A   1      43.568  33.825  31.046  1.00  0.00     0.010 A 
ATOM     79  C   UNL A   1      42.904  33.038  33.174  1.00  0.00     0.010 A 
ATOM     80  C   UNL A   1      43.878  35.038  31.704  1.00  0.00     0.020 A 
ATOM     81  C   UNL A   1      43.105  34.284  33.718  1.00  0.00     0.020 A 
ATOM     82  C   UNL A   1      43.525  35.330  32.943  1.00  0.00     0.054 A 
BRANCH  82  83
ATOM     83  S   UNL A   1      43.593  37.022  33.581  1.00  0.00     0.124 S 
ATOM     84  O   UNL A   1      42.295  37.338  34.327  1.00  0.00    -0.237 OA
ATOM     85  O   UNL A   1      44.779  37.159  34.538  1.00  0.00    -0.237 OA
ATOM     86  O   UNL A   1      43.782  38.114  32.280  1.00  0.00    -0.744 OA
ENDBRANCH  82  83
ENDBRANCH  54  77
BRANCH  66  87
ATOM     87  C   UNL A   1      47.502  27.306  31.115  1.00  0.00    -0.014 A 
ATOM     88  C   UNL A   1      47.787  26.688  32.321  1.00  0.00     0.010 A 
ATOM     89  C   UNL A   1      48.467  27.634  30.265  1.00  0.00     0.010 A 
ATOM     90  C   UNL A   1      49.157  26.719  32.673  1.00  0.00     0.020 A 
ATOM     91  C   UNL A   1      49.788  27.511  30.624  1.00  0.00     0.020 A 
ATOM     92  C   UNL A   1      50.142  26.964  31.827  1.00  0.00     0.054 A 
BRANCH  92  93
ATOM     93  S   UNL A   1      51.864  26.594  32.237  1.00  0.00     0.124 S 
ATOM     94  O   UNL A   1      52.791  27.472  31.393  1.00  0.00    -0.237 OA
ATOM     95  O   UNL A   1      52.108  26.876  33.721  1.00  0.00    -0.237 OA
ATOM     96  O   UNL A   1      52.187  24.946  31.910  1.00  0.00    -0.744 OA
ENDBRANCH  92  93
ENDBRANCH  66  87
ENDBRANCH  40  41
ENDBRANCH  32  35
ENDBRANCH  30  31
ENDBRANCH  29  30
ENDBRANCH   1  29
TORSDOF 18
ENDMDL
MODEL 3
REMARK VINA RESULT:     -11.3      3.437      9.095
REMARK SMILES O=C(NCCCCCCNC(=O)c1ccc(-c2c3nc(c(-c4ccc(S(=O)(=O)[O-])cc4)c4ccc([nH]4)c(-c4ccc(S(=O)(=O)[O-])cc4)c4nc(c(-c5ccc(S(=O)(=O)[O-])cc5)c5ccc2[nH]5)C=C4)C=C3)cc1)C1=Cc2cc(S(F)(F)(F)(F)F)ccc2O[C@@H]1C(F)(F)F
REMARK SMILES IDX 7 1 6 2 5 3 4 4 3 5 1 6 2 7 73 9 74 10 88 11 75 12 87 13
REMARK SMILES IDX 76 14 86 15 77 16 85 17 84 18 89 19 90 20 91 21 92 22 78 23
REMARK SMILES IDX 79 24 80 25 81 26 82 27 83 28 8 29 9 30 10 31 11 32 12 34
REMARK SMILES IDX 13 35 14 36 72 37 15 38 71 39 16 40 17 41 18 42 65 43 19 44
REMARK SMILES IDX 70 45 64 46 66 47 20 48 69 49 63 50 62 51 21 53 51 54 32 55
REMARK SMILES IDX 50 56 33 57 36 58 49 59 67 60 34 61 35 62 48 64 68 65 37 66
REMARK SMILES IDX 22 67 23 68 31 69 24 70 30 71 25 72 26 73 27 74 28 75 29 76
REMARK SMILES IDX 52 77 53 78 61 79 54 80 60 81 55 82 56 83 57 84 58 85 59 86
REMARK SMILES IDX 38 87 39 88 47 89 40 90 46 91 41 92 42 93 43 94 44 95 45 96
REMARK H PARENT 3 8 10 33 66 52 36 63
REMARK Flexibility Score: inf
ROOT
ATOM      1  C   UNL A   1      32.102  27.350  25.520  1.00  0.00     0.002 C 
ENDROOT
BRANCH   1   2
ATOM      2  C   UNL A   1      31.852  26.172  24.594  1.00  0.00     0.002 C 
BRANCH   2   3
ATOM      3  C   UNL A   1      33.071  25.952  23.713  1.00  0.00     0.021 C 
BRANCH   3   4
ATOM      4  C   UNL A   1      33.207  24.471  23.397  1.00  0.00     0.116 C 
BRANCH   4   5
ATOM      5  N   UNL A   1      31.999  23.762  23.843  1.00  0.00    -0.352 N 
ATOM      6  O   UNL A   1      31.040  22.166  25.318  1.00  0.00    -0.270 OA
ATOM      7  C   UNL A   1      32.084  22.779  24.932  1.00  0.00     0.251 C 
ATOM      8  H   UNL A   1      31.133  23.946  23.412  1.00  0.00     0.163 HD
BRANCH   7   9
ATOM      9  C   UNL A   1      33.421  22.495  25.597  1.00  0.00     0.067 C 
ATOM     10  C   UNL A   1      33.975  21.257  25.508  1.00  0.00     0.025 C 
ATOM     11  C   UNL A   1      34.139  23.596  26.361  1.00  0.00     0.314 C 
ATOM     12  C   UNL A   1      33.258  20.156  24.744  1.00  0.00     0.019 A 
ATOM     13  O   UNL A   1      32.677  21.775  23.104  1.00  0.00    -0.475 OA
ATOM     14  C   UNL A   1      33.189  18.882  25.284  1.00  0.00     0.036 A 
ATOM     15  C   UNL A   1      32.732  20.429  23.557  1.00  0.00     0.128 A 
ATOM     16  C   UNL A   1      32.793  17.887  24.359  1.00  0.00     0.107 A 
ATOM     17  C   UNL A   1      32.239  19.424  22.761  1.00  0.00     0.048 A 
ATOM     18  C   UNL A   1      32.194  18.132  23.208  1.00  0.00     0.028 A 
BRANCH  11  19
ATOM     19  C   UNL A   1      35.499  23.847  25.730  1.00  0.00     0.429 C 
ATOM     20  F   UNL A   1      35.553  23.252  24.541  1.00  0.00    -0.167 F 
ATOM     21  F   UNL A   1      35.684  25.156  25.579  1.00  0.00    -0.167 F 
ATOM     22  F   UNL A   1      36.451  23.353  26.517  1.00  0.00    -0.167 F 
ENDBRANCH  11  19
BRANCH  16  23
ATOM     23  S   UNL A   1      33.130  16.160  24.783  1.00  0.00     0.310 S 
ATOM     24  F   UNL A   1      33.955  16.571  26.073  1.00  0.00    -0.094 F 
ATOM     25  F   UNL A   1      34.479  16.255  23.974  1.00  0.00    -0.094 F 
ATOM     26  F   UNL A   1      33.419  14.677  25.145  1.00  0.00    -0.094 F 
ATOM     27  F   UNL A   1      31.847  16.126  25.702  1.00  0.00    -0.094 F 
ATOM     28  F   UNL A   1      32.881  17.698  24.516  1.00  0.00    -0.094 F 
ENDBRANCH  16  23
ENDBRANCH   7   9
ENDBRANCH   4   5
ENDBRANCH   3   4
ENDBRANCH   2   3
ENDBRANCH   1   2
BRANCH   1  29
ATOM     29  C   UNL A   1      33.547  27.803  25.386  1.00  0.00     0.021 C 
BRANCH  29  30
ATOM     30  C   UNL A   1      34.077  28.212  26.749  1.00  0.00     0.116 C 
BRANCH  30  31
ATOM     31  N   UNL A   1      33.542  29.534  27.107  1.00  0.00    -0.352 N 
ATOM     32  C   UNL A   1      34.389  30.500  27.823  1.00  0.00     0.251 C 
ATOM     33  H   UNL A   1      32.617  29.772  26.868  1.00  0.00     0.163 HD
ATOM     34  O   UNL A   1      33.926  31.643  28.132  1.00  0.00    -0.269 OA
BRANCH  32  35
ATOM     35  C   UNL A   1      35.817  30.133  28.191  1.00  0.00     0.039 A 
ATOM     36  C   UNL A   1      36.828  30.323  27.262  1.00  0.00     0.014 A 
ATOM     37  C   UNL A   1      36.072  29.636  29.395  1.00  0.00     0.014 A 
ATOM     38  C   UNL A   1      38.043  29.683  27.600  1.00  0.00     0.010 A 
ATOM     39  C   UNL A   1      37.321  29.153  29.702  1.00  0.00     0.010 A 
ATOM     40  C   UNL A   1      38.353  29.254  28.810  1.00  0.00    -0.014 A 
BRANCH  40  41
ATOM     41  C   UNL A   1      39.779  28.891  29.191  1.00  0.00     0.031 A 
ATOM     42  C   UNL A   1      40.245  27.620  28.852  1.00  0.00     0.074 A 
ATOM     43  C   UNL A   1      40.537  29.841  29.854  1.00  0.00     0.049 A 
ATOM     44  N   UNL A   1      41.462  27.116  29.061  1.00  0.00    -0.248 NA
ATOM     45  C   UNL A   1      39.430  26.596  28.178  1.00  0.00     0.031 C 
ATOM     46  C   UNL A   1      40.077  31.129  30.193  1.00  0.00     0.029 A 
ATOM     47  N   UNL A   1      41.835  29.727  30.299  1.00  0.00    -0.354 N 
ATOM     48  C   UNL A   1      41.536  25.873  28.579  1.00  0.00     0.074 A 
ATOM     49  C   UNL A   1      40.229  25.519  28.010  1.00  0.00     0.031 C 
ATOM     50  C   UNL A   1      41.079  31.777  30.842  1.00  0.00     0.029 A 
ATOM     51  C   UNL A   1      42.183  30.906  30.919  1.00  0.00     0.049 A 
ATOM     52  H   UNL A   1      42.415  28.939  30.191  1.00  0.00     0.167 HD
ATOM     53  C   UNL A   1      42.643  25.023  28.591  1.00  0.00     0.031 A 
ATOM     54  C   UNL A   1      43.388  31.223  31.526  1.00  0.00     0.031 A 
ATOM     55  C   UNL A   1      43.862  25.356  29.160  1.00  0.00     0.049 A 
ATOM     56  C   UNL A   1      44.477  30.350  31.589  1.00  0.00     0.074 A 
ATOM     57  C   UNL A   1      44.990  24.514  29.173  1.00  0.00     0.029 A 
ATOM     58  N   UNL A   1      44.202  26.526  29.802  1.00  0.00    -0.354 N 
ATOM     59  N   UNL A   1      44.564  29.123  31.073  1.00  0.00    -0.248 NA
ATOM     60  C   UNL A   1      45.747  30.662  32.258  1.00  0.00     0.031 C 
ATOM     61  C   UNL A   1      45.994  25.162  29.822  1.00  0.00     0.029 A 
ATOM     62  C   UNL A   1      45.508  26.420  30.227  1.00  0.00     0.049 A 
ATOM     63  H   UNL A   1      43.613  27.304  29.935  1.00  0.00     0.167 HD
ATOM     64  C   UNL A   1      45.769  28.604  31.320  1.00  0.00     0.074 A 
ATOM     65  C   UNL A   1      46.545  29.585  32.092  1.00  0.00     0.031 C 
ATOM     66  C   UNL A   1      46.253  27.355  30.928  1.00  0.00     0.031 A 
BRANCH  53  67
ATOM     67  C   UNL A   1      42.503  23.655  27.944  1.00  0.00    -0.014 A 
ATOM     68  C   UNL A   1      42.883  23.500  26.621  1.00  0.00     0.010 A 
ATOM     69  C   UNL A   1      42.088  22.622  28.666  1.00  0.00     0.010 A 
ATOM     70  C   UNL A   1      42.512  22.256  26.059  1.00  0.00     0.020 A 
ATOM     71  C   UNL A   1      41.875  21.397  28.079  1.00  0.00     0.020 A 
ATOM     72  C   UNL A   1      42.173  21.189  26.761  1.00  0.00     0.054 A 
BRANCH  72  73
ATOM     73  S   UNL A   1      42.105  19.541  26.017  1.00  0.00     0.124 S 
ATOM     74  O   UNL A   1      42.942  19.523  24.736  1.00  0.00    -0.237 OA
ATOM     75  O   UNL A   1      42.661  18.512  27.004  1.00  0.00    -0.237 OA
ATOM     76  O   UNL A   1      40.482  19.151  25.643  1.00  0.00    -0.744 OA
ENDBRANCH  72  73
ENDBRANCH  53  67
BRANCH  54  77
ATOM     77  C   UNL A   1      43.533  32.597  32.159  1.00  0.00    -0.014 A 
ATOM     78  C   UNL A   1      43.256  32.697  33.512  1.00  0.00     0.010 A 
ATOM     79  C   UNL A   1      43.958  33.645  31.463  1.00  0.00     0.010 A 
ATOM     80  C   UNL A   1      43.183  34.028  33.985  1.00  0.00     0.020 A 
ATOM     81  C   UNL A   1      43.988  34.897  32.031  1.00  0.00     0.020 A 
ATOM     82  C   UNL A   1      43.670  35.078  33.349  1.00  0.00     0.054 A 
BRANCH  82  83
ATOM     83  S   UNL A   1      43.905  36.670  34.175  1.00  0.00     0.124 S 
ATOM     84  O   UNL A   1      44.349  36.434  35.621  1.00  0.00    -0.237 OA
ATOM     85  O   UNL A   1      44.977  37.475  33.437  1.00  0.00    -0.237 OA
ATOM     86  O   UNL A   1      42.433  37.540  34.167  1.00  0.00    -0.744 OA
ENDBRANCH  82  83
ENDBRANCH  54  77
BRANCH  66  87
ATOM     87  C   UNL A   1      47.684  26.999  31.294  1.00  0.00    -0.014 A 
ATOM     88  C   UNL A   1      48.710  27.325  30.423  1.00  0.00     0.010 A 
ATOM     89  C   UNL A   1      47.927  26.381  32.444  1.00  0.00     0.010 A 
ATOM     90  C   UNL A   1      49.941  26.695  30.724  1.00  0.00     0.020 A 
ATOM     91  C   UNL A   1      49.186  25.911  32.733  1.00  0.00     0.020 A 
ATOM     92  C   UNL A   1      50.235  26.145  31.889  1.00  0.00     0.054 A 
BRANCH  92  93
ATOM     93  S   UNL A   1      51.936  25.725  32.341  1.00  0.00     0.124 S 
ATOM     94  O   UNL A   1      52.798  25.655  31.079  1.00  0.00    -0.237 OA
ATOM     95  O   UNL A   1      52.495  26.797  33.280  1.00  0.00    -0.237 OA
ATOM     96  O   UNL A   1      51.958  24.208  33.132  1.00  0.00    -0.744 OA
ENDBRANCH  92  93
ENDBRANCH  66  87
ENDBRANCH  40  41
ENDBRANCH  32  35
ENDBRANCH  30  31
ENDBRANCH  29  30
ENDBRANCH   1  29
TORSDOF 18
ENDMDL
