MODEL 1
REMARK VINA RESULT:     -11.7      0.000      0.000
REMARK SMILES O=C(NCCCCCCNC(=O)[C@H]1[C@@H](C(=O)NN2CCOCC2)[C@H]2C=C[C@@H]1CC2)c1ccc(-c2c3nc(c(-c4ccc(S(=O)(=O)[O-])cc4)c4ccc([nH]4)c(-c4ccc(S(=O)(=O)[O-])cc4)c4nc(c(-c5ccc(S(=O)(=O)[O-])cc5)c5ccc2[nH]5)C=C4)C=C3)cc1
REMARK SMILES IDX 6 1 5 2 4 3 3 4 1 5 2 6 30 8 31 9 89 10 32 11 88 12 33 13
REMARK SMILES IDX 34 14 35 15 82 16 36 17 87 18 81 19 83 20 37 21 86 22 80 23
REMARK SMILES IDX 79 24 38 26 68 27 49 28 67 29 50 30 53 31 66 32 84 33 51 34
REMARK SMILES IDX 52 35 65 37 85 38 54 39 39 40 40 41 48 42 41 43 47 44 42 45
REMARK SMILES IDX 43 46 44 47 45 48 46 49 69 50 70 51 78 52 71 53 77 54 72 55
REMARK SMILES IDX 73 56 74 57 75 58 76 59 55 60 56 61 64 62 57 63 63 64 58 65
REMARK SMILES IDX 59 66 60 67 61 68 62 69 7 70 8 71 9 72 10 73 11 74 12 76
REMARK SMILES IDX 13 77 14 78 27 79 24 80 26 81 28 82 25 83 29 84 15 85 16 86
REMARK SMILES IDX 17 87 18 89 19 90 23 91 20 92 22 93 21 94
REMARK H PARENT 3 7 83 25 53 36 10 75 17 88
REMARK Flexibility Score: inf
ROOT
ATOM      1  C   UNL A   1      34.425  32.789  28.413  1.00  0.00     0.002 C 
ENDROOT
BRANCH   1   2
ATOM      2  C   UNL A   1      35.936  33.001  28.306  1.00  0.00     0.021 C 
BRANCH   2   3
ATOM      3  C   UNL A   1      36.724  32.730  29.577  1.00  0.00     0.116 C 
BRANCH   3   4
ATOM      4  N   UNL A   1      36.164  31.653  30.373  1.00  0.00    -0.352 N 
ATOM      5  O   UNL A   1      36.023  29.560  31.203  1.00  0.00    -0.269 OA
ATOM      6  C   UNL A   1      36.689  30.405  30.612  1.00  0.00     0.251 C 
ATOM      7  H   UNL A   1      35.295  31.840  30.796  1.00  0.00     0.163 HD
BRANCH   6   8
ATOM      8  C   UNL A   1      38.051  30.079  30.129  1.00  0.00     0.039 A 
ATOM      9  C   UNL A   1      38.317  29.981  28.761  1.00  0.00     0.014 A 
ATOM     10  C   UNL A   1      39.075  29.867  31.058  1.00  0.00     0.014 A 
ATOM     11  C   UNL A   1      39.563  29.544  28.329  1.00  0.00     0.010 A 
ATOM     12  C   UNL A   1      40.354  29.511  30.616  1.00  0.00     0.010 A 
ATOM     13  C   UNL A   1      40.603  29.327  29.248  1.00  0.00    -0.014 A 
BRANCH  13  14
ATOM     14  C   UNL A   1      41.956  28.998  28.730  1.00  0.00     0.031 A 
ATOM     15  C   UNL A   1      43.062  30.014  28.707  1.00  0.00     0.074 A 
ATOM     16  C   UNL A   1      42.187  27.732  28.327  1.00  0.00     0.049 A 
ATOM     17  N   UNL A   1      44.312  29.854  28.352  1.00  0.00    -0.248 NA
ATOM     18  C   UNL A   1      42.731  31.384  29.130  1.00  0.00     0.031 C 
ATOM     19  C   UNL A   1      41.182  26.663  28.287  1.00  0.00     0.029 A 
ATOM     20  N   UNL A   1      43.339  27.116  27.909  1.00  0.00    -0.354 N 
ATOM     21  C   UNL A   1      44.915  31.098  28.497  1.00  0.00     0.074 A 
ATOM     22  C   UNL A   1      43.887  32.011  28.952  1.00  0.00     0.031 C 
ATOM     23  C   UNL A   1      41.773  25.515  27.928  1.00  0.00     0.029 A 
ATOM     24  C   UNL A   1      43.182  25.774  27.655  1.00  0.00     0.049 A 
ATOM     25  H   UNL A   1      44.196  27.590  27.802  1.00  0.00     0.167 HD
ATOM     26  C   UNL A   1      46.207  31.443  28.275  1.00  0.00     0.031 A 
ATOM     27  C   UNL A   1      44.068  24.851  27.241  1.00  0.00     0.031 A 
ATOM     28  C   UNL A   1      47.225  30.531  27.819  1.00  0.00     0.049 A 
ATOM     29  C   UNL A   1      45.489  25.265  27.001  1.00  0.00     0.074 A 
ATOM     30  C   UNL A   1      48.563  30.786  27.573  1.00  0.00     0.029 A 
ATOM     31  N   UNL A   1      47.019  29.187  27.542  1.00  0.00    -0.354 N 
ATOM     32  N   UNL A   1      46.039  26.445  27.162  1.00  0.00    -0.248 NA
ATOM     33  C   UNL A   1      46.409  24.224  26.526  1.00  0.00     0.031 C 
ATOM     34  C   UNL A   1      49.158  29.606  27.111  1.00  0.00     0.029 A 
ATOM     35  C   UNL A   1      48.201  28.605  27.115  1.00  0.00     0.049 A 
ATOM     36  H   UNL A   1      46.160  28.717  27.635  1.00  0.00     0.167 HD
ATOM     37  C   UNL A   1      47.371  26.288  26.805  1.00  0.00     0.074 A 
ATOM     38  C   UNL A   1      47.551  24.893  26.457  1.00  0.00     0.031 C 
ATOM     39  C   UNL A   1      48.356  27.218  26.757  1.00  0.00     0.031 A 
BRANCH  26  40
ATOM     40  C   UNL A   1      46.602  32.878  28.512  1.00  0.00    -0.014 A 
ATOM     41  C   UNL A   1      46.915  33.336  29.805  1.00  0.00     0.010 A 
ATOM     42  C   UNL A   1      46.740  33.756  27.422  1.00  0.00     0.010 A 
ATOM     43  C   UNL A   1      47.338  34.653  30.004  1.00  0.00     0.020 A 
ATOM     44  C   UNL A   1      47.182  35.069  27.616  1.00  0.00     0.020 A 
ATOM     45  C   UNL A   1      47.469  35.512  28.908  1.00  0.00     0.054 A 
BRANCH  45  46
ATOM     46  S   UNL A   1      48.067  37.202  29.192  1.00  0.00     0.124 S 
ATOM     47  O   UNL A   1      48.156  37.721  27.828  1.00  0.00    -0.237 OA
ATOM     48  O   UNL A   1      47.010  37.783  30.015  1.00  0.00    -0.237 OA
ATOM     49  O   UNL A   1      49.347  37.009  29.869  1.00  0.00    -0.744 OA
ENDBRANCH  45  46
ENDBRANCH  26  40
BRANCH  27  50
ATOM     50  C   UNL A   1      43.622  23.452  27.003  1.00  0.00    -0.014 A 
ATOM     51  C   UNL A   1      43.044  22.694  28.035  1.00  0.00     0.010 A 
ATOM     52  C   UNL A   1      43.764  22.877  25.726  1.00  0.00     0.010 A 
ATOM     53  C   UNL A   1      42.635  21.379  27.800  1.00  0.00     0.020 A 
ATOM     54  C   UNL A   1      43.330  21.574  25.480  1.00  0.00     0.020 A 
ATOM     55  C   UNL A   1      42.782  20.826  26.524  1.00  0.00     0.054 A 
BRANCH  55  56
ATOM     56  S   UNL A   1      42.207  19.133  26.222  1.00  0.00     0.124 S 
ATOM     57  O   UNL A   1      42.396  18.512  27.529  1.00  0.00    -0.237 OA
ATOM     58  O   UNL A   1      40.820  19.335  25.811  1.00  0.00    -0.237 OA
ATOM     59  O   UNL A   1      43.097  18.657  25.166  1.00  0.00    -0.744 OA
ENDBRANCH  55  56
ENDBRANCH  27  50
BRANCH  39  60
ATOM     60  C   UNL A   1      49.712  26.742  26.315  1.00  0.00    -0.014 A 
ATOM     61  C   UNL A   1      50.136  26.907  24.985  1.00  0.00     0.010 A 
ATOM     62  C   UNL A   1      50.572  26.126  27.241  1.00  0.00     0.010 A 
ATOM     63  C   UNL A   1      51.379  26.418  24.575  1.00  0.00     0.020 A 
ATOM     64  C   UNL A   1      51.826  25.658  26.841  1.00  0.00     0.020 A 
ATOM     65  C   UNL A   1      52.212  25.790  25.505  1.00  0.00     0.054 A 
BRANCH  65  66
ATOM     66  S   UNL A   1      53.825  25.169  24.955  1.00  0.00     0.124 S 
ATOM     67  O   UNL A   1      54.697  25.581  26.052  1.00  0.00    -0.237 OA
ATOM     68  O   UNL A   1      53.597  23.731  24.840  1.00  0.00    -0.237 OA
ATOM     69  O   UNL A   1      54.047  25.862  23.689  1.00  0.00    -0.744 OA
ENDBRANCH  65  66
ENDBRANCH  39  60
ENDBRANCH  13  14
ENDBRANCH   6   8
ENDBRANCH   3   4
ENDBRANCH   2   3
ENDBRANCH   1   2
BRANCH   1  70
ATOM     70  C   UNL A   1      33.846  31.631  27.592  1.00  0.00     0.002 C 
BRANCH  70  71
ATOM     71  C   UNL A   1      32.380  31.766  27.168  1.00  0.00     0.021 C 
BRANCH  71  72
ATOM     72  C   UNL A   1      31.883  30.694  26.203  1.00  0.00     0.116 C 
BRANCH  72  73
ATOM     73  N   UNL A   1      32.964  29.935  25.602  1.00  0.00    -0.356 N 
ATOM     74  C   UNL A   1      32.948  28.720  24.979  1.00  0.00     0.224 C 
ATOM     75  H   UNL A   1      33.849  30.363  25.652  1.00  0.00     0.163 HD
ATOM     76  O   UNL A   1      34.001  28.315  24.486  1.00  0.00    -0.275 OA
BRANCH  74  77
ATOM     77  C   UNL A   1      31.659  27.920  24.946  1.00  0.00     0.098 C 
ATOM     78  C   UNL A   1      30.616  28.355  23.874  1.00  0.00     0.100 C 
ATOM     79  C   UNL A   1      31.935  26.386  24.843  1.00  0.00     0.025 C 
ATOM     80  C   UNL A   1      30.052  27.064  23.190  1.00  0.00     0.025 C 
ATOM     81  C   UNL A   1      32.197  25.994  23.407  1.00  0.00    -0.027 C 
ATOM     82  C   UNL A   1      30.614  25.671  25.234  1.00  0.00     0.009 C 
ATOM     83  C   UNL A   1      31.206  26.306  22.559  1.00  0.00    -0.027 C 
ATOM     84  C   UNL A   1      29.477  26.141  24.294  1.00  0.00     0.009 C 
BRANCH  78  85
ATOM     85  C   UNL A   1      31.074  29.354  22.799  1.00  0.00     0.238 C 
ATOM     86  O   UNL A   1      32.221  29.370  22.343  1.00  0.00    -0.273 OA
ATOM     87  N   UNL A   1      30.191  30.233  22.225  1.00  0.00    -0.288 N 
ATOM     88  H   UNL A   1      30.537  30.765  21.472  1.00  0.00     0.185 HD
BRANCH  87  89
ATOM     89  N   UNL A   1      28.855  30.462  22.586  1.00  0.00    -0.217 NA
ATOM     90  C   UNL A   1      27.977  30.716  21.420  1.00  0.00     0.136 C 
ATOM     91  C   UNL A   1      28.765  31.642  23.491  1.00  0.00     0.136 C 
ATOM     92  C   UNL A   1      28.192  32.082  20.755  1.00  0.00     0.177 C 
ATOM     93  C   UNL A   1      28.972  32.990  22.780  1.00  0.00     0.177 C 
ATOM     94  O   UNL A   1      28.049  33.146  21.701  1.00  0.00    -0.379 OA
ENDBRANCH  87  89
ENDBRANCH  78  85
ENDBRANCH  74  77
ENDBRANCH  72  73
ENDBRANCH  71  72
ENDBRANCH  70  71
ENDBRANCH   1  70
TORSDOF 18
ENDMDL
MODEL 2
REMARK VINA RESULT:     -11.7      7.083     12.885
REMARK SMILES O=C(NCCCCCCNC(=O)[C@H]1[C@@H](C(=O)NN2CCOCC2)[C@H]2C=C[C@@H]1CC2)c1ccc(-c2c3nc(c(-c4ccc(S(=O)(=O)[O-])cc4)c4ccc([nH]4)c(-c4ccc(S(=O)(=O)[O-])cc4)c4nc(c(-c5ccc(S(=O)(=O)[O-])cc5)c5ccc2[nH]5)C=C4)C=C3)cc1
REMARK SMILES IDX 6 1 5 2 4 3 3 4 1 5 2 6 30 8 31 9 89 10 32 11 88 12 33 13
REMARK SMILES IDX 34 14 35 15 82 16 36 17 87 18 81 19 83 20 37 21 86 22 80 23
REMARK SMILES IDX 79 24 38 26 68 27 49 28 67 29 50 30 53 31 66 32 84 33 51 34
REMARK SMILES IDX 52 35 65 37 85 38 54 39 39 40 40 41 48 42 41 43 47 44 42 45
REMARK SMILES IDX 43 46 44 47 45 48 46 49 69 50 70 51 78 52 71 53 77 54 72 55
REMARK SMILES IDX 73 56 74 57 75 58 76 59 55 60 56 61 64 62 57 63 63 64 58 65
REMARK SMILES IDX 59 66 60 67 61 68 62 69 7 70 8 71 9 72 10 73 11 74 12 76
REMARK SMILES IDX 13 77 14 78 27 79 24 80 26 81 28 82 25 83 29 84 15 85 16 86
REMARK SMILES IDX 17 87 18 89 19 90 23 91 20 92 22 93 21 94
REMARK H PARENT 3 7 83 25 53 36 10 75 17 88
REMARK Flexibility Score: inf
ROOT
ATOM      1  C   UNL A   1      40.905  21.144  27.163  1.00  0.00     0.002 C 
ENDROOT
BRANCH   1   2
ATOM      2  C   UNL A   1      40.806  22.482  27.898  1.00  0.00     0.021 C 
BRANCH   2   3
ATOM      3  C   UNL A   1      41.917  23.474  27.599  1.00  0.00     0.116 C 
BRANCH   3   4
ATOM      4  N   UNL A   1      41.710  24.201  26.359  1.00  0.00    -0.352 N 
ATOM      5  O   UNL A   1      41.022  25.915  25.064  1.00  0.00    -0.269 OA
ATOM      6  C   UNL A   1      41.270  25.493  26.190  1.00  0.00     0.251 C 
ATOM      7  H   UNL A   1      41.910  23.705  25.534  1.00  0.00     0.163 HD
BRANCH   6   8
ATOM      8  C   UNL A   1      41.070  26.360  27.375  1.00  0.00     0.039 A 
ATOM      9  C   UNL A   1      41.949  27.410  27.644  1.00  0.00     0.014 A 
ATOM     10  C   UNL A   1      39.988  26.117  28.227  1.00  0.00     0.014 A 
ATOM     11  C   UNL A   1      41.826  28.129  28.827  1.00  0.00     0.010 A 
ATOM     12  C   UNL A   1      39.815  26.899  29.375  1.00  0.00     0.010 A 
ATOM     13  C   UNL A   1      40.745  27.898  29.695  1.00  0.00    -0.014 A 
BRANCH  13  14
ATOM     14  C   UNL A   1      40.576  28.783  30.875  1.00  0.00     0.031 A 
ATOM     15  C   UNL A   1      41.471  28.679  32.077  1.00  0.00     0.074 A 
ATOM     16  C   UNL A   1      39.623  29.735  30.819  1.00  0.00     0.049 A 
ATOM     17  N   UNL A   1      41.491  29.429  33.150  1.00  0.00    -0.248 NA
ATOM     18  C   UNL A   1      42.469  27.597  32.085  1.00  0.00     0.031 C 
ATOM     19  C   UNL A   1      38.680  29.919  29.709  1.00  0.00     0.029 A 
ATOM     20  N   UNL A   1      39.306  30.745  31.690  1.00  0.00    -0.354 N 
ATOM     21  C   UNL A   1      42.489  28.908  33.965  1.00  0.00     0.074 A 
ATOM     22  C   UNL A   1      43.040  27.762  33.272  1.00  0.00     0.031 C 
ATOM     23  C   UNL A   1      37.937  31.011  29.938  1.00  0.00     0.029 A 
ATOM     24  C   UNL A   1      38.305  31.569  31.234  1.00  0.00     0.049 A 
ATOM     25  H   UNL A   1      39.753  30.869  32.559  1.00  0.00     0.167 HD
ATOM     26  C   UNL A   1      42.909  29.349  35.176  1.00  0.00     0.031 A 
ATOM     27  C   UNL A   1      37.735  32.651  31.794  1.00  0.00     0.031 A 
ATOM     28  C   UNL A   1      42.355  30.489  35.862  1.00  0.00     0.049 A 
ATOM     29  C   UNL A   1      38.221  33.113  33.137  1.00  0.00     0.074 A 
ATOM     30  C   UNL A   1      42.720  31.017  37.089  1.00  0.00     0.029 A 
ATOM     31  N   UNL A   1      41.321  31.278  35.382  1.00  0.00    -0.354 N 
ATOM     32  N   UNL A   1      39.179  32.613  33.879  1.00  0.00    -0.248 NA
ATOM     33  C   UNL A   1      37.549  34.284  33.715  1.00  0.00     0.031 C 
ATOM     34  C   UNL A   1      41.880  32.103  37.368  1.00  0.00     0.029 A 
ATOM     35  C   UNL A   1      41.025  32.279  36.293  1.00  0.00     0.049 A 
ATOM     36  H   UNL A   1      40.863  31.146  34.521  1.00  0.00     0.167 HD
ATOM     37  C   UNL A   1      39.224  33.409  35.016  1.00  0.00     0.074 A 
ATOM     38  C   UNL A   1      38.223  34.444  34.844  1.00  0.00     0.031 C 
ATOM     39  C   UNL A   1      40.014  33.289  36.111  1.00  0.00     0.031 A 
BRANCH  26  40
ATOM     40  C   UNL A   1      44.023  28.593  35.852  1.00  0.00    -0.014 A 
ATOM     41  C   UNL A   1      45.366  28.972  35.675  1.00  0.00     0.010 A 
ATOM     42  C   UNL A   1      43.720  27.542  36.738  1.00  0.00     0.010 A 
ATOM     43  C   UNL A   1      46.386  28.301  36.355  1.00  0.00     0.020 A 
ATOM     44  C   UNL A   1      44.737  26.881  37.435  1.00  0.00     0.020 A 
ATOM     45  C   UNL A   1      46.065  27.259  37.230  1.00  0.00     0.054 A 
BRANCH  45  46
ATOM     46  S   UNL A   1      47.407  26.438  38.136  1.00  0.00     0.124 S 
ATOM     47  O   UNL A   1      46.745  25.227  38.618  1.00  0.00    -0.237 OA
ATOM     48  O   UNL A   1      48.415  26.231  37.100  1.00  0.00    -0.237 OA
ATOM     49  O   UNL A   1      47.769  27.403  39.171  1.00  0.00    -0.744 OA
ENDBRANCH  45  46
ENDBRANCH  26  40
BRANCH  27  50
ATOM     50  C   UNL A   1      36.626  33.351  31.093  1.00  0.00    -0.014 A 
ATOM     51  C   UNL A   1      36.801  33.862  29.797  1.00  0.00     0.010 A 
ATOM     52  C   UNL A   1      35.377  33.494  31.725  1.00  0.00     0.010 A 
ATOM     53  C   UNL A   1      35.753  34.523  29.151  1.00  0.00     0.020 A 
ATOM     54  C   UNL A   1      34.318  34.128  31.072  1.00  0.00     0.020 A 
ATOM     55  C   UNL A   1      34.518  34.654  29.794  1.00  0.00     0.054 A 
BRANCH  55  56
ATOM     56  S   UNL A   1      33.153  35.475  28.928  1.00  0.00     0.124 S 
ATOM     57  O   UNL A   1      33.856  36.495  28.155  1.00  0.00    -0.237 OA
ATOM     58  O   UNL A   1      32.565  34.385  28.152  1.00  0.00    -0.237 OA
ATOM     59  O   UNL A   1      32.315  35.977  30.015  1.00  0.00    -0.744 OA
ENDBRANCH  55  56
ENDBRANCH  27  50
BRANCH  39  60
ATOM     60  C   UNL A   1      39.821  34.309  37.198  1.00  0.00    -0.014 A 
ATOM     61  C   UNL A   1      40.422  35.577  37.112  1.00  0.00     0.010 A 
ATOM     62  C   UNL A   1      39.028  33.997  38.317  1.00  0.00     0.010 A 
ATOM     63  C   UNL A   1      40.274  36.499  38.150  1.00  0.00     0.020 A 
ATOM     64  C   UNL A   1      38.858  34.926  39.345  1.00  0.00     0.020 A 
ATOM     65  C   UNL A   1      39.499  36.164  39.265  1.00  0.00     0.054 A 
BRANCH  65  66
ATOM     66  S   UNL A   1      39.313  37.378  40.599  1.00  0.00     0.124 S 
ATOM     67  O   UNL A   1      38.314  38.287  40.043  1.00  0.00    -0.237 OA
ATOM     68  O   UNL A   1      38.862  36.559  41.722  1.00  0.00    -0.237 OA
ATOM     69  O   UNL A   1      40.655  37.938  40.743  1.00  0.00    -0.744 OA
ENDBRANCH  65  66
ENDBRANCH  39  60
ENDBRANCH  13  14
ENDBRANCH   6   8
ENDBRANCH   3   4
ENDBRANCH   2   3
ENDBRANCH   1   2
BRANCH   1  70
ATOM     70  C   UNL A   1      39.796  20.848  26.148  1.00  0.00     0.002 C 
BRANCH  70  71
ATOM     71  C   UNL A   1      38.876  22.019  25.785  1.00  0.00     0.021 C 
BRANCH  71  72
ATOM     72  C   UNL A   1      37.423  21.643  25.516  1.00  0.00     0.116 C 
BRANCH  72  73
ATOM     73  N   UNL A   1      36.495  22.318  26.404  1.00  0.00    -0.356 N 
ATOM     74  C   UNL A   1      35.227  22.771  26.176  1.00  0.00     0.224 C 
ATOM     75  H   UNL A   1      36.833  22.475  27.315  1.00  0.00     0.163 HD
ATOM     76  O   UNL A   1      34.612  23.256  27.125  1.00  0.00    -0.275 OA
BRANCH  74  77
ATOM     77  C   UNL A   1      34.649  22.684  24.775  1.00  0.00     0.098 C 
ATOM     78  C   UNL A   1      33.938  21.345  24.415  1.00  0.00     0.100 C 
ATOM     79  C   UNL A   1      33.716  23.896  24.460  1.00  0.00     0.025 C 
ATOM     80  C   UNL A   1      32.601  21.688  23.672  1.00  0.00     0.025 C 
ATOM     81  C   UNL A   1      32.335  23.658  25.027  1.00  0.00    -0.027 C 
ATOM     82  C   UNL A   1      33.532  23.924  22.919  1.00  0.00     0.009 C 
ATOM     83  C   UNL A   1      31.742  22.539  24.588  1.00  0.00    -0.027 C 
ATOM     84  C   UNL A   1      32.940  22.573  22.447  1.00  0.00     0.009 C 
BRANCH  78  85
ATOM     85  C   UNL A   1      33.656  20.359  25.559  1.00  0.00     0.238 C 
ATOM     86  O   UNL A   1      33.253  20.716  26.670  1.00  0.00    -0.273 OA
ATOM     87  N   UNL A   1      33.761  19.004  25.370  1.00  0.00    -0.288 N 
ATOM     88  H   UNL A   1      33.463  18.437  26.118  1.00  0.00     0.185 HD
BRANCH  87  89
ATOM     89  N   UNL A   1      34.243  18.333  24.236  1.00  0.00    -0.217 NA
ATOM     90  C   UNL A   1      33.217  17.485  23.586  1.00  0.00     0.136 C 
ATOM     91  C   UNL A   1      35.390  17.458  24.610  1.00  0.00     0.136 C 
ATOM     92  C   UNL A   1      32.857  16.218  24.372  1.00  0.00     0.177 C 
ATOM     93  C   UNL A   1      34.982  16.192  25.383  1.00  0.00     0.177 C 
ATOM     94  O   UNL A   1      34.021  15.432  24.648  1.00  0.00    -0.379 OA
ENDBRANCH  87  89
ENDBRANCH  78  85
ENDBRANCH  74  77
ENDBRANCH  72  73
ENDBRANCH  71  72
ENDBRANCH  70  71
ENDBRANCH   1  70
TORSDOF 18
ENDMDL
MODEL 3
REMARK VINA RESULT:     -11.5      4.043      9.897
REMARK SMILES O=C(NCCCCCCNC(=O)[C@H]1[C@@H](C(=O)NN2CCOCC2)[C@H]2C=C[C@@H]1CC2)c1ccc(-c2c3nc(c(-c4ccc(S(=O)(=O)[O-])cc4)c4ccc([nH]4)c(-c4ccc(S(=O)(=O)[O-])cc4)c4nc(c(-c5ccc(S(=O)(=O)[O-])cc5)c5ccc2[nH]5)C=C4)C=C3)cc1
REMARK SMILES IDX 6 1 5 2 4 3 3 4 1 5 2 6 30 8 31 9 89 10 32 11 88 12 33 13
REMARK SMILES IDX 34 14 35 15 82 16 36 17 87 18 81 19 83 20 37 21 86 22 80 23
REMARK SMILES IDX 79 24 38 26 68 27 49 28 67 29 50 30 53 31 66 32 84 33 51 34
REMARK SMILES IDX 52 35 65 37 85 38 54 39 39 40 40 41 48 42 41 43 47 44 42 45
REMARK SMILES IDX 43 46 44 47 45 48 46 49 69 50 70 51 78 52 71 53 77 54 72 55
REMARK SMILES IDX 73 56 74 57 75 58 76 59 55 60 56 61 64 62 57 63 63 64 58 65
REMARK SMILES IDX 59 66 60 67 61 68 62 69 7 70 8 71 9 72 10 73 11 74 12 76
REMARK SMILES IDX 13 77 14 78 27 79 24 80 26 81 28 82 25 83 29 84 15 85 16 86
REMARK SMILES IDX 17 87 18 89 19 90 23 91 20 92 22 93 21 94
REMARK H PARENT 3 7 83 25 53 36 10 75 17 88
REMARK Flexibility Score: inf
ROOT
ATOM      1  C   UNL A   1      31.706  27.472  25.628  1.00  0.00     0.002 C 
ENDROOT
BRANCH   1   2
ATOM      2  C   UNL A   1      33.218  27.571  25.422  1.00  0.00     0.021 C 
BRANCH   2   3
ATOM      3  C   UNL A   1      34.008  28.066  26.622  1.00  0.00     0.116 C 
BRANCH   3   4
ATOM      4  N   UNL A   1      33.670  29.425  27.003  1.00  0.00    -0.352 N 
ATOM      5  O   UNL A   1      33.937  31.395  28.069  1.00  0.00    -0.269 OA
ATOM      6  C   UNL A   1      34.426  30.326  27.716  1.00  0.00     0.251 C 
ATOM      7  H   UNL A   1      32.784  29.743  26.715  1.00  0.00     0.163 HD
BRANCH   6   8
ATOM      8  C   UNL A   1      35.822  29.986  28.079  1.00  0.00     0.039 A 
ATOM      9  C   UNL A   1      36.857  30.147  27.155  1.00  0.00     0.014 A 
ATOM     10  C   UNL A   1      36.097  29.497  29.360  1.00  0.00     0.014 A 
ATOM     11  C   UNL A   1      38.135  29.700  27.465  1.00  0.00     0.010 A 
ATOM     12  C   UNL A   1      37.403  29.128  29.699  1.00  0.00     0.010 A 
ATOM     13  C   UNL A   1      38.430  29.207  28.747  1.00  0.00    -0.014 A 
BRANCH  13  14
ATOM     14  C   UNL A   1      39.839  28.872  29.076  1.00  0.00     0.031 A 
ATOM     15  C   UNL A   1      40.444  27.547  28.709  1.00  0.00     0.074 A 
ATOM     16  C   UNL A   1      40.591  29.820  29.671  1.00  0.00     0.049 A 
ATOM     17  N   UNL A   1      41.677  27.139  28.866  1.00  0.00    -0.248 NA
ATOM     18  C   UNL A   1      39.557  26.547  28.092  1.00  0.00     0.031 C 
ATOM     19  C   UNL A   1      40.104  31.140  30.092  1.00  0.00     0.029 A 
ATOM     20  N   UNL A   1      41.922  29.842  29.995  1.00  0.00    -0.354 N 
ATOM     21  C   UNL A   1      41.718  25.838  28.380  1.00  0.00     0.074 A 
ATOM     22  C   UNL A   1      40.376  25.513  27.942  1.00  0.00     0.031 C 
ATOM     23  C   UNL A   1      41.134  31.860  30.559  1.00  0.00     0.029 A 
ATOM     24  C   UNL A   1      42.338  31.039  30.528  1.00  0.00     0.049 A 
ATOM     25  H   UNL A   1      42.524  29.074  29.858  1.00  0.00     0.167 HD
ATOM     26  C   UNL A   1      42.776  24.995  28.304  1.00  0.00     0.031 A 
ATOM     27  C   UNL A   1      43.551  31.435  30.955  1.00  0.00     0.031 A 
ATOM     28  C   UNL A   1      44.109  25.322  28.746  1.00  0.00     0.049 A 
ATOM     29  C   UNL A   1      44.702  30.479  30.859  1.00  0.00     0.074 A 
ATOM     30  C   UNL A   1      45.248  24.537  28.701  1.00  0.00     0.029 A 
ATOM     31  N   UNL A   1      44.482  26.533  29.309  1.00  0.00    -0.354 N 
ATOM     32  N   UNL A   1      44.717  29.258  30.379  1.00  0.00    -0.248 NA
ATOM     33  C   UNL A   1      45.998  30.953  31.361  1.00  0.00     0.031 C 
ATOM     34  C   UNL A   1      46.302  25.259  29.274  1.00  0.00     0.029 A 
ATOM     35  C   UNL A   1      45.829  26.511  29.630  1.00  0.00     0.049 A 
ATOM     36  H   UNL A   1      43.879  27.296  29.460  1.00  0.00     0.167 HD
ATOM     37  C   UNL A   1      46.025  28.816  30.523  1.00  0.00     0.074 A 
ATOM     38  C   UNL A   1      46.778  29.914  31.100  1.00  0.00     0.031 C 
ATOM     39  C   UNL A   1      46.556  27.607  30.219  1.00  0.00     0.031 A 
BRANCH  26  40
ATOM     40  C   UNL A   1      42.543  23.623  27.727  1.00  0.00    -0.014 A 
ATOM     41  C   UNL A   1      42.760  23.366  26.362  1.00  0.00     0.010 A 
ATOM     42  C   UNL A   1      42.180  22.559  28.574  1.00  0.00     0.010 A 
ATOM     43  C   UNL A   1      42.598  22.076  25.850  1.00  0.00     0.020 A 
ATOM     44  C   UNL A   1      42.036  21.263  28.069  1.00  0.00     0.020 A 
ATOM     45  C   UNL A   1      42.236  21.032  26.707  1.00  0.00     0.054 A 
BRANCH  45  46
ATOM     46  S   UNL A   1      42.081  19.357  26.023  1.00  0.00     0.124 S 
ATOM     47  O   UNL A   1      42.934  19.436  24.840  1.00  0.00    -0.237 OA
ATOM     48  O   UNL A   1      42.588  18.520  27.107  1.00  0.00    -0.237 OA
ATOM     49  O   UNL A   1      40.652  19.224  25.753  1.00  0.00    -0.744 OA
ENDBRANCH  45  46
ENDBRANCH  26  40
BRANCH  27  50
ATOM     50  C   UNL A   1      43.723  32.794  31.534  1.00  0.00    -0.014 A 
ATOM     51  C   UNL A   1      44.071  33.886  30.720  1.00  0.00     0.010 A 
ATOM     52  C   UNL A   1      43.526  33.001  32.911  1.00  0.00     0.010 A 
ATOM     53  C   UNL A   1      44.237  35.156  31.277  1.00  0.00     0.020 A 
ATOM     54  C   UNL A   1      43.662  34.274  33.467  1.00  0.00     0.020 A 
ATOM     55  C   UNL A   1      44.033  35.342  32.648  1.00  0.00     0.054 A 
BRANCH  55  56
ATOM     56  S   UNL A   1      44.208  37.004  33.351  1.00  0.00     0.124 S 
ATOM     57  O   UNL A   1      45.404  36.860  34.174  1.00  0.00    -0.237 OA
ATOM     58  O   UNL A   1      44.355  37.841  32.161  1.00  0.00    -0.237 OA
ATOM     59  O   UNL A   1      42.959  37.196  34.085  1.00  0.00    -0.744 OA
ENDBRANCH  55  56
ENDBRANCH  27  50
BRANCH  39  60
ATOM     60  C   UNL A   1      48.020  27.422  30.503  1.00  0.00    -0.014 A 
ATOM     61  C   UNL A   1      48.991  27.778  29.550  1.00  0.00     0.010 A 
ATOM     62  C   UNL A   1      48.431  26.887  31.737  1.00  0.00     0.010 A 
ATOM     63  C   UNL A   1      50.346  27.557  29.806  1.00  0.00     0.020 A 
ATOM     64  C   UNL A   1      49.786  26.687  32.007  1.00  0.00     0.020 A 
ATOM     65  C   UNL A   1      50.734  27.005  31.031  1.00  0.00     0.054 A 
BRANCH  65  66
ATOM     66  S   UNL A   1      52.498  26.733  31.348  1.00  0.00     0.124 S 
ATOM     67  O   UNL A   1      52.815  27.831  32.258  1.00  0.00    -0.237 OA
ATOM     68  O   UNL A   1      52.519  25.399  31.943  1.00  0.00    -0.237 OA
ATOM     69  O   UNL A   1      53.104  26.827  30.022  1.00  0.00    -0.744 OA
ENDBRANCH  65  66
ENDBRANCH  39  60
ENDBRANCH  13  14
ENDBRANCH   6   8
ENDBRANCH   3   4
ENDBRANCH   2   3
ENDBRANCH   1   2
BRANCH   1  70
ATOM     70  C   UNL A   1      30.866  27.250  24.365  1.00  0.00     0.002 C 
BRANCH  70  71
ATOM     71  C   UNL A   1      29.955  26.018  24.364  1.00  0.00     0.021 C 
BRANCH  71  72
ATOM     72  C   UNL A   1      30.675  24.678  24.253  1.00  0.00     0.116 C 
BRANCH  72  73
ATOM     73  N   UNL A   1      31.586  24.622  23.124  1.00  0.00    -0.356 N 
ATOM     74  C   UNL A   1      32.885  24.208  23.058  1.00  0.00     0.224 C 
ATOM     75  H   UNL A   1      31.207  24.933  22.270  1.00  0.00     0.163 HD
ATOM     76  O   UNL A   1      33.427  24.193  21.953  1.00  0.00    -0.275 OA
BRANCH  74  77
ATOM     77  C   UNL A   1      33.605  23.818  24.337  1.00  0.00     0.098 C 
ATOM     78  C   UNL A   1      33.508  22.316  24.739  1.00  0.00     0.100 C 
ATOM     79  C   UNL A   1      35.096  24.281  24.323  1.00  0.00     0.025 C 
ATOM     80  C   UNL A   1      34.931  21.838  25.187  1.00  0.00     0.025 C 
ATOM     81  C   UNL A   1      35.947  23.292  23.560  1.00  0.00    -0.027 C 
ATOM     82  C   UNL A   1      35.594  24.211  25.791  1.00  0.00     0.009 C 
ATOM     83  C   UNL A   1      35.895  22.038  24.032  1.00  0.00    -0.027 C 
ATOM     84  C   UNL A   1      35.419  22.768  26.326  1.00  0.00     0.009 C 
BRANCH  78  85
ATOM     85  C   UNL A   1      32.935  21.336  23.702  1.00  0.00     0.238 C 
ATOM     86  O   UNL A   1      32.322  21.706  22.696  1.00  0.00    -0.273 OA
ATOM     87  N   UNL A   1      33.156  19.987  23.804  1.00  0.00    -0.288 N 
ATOM     88  H   UNL A   1      32.847  19.438  23.047  1.00  0.00     0.185 HD
BRANCH  87  89
ATOM     89  N   UNL A   1      33.769  19.297  24.860  1.00  0.00    -0.217 NA
ATOM     90  C   UNL A   1      34.771  18.306  24.401  1.00  0.00     0.136 C 
ATOM     91  C   UNL A   1      32.743  18.571  25.661  1.00  0.00     0.136 C 
ATOM     92  C   UNL A   1      34.167  17.063  23.736  1.00  0.00     0.177 C 
ATOM     93  C   UNL A   1      32.177  17.322  24.963  1.00  0.00     0.177 C 
ATOM     94  O   UNL A   1      33.223  16.421  24.599  1.00  0.00    -0.379 OA
ENDBRANCH  87  89
ENDBRANCH  78  85
ENDBRANCH  74  77
ENDBRANCH  72  73
ENDBRANCH  71  72
ENDBRANCH  70  71
ENDBRANCH   1  70
TORSDOF 18
ENDMDL
