MODEL 1
REMARK VINA RESULT:     -12.0      0.000      0.000
REMARK SMILES CC(=O)c1nnn(-c2ccc(C(=O)NCCCCCCNC(=O)c3ccc(-c4c5nc(c(-c6ccc(S(=O)(=O)[O-])cc6)c6ccc([nH]6)c(-c6ccc(S(=O)(=O)[O-])cc6)c6nc(c(-c7ccc(S(=O)(=O)[O-])cc7)c7ccc4[nH]7)C=C6)C=C5)cc3)cc2)c1C
REMARK SMILES IDX 18 1 17 2 16 3 15 4 14 5 12 6 13 7 11 9 8 10 9 11 85 12
REMARK SMILES IDX 10 13 84 14 7 15 4 16 5 17 86 18 6 19 87 20 2 21 1 22 3 23
REMARK SMILES IDX 19 24 20 25 21 26 22 27 23 29 24 30 25 31 83 32 26 33 82 34
REMARK SMILES IDX 27 35 28 36 29 37 76 38 30 39 81 40 75 41 77 42 31 43 80 44
REMARK SMILES IDX 74 45 73 46 32 48 62 49 43 50 61 51 44 52 47 53 60 54 78 55
REMARK SMILES IDX 45 56 46 57 59 59 79 60 48 61 33 62 34 63 42 64 35 65 41 66
REMARK SMILES IDX 36 67 37 68 38 69 39 70 40 71 63 72 64 73 72 74 65 75 71 76
REMARK SMILES IDX 66 77 67 78 68 79 69 80 70 81 49 82 50 83 58 84 51 85 57 86
REMARK SMILES IDX 52 87 53 88 54 89 55 90 56 91
REMARK H PARENT 14 8 21 28 77 47 47 58
REMARK Flexibility Score: inf
ROOT
ATOM      1  C   UNL A   1      35.446  24.301  25.179  1.00  0.00     0.002 C 
ENDROOT
BRANCH   1   2
ATOM      2  C   UNL A   1      34.227  24.686  26.037  1.00  0.00     0.002 C 
BRANCH   2   3
ATOM      3  C   UNL A   1      33.718  26.124  25.862  1.00  0.00     0.021 C 
BRANCH   3   4
ATOM      4  C   UNL A   1      33.293  26.445  24.429  1.00  0.00     0.116 C 
BRANCH   4   5
ATOM      5  N   UNL A   1      31.850  26.351  24.297  1.00  0.00    -0.352 N 
ATOM      6  C   UNL A   1      30.995  25.307  24.047  1.00  0.00     0.251 C 
ATOM      7  O   UNL A   1      29.789  25.559  24.026  1.00  0.00    -0.269 OA
ATOM      8  H   UNL A   1      31.390  27.214  24.410  1.00  0.00     0.163 HD
BRANCH   6   9
ATOM      9  C   UNL A   1      31.447  23.893  23.918  1.00  0.00     0.039 A 
ATOM     10  C   UNL A   1      32.575  21.341  24.026  1.00  0.00     0.067 A 
ATOM     11  C   UNL A   1      31.695  21.734  25.033  1.00  0.00     0.029 A 
ATOM     12  C   UNL A   1      32.774  22.144  22.901  1.00  0.00     0.029 A 
ATOM     13  C   UNL A   1      31.164  23.026  24.989  1.00  0.00     0.016 A 
ATOM     14  C   UNL A   1      32.157  23.393  22.825  1.00  0.00     0.016 A 
BRANCH  10  15
ATOM     15  N   UNL A   1      33.322  20.158  24.166  1.00  0.00    -0.217 N 
ATOM     16  C   UNL A   1      34.001  18.091  24.178  1.00  0.00     0.151 A 
ATOM     17  N   UNL A   1      34.885  18.863  24.890  1.00  0.00    -0.126 NA
ATOM     18  C   UNL A   1      33.034  18.915  23.621  1.00  0.00     0.073 A 
ATOM     19  N   UNL A   1      34.530  20.133  24.759  1.00  0.00    -0.061 NA
ATOM     20  C   UNL A   1      31.959  18.694  22.623  1.00  0.00     0.069 C 
BRANCH  16  21
ATOM     21  C   UNL A   1      34.201  16.659  24.022  1.00  0.00     0.181 C 
ATOM     22  C   UNL A   1      34.223  15.809  25.266  1.00  0.00     0.095 C 
ATOM     23  O   UNL A   1      34.316  16.134  22.915  1.00  0.00    -0.293 OA
ENDBRANCH  16  21
ENDBRANCH  10  15
ENDBRANCH   6   9
ENDBRANCH   4   5
ENDBRANCH   3   4
ENDBRANCH   2   3
ENDBRANCH   1   2
BRANCH   1  24
ATOM     24  C   UNL A   1      36.234  23.056  25.623  1.00  0.00     0.021 C 
BRANCH  24  25
ATOM     25  C   UNL A   1      37.637  22.990  25.044  1.00  0.00     0.116 C 
BRANCH  25  26
ATOM     26  N   UNL A   1      38.533  22.112  25.817  1.00  0.00    -0.352 N 
ATOM     27  C   UNL A   1      39.644  22.443  26.576  1.00  0.00     0.251 C 
ATOM     28  H   UNL A   1      38.310  21.154  25.792  1.00  0.00     0.163 HD
ATOM     29  O   UNL A   1      40.505  21.587  26.831  1.00  0.00    -0.269 OA
BRANCH  27  30
ATOM     30  C   UNL A   1      39.783  23.813  27.089  1.00  0.00     0.039 A 
ATOM     31  C   UNL A   1      38.771  24.779  27.092  1.00  0.00     0.014 A 
ATOM     32  C   UNL A   1      41.008  24.107  27.651  1.00  0.00     0.014 A 
ATOM     33  C   UNL A   1      39.055  26.023  27.659  1.00  0.00     0.010 A 
ATOM     34  C   UNL A   1      41.058  25.074  28.595  1.00  0.00     0.010 A 
ATOM     35  C   UNL A   1      40.244  26.160  28.385  1.00  0.00    -0.014 A 
BRANCH  35  36
ATOM     36  C   UNL A   1      40.710  27.378  29.019  1.00  0.00     0.031 A 
ATOM     37  C   UNL A   1      41.845  28.003  28.315  1.00  0.00     0.074 A 
ATOM     38  C   UNL A   1      39.980  28.042  29.947  1.00  0.00     0.049 A 
ATOM     39  N   UNL A   1      43.085  27.971  28.661  1.00  0.00    -0.248 NA
ATOM     40  C   UNL A   1      41.605  28.547  26.968  1.00  0.00     0.031 C 
ATOM     41  C   UNL A   1      38.634  27.743  30.468  1.00  0.00     0.029 A 
ATOM     42  N   UNL A   1      40.260  29.224  30.552  1.00  0.00    -0.354 N 
ATOM     43  C   UNL A   1      43.750  28.717  27.699  1.00  0.00     0.074 A 
ATOM     44  C   UNL A   1      42.852  28.812  26.577  1.00  0.00     0.031 C 
ATOM     45  C   UNL A   1      38.145  28.825  31.122  1.00  0.00     0.029 A 
ATOM     46  C   UNL A   1      39.193  29.825  31.212  1.00  0.00     0.049 A 
ATOM     47  H   UNL A   1      41.157  29.629  30.524  1.00  0.00     0.167 HD
ATOM     48  C   UNL A   1      44.856  29.448  28.012  1.00  0.00     0.031 A 
ATOM     49  C   UNL A   1      39.180  31.070  31.758  1.00  0.00     0.031 A 
ATOM     50  C   UNL A   1      45.334  29.136  29.338  1.00  0.00     0.049 A 
ATOM     51  C   UNL A   1      40.603  31.455  31.962  1.00  0.00     0.074 A 
ATOM     52  C   UNL A   1      45.770  27.986  29.965  1.00  0.00     0.029 A 
ATOM     53  N   UNL A   1      44.971  30.002  30.348  1.00  0.00    -0.354 N 
ATOM     54  N   UNL A   1      41.401  30.820  32.778  1.00  0.00    -0.248 NA
ATOM     55  C   UNL A   1      41.264  32.196  30.898  1.00  0.00     0.031 C 
ATOM     56  C   UNL A   1      45.186  28.035  31.266  1.00  0.00     0.029 A 
ATOM     57  C   UNL A   1      44.505  29.248  31.396  1.00  0.00     0.049 A 
ATOM     58  H   UNL A   1      45.035  30.984  30.321  1.00  0.00     0.167 HD
ATOM     59  C   UNL A   1      42.606  30.715  32.093  1.00  0.00     0.074 A 
ATOM     60  C   UNL A   1      42.486  31.656  30.977  1.00  0.00     0.031 C 
ATOM     61  C   UNL A   1      43.464  29.674  32.315  1.00  0.00     0.031 A 
BRANCH  48  62
ATOM     62  C   UNL A   1      45.247  30.719  27.305  1.00  0.00    -0.014 A 
ATOM     63  C   UNL A   1      46.606  30.933  27.008  1.00  0.00     0.010 A 
ATOM     64  C   UNL A   1      44.376  31.817  27.147  1.00  0.00     0.010 A 
ATOM     65  C   UNL A   1      47.076  32.198  26.636  1.00  0.00     0.020 A 
ATOM     66  C   UNL A   1      44.825  33.071  26.733  1.00  0.00     0.020 A 
ATOM     67  C   UNL A   1      46.182  33.262  26.513  1.00  0.00     0.054 A 
BRANCH  67  68
ATOM     68  S   UNL A   1      46.813  34.912  26.133  1.00  0.00     0.124 S 
ATOM     69  O   UNL A   1      45.582  35.642  25.843  1.00  0.00    -0.237 OA
ATOM     70  O   UNL A   1      47.491  35.275  27.373  1.00  0.00    -0.237 OA
ATOM     71  O   UNL A   1      47.693  34.685  24.988  1.00  0.00    -0.744 OA
ENDBRANCH  67  68
ENDBRANCH  48  62
BRANCH  49  72
ATOM     72  C   UNL A   1      38.067  32.060  31.749  1.00  0.00    -0.014 A 
ATOM     73  C   UNL A   1      36.754  31.694  31.392  1.00  0.00     0.010 A 
ATOM     74  C   UNL A   1      38.242  33.312  32.375  1.00  0.00     0.010 A 
ATOM     75  C   UNL A   1      35.656  32.522  31.704  1.00  0.00     0.020 A 
ATOM     76  C   UNL A   1      37.156  34.141  32.687  1.00  0.00     0.020 A 
ATOM     77  C   UNL A   1      35.863  33.732  32.371  1.00  0.00     0.054 A 
BRANCH  77  78
ATOM     78  S   UNL A   1      34.435  34.711  32.933  1.00  0.00     0.124 S 
ATOM     79  O   UNL A   1      33.444  33.679  33.222  1.00  0.00    -0.237 OA
ATOM     80  O   UNL A   1      34.972  35.417  34.092  1.00  0.00    -0.237 OA
ATOM     81  O   UNL A   1      34.130  35.559  31.782  1.00  0.00    -0.744 OA
ENDBRANCH  77  78
ENDBRANCH  49  72
BRANCH  61  82
ATOM     82  C   UNL A   1      43.194  28.752  33.488  1.00  0.00    -0.014 A 
ATOM     83  C   UNL A   1      43.729  28.942  34.780  1.00  0.00     0.010 A 
ATOM     84  C   UNL A   1      42.218  27.757  33.315  1.00  0.00     0.010 A 
ATOM     85  C   UNL A   1      43.307  28.146  35.859  1.00  0.00     0.020 A 
ATOM     86  C   UNL A   1      41.783  26.972  34.386  1.00  0.00     0.020 A 
ATOM     87  C   UNL A   1      42.333  27.164  35.653  1.00  0.00     0.054 A 
BRANCH  87  88
ATOM     88  S   UNL A   1      41.749  26.169  37.056  1.00  0.00     0.124 S 
ATOM     89  O   UNL A   1      40.538  26.875  37.464  1.00  0.00    -0.237 OA
ATOM     90  O   UNL A   1      41.538  24.853  36.457  1.00  0.00    -0.237 OA
ATOM     91  O   UNL A   1      42.854  26.233  38.013  1.00  0.00    -0.744 OA
ENDBRANCH  87  88
ENDBRANCH  61  82
ENDBRANCH  35  36
ENDBRANCH  27  30
ENDBRANCH  25  26
ENDBRANCH  24  25
ENDBRANCH   1  24
TORSDOF 18
ENDMDL
MODEL 2
REMARK VINA RESULT:     -11.9      3.780      7.406
REMARK SMILES CC(=O)c1nnn(-c2ccc(C(=O)NCCCCCCNC(=O)c3ccc(-c4c5nc(c(-c6ccc(S(=O)(=O)[O-])cc6)c6ccc([nH]6)c(-c6ccc(S(=O)(=O)[O-])cc6)c6nc(c(-c7ccc(S(=O)(=O)[O-])cc7)c7ccc4[nH]7)C=C6)C=C5)cc3)cc2)c1C
REMARK SMILES IDX 18 1 17 2 16 3 15 4 14 5 12 6 13 7 11 9 8 10 9 11 85 12
REMARK SMILES IDX 10 13 84 14 7 15 4 16 5 17 86 18 6 19 87 20 2 21 1 22 3 23
REMARK SMILES IDX 19 24 20 25 21 26 22 27 23 29 24 30 25 31 83 32 26 33 82 34
REMARK SMILES IDX 27 35 28 36 29 37 76 38 30 39 81 40 75 41 77 42 31 43 80 44
REMARK SMILES IDX 74 45 73 46 32 48 62 49 43 50 61 51 44 52 47 53 60 54 78 55
REMARK SMILES IDX 45 56 46 57 59 59 79 60 48 61 33 62 34 63 42 64 35 65 41 66
REMARK SMILES IDX 36 67 37 68 38 69 39 70 40 71 63 72 64 73 72 74 65 75 71 76
REMARK SMILES IDX 66 77 67 78 68 79 69 80 70 81 49 82 50 83 58 84 51 85 57 86
REMARK SMILES IDX 52 87 53 88 54 89 55 90 56 91
REMARK H PARENT 14 8 21 28 77 47 47 58
REMARK Flexibility Score: inf
ROOT
ATOM      1  C   UNL A   1      34.101  26.012  25.520  1.00  0.00     0.002 C 
ENDROOT
BRANCH   1   2
ATOM      2  C   UNL A   1      34.583  24.727  24.821  1.00  0.00     0.002 C 
BRANCH   2   3
ATOM      3  C   UNL A   1      34.827  23.521  25.740  1.00  0.00     0.021 C 
BRANCH   3   4
ATOM      4  C   UNL A   1      33.773  23.375  26.838  1.00  0.00     0.116 C 
BRANCH   4   5
ATOM      5  N   UNL A   1      32.759  22.414  26.440  1.00  0.00    -0.352 N 
ATOM      6  C   UNL A   1      31.581  22.524  25.745  1.00  0.00     0.251 C 
ATOM      7  O   UNL A   1      30.948  21.487  25.542  1.00  0.00    -0.269 OA
ATOM      8  H   UNL A   1      32.958  21.494  26.728  1.00  0.00     0.163 HD
BRANCH   6   9
ATOM      9  C   UNL A   1      31.106  23.800  25.138  1.00  0.00     0.039 A 
ATOM     10  C   UNL A   1      29.810  26.082  24.187  1.00  0.00     0.067 A 
ATOM     11  C   UNL A   1      30.101  25.988  25.546  1.00  0.00     0.029 A 
ATOM     12  C   UNL A   1      30.291  25.128  23.288  1.00  0.00     0.029 A 
ATOM     13  C   UNL A   1      30.718  24.826  26.019  1.00  0.00     0.016 A 
ATOM     14  C   UNL A   1      30.993  24.021  23.765  1.00  0.00     0.016 A 
BRANCH  10  15
ATOM     15  N   UNL A   1      28.972  27.108  23.716  1.00  0.00    -0.217 N 
ATOM     16  C   UNL A   1      28.168  28.979  22.950  1.00  0.00     0.151 A 
ATOM     17  N   UNL A   1      27.136  28.190  23.391  1.00  0.00    -0.126 NA
ATOM     18  C   UNL A   1      29.355  28.270  23.060  1.00  0.00     0.073 A 
ATOM     19  N   UNL A   1      27.630  27.007  23.728  1.00  0.00    -0.061 NA
ATOM     20  C   UNL A   1      30.736  28.512  22.578  1.00  0.00     0.069 C 
BRANCH  16  21
ATOM     21  C   UNL A   1      27.926  30.298  22.386  1.00  0.00     0.181 C 
ATOM     22  C   UNL A   1      27.663  31.436  23.339  1.00  0.00     0.095 C 
ATOM     23  O   UNL A   1      27.963  30.505  21.174  1.00  0.00    -0.293 OA
ENDBRANCH  16  21
ENDBRANCH  10  15
ENDBRANCH   6   9
ENDBRANCH   4   5
ENDBRANCH   3   4
ENDBRANCH   2   3
ENDBRANCH   1   2
BRANCH   1  24
ATOM     24  C   UNL A   1      33.558  27.127  24.610  1.00  0.00     0.021 C 
BRANCH  24  25
ATOM     25  C   UNL A   1      33.989  28.520  25.039  1.00  0.00     0.116 C 
BRANCH  25  26
ATOM     26  N   UNL A   1      32.924  29.256  25.744  1.00  0.00    -0.352 N 
ATOM     27  C   UNL A   1      32.989  29.968  26.930  1.00  0.00     0.251 C 
ATOM     28  H   UNL A   1      32.042  29.241  25.308  1.00  0.00     0.163 HD
ATOM     29  O   UNL A   1      31.959  30.188  27.585  1.00  0.00    -0.269 OA
BRANCH  27  30
ATOM     30  C   UNL A   1      34.288  30.473  27.396  1.00  0.00     0.039 A 
ATOM     31  C   UNL A   1      34.604  31.822  27.594  1.00  0.00     0.014 A 
ATOM     32  C   UNL A   1      35.220  29.503  27.702  1.00  0.00     0.014 A 
ATOM     33  C   UNL A   1      35.874  32.131  28.085  1.00  0.00     0.010 A 
ATOM     34  C   UNL A   1      36.175  29.803  28.610  1.00  0.00     0.010 A 
ATOM     35  C   UNL A   1      36.671  31.083  28.560  1.00  0.00    -0.014 A 
BRANCH  35  36
ATOM     36  C   UNL A   1      38.018  31.214  29.080  1.00  0.00     0.031 A 
ATOM     37  C   UNL A   1      38.835  30.001  28.894  1.00  0.00     0.074 A 
ATOM     38  C   UNL A   1      38.564  32.414  29.392  1.00  0.00     0.049 A 
ATOM     39  N   UNL A   1      39.138  29.125  29.788  1.00  0.00    -0.248 NA
ATOM     40  C   UNL A   1      39.179  29.607  27.518  1.00  0.00     0.031 C 
ATOM     41  C   UNL A   1      37.994  33.766  29.255  1.00  0.00     0.029 A 
ATOM     42  N   UNL A   1      39.828  32.682  29.805  1.00  0.00    -0.354 N 
ATOM     43  C   UNL A   1      39.935  28.197  29.133  1.00  0.00     0.074 A 
ATOM     44  C   UNL A   1      39.705  28.399  27.725  1.00  0.00     0.031 C 
ATOM     45  C   UNL A   1      38.978  34.692  29.363  1.00  0.00     0.029 A 
ATOM     46  C   UNL A   1      40.208  34.019  29.740  1.00  0.00     0.049 A 
ATOM     47  H   UNL A   1      40.436  31.978  30.129  1.00  0.00     0.167 HD
ATOM     48  C   UNL A   1      40.939  27.545  29.781  1.00  0.00     0.031 A 
ATOM     49  C   UNL A   1      41.456  34.515  29.951  1.00  0.00     0.031 A 
ATOM     50  C   UNL A   1      40.874  27.766  31.207  1.00  0.00     0.049 A 
ATOM     51  C   UNL A   1      42.193  33.482  30.727  1.00  0.00     0.074 A 
ATOM     52  C   UNL A   1      39.927  27.527  32.182  1.00  0.00     0.029 A 
ATOM     53  N   UNL A   1      41.713  28.731  31.723  1.00  0.00    -0.354 N 
ATOM     54  N   UNL A   1      41.850  33.119  31.934  1.00  0.00    -0.248 NA
ATOM     55  C   UNL A   1      42.974  32.505  29.984  1.00  0.00     0.031 C 
ATOM     56  C   UNL A   1      39.949  28.692  33.007  1.00  0.00     0.029 A 
ATOM     57  C   UNL A   1      40.965  29.534  32.549  1.00  0.00     0.049 A 
ATOM     58  H   UNL A   1      42.674  28.827  31.534  1.00  0.00     0.167 HD
ATOM     59  C   UNL A   1      41.981  31.735  31.944  1.00  0.00     0.074 A 
ATOM     60  C   UNL A   1      42.759  31.424  30.743  1.00  0.00     0.031 C 
ATOM     61  C   UNL A   1      41.206  30.952  32.753  1.00  0.00     0.031 A 
BRANCH  48  62
ATOM     62  C   UNL A   1      42.197  27.066  29.108  1.00  0.00    -0.014 A 
ATOM     63  C   UNL A   1      42.986  28.002  28.412  1.00  0.00     0.010 A 
ATOM     64  C   UNL A   1      42.502  25.702  28.916  1.00  0.00     0.010 A 
ATOM     65  C   UNL A   1      43.985  27.588  27.522  1.00  0.00     0.020 A 
ATOM     66  C   UNL A   1      43.525  25.280  28.067  1.00  0.00     0.020 A 
ATOM     67  C   UNL A   1      44.238  26.227  27.347  1.00  0.00     0.054 A 
BRANCH  67  68
ATOM     68  S   UNL A   1      45.458  25.703  26.121  1.00  0.00     0.124 S 
ATOM     69  O   UNL A   1      46.199  24.682  26.856  1.00  0.00    -0.237 OA
ATOM     70  O   UNL A   1      44.613  25.218  25.035  1.00  0.00    -0.237 OA
ATOM     71  O   UNL A   1      46.198  26.929  25.830  1.00  0.00    -0.744 OA
ENDBRANCH  67  68
ENDBRANCH  48  62
BRANCH  49  72
ATOM     72  C   UNL A   1      42.138  35.615  29.213  1.00  0.00    -0.014 A 
ATOM     73  C   UNL A   1      41.710  36.027  27.936  1.00  0.00     0.010 A 
ATOM     74  C   UNL A   1      43.040  36.458  29.895  1.00  0.00     0.010 A 
ATOM     75  C   UNL A   1      42.120  37.260  27.390  1.00  0.00     0.020 A 
ATOM     76  C   UNL A   1      43.454  37.685  29.360  1.00  0.00     0.020 A 
ATOM     77  C   UNL A   1      42.974  38.093  28.119  1.00  0.00     0.054 A 
BRANCH  77  78
ATOM     78  S   UNL A   1      43.358  39.760  27.497  1.00  0.00     0.124 S 
ATOM     79  O   UNL A   1      42.031  40.302  27.219  1.00  0.00    -0.237 OA
ATOM     80  O   UNL A   1      44.066  40.363  28.622  1.00  0.00    -0.237 OA
ATOM     81  O   UNL A   1      44.182  39.502  26.317  1.00  0.00    -0.744 OA
ENDBRANCH  77  78
ENDBRANCH  49  72
BRANCH  61  82
ATOM     82  C   UNL A   1      40.356  31.625  33.812  1.00  0.00    -0.014 A 
ATOM     83  C   UNL A   1      39.067  32.150  33.573  1.00  0.00     0.010 A 
ATOM     84  C   UNL A   1      40.809  31.562  35.141  1.00  0.00     0.010 A 
ATOM     85  C   UNL A   1      38.269  32.611  34.634  1.00  0.00     0.020 A 
ATOM     86  C   UNL A   1      40.014  32.004  36.201  1.00  0.00     0.020 A 
ATOM     87  C   UNL A   1      38.749  32.534  35.944  1.00  0.00     0.054 A 
BRANCH  87  88
ATOM     88  S   UNL A   1      37.699  33.081  37.322  1.00  0.00     0.124 S 
ATOM     89  O   UNL A   1      36.405  33.277  36.676  1.00  0.00    -0.237 OA
ATOM     90  O   UNL A   1      37.773  31.959  38.255  1.00  0.00    -0.237 OA
ATOM     91  O   UNL A   1      38.348  34.306  37.788  1.00  0.00    -0.744 OA
ENDBRANCH  87  88
ENDBRANCH  61  82
ENDBRANCH  35  36
ENDBRANCH  27  30
ENDBRANCH  25  26
ENDBRANCH  24  25
ENDBRANCH   1  24
TORSDOF 18
ENDMDL
MODEL 3
REMARK VINA RESULT:     -11.8      3.137      9.726
REMARK SMILES CC(=O)c1nnn(-c2ccc(C(=O)NCCCCCCNC(=O)c3ccc(-c4c5nc(c(-c6ccc(S(=O)(=O)[O-])cc6)c6ccc([nH]6)c(-c6ccc(S(=O)(=O)[O-])cc6)c6nc(c(-c7ccc(S(=O)(=O)[O-])cc7)c7ccc4[nH]7)C=C6)C=C5)cc3)cc2)c1C
REMARK SMILES IDX 18 1 17 2 16 3 15 4 14 5 12 6 13 7 11 9 8 10 9 11 85 12
REMARK SMILES IDX 10 13 84 14 7 15 4 16 5 17 86 18 6 19 87 20 2 21 1 22 3 23
REMARK SMILES IDX 19 24 20 25 21 26 22 27 23 29 24 30 25 31 83 32 26 33 82 34
REMARK SMILES IDX 27 35 28 36 29 37 76 38 30 39 81 40 75 41 77 42 31 43 80 44
REMARK SMILES IDX 74 45 73 46 32 48 62 49 43 50 61 51 44 52 47 53 60 54 78 55
REMARK SMILES IDX 45 56 46 57 59 59 79 60 48 61 33 62 34 63 42 64 35 65 41 66
REMARK SMILES IDX 36 67 37 68 38 69 39 70 40 71 63 72 64 73 72 74 65 75 71 76
REMARK SMILES IDX 66 77 67 78 68 79 69 80 70 81 49 82 50 83 58 84 51 85 57 86
REMARK SMILES IDX 52 87 53 88 54 89 55 90 56 91
REMARK H PARENT 14 8 21 28 77 47 47 58
REMARK Flexibility Score: inf
ROOT
ATOM      1  C   UNL A   1      33.657  26.731  25.761  1.00  0.00     0.002 C 
ENDROOT
BRANCH   1   2
ATOM      2  C   UNL A   1      34.064  26.165  24.388  1.00  0.00     0.002 C 
BRANCH   2   3
ATOM      3  C   UNL A   1      34.529  24.702  24.382  1.00  0.00     0.021 C 
BRANCH   3   4
ATOM      4  C   UNL A   1      34.606  24.087  25.781  1.00  0.00     0.116 C 
BRANCH   4   5
ATOM      5  N   UNL A   1      33.880  22.831  25.821  1.00  0.00    -0.352 N 
ATOM      6  C   UNL A   1      32.561  22.501  25.635  1.00  0.00     0.251 C 
ATOM      7  O   UNL A   1      32.263  21.308  25.709  1.00  0.00    -0.269 OA
ATOM      8  H   UNL A   1      34.452  22.055  26.024  1.00  0.00     0.163 HD
BRANCH   6   9
ATOM      9  C   UNL A   1      31.519  23.490  25.241  1.00  0.00     0.039 A 
ATOM     10  C   UNL A   1      29.901  25.544  24.263  1.00  0.00     0.067 A 
ATOM     11  C   UNL A   1      30.312  24.537  23.393  1.00  0.00     0.029 A 
ATOM     12  C   UNL A   1      30.161  25.454  25.632  1.00  0.00     0.029 A 
ATOM     13  C   UNL A   1      31.152  23.531  23.883  1.00  0.00     0.016 A 
ATOM     14  C   UNL A   1      30.918  24.390  26.122  1.00  0.00     0.016 A 
BRANCH  10  15
ATOM     15  N   UNL A   1      29.275  26.698  23.758  1.00  0.00    -0.217 N 
ATOM     16  C   UNL A   1      28.844  28.673  22.954  1.00  0.00     0.151 A 
ATOM     17  N   UNL A   1      27.673  28.084  23.362  1.00  0.00    -0.126 NA
ATOM     18  C   UNL A   1      29.881  27.766  23.110  1.00  0.00     0.073 A 
ATOM     19  N   UNL A   1      27.937  26.836  23.722  1.00  0.00    -0.061 NA
ATOM     20  C   UNL A   1      31.299  27.754  22.677  1.00  0.00     0.069 C 
BRANCH  16  21
ATOM     21  C   UNL A   1      28.859  30.008  22.376  1.00  0.00     0.181 C 
ATOM     22  C   UNL A   1      28.315  31.143  23.205  1.00  0.00     0.095 C 
ATOM     23  O   UNL A   1      29.329  30.229  21.261  1.00  0.00    -0.293 OA
ENDBRANCH  16  21
ENDBRANCH  10  15
ENDBRANCH   6   9
ENDBRANCH   4   5
ENDBRANCH   3   4
ENDBRANCH   2   3
ENDBRANCH   1   2
BRANCH   1  24
ATOM     24  C   UNL A   1      33.405  28.247  25.833  1.00  0.00     0.021 C 
BRANCH  24  25
ATOM     25  C   UNL A   1      34.414  28.987  26.695  1.00  0.00     0.116 C 
BRANCH  25  26
ATOM     26  N   UNL A   1      34.102  30.421  26.836  1.00  0.00    -0.352 N 
ATOM     27  C   UNL A   1      34.743  31.386  27.596  1.00  0.00     0.251 C 
ATOM     28  H   UNL A   1      33.330  30.738  26.315  1.00  0.00     0.163 HD
ATOM     29  O   UNL A   1      34.147  32.425  27.919  1.00  0.00    -0.269 OA
BRANCH  27  30
ATOM     30  C   UNL A   1      36.139  31.174  28.001  1.00  0.00     0.039 A 
ATOM     31  C   UNL A   1      36.901  32.064  28.767  1.00  0.00     0.014 A 
ATOM     32  C   UNL A   1      36.684  29.965  27.620  1.00  0.00     0.014 A 
ATOM     33  C   UNL A   1      38.203  31.689  29.103  1.00  0.00     0.010 A 
ATOM     34  C   UNL A   1      37.690  29.458  28.366  1.00  0.00     0.010 A 
ATOM     35  C   UNL A   1      38.595  30.369  28.853  1.00  0.00    -0.014 A 
BRANCH  35  36
ATOM     36  C   UNL A   1      39.909  29.814  29.114  1.00  0.00     0.031 A 
ATOM     37  C   UNL A   1      40.218  29.700  30.551  1.00  0.00     0.074 A 
ATOM     38  C   UNL A   1      40.627  29.167  28.165  1.00  0.00     0.049 A 
ATOM     39  N   UNL A   1      40.983  30.470  31.244  1.00  0.00    -0.248 NA
ATOM     40  C   UNL A   1      39.427  28.750  31.352  1.00  0.00     0.031 C 
ATOM     41  C   UNL A   1      40.269  28.857  26.769  1.00  0.00     0.029 A 
ATOM     42  N   UNL A   1      41.821  28.536  28.296  1.00  0.00    -0.354 N 
ATOM     43  C   UNL A   1      40.969  29.939  32.525  1.00  0.00     0.074 A 
ATOM     44  C   UNL A   1      39.820  29.073  32.585  1.00  0.00     0.031 C 
ATOM     45  C   UNL A   1      41.116  27.920  26.276  1.00  0.00     0.029 A 
ATOM     46  C   UNL A   1      42.167  27.687  27.250  1.00  0.00     0.049 A 
ATOM     47  H   UNL A   1      42.402  28.669  29.080  1.00  0.00     0.167 HD
ATOM     48  C   UNL A   1      42.062  30.016  33.334  1.00  0.00     0.031 A 
ATOM     49  C   UNL A   1      43.226  26.836  27.217  1.00  0.00     0.031 A 
ATOM     50  C   UNL A   1      43.064  30.897  32.781  1.00  0.00     0.049 A 
ATOM     51  C   UNL A   1      44.190  27.325  28.240  1.00  0.00     0.074 A 
ATOM     52  C   UNL A   1      43.089  32.229  32.418  1.00  0.00     0.029 A 
ATOM     53  N   UNL A   1      44.107  30.301  32.104  1.00  0.00    -0.354 N 
ATOM     54  N   UNL A   1      44.785  28.485  28.160  1.00  0.00    -0.248 NA
ATOM     55  C   UNL A   1      44.098  26.767  29.581  1.00  0.00     0.031 C 
ATOM     56  C   UNL A   1      43.812  32.259  31.188  1.00  0.00     0.029 A 
ATOM     57  C   UNL A   1      44.265  30.966  30.913  1.00  0.00     0.049 A 
ATOM     58  H   UNL A   1      44.642  29.537  32.418  1.00  0.00     0.167 HD
ATOM     59  C   UNL A   1      44.746  28.999  29.450  1.00  0.00     0.074 A 
ATOM     60  C   UNL A   1      44.388  27.859  30.297  1.00  0.00     0.031 C 
ATOM     61  C   UNL A   1      44.717  30.346  29.680  1.00  0.00     0.031 A 
BRANCH  48  62
ATOM     62  C   UNL A   1      42.397  28.994  34.388  1.00  0.00    -0.014 A 
ATOM     63  C   UNL A   1      43.240  27.921  34.040  1.00  0.00     0.010 A 
ATOM     64  C   UNL A   1      41.721  28.904  35.622  1.00  0.00     0.010 A 
ATOM     65  C   UNL A   1      43.349  26.790  34.858  1.00  0.00     0.020 A 
ATOM     66  C   UNL A   1      41.857  27.803  36.467  1.00  0.00     0.020 A 
ATOM     67  C   UNL A   1      42.645  26.735  36.062  1.00  0.00     0.054 A 
BRANCH  67  68
ATOM     68  S   UNL A   1      42.711  25.230  37.060  1.00  0.00     0.124 S 
ATOM     69  O   UNL A   1      43.346  24.290  36.140  1.00  0.00    -0.237 OA
ATOM     70  O   UNL A   1      43.521  25.651  38.199  1.00  0.00    -0.237 OA
ATOM     71  O   UNL A   1      41.307  24.960  37.364  1.00  0.00    -0.744 OA
ENDBRANCH  67  68
ENDBRANCH  48  62
BRANCH  49  72
ATOM     72  C   UNL A   1      43.274  25.458  26.653  1.00  0.00    -0.014 A 
ATOM     73  C   UNL A   1      43.216  25.224  25.265  1.00  0.00     0.010 A 
ATOM     74  C   UNL A   1      43.670  24.382  27.474  1.00  0.00     0.010 A 
ATOM     75  C   UNL A   1      43.596  23.982  24.717  1.00  0.00     0.020 A 
ATOM     76  C   UNL A   1      44.049  23.143  26.938  1.00  0.00     0.020 A 
ATOM     77  C   UNL A   1      44.033  22.955  25.558  1.00  0.00     0.054 A 
BRANCH  77  78
ATOM     78  S   UNL A   1      44.694  21.418  24.841  1.00  0.00     0.124 S 
ATOM     79  O   UNL A   1      43.684  20.437  25.223  1.00  0.00    -0.237 OA
ATOM     80  O   UNL A   1      44.763  21.737  23.418  1.00  0.00    -0.237 OA
ATOM     81  O   UNL A   1      45.989  21.264  25.501  1.00  0.00    -0.744 OA
ENDBRANCH  77  78
ENDBRANCH  49  72
BRANCH  61  82
ATOM     82  C   UNL A   1      44.959  31.284  28.514  1.00  0.00    -0.014 A 
ATOM     83  C   UNL A   1      43.936  31.795  27.687  1.00  0.00     0.010 A 
ATOM     84  C   UNL A   1      46.255  31.807  28.364  1.00  0.00     0.010 A 
ATOM     85  C   UNL A   1      44.210  32.786  26.730  1.00  0.00     0.020 A 
ATOM     86  C   UNL A   1      46.531  32.805  27.425  1.00  0.00     0.020 A 
ATOM     87  C   UNL A   1      45.510  33.287  26.606  1.00  0.00     0.054 A 
BRANCH  87  88
ATOM     88  S   UNL A   1      45.857  34.605  25.406  1.00  0.00     0.124 S 
ATOM     89  O   UNL A   1      45.403  35.802  26.108  1.00  0.00    -0.237 OA
ATOM     90  O   UNL A   1      47.301  34.498  25.212  1.00  0.00    -0.237 OA
ATOM     91  O   UNL A   1      45.056  34.233  24.239  1.00  0.00    -0.744 OA
ENDBRANCH  87  88
ENDBRANCH  61  82
ENDBRANCH  35  36
ENDBRANCH  27  30
ENDBRANCH  25  26
ENDBRANCH  24  25
ENDBRANCH   1  24
TORSDOF 18
ENDMDL
