MODEL 1
REMARK VINA RESULT:     -11.2      0.000      0.000
REMARK SMILES O=C(NCCCCCCNC(=O)c1cc(-n2ccnc2)ccn1)c1ccc(-c2c3nc(c(-c4ccc(S(=O)(=O)[O-])cc4)c4ccc([nH]4)c(-c4ccc(S(=O)(=O)[O-])cc4)c4nc(c(-c5ccc(S(=O)(=O)[O-])cc5)c5ccc2[nH]5)C=C4)C=C3)cc1
REMARK SMILES IDX 5 1 4 2 3 3 1 4 2 5 24 7 25 8 83 9 26 10 82 11 27 12 28 13
REMARK SMILES IDX 29 14 76 15 30 16 81 17 75 18 77 19 31 20 80 21 74 22 73 23
REMARK SMILES IDX 32 25 62 26 43 27 61 28 44 29 47 30 60 31 78 32 45 33 46 34
REMARK SMILES IDX 59 36 79 37 48 38 33 39 34 40 42 41 35 42 41 43 36 44 37 45
REMARK SMILES IDX 38 46 39 47 40 48 63 49 64 50 72 51 65 52 71 53 66 54 67 55
REMARK SMILES IDX 68 56 69 57 70 58 49 59 50 60 58 61 51 62 57 63 52 64 53 65
REMARK SMILES IDX 54 66 55 67 56 68 6 69 7 70 8 71 9 72 10 73 11 74 12 76
REMARK SMILES IDX 13 77 14 78 23 79 15 80 22 81 21 82 16 83 17 84 20 85 18 86
REMARK SMILES IDX 19 87
REMARK H PARENT 3 6 77 24 47 35 10 75
REMARK Flexibility Score: inf
ROOT
ATOM      1  C   UNL A   1      33.850  33.763  28.406  1.00  0.00     0.021 C 
ENDROOT
BRANCH   1   2
ATOM      2  C   UNL A   1      33.818  35.008  29.294  1.00  0.00     0.116 C 
BRANCH   2   3
ATOM      3  N   UNL A   1      33.522  34.736  30.684  1.00  0.00    -0.352 N 
ATOM      4  O   UNL A   1      33.653  34.214  32.821  1.00  0.00    -0.269 OA
ATOM      5  C   UNL A   1      34.196  34.141  31.714  1.00  0.00     0.251 C 
ATOM      6  H   UNL A   1      32.628  35.052  30.949  1.00  0.00     0.163 HD
BRANCH   5   7
ATOM      7  C   UNL A   1      35.483  33.397  31.593  1.00  0.00     0.039 A 
ATOM      8  C   UNL A   1      36.756  33.966  31.538  1.00  0.00     0.014 A 
ATOM      9  C   UNL A   1      35.377  31.996  31.504  1.00  0.00     0.014 A 
ATOM     10  C   UNL A   1      37.883  33.168  31.339  1.00  0.00     0.010 A 
ATOM     11  C   UNL A   1      36.499  31.192  31.320  1.00  0.00     0.010 A 
ATOM     12  C   UNL A   1      37.754  31.784  31.211  1.00  0.00    -0.014 A 
BRANCH  12  13
ATOM     13  C   UNL A   1      38.974  30.988  31.087  1.00  0.00     0.031 A 
ATOM     14  C   UNL A   1      39.739  30.777  32.350  1.00  0.00     0.074 A 
ATOM     15  C   UNL A   1      39.331  30.331  29.966  1.00  0.00     0.049 A 
ATOM     16  N   UNL A   1      40.961  31.108  32.623  1.00  0.00    -0.248 NA
ATOM     17  C   UNL A   1      39.015  30.180  33.483  1.00  0.00     0.031 C 
ATOM     18  C   UNL A   1      38.543  30.157  28.744  1.00  0.00     0.029 A 
ATOM     19  N   UNL A   1      40.439  29.567  29.735  1.00  0.00    -0.354 N 
ATOM     20  C   UNL A   1      41.227  30.595  33.893  1.00  0.00     0.074 A 
ATOM     21  C   UNL A   1      39.960  30.155  34.423  1.00  0.00     0.031 C 
ATOM     22  C   UNL A   1      39.085  29.162  28.007  1.00  0.00     0.029 A 
ATOM     23  C   UNL A   1      40.321  28.728  28.636  1.00  0.00     0.049 A 
ATOM     24  H   UNL A   1      41.247  29.607  30.297  1.00  0.00     0.167 HD
ATOM     25  C   UNL A   1      42.493  30.373  34.347  1.00  0.00     0.031 A 
ATOM     26  C   UNL A   1      41.137  27.697  28.304  1.00  0.00     0.031 A 
ATOM     27  C   UNL A   1      43.480  31.077  33.572  1.00  0.00     0.049 A 
ATOM     28  C   UNL A   1      42.427  27.892  29.005  1.00  0.00     0.074 A 
ATOM     29  C   UNL A   1      43.735  32.399  33.273  1.00  0.00     0.029 A 
ATOM     30  N   UNL A   1      44.233  30.340  32.689  1.00  0.00    -0.354 N 
ATOM     31  N   UNL A   1      43.262  28.857  28.736  1.00  0.00    -0.248 NA
ATOM     32  C   UNL A   1      42.639  27.225  30.280  1.00  0.00     0.031 C 
ATOM     33  C   UNL A   1      44.247  32.387  31.943  1.00  0.00     0.029 A 
ATOM     34  C   UNL A   1      44.306  31.056  31.524  1.00  0.00     0.049 A 
ATOM     35  H   UNL A   1      44.642  29.461  32.861  1.00  0.00     0.167 HD
ATOM     36  C   UNL A   1      43.825  29.193  29.957  1.00  0.00     0.074 A 
ATOM     37  C   UNL A   1      43.495  28.081  30.843  1.00  0.00     0.031 C 
ATOM     38  C   UNL A   1      44.269  30.460  30.206  1.00  0.00     0.031 A 
BRANCH  25  39
ATOM     39  C   UNL A   1      42.870  29.213  35.246  1.00  0.00    -0.014 A 
ATOM     40  C   UNL A   1      43.680  29.462  36.375  1.00  0.00     0.010 A 
ATOM     41  C   UNL A   1      42.718  27.866  34.856  1.00  0.00     0.010 A 
ATOM     42  C   UNL A   1      44.392  28.430  37.003  1.00  0.00     0.020 A 
ATOM     43  C   UNL A   1      43.385  26.825  35.506  1.00  0.00     0.020 A 
ATOM     44  C   UNL A   1      44.257  27.121  36.543  1.00  0.00     0.054 A 
BRANCH  44  45
ATOM     45  S   UNL A   1      45.306  25.821  37.242  1.00  0.00     0.124 S 
ATOM     46  O   UNL A   1      46.346  25.702  36.225  1.00  0.00    -0.237 OA
ATOM     47  O   UNL A   1      45.723  26.406  38.513  1.00  0.00    -0.237 OA
ATOM     48  O   UNL A   1      44.403  24.678  37.354  1.00  0.00    -0.744 OA
ENDBRANCH  44  45
ENDBRANCH  25  39
BRANCH  26  49
ATOM     49  C   UNL A   1      40.762  26.413  27.661  1.00  0.00    -0.014 A 
ATOM     50  C   UNL A   1      41.547  25.853  26.636  1.00  0.00     0.010 A 
ATOM     51  C   UNL A   1      39.771  25.598  28.247  1.00  0.00     0.010 A 
ATOM     52  C   UNL A   1      41.380  24.512  26.250  1.00  0.00     0.020 A 
ATOM     53  C   UNL A   1      39.592  24.266  27.860  1.00  0.00     0.020 A 
ATOM     54  C   UNL A   1      40.415  23.721  26.878  1.00  0.00     0.054 A 
BRANCH  54  55
ATOM     55  S   UNL A   1      40.321  21.946  26.500  1.00  0.00     0.124 S 
ATOM     56  O   UNL A   1      39.007  21.832  25.874  1.00  0.00    -0.237 OA
ATOM     57  O   UNL A   1      41.463  21.749  25.612  1.00  0.00    -0.237 OA
ATOM     58  O   UNL A   1      40.442  21.308  27.810  1.00  0.00    -0.744 OA
ENDBRANCH  54  55
ENDBRANCH  26  49
BRANCH  38  59
ATOM     59  C   UNL A   1      44.462  31.402  29.040  1.00  0.00    -0.014 A 
ATOM     60  C   UNL A   1      45.469  31.240  28.071  1.00  0.00     0.010 A 
ATOM     61  C   UNL A   1      43.488  32.396  28.837  1.00  0.00     0.010 A 
ATOM     62  C   UNL A   1      45.514  32.067  26.939  1.00  0.00     0.020 A 
ATOM     63  C   UNL A   1      43.516  33.211  27.702  1.00  0.00     0.020 A 
ATOM     64  C   UNL A   1      44.534  33.047  26.761  1.00  0.00     0.054 A 
BRANCH  64  65
ATOM     65  S   UNL A   1      44.557  34.065  25.259  1.00  0.00     0.124 S 
ATOM     66  O   UNL A   1      45.922  34.583  25.248  1.00  0.00    -0.237 OA
ATOM     67  O   UNL A   1      44.242  33.100  24.208  1.00  0.00    -0.237 OA
ATOM     68  O   UNL A   1      43.518  35.066  25.500  1.00  0.00    -0.744 OA
ENDBRANCH  64  65
ENDBRANCH  38  59
ENDBRANCH  12  13
ENDBRANCH   5   7
ENDBRANCH   2   3
ENDBRANCH   1   2
BRANCH   1  69
ATOM     69  C   UNL A   1      35.251  33.256  28.043  1.00  0.00     0.002 C 
BRANCH  69  70
ATOM     70  C   UNL A   1      35.374  31.751  27.778  1.00  0.00     0.002 C 
BRANCH  70  71
ATOM     71  C   UNL A   1      34.057  31.010  27.533  1.00  0.00     0.021 C 
BRANCH  71  72
ATOM     72  C   UNL A   1      34.193  29.513  27.265  1.00  0.00     0.116 C 
BRANCH  72  73
ATOM     73  N   UNL A   1      33.097  28.738  27.829  1.00  0.00    -0.351 N 
ATOM     74  C   UNL A   1      32.021  28.164  27.185  1.00  0.00     0.269 C 
ATOM     75  H   UNL A   1      33.127  28.607  28.803  1.00  0.00     0.163 HD
ATOM     76  O   UNL A   1      31.137  27.606  27.837  1.00  0.00    -0.268 OA
BRANCH  74  77
ATOM     77  C   UNL A   1      31.944  28.221  25.700  1.00  0.00     0.130 A 
ATOM     78  C   UNL A   1      31.183  29.212  25.090  1.00  0.00     0.060 A 
ATOM     79  N   UNL A   1      32.544  27.204  25.029  1.00  0.00    -0.251 NA
ATOM     80  C   UNL A   1      30.922  29.074  23.728  1.00  0.00     0.050 A 
ATOM     81  C   UNL A   1      32.336  27.150  23.700  1.00  0.00     0.114 A 
ATOM     82  C   UNL A   1      31.513  28.027  23.014  1.00  0.00     0.047 A 
BRANCH  80  83
ATOM     83  N   UNL A   1      30.007  29.946  23.092  1.00  0.00    -0.306 N 
ATOM     84  C   UNL A   1      29.147  30.838  23.688  1.00  0.00     0.113 A 
ATOM     85  C   UNL A   1      29.754  30.023  21.740  1.00  0.00     0.204 A 
ATOM     86  C   UNL A   1      28.445  31.425  22.660  1.00  0.00     0.131 A 
ATOM     87  N   UNL A   1      28.827  30.909  21.453  1.00  0.00    -0.245 NA
ENDBRANCH  80  83
ENDBRANCH  74  77
ENDBRANCH  72  73
ENDBRANCH  71  72
ENDBRANCH  70  71
ENDBRANCH  69  70
ENDBRANCH   1  69
TORSDOF 17
ENDMDL
MODEL 2
REMARK VINA RESULT:     -11.2      4.006     10.307
REMARK SMILES O=C(NCCCCCCNC(=O)c1cc(-n2ccnc2)ccn1)c1ccc(-c2c3nc(c(-c4ccc(S(=O)(=O)[O-])cc4)c4ccc([nH]4)c(-c4ccc(S(=O)(=O)[O-])cc4)c4nc(c(-c5ccc(S(=O)(=O)[O-])cc5)c5ccc2[nH]5)C=C4)C=C3)cc1
REMARK SMILES IDX 5 1 4 2 3 3 1 4 2 5 24 7 25 8 83 9 26 10 82 11 27 12 28 13
REMARK SMILES IDX 29 14 76 15 30 16 81 17 75 18 77 19 31 20 80 21 74 22 73 23
REMARK SMILES IDX 32 25 62 26 43 27 61 28 44 29 47 30 60 31 78 32 45 33 46 34
REMARK SMILES IDX 59 36 79 37 48 38 33 39 34 40 42 41 35 42 41 43 36 44 37 45
REMARK SMILES IDX 38 46 39 47 40 48 63 49 64 50 72 51 65 52 71 53 66 54 67 55
REMARK SMILES IDX 68 56 69 57 70 58 49 59 50 60 58 61 51 62 57 63 52 64 53 65
REMARK SMILES IDX 54 66 55 67 56 68 6 69 7 70 8 71 9 72 10 73 11 74 12 76
REMARK SMILES IDX 13 77 14 78 23 79 15 80 22 81 21 82 16 83 17 84 20 85 18 86
REMARK SMILES IDX 19 87
REMARK H PARENT 3 6 77 24 47 35 10 75
REMARK Flexibility Score: inf
ROOT
ATOM      1  C   UNL A   1      40.646  20.437  26.465  1.00  0.00     0.021 C 
ENDROOT
BRANCH   1   2
ATOM      2  C   UNL A   1      42.060  19.862  26.566  1.00  0.00     0.116 C 
BRANCH   2   3
ATOM      3  N   UNL A   1      42.970  20.350  25.552  1.00  0.00    -0.352 N 
ATOM      4  O   UNL A   1      44.462  21.508  24.416  1.00  0.00    -0.269 OA
ATOM      5  C   UNL A   1      43.661  21.513  25.356  1.00  0.00     0.251 C 
ATOM      6  H   UNL A   1      43.128  19.691  24.837  1.00  0.00     0.163 HD
BRANCH   5   7
ATOM      7  C   UNL A   1      43.492  22.765  26.148  1.00  0.00     0.039 A 
ATOM      8  C   UNL A   1      43.951  22.981  27.449  1.00  0.00     0.014 A 
ATOM      9  C   UNL A   1      42.780  23.802  25.515  1.00  0.00     0.014 A 
ATOM     10  C   UNL A   1      43.659  24.168  28.119  1.00  0.00     0.010 A 
ATOM     11  C   UNL A   1      42.497  24.996  26.173  1.00  0.00     0.010 A 
ATOM     12  C   UNL A   1      42.915  25.168  27.489  1.00  0.00    -0.014 A 
BRANCH  12  13
ATOM     13  C   UNL A   1      42.708  26.426  28.206  1.00  0.00     0.031 A 
ATOM     14  C   UNL A   1      43.805  27.430  28.081  1.00  0.00     0.074 A 
ATOM     15  C   UNL A   1      41.552  26.764  28.810  1.00  0.00     0.049 A 
ATOM     16  N   UNL A   1      44.524  27.965  29.016  1.00  0.00    -0.248 NA
ATOM     17  C   UNL A   1      44.195  27.834  26.721  1.00  0.00     0.031 C 
ATOM     18  C   UNL A   1      40.274  26.050  28.753  1.00  0.00     0.029 A 
ATOM     19  N   UNL A   1      41.246  27.898  29.507  1.00  0.00    -0.354 N 
ATOM     20  C   UNL A   1      45.330  28.915  28.387  1.00  0.00     0.074 A 
ATOM     21  C   UNL A   1      45.181  28.695  26.969  1.00  0.00     0.031 C 
ATOM     22  C   UNL A   1      39.290  26.872  29.181  1.00  0.00     0.029 A 
ATOM     23  C   UNL A   1      39.884  28.109  29.662  1.00  0.00     0.049 A 
ATOM     24  H   UNL A   1      41.930  28.510  29.864  1.00  0.00     0.167 HD
ATOM     25  C   UNL A   1      45.908  29.951  29.059  1.00  0.00     0.031 A 
ATOM     26  C   UNL A   1      39.276  29.246  30.084  1.00  0.00     0.031 A 
ATOM     27  C   UNL A   1      45.930  29.732  30.481  1.00  0.00     0.049 A 
ATOM     28  C   UNL A   1      40.282  30.061  30.804  1.00  0.00     0.074 A 
ATOM     29  C   UNL A   1      46.474  28.783  31.321  1.00  0.00     0.029 A 
ATOM     30  N   UNL A   1      45.025  30.432  31.242  1.00  0.00    -0.354 N 
ATOM     31  N   UNL A   1      40.810  29.721  31.946  1.00  0.00    -0.248 NA
ATOM     32  C   UNL A   1      40.995  31.097  30.073  1.00  0.00     0.031 C 
ATOM     33  C   UNL A   1      45.541  28.654  32.390  1.00  0.00     0.029 A 
ATOM     34  C   UNL A   1      44.502  29.557  32.156  1.00  0.00     0.049 A 
ATOM     35  H   UNL A   1      44.795  31.385  31.147  1.00  0.00     0.167 HD
ATOM     36  C   UNL A   1      42.116  30.183  31.888  1.00  0.00     0.074 A 
ATOM     37  C   UNL A   1      42.134  31.121  30.770  1.00  0.00     0.031 C 
ATOM     38  C   UNL A   1      43.117  29.560  32.577  1.00  0.00     0.031 A 
BRANCH  25  39
ATOM     39  C   UNL A   1      46.097  31.332  28.467  1.00  0.00    -0.014 A 
ATOM     40  C   UNL A   1      44.955  32.101  28.153  1.00  0.00     0.010 A 
ATOM     41  C   UNL A   1      47.326  31.769  27.929  1.00  0.00     0.010 A 
ATOM     42  C   UNL A   1      45.025  33.176  27.255  1.00  0.00     0.020 A 
ATOM     43  C   UNL A   1      47.413  32.869  27.073  1.00  0.00     0.020 A 
ATOM     44  C   UNL A   1      46.253  33.534  26.701  1.00  0.00     0.054 A 
BRANCH  44  45
ATOM     45  S   UNL A   1      46.312  34.806  25.415  1.00  0.00     0.124 S 
ATOM     46  O   UNL A   1      47.706  34.732  24.990  1.00  0.00    -0.237 OA
ATOM     47  O   UNL A   1      45.328  34.322  24.452  1.00  0.00    -0.237 OA
ATOM     48  O   UNL A   1      45.935  36.026  26.125  1.00  0.00    -0.744 OA
ENDBRANCH  44  45
ENDBRANCH  25  39
BRANCH  26  49
ATOM     49  C   UNL A   1      37.970  29.794  29.644  1.00  0.00    -0.014 A 
ATOM     50  C   UNL A   1      37.007  30.223  30.575  1.00  0.00     0.010 A 
ATOM     51  C   UNL A   1      37.776  30.147  28.292  1.00  0.00     0.010 A 
ATOM     52  C   UNL A   1      35.920  31.021  30.176  1.00  0.00     0.020 A 
ATOM     53  C   UNL A   1      36.691  30.931  27.885  1.00  0.00     0.020 A 
ATOM     54  C   UNL A   1      35.780  31.384  28.834  1.00  0.00     0.054 A 
BRANCH  54  55
ATOM     55  S   UNL A   1      34.477  32.555  28.351  1.00  0.00     0.124 S 
ATOM     56  O   UNL A   1      35.216  33.530  27.554  1.00  0.00    -0.237 OA
ATOM     57  O   UNL A   1      33.547  31.708  27.611  1.00  0.00    -0.237 OA
ATOM     58  O   UNL A   1      33.972  33.055  29.629  1.00  0.00    -0.744 OA
ENDBRANCH  54  55
ENDBRANCH  26  49
BRANCH  38  59
ATOM     59  C   UNL A   1      42.746  28.582  33.667  1.00  0.00    -0.014 A 
ATOM     60  C   UNL A   1      42.631  27.196  33.459  1.00  0.00     0.010 A 
ATOM     61  C   UNL A   1      42.664  29.073  34.983  1.00  0.00     0.010 A 
ATOM     62  C   UNL A   1      42.416  26.325  34.537  1.00  0.00     0.020 A 
ATOM     63  C   UNL A   1      42.470  28.209  36.064  1.00  0.00     0.020 A 
ATOM     64  C   UNL A   1      42.340  26.838  35.834  1.00  0.00     0.054 A 
BRANCH  64  65
ATOM     65  S   UNL A   1      42.134  25.698  37.230  1.00  0.00     0.124 S 
ATOM     66  O   UNL A   1      40.682  25.639  37.381  1.00  0.00    -0.237 OA
ATOM     67  O   UNL A   1      42.766  24.473  36.746  1.00  0.00    -0.237 OA
ATOM     68  O   UNL A   1      42.843  26.357  38.327  1.00  0.00    -0.744 OA
ENDBRANCH  64  65
ENDBRANCH  38  59
ENDBRANCH  12  13
ENDBRANCH   5   7
ENDBRANCH   2   3
ENDBRANCH   1   2
BRANCH   1  69
ATOM     69  C   UNL A   1      40.410  21.731  27.253  1.00  0.00     0.002 C 
BRANCH  69  70
ATOM     70  C   UNL A   1      39.355  22.685  26.681  1.00  0.00     0.002 C 
BRANCH  70  71
ATOM     71  C   UNL A   1      38.377  22.069  25.677  1.00  0.00     0.021 C 
BRANCH  71  72
ATOM     72  C   UNL A   1      36.975  22.674  25.679  1.00  0.00     0.116 C 
BRANCH  72  73
ATOM     73  N   UNL A   1      36.556  23.127  24.361  1.00  0.00    -0.351 N 
ATOM     74  C   UNL A   1      35.395  22.840  23.675  1.00  0.00     0.269 C 
ATOM     75  H   UNL A   1      37.189  23.719  23.895  1.00  0.00     0.163 HD
ATOM     76  O   UNL A   1      35.240  23.251  22.524  1.00  0.00    -0.268 OA
BRANCH  74  77
ATOM     77  C   UNL A   1      34.333  22.037  24.341  1.00  0.00     0.130 A 
ATOM     78  C   UNL A   1      34.510  20.669  24.503  1.00  0.00     0.060 A 
ATOM     79  N   UNL A   1      33.186  22.697  24.647  1.00  0.00    -0.251 NA
ATOM     80  C   UNL A   1      33.397  19.919  24.883  1.00  0.00     0.050 A 
ATOM     81  C   UNL A   1      32.158  21.950  25.090  1.00  0.00     0.114 A 
ATOM     82  C   UNL A   1      32.198  20.569  25.190  1.00  0.00     0.047 A 
BRANCH  80  83
ATOM     83  N   UNL A   1      33.466  18.505  24.888  1.00  0.00    -0.306 N 
ATOM     84  C   UNL A   1      34.245  17.702  24.089  1.00  0.00     0.113 A 
ATOM     85  C   UNL A   1      32.709  17.651  25.659  1.00  0.00     0.204 A 
ATOM     86  C   UNL A   1      33.935  16.409  24.443  1.00  0.00     0.131 A 
ATOM     87  N   UNL A   1      32.977  16.387  25.419  1.00  0.00    -0.245 NA
ENDBRANCH  80  83
ENDBRANCH  74  77
ENDBRANCH  72  73
ENDBRANCH  71  72
ENDBRANCH  70  71
ENDBRANCH  69  70
ENDBRANCH   1  69
TORSDOF 17
ENDMDL
MODEL 3
REMARK VINA RESULT:     -11.0      3.301      4.921
REMARK SMILES O=C(NCCCCCCNC(=O)c1cc(-n2ccnc2)ccn1)c1ccc(-c2c3nc(c(-c4ccc(S(=O)(=O)[O-])cc4)c4ccc([nH]4)c(-c4ccc(S(=O)(=O)[O-])cc4)c4nc(c(-c5ccc(S(=O)(=O)[O-])cc5)c5ccc2[nH]5)C=C4)C=C3)cc1
REMARK SMILES IDX 5 1 4 2 3 3 1 4 2 5 24 7 25 8 83 9 26 10 82 11 27 12 28 13
REMARK SMILES IDX 29 14 76 15 30 16 81 17 75 18 77 19 31 20 80 21 74 22 73 23
REMARK SMILES IDX 32 25 62 26 43 27 61 28 44 29 47 30 60 31 78 32 45 33 46 34
REMARK SMILES IDX 59 36 79 37 48 38 33 39 34 40 42 41 35 42 41 43 36 44 37 45
REMARK SMILES IDX 38 46 39 47 40 48 63 49 64 50 72 51 65 52 71 53 66 54 67 55
REMARK SMILES IDX 68 56 69 57 70 58 49 59 50 60 58 61 51 62 57 63 52 64 53 65
REMARK SMILES IDX 54 66 55 67 56 68 6 69 7 70 8 71 9 72 10 73 11 74 12 76
REMARK SMILES IDX 13 77 14 78 23 79 15 80 22 81 21 82 16 83 17 84 20 85 18 86
REMARK SMILES IDX 19 87
REMARK H PARENT 3 6 77 24 47 35 10 75
REMARK Flexibility Score: inf
ROOT
ATOM      1  C   UNL A   1      31.792  29.363  25.779  1.00  0.00     0.021 C 
ENDROOT
BRANCH   1   2
ATOM      2  C   UNL A   1      33.209  29.706  26.239  1.00  0.00     0.116 C 
BRANCH   2   3
ATOM      3  N   UNL A   1      33.291  30.884  27.076  1.00  0.00    -0.352 N 
ATOM      4  O   UNL A   1      33.996  32.588  28.282  1.00  0.00    -0.269 OA
ATOM      5  C   UNL A   1      34.289  31.499  27.780  1.00  0.00     0.251 C 
ATOM      6  H   UNL A   1      32.428  31.350  27.158  1.00  0.00     0.163 HD
BRANCH   5   7
ATOM      7  C   UNL A   1      35.654  30.944  28.013  1.00  0.00     0.039 A 
ATOM      8  C   UNL A   1      36.057  29.631  27.771  1.00  0.00     0.014 A 
ATOM      9  C   UNL A   1      36.598  31.841  28.551  1.00  0.00     0.014 A 
ATOM     10  C   UNL A   1      37.343  29.207  28.108  1.00  0.00     0.010 A 
ATOM     11  C   UNL A   1      37.887  31.429  28.877  1.00  0.00     0.010 A 
ATOM     12  C   UNL A   1      38.251  30.100  28.679  1.00  0.00    -0.014 A 
BRANCH  12  13
ATOM     13  C   UNL A   1      39.611  29.627  28.938  1.00  0.00     0.031 A 
ATOM     14  C   UNL A   1      40.017  29.581  30.373  1.00  0.00     0.074 A 
ATOM     15  C   UNL A   1      40.414  29.100  27.994  1.00  0.00     0.049 A 
ATOM     16  N   UNL A   1      40.998  30.193  30.957  1.00  0.00    -0.248 NA
ATOM     17  C   UNL A   1      39.169  28.802  31.288  1.00  0.00     0.031 C 
ATOM     18  C   UNL A   1      40.066  28.766  26.611  1.00  0.00     0.029 A 
ATOM     19  N   UNL A   1      41.692  28.633  28.116  1.00  0.00    -0.354 N 
ATOM     20  C   UNL A   1      41.011  29.733  32.275  1.00  0.00     0.074 A 
ATOM     21  C   UNL A   1      39.789  28.987  32.453  1.00  0.00     0.031 C 
ATOM     22  C   UNL A   1      41.014  27.948  26.102  1.00  0.00     0.029 A 
ATOM     23  C   UNL A   1      42.091  27.814  27.070  1.00  0.00     0.049 A 
ATOM     24  H   UNL A   1      42.275  28.856  28.877  1.00  0.00     0.167 HD
ATOM     25  C   UNL A   1      42.113  29.816  33.072  1.00  0.00     0.031 A 
ATOM     26  C   UNL A   1      43.189  27.019  27.028  1.00  0.00     0.031 A 
ATOM     27  C   UNL A   1      43.080  30.754  32.569  1.00  0.00     0.049 A 
ATOM     28  C   UNL A   1      44.145  27.506  28.048  1.00  0.00     0.074 A 
ATOM     29  C   UNL A   1      43.086  32.105  32.289  1.00  0.00     0.029 A 
ATOM     30  N   UNL A   1      44.203  30.241  31.966  1.00  0.00    -0.354 N 
ATOM     31  N   UNL A   1      44.765  28.650  27.975  1.00  0.00    -0.248 NA
ATOM     32  C   UNL A   1      44.142  26.884  29.363  1.00  0.00     0.031 C 
ATOM     33  C   UNL A   1      43.938  32.246  31.155  1.00  0.00     0.029 A 
ATOM     34  C   UNL A   1      44.428  30.978  30.834  1.00  0.00     0.049 A 
ATOM     35  H   UNL A   1      44.745  29.484  32.287  1.00  0.00     0.167 HD
ATOM     36  C   UNL A   1      44.866  29.087  29.287  1.00  0.00     0.074 A 
ATOM     37  C   UNL A   1      44.576  27.910  30.099  1.00  0.00     0.031 C 
ATOM     38  C   UNL A   1      44.906  30.419  29.588  1.00  0.00     0.031 A 
BRANCH  25  39
ATOM     39  C   UNL A   1      42.488  28.763  34.096  1.00  0.00    -0.014 A 
ATOM     40  C   UNL A   1      43.074  27.559  33.650  1.00  0.00     0.010 A 
ATOM     41  C   UNL A   1      42.010  28.786  35.422  1.00  0.00     0.010 A 
ATOM     42  C   UNL A   1      43.073  26.408  34.450  1.00  0.00     0.020 A 
ATOM     43  C   UNL A   1      42.049  27.657  36.245  1.00  0.00     0.020 A 
ATOM     44  C   UNL A   1      42.533  26.462  35.735  1.00  0.00     0.054 A 
BRANCH  44  45
ATOM     45  S   UNL A   1      42.376  24.937  36.698  1.00  0.00     0.124 S 
ATOM     46  O   UNL A   1      41.095  25.141  37.367  1.00  0.00    -0.237 OA
ATOM     47  O   UNL A   1      42.395  23.909  35.661  1.00  0.00    -0.237 OA
ATOM     48  O   UNL A   1      43.549  24.961  37.568  1.00  0.00    -0.744 OA
ENDBRANCH  44  45
ENDBRANCH  25  39
BRANCH  26  49
ATOM     49  C   UNL A   1      43.328  25.696  26.369  1.00  0.00    -0.014 A 
ATOM     50  C   UNL A   1      44.253  25.492  25.330  1.00  0.00     0.010 A 
ATOM     51  C   UNL A   1      42.734  24.557  26.951  1.00  0.00     0.010 A 
ATOM     52  C   UNL A   1      44.610  24.194  24.925  1.00  0.00     0.020 A 
ATOM     53  C   UNL A   1      43.075  23.262  26.546  1.00  0.00     0.020 A 
ATOM     54  C   UNL A   1      44.031  23.086  25.549  1.00  0.00     0.054 A 
BRANCH  54  55
ATOM     55  S   UNL A   1      44.621  21.416  25.146  1.00  0.00     0.124 S 
ATOM     56  O   UNL A   1      44.533  21.399  23.689  1.00  0.00    -0.237 OA
ATOM     57  O   UNL A   1      45.972  21.413  25.698  1.00  0.00    -0.237 OA
ATOM     58  O   UNL A   1      43.673  20.540  25.834  1.00  0.00    -0.744 OA
ENDBRANCH  54  55
ENDBRANCH  26  49
BRANCH  38  59
ATOM     59  C   UNL A   1      45.188  31.404  28.477  1.00  0.00    -0.014 A 
ATOM     60  C   UNL A   1      44.237  31.770  27.506  1.00  0.00     0.010 A 
ATOM     61  C   UNL A   1      46.412  32.096  28.513  1.00  0.00     0.010 A 
ATOM     62  C   UNL A   1      44.513  32.788  26.582  1.00  0.00     0.020 A 
ATOM     63  C   UNL A   1      46.686  33.123  27.607  1.00  0.00     0.020 A 
ATOM     64  C   UNL A   1      45.737  33.461  26.641  1.00  0.00     0.054 A 
BRANCH  64  65
ATOM     65  S   UNL A   1      46.058  34.824  25.487  1.00  0.00     0.124 S 
ATOM     66  O   UNL A   1      45.134  34.539  24.393  1.00  0.00    -0.237 OA
ATOM     67  O   UNL A   1      45.741  36.007  26.286  1.00  0.00    -0.237 OA
ATOM     68  O   UNL A   1      47.475  34.675  25.155  1.00  0.00    -0.744 OA
ENDBRANCH  64  65
ENDBRANCH  38  59
ENDBRANCH  12  13
ENDBRANCH   5   7
ENDBRANCH   2   3
ENDBRANCH   1   2
BRANCH   1  69
ATOM     69  C   UNL A   1      31.698  28.259  24.719  1.00  0.00     0.002 C 
BRANCH  69  70
ATOM     70  C   UNL A   1      30.284  27.796  24.353  1.00  0.00     0.002 C 
BRANCH  70  71
ATOM     71  C   UNL A   1      30.109  26.289  24.150  1.00  0.00     0.021 C 
BRANCH  71  72
ATOM     72  C   UNL A   1      30.921  25.406  25.094  1.00  0.00     0.116 C 
BRANCH  72  73
ATOM     73  N   UNL A   1      30.102  24.778  26.121  1.00  0.00    -0.351 N 
ATOM     74  C   UNL A   1      30.311  23.590  26.789  1.00  0.00     0.269 C 
ATOM     75  H   UNL A   1      29.287  25.268  26.372  1.00  0.00     0.163 HD
ATOM     76  O   UNL A   1      29.465  23.168  27.578  1.00  0.00    -0.268 OA
BRANCH  74  77
ATOM     77  C   UNL A   1      31.569  22.830  26.551  1.00  0.00     0.130 A 
ATOM     78  C   UNL A   1      31.565  21.757  25.668  1.00  0.00     0.060 A 
ATOM     79  N   UNL A   1      32.633  23.176  27.321  1.00  0.00    -0.251 NA
ATOM     80  C   UNL A   1      32.677  20.917  25.674  1.00  0.00     0.050 A 
ATOM     81  C   UNL A   1      33.721  22.388  27.239  1.00  0.00     0.114 A 
ATOM     82  C   UNL A   1      33.782  21.238  26.469  1.00  0.00     0.047 A 
BRANCH  80  83
ATOM     83  N   UNL A   1      32.656  19.711  24.934  1.00  0.00    -0.306 N 
ATOM     84  C   UNL A   1      32.551  19.566  23.571  1.00  0.00     0.113 A 
ATOM     85  C   UNL A   1      32.673  18.434  25.449  1.00  0.00     0.204 A 
ATOM     86  C   UNL A   1      32.540  18.210  23.337  1.00  0.00     0.131 A 
ATOM     87  N   UNL A   1      32.614  17.514  24.512  1.00  0.00    -0.245 NA
ENDBRANCH  80  83
ENDBRANCH  74  77
ENDBRANCH  72  73
ENDBRANCH  71  72
ENDBRANCH  70  71
ENDBRANCH  69  70
ENDBRANCH   1  69
TORSDOF 17
ENDMDL
