MODEL 1
REMARK VINA RESULT:     -11.1      0.000      0.000
REMARK SMILES O=C(NCCCCCCNC(=O)[C@@]1([C@@H]2CCO[C@@]3(CCOC3)C2)CCOC1)c1ccc(-c2c3nc(c(-c4ccc(S(=O)(=O)[O-])cc4)c4ccc([nH]4)c(-c4ccc(S(=O)(=O)[O-])cc4)c4nc(c(-c5ccc(S(=O)(=O)[O-])cc5)c5ccc2[nH]5)C=C4)C=C3)cc1
REMARK SMILES IDX 5 1 4 2 3 3 1 4 2 5 28 7 29 8 87 9 30 10 86 11 31 12 32 13
REMARK SMILES IDX 33 14 80 15 34 16 85 17 79 18 81 19 35 20 84 21 78 22 77 23
REMARK SMILES IDX 36 25 66 26 47 27 65 28 48 29 51 30 64 31 82 32 49 33 50 34
REMARK SMILES IDX 63 36 83 37 52 38 37 39 38 40 46 41 39 42 45 43 40 44 41 45
REMARK SMILES IDX 42 46 43 47 44 48 67 49 68 50 76 51 69 52 75 53 70 54 71 55
REMARK SMILES IDX 72 56 73 57 74 58 53 59 54 60 62 61 55 62 61 63 56 64 57 65
REMARK SMILES IDX 58 66 59 67 60 68 6 69 7 70 8 71 9 72 10 73 11 74 12 76
REMARK SMILES IDX 13 77 24 78 27 79 25 80 26 81 14 82 15 83 23 84 16 85 18 86
REMARK SMILES IDX 17 87 19 88 22 89 20 90 21 91
REMARK H PARENT 3 6 81 24 51 35 10 75
REMARK Flexibility Score: inf
ROOT
ATOM      1  C   UNL A   1      33.212  27.886  25.510  1.00  0.00     0.021 C 
ENDROOT
BRANCH   1   2
ATOM      2  C   UNL A   1      33.893  28.265  26.819  1.00  0.00     0.116 C 
BRANCH   2   3
ATOM      3  N   UNL A   1      33.662  29.658  27.171  1.00  0.00    -0.352 N 
ATOM      4  O   UNL A   1      34.032  31.593  28.270  1.00  0.00    -0.269 OA
ATOM      5  C   UNL A   1      34.467  30.509  27.889  1.00  0.00     0.251 C 
ATOM      6  H   UNL A   1      32.814  30.043  26.852  1.00  0.00     0.163 HD
BRANCH   5   7
ATOM      7  C   UNL A   1      35.852  30.104  28.213  1.00  0.00     0.039 A 
ATOM      8  C   UNL A   1      36.867  30.244  27.264  1.00  0.00     0.014 A 
ATOM      9  C   UNL A   1      36.143  29.588  29.479  1.00  0.00     0.014 A 
ATOM     10  C   UNL A   1      38.137  29.749  27.530  1.00  0.00     0.010 A 
ATOM     11  C   UNL A   1      37.445  29.176  29.779  1.00  0.00     0.010 A 
ATOM     12  C   UNL A   1      38.450  29.237  28.800  1.00  0.00    -0.014 A 
BRANCH  12  13
ATOM     13  C   UNL A   1      39.860  28.885  29.107  1.00  0.00     0.031 A 
ATOM     14  C   UNL A   1      40.447  27.561  28.706  1.00  0.00     0.074 A 
ATOM     15  C   UNL A   1      40.617  29.800  29.746  1.00  0.00     0.049 A 
ATOM     16  N   UNL A   1      41.666  27.119  28.887  1.00  0.00    -0.248 NA
ATOM     17  C   UNL A   1      39.562  26.608  28.017  1.00  0.00     0.031 C 
ATOM     18  C   UNL A   1      40.148  31.117  30.195  1.00  0.00     0.029 A 
ATOM     19  N   UNL A   1      41.937  29.779  30.116  1.00  0.00    -0.354 N 
ATOM     20  C   UNL A   1      41.692  25.834  28.358  1.00  0.00     0.074 A 
ATOM     21  C   UNL A   1      40.361  25.558  27.860  1.00  0.00     0.031 C 
ATOM     22  C   UNL A   1      41.172  31.791  30.735  1.00  0.00     0.029 A 
ATOM     23  C   UNL A   1      42.349  30.932  30.742  1.00  0.00     0.049 A 
ATOM     24  H   UNL A   1      42.532  29.013  29.950  1.00  0.00     0.167 HD
ATOM     25  C   UNL A   1      42.733  24.968  28.295  1.00  0.00     0.031 A 
ATOM     26  C   UNL A   1      43.535  31.259  31.290  1.00  0.00     0.031 A 
ATOM     27  C   UNL A   1      44.054  25.255  28.795  1.00  0.00     0.049 A 
ATOM     28  C   UNL A   1      44.655  30.260  31.237  1.00  0.00     0.074 A 
ATOM     29  C   UNL A   1      45.185  24.457  28.736  1.00  0.00     0.029 A 
ATOM     30  N   UNL A   1      44.423  26.419  29.452  1.00  0.00    -0.354 N 
ATOM     31  N   UNL A   1      44.672  29.072  30.681  1.00  0.00    -0.248 NA
ATOM     32  C   UNL A   1      45.915  30.645  31.884  1.00  0.00     0.031 C 
ATOM     33  C   UNL A   1      46.219  25.110  29.414  1.00  0.00     0.029 A 
ATOM     34  C   UNL A   1      45.753  26.345  29.834  1.00  0.00     0.049 A 
ATOM     35  H   UNL A   1      43.828  27.185  29.621  1.00  0.00     0.167 HD
ATOM     36  C   UNL A   1      45.952  28.577  30.896  1.00  0.00     0.074 A 
ATOM     37  C   UNL A   1      46.686  29.604  31.606  1.00  0.00     0.031 C 
ATOM     38  C   UNL A   1      46.470  27.375  30.542  1.00  0.00     0.031 A 
BRANCH  25  39
ATOM     39  C   UNL A   1      42.496  23.608  27.689  1.00  0.00    -0.014 A 
ATOM     40  C   UNL A   1      42.842  23.334  26.353  1.00  0.00     0.010 A 
ATOM     41  C   UNL A   1      42.023  22.560  28.501  1.00  0.00     0.010 A 
ATOM     42  C   UNL A   1      42.706  22.040  25.840  1.00  0.00     0.020 A 
ATOM     43  C   UNL A   1      41.908  21.260  27.997  1.00  0.00     0.020 A 
ATOM     44  C   UNL A   1      42.245  21.011  26.666  1.00  0.00     0.054 A 
BRANCH  44  45
ATOM     45  S   UNL A   1      42.141  19.331  25.989  1.00  0.00     0.124 S 
ATOM     46  O   UNL A   1      42.967  19.438  24.788  1.00  0.00    -0.237 OA
ATOM     47  O   UNL A   1      42.702  18.518  27.066  1.00  0.00    -0.237 OA
ATOM     48  O   UNL A   1      40.713  19.140  25.745  1.00  0.00    -0.744 OA
ENDBRANCH  44  45
ENDBRANCH  25  39
BRANCH  26  49
ATOM     49  C   UNL A   1      43.705  32.569  31.974  1.00  0.00    -0.014 A 
ATOM     50  C   UNL A   1      43.396  32.719  33.336  1.00  0.00     0.010 A 
ATOM     51  C   UNL A   1      44.172  33.686  31.252  1.00  0.00     0.010 A 
ATOM     52  C   UNL A   1      43.515  33.967  33.955  1.00  0.00     0.020 A 
ATOM     53  C   UNL A   1      44.327  34.924  31.875  1.00  0.00     0.020 A 
ATOM     54  C   UNL A   1      43.977  35.063  33.218  1.00  0.00     0.054 A 
BRANCH  54  55
ATOM     55  S   UNL A   1      44.136  36.669  34.043  1.00  0.00     0.124 S 
ATOM     56  O   UNL A   1      42.758  36.944  34.435  1.00  0.00    -0.237 OA
ATOM     57  O   UNL A   1      45.059  36.374  35.136  1.00  0.00    -0.237 OA
ATOM     58  O   UNL A   1      44.675  37.537  32.999  1.00  0.00    -0.744 OA
ENDBRANCH  54  55
ENDBRANCH  26  49
BRANCH  38  59
ATOM     59  C   UNL A   1      47.913  27.121  30.890  1.00  0.00    -0.014 A 
ATOM     60  C   UNL A   1      48.947  27.452  29.996  1.00  0.00     0.010 A 
ATOM     61  C   UNL A   1      48.238  26.577  32.146  1.00  0.00     0.010 A 
ATOM     62  C   UNL A   1      50.280  27.206  30.337  1.00  0.00     0.020 A 
ATOM     63  C   UNL A   1      49.570  26.361  32.504  1.00  0.00     0.020 A 
ATOM     64  C   UNL A   1      50.582  26.663  31.590  1.00  0.00     0.054 A 
BRANCH  64  65
ATOM     65  S   UNL A   1      52.322  26.390  32.023  1.00  0.00     0.124 S 
ATOM     66  O   UNL A   1      52.375  26.886  33.395  1.00  0.00    -0.237 OA
ATOM     67  O   UNL A   1      52.467  24.944  31.870  1.00  0.00    -0.237 OA
ATOM     68  O   UNL A   1      53.052  27.191  31.043  1.00  0.00    -0.744 OA
ENDBRANCH  64  65
ENDBRANCH  38  59
ENDBRANCH  12  13
ENDBRANCH   5   7
ENDBRANCH   2   3
ENDBRANCH   1   2
BRANCH   1  69
ATOM     69  C   UNL A   1      33.779  26.631  24.846  1.00  0.00     0.002 C 
BRANCH  69  70
ATOM     70  C   UNL A   1      32.918  26.042  23.721  1.00  0.00     0.002 C 
BRANCH  70  71
ATOM     71  C   UNL A   1      33.693  25.326  22.608  1.00  0.00     0.021 C 
BRANCH  71  72
ATOM     72  C   UNL A   1      33.668  23.804  22.717  1.00  0.00     0.116 C 
BRANCH  72  73
ATOM     73  N   UNL A   1      34.966  23.282  23.112  1.00  0.00    -0.356 N 
ATOM     74  C   UNL A   1      35.362  22.511  24.161  1.00  0.00     0.228 C 
ATOM     75  H   UNL A   1      35.699  23.535  22.504  1.00  0.00     0.163 HD
ATOM     76  O   UNL A   1      36.568  22.254  24.227  1.00  0.00    -0.274 OA
BRANCH  74  77
ATOM     77  C   UNL A   1      34.355  21.895  25.152  1.00  0.00     0.078 C 
ATOM     78  C   UNL A   1      35.041  21.631  26.495  1.00  0.00     0.048 C 
ATOM     79  C   UNL A   1      33.310  22.938  25.579  1.00  0.00     0.177 C 
ATOM     80  C   UNL A   1      33.972  21.863  27.535  1.00  0.00     0.161 C 
ATOM     81  O   UNL A   1      33.054  22.802  26.984  1.00  0.00    -0.380 OA
BRANCH  77  82
ATOM     82  C   UNL A   1      33.720  20.644  24.474  1.00  0.00     0.012 C 
ATOM     83  C   UNL A   1      32.319  20.802  23.892  1.00  0.00     0.033 C 
ATOM     84  C   UNL A   1      33.633  19.363  25.319  1.00  0.00     0.043 C 
ATOM     85  C   UNL A   1      32.135  19.714  22.848  1.00  0.00     0.161 C 
ATOM     86  C   UNL A   1      33.319  18.153  24.398  1.00  0.00     0.094 C 
ATOM     87  O   UNL A   1      32.685  18.443  23.149  1.00  0.00    -0.372 OA
ATOM     88  C   UNL A   1      34.612  17.402  24.073  1.00  0.00     0.066 C 
ATOM     89  C   UNL A   1      32.505  17.062  25.097  1.00  0.00     0.195 C 
ATOM     90  C   UNL A   1      34.684  16.272  25.080  1.00  0.00     0.163 C 
ATOM     91  O   UNL A   1      33.412  16.146  25.716  1.00  0.00    -0.378 OA
ENDBRANCH  77  82
ENDBRANCH  74  77
ENDBRANCH  72  73
ENDBRANCH  71  72
ENDBRANCH  70  71
ENDBRANCH  69  70
ENDBRANCH   1  69
TORSDOF 17
ENDMDL
MODEL 2
REMARK VINA RESULT:     -11.1      5.061     10.162
REMARK SMILES O=C(NCCCCCCNC(=O)[C@@]1([C@@H]2CCO[C@@]3(CCOC3)C2)CCOC1)c1ccc(-c2c3nc(c(-c4ccc(S(=O)(=O)[O-])cc4)c4ccc([nH]4)c(-c4ccc(S(=O)(=O)[O-])cc4)c4nc(c(-c5ccc(S(=O)(=O)[O-])cc5)c5ccc2[nH]5)C=C4)C=C3)cc1
REMARK SMILES IDX 5 1 4 2 3 3 1 4 2 5 28 7 29 8 87 9 30 10 86 11 31 12 32 13
REMARK SMILES IDX 33 14 80 15 34 16 85 17 79 18 81 19 35 20 84 21 78 22 77 23
REMARK SMILES IDX 36 25 66 26 47 27 65 28 48 29 51 30 64 31 82 32 49 33 50 34
REMARK SMILES IDX 63 36 83 37 52 38 37 39 38 40 46 41 39 42 45 43 40 44 41 45
REMARK SMILES IDX 42 46 43 47 44 48 67 49 68 50 76 51 69 52 75 53 70 54 71 55
REMARK SMILES IDX 72 56 73 57 74 58 53 59 54 60 62 61 55 62 61 63 56 64 57 65
REMARK SMILES IDX 58 66 59 67 60 68 6 69 7 70 8 71 9 72 10 73 11 74 12 76
REMARK SMILES IDX 13 77 24 78 27 79 25 80 26 81 14 82 15 83 23 84 16 85 18 86
REMARK SMILES IDX 17 87 19 88 22 89 20 90 21 91
REMARK H PARENT 3 6 81 24 51 35 10 75
REMARK Flexibility Score: inf
ROOT
ATOM      1  C   UNL A   1      37.236  24.101  25.693  1.00  0.00     0.021 C 
ENDROOT
BRANCH   1   2
ATOM      2  C   UNL A   1      38.343  24.170  26.736  1.00  0.00     0.116 C 
BRANCH   2   3
ATOM      3  N   UNL A   1      39.665  24.184  26.130  1.00  0.00    -0.352 N 
ATOM      4  O   UNL A   1      41.680  25.051  25.602  1.00  0.00    -0.269 OA
ATOM      5  C   UNL A   1      40.701  25.060  26.345  1.00  0.00     0.251 C 
ATOM      6  H   UNL A   1      39.842  23.469  25.477  1.00  0.00     0.163 HD
BRANCH   5   7
ATOM      7  C   UNL A   1      40.623  26.023  27.465  1.00  0.00     0.039 A 
ATOM      8  C   UNL A   1      39.743  25.799  28.526  1.00  0.00     0.014 A 
ATOM      9  C   UNL A   1      41.442  27.156  27.460  1.00  0.00     0.014 A 
ATOM     10  C   UNL A   1      39.586  26.765  29.511  1.00  0.00     0.010 A 
ATOM     11  C   UNL A   1      41.349  28.083  28.503  1.00  0.00     0.010 A 
ATOM     12  C   UNL A   1      40.407  27.904  29.529  1.00  0.00    -0.014 A 
BRANCH  12  13
ATOM     13  C   UNL A   1      40.336  28.825  30.692  1.00  0.00     0.031 A 
ATOM     14  C   UNL A   1      41.245  28.667  31.879  1.00  0.00     0.074 A 
ATOM     15  C   UNL A   1      39.440  29.832  30.650  1.00  0.00     0.049 A 
ATOM     16  N   UNL A   1      41.314  29.404  32.959  1.00  0.00    -0.248 NA
ATOM     17  C   UNL A   1      42.195  27.543  31.861  1.00  0.00     0.031 C 
ATOM     18  C   UNL A   1      38.498  30.075  29.551  1.00  0.00     0.029 A 
ATOM     19  N   UNL A   1      39.180  30.846  31.535  1.00  0.00    -0.354 N 
ATOM     20  C   UNL A   1      42.294  28.826  33.757  1.00  0.00     0.074 A 
ATOM     21  C   UNL A   1      42.785  27.665  33.045  1.00  0.00     0.031 C 
ATOM     22  C   UNL A   1      37.799  31.189  29.806  1.00  0.00     0.029 A 
ATOM     23  C   UNL A   1      38.186  31.698  31.116  1.00  0.00     0.049 A 
ATOM     24  H   UNL A   1      39.659  30.954  32.388  1.00  0.00     0.167 HD
ATOM     25  C   UNL A   1      42.740  29.230  34.971  1.00  0.00     0.031 A 
ATOM     26  C   UNL A   1      37.622  32.757  31.725  1.00  0.00     0.031 A 
ATOM     27  C   UNL A   1      42.243  30.388  35.671  1.00  0.00     0.049 A 
ATOM     28  C   UNL A   1      38.114  33.154  33.087  1.00  0.00     0.074 A 
ATOM     29  C   UNL A   1      42.665  30.903  36.886  1.00  0.00     0.029 A 
ATOM     30  N   UNL A   1      41.214  31.205  35.230  1.00  0.00    -0.354 N 
ATOM     31  N   UNL A   1      39.081  32.626  33.798  1.00  0.00    -0.248 NA
ATOM     32  C   UNL A   1      37.440  34.290  33.729  1.00  0.00     0.031 C 
ATOM     33  C   UNL A   1      41.848  31.990  37.210  1.00  0.00     0.029 A 
ATOM     34  C   UNL A   1      40.963  32.197  36.164  1.00  0.00     0.049 A 
ATOM     35  H   UNL A   1      40.732  31.098  34.377  1.00  0.00     0.167 HD
ATOM     36  C   UNL A   1      39.143  33.378  34.964  1.00  0.00     0.074 A 
ATOM     37  C   UNL A   1      38.137  34.414  34.849  1.00  0.00     0.031 C 
ATOM     38  C   UNL A   1      39.956  33.220  36.036  1.00  0.00     0.031 A 
BRANCH  25  39
ATOM     39  C   UNL A   1      43.805  28.408  35.652  1.00  0.00    -0.014 A 
ATOM     40  C   UNL A   1      45.172  28.694  35.478  1.00  0.00     0.010 A 
ATOM     41  C   UNL A   1      43.429  27.405  36.565  1.00  0.00     0.010 A 
ATOM     42  C   UNL A   1      46.140  27.983  36.194  1.00  0.00     0.020 A 
ATOM     43  C   UNL A   1      44.393  26.708  37.301  1.00  0.00     0.020 A 
ATOM     44  C   UNL A   1      45.744  26.999  37.105  1.00  0.00     0.054 A 
BRANCH  44  45
ATOM     45  S   UNL A   1      47.021  26.140  38.067  1.00  0.00     0.124 S 
ATOM     46  O   UNL A   1      48.085  27.139  38.117  1.00  0.00    -0.237 OA
ATOM     47  O   UNL A   1      46.343  25.881  39.335  1.00  0.00    -0.237 OA
ATOM     48  O   UNL A   1      47.319  24.952  37.269  1.00  0.00    -0.744 OA
ENDBRANCH  44  45
ENDBRANCH  25  39
BRANCH  26  49
ATOM     49  C   UNL A   1      36.500  33.485  31.071  1.00  0.00    -0.014 A 
ATOM     50  C   UNL A   1      35.296  33.721  31.755  1.00  0.00     0.010 A 
ATOM     51  C   UNL A   1      36.632  33.938  29.744  1.00  0.00     0.010 A 
ATOM     52  C   UNL A   1      34.233  34.364  31.113  1.00  0.00     0.020 A 
ATOM     53  C   UNL A   1      35.587  34.612  29.112  1.00  0.00     0.020 A 
ATOM     54  C   UNL A   1      34.385  34.802  29.794  1.00  0.00     0.054 A 
BRANCH  54  55
ATOM     55  S   UNL A   1      32.998  35.644  28.985  1.00  0.00     0.124 S 
ATOM     56  O   UNL A   1      32.442  34.580  28.156  1.00  0.00    -0.237 OA
ATOM     57  O   UNL A   1      32.176  36.061  30.118  1.00  0.00    -0.237 OA
ATOM     58  O   UNL A   1      33.640  36.736  28.256  1.00  0.00    -0.744 OA
ENDBRANCH  54  55
ENDBRANCH  26  49
BRANCH  38  59
ATOM     59  C   UNL A   1      39.813  34.215  37.158  1.00  0.00    -0.014 A 
ATOM     60  C   UNL A   1      39.063  33.913  38.309  1.00  0.00     0.010 A 
ATOM     61  C   UNL A   1      40.471  35.456  37.073  1.00  0.00     0.010 A 
ATOM     62  C   UNL A   1      38.941  34.851  39.338  1.00  0.00     0.020 A 
ATOM     63  C   UNL A   1      40.379  36.382  38.114  1.00  0.00     0.020 A 
ATOM     64  C   UNL A   1      39.601  36.079  39.233  1.00  0.00     0.054 A 
BRANCH  64  65
ATOM     65  S   UNL A   1      39.458  37.263  40.600  1.00  0.00     0.124 S 
ATOM     66  O   UNL A   1      40.857  37.496  40.948  1.00  0.00    -0.237 OA
ATOM     67  O   UNL A   1      38.769  38.390  39.976  1.00  0.00    -0.237 OA
ATOM     68  O   UNL A   1      38.679  36.540  41.603  1.00  0.00    -0.744 OA
ENDBRANCH  64  65
ENDBRANCH  38  59
ENDBRANCH  12  13
ENDBRANCH   5   7
ENDBRANCH   2   3
ENDBRANCH   1   2
BRANCH   1  69
ATOM     69  C   UNL A   1      35.956  23.417  26.177  1.00  0.00     0.002 C 
BRANCH  69  70
ATOM     70  C   UNL A   1      34.673  23.849  25.454  1.00  0.00     0.002 C 
BRANCH  70  71
ATOM     71  C   UNL A   1      33.483  24.167  26.367  1.00  0.00     0.021 C 
BRANCH  71  72
ATOM     72  C   UNL A   1      32.353  24.922  25.671  1.00  0.00     0.116 C 
BRANCH  72  73
ATOM     73  N   UNL A   1      31.577  25.703  26.621  1.00  0.00    -0.356 N 
ATOM     74  C   UNL A   1      31.508  27.039  26.868  1.00  0.00     0.228 C 
ATOM     75  H   UNL A   1      30.990  25.160  27.196  1.00  0.00     0.163 HD
ATOM     76  O   UNL A   1      30.750  27.389  27.778  1.00  0.00    -0.274 OA
BRANCH  74  77
ATOM     77  C   UNL A   1      32.241  28.074  25.992  1.00  0.00     0.078 C 
ATOM     78  C   UNL A   1      32.144  29.460  26.633  1.00  0.00     0.048 C 
ATOM     79  C   UNL A   1      33.761  27.851  26.050  1.00  0.00     0.177 C 
ATOM     80  C   UNL A   1      33.445  30.145  26.288  1.00  0.00     0.161 C 
ATOM     81  O   UNL A   1      34.421  29.122  26.126  1.00  0.00    -0.380 OA
BRANCH  77  82
ATOM     82  C   UNL A   1      31.669  27.969  24.546  1.00  0.00     0.012 C 
ATOM     83  C   UNL A   1      32.665  27.723  23.417  1.00  0.00     0.033 C 
ATOM     84  C   UNL A   1      30.820  29.150  24.047  1.00  0.00     0.043 C 
ATOM     85  C   UNL A   1      31.895  27.123  22.254  1.00  0.00     0.161 C 
ATOM     86  C   UNL A   1      30.051  28.730  22.764  1.00  0.00     0.094 C 
ATOM     87  O   UNL A   1      30.599  27.643  22.012  1.00  0.00    -0.372 OA
ATOM     88  C   UNL A   1      28.617  28.339  23.125  1.00  0.00     0.066 C 
ATOM     89  C   UNL A   1      29.812  29.895  21.800  1.00  0.00     0.195 C 
ATOM     90  C   UNL A   1      27.789  29.585  22.889  1.00  0.00     0.163 C 
ATOM     91  O   UNL A   1      28.571  30.518  22.142  1.00  0.00    -0.378 OA
ENDBRANCH  77  82
ENDBRANCH  74  77
ENDBRANCH  72  73
ENDBRANCH  71  72
ENDBRANCH  70  71
ENDBRANCH  69  70
ENDBRANCH   1  69
TORSDOF 17
ENDMDL
MODEL 3
REMARK VINA RESULT:     -11.0      1.185      2.542
REMARK SMILES O=C(NCCCCCCNC(=O)[C@@]1([C@@H]2CCO[C@@]3(CCOC3)C2)CCOC1)c1ccc(-c2c3nc(c(-c4ccc(S(=O)(=O)[O-])cc4)c4ccc([nH]4)c(-c4ccc(S(=O)(=O)[O-])cc4)c4nc(c(-c5ccc(S(=O)(=O)[O-])cc5)c5ccc2[nH]5)C=C4)C=C3)cc1
REMARK SMILES IDX 5 1 4 2 3 3 1 4 2 5 28 7 29 8 87 9 30 10 86 11 31 12 32 13
REMARK SMILES IDX 33 14 80 15 34 16 85 17 79 18 81 19 35 20 84 21 78 22 77 23
REMARK SMILES IDX 36 25 66 26 47 27 65 28 48 29 51 30 64 31 82 32 49 33 50 34
REMARK SMILES IDX 63 36 83 37 52 38 37 39 38 40 46 41 39 42 45 43 40 44 41 45
REMARK SMILES IDX 42 46 43 47 44 48 67 49 68 50 76 51 69 52 75 53 70 54 71 55
REMARK SMILES IDX 72 56 73 57 74 58 53 59 54 60 62 61 55 62 61 63 56 64 57 65
REMARK SMILES IDX 58 66 59 67 60 68 6 69 7 70 8 71 9 72 10 73 11 74 12 76
REMARK SMILES IDX 13 77 24 78 27 79 25 80 26 81 14 82 15 83 23 84 16 85 18 86
REMARK SMILES IDX 17 87 19 88 22 89 20 90 21 91
REMARK H PARENT 3 6 81 24 51 35 10 75
REMARK Flexibility Score: inf
ROOT
ATOM      1  C   UNL A   1      33.888  28.141  25.407  1.00  0.00     0.021 C 
ENDROOT
BRANCH   1   2
ATOM      2  C   UNL A   1      33.943  28.309  26.919  1.00  0.00     0.116 C 
BRANCH   2   3
ATOM      3  N   UNL A   1      33.712  29.687  27.326  1.00  0.00    -0.352 N 
ATOM      4  O   UNL A   1      34.096  31.585  28.482  1.00  0.00    -0.269 OA
ATOM      5  C   UNL A   1      34.529  30.518  28.054  1.00  0.00     0.251 C 
ATOM      6  H   UNL A   1      32.854  30.076  27.041  1.00  0.00     0.163 HD
BRANCH   5   7
ATOM      7  C   UNL A   1      35.924  30.112  28.330  1.00  0.00     0.039 A 
ATOM      8  C   UNL A   1      36.908  30.263  27.350  1.00  0.00     0.014 A 
ATOM      9  C   UNL A   1      36.255  29.584  29.581  1.00  0.00     0.014 A 
ATOM     10  C   UNL A   1      38.187  29.768  27.572  1.00  0.00     0.010 A 
ATOM     11  C   UNL A   1      37.566  29.171  29.835  1.00  0.00     0.010 A 
ATOM     12  C   UNL A   1      38.540  29.244  28.826  1.00  0.00    -0.014 A 
BRANCH  12  13
ATOM     13  C   UNL A   1      39.959  28.891  29.086  1.00  0.00     0.031 A 
ATOM     14  C   UNL A   1      40.530  27.563  28.673  1.00  0.00     0.074 A 
ATOM     15  C   UNL A   1      40.741  29.810  29.689  1.00  0.00     0.049 A 
ATOM     16  N   UNL A   1      41.753  27.119  28.815  1.00  0.00    -0.248 NA
ATOM     17  C   UNL A   1      39.618  26.606  28.024  1.00  0.00     0.031 C 
ATOM     18  C   UNL A   1      40.291  31.131  30.144  1.00  0.00     0.029 A 
ATOM     19  N   UNL A   1      42.073  29.789  30.012  1.00  0.00    -0.354 N 
ATOM     20  C   UNL A   1      41.758  25.830  28.295  1.00  0.00     0.074 A 
ATOM     21  C   UNL A   1      40.409  25.553  27.847  1.00  0.00     0.031 C 
ATOM     22  C   UNL A   1      41.334  31.807  30.642  1.00  0.00     0.029 A 
ATOM     23  C   UNL A   1      42.510  30.945  30.613  1.00  0.00     0.049 A 
ATOM     24  H   UNL A   1      42.660  29.020  29.830  1.00  0.00     0.167 HD
ATOM     25  C   UNL A   1      42.794  24.962  28.202  1.00  0.00     0.031 A 
ATOM     26  C   UNL A   1      43.715  31.274  31.116  1.00  0.00     0.031 A 
ATOM     27  C   UNL A   1      44.133  25.250  28.652  1.00  0.00     0.049 A 
ATOM     28  C   UNL A   1      44.830  30.273  31.031  1.00  0.00     0.074 A 
ATOM     29  C   UNL A   1      45.259  24.449  28.559  1.00  0.00     0.029 A 
ATOM     30  N   UNL A   1      44.527  26.418  29.286  1.00  0.00    -0.354 N 
ATOM     31  N   UNL A   1      44.826  29.080  30.484  1.00  0.00    -0.248 NA
ATOM     32  C   UNL A   1      46.114  30.660  31.630  1.00  0.00     0.031 C 
ATOM     33  C   UNL A   1      46.318  25.104  29.194  1.00  0.00     0.029 A 
ATOM     34  C   UNL A   1      45.870  26.344  29.620  1.00  0.00     0.049 A 
ATOM     35  H   UNL A   1      43.941  27.187  29.470  1.00  0.00     0.167 HD
ATOM     36  C   UNL A   1      46.111  28.583  30.657  1.00  0.00     0.074 A 
ATOM     37  C   UNL A   1      46.872  29.615  31.332  1.00  0.00     0.031 C 
ATOM     38  C   UNL A   1      46.613  27.378  30.294  1.00  0.00     0.031 A 
BRANCH  25  39
ATOM     39  C   UNL A   1      42.533  23.598  27.615  1.00  0.00    -0.014 A 
ATOM     40  C   UNL A   1      42.913  23.284  26.298  1.00  0.00     0.010 A 
ATOM     41  C   UNL A   1      42.000  22.582  28.432  1.00  0.00     0.010 A 
ATOM     42  C   UNL A   1      42.751  21.985  25.806  1.00  0.00     0.020 A 
ATOM     43  C   UNL A   1      41.859  21.276  27.951  1.00  0.00     0.020 A 
ATOM     44  C   UNL A   1      42.231  20.988  26.637  1.00  0.00     0.054 A 
BRANCH  44  45
ATOM     45  S   UNL A   1      42.094  19.299  25.990  1.00  0.00     0.124 S 
ATOM     46  O   UNL A   1      40.651  19.163  25.802  1.00  0.00    -0.237 OA
ATOM     47  O   UNL A   1      42.882  19.364  24.761  1.00  0.00    -0.237 OA
ATOM     48  O   UNL A   1      42.664  18.471  27.050  1.00  0.00    -0.744 OA
ENDBRANCH  44  45
ENDBRANCH  25  39
BRANCH  26  49
ATOM     49  C   UNL A   1      43.912  32.590  31.783  1.00  0.00    -0.014 A 
ATOM     50  C   UNL A   1      44.347  33.710  31.055  1.00  0.00     0.010 A 
ATOM     51  C   UNL A   1      43.672  32.723  33.165  1.00  0.00     0.010 A 
ATOM     52  C   UNL A   1      44.574  34.928  31.703  1.00  0.00     0.020 A 
ATOM     53  C   UNL A   1      43.862  33.946  33.807  1.00  0.00     0.020 A 
ATOM     54  C   UNL A   1      44.333  35.037  33.076  1.00  0.00     0.054 A 
BRANCH  54  55
ATOM     55  S   UNL A   1      44.622  36.629  33.893  1.00  0.00     0.124 S 
ATOM     56  O   UNL A   1      43.376  36.823  34.625  1.00  0.00    -0.237 OA
ATOM     57  O   UNL A   1      45.802  36.356  34.711  1.00  0.00    -0.237 OA
ATOM     58  O   UNL A   1      44.845  37.549  32.779  1.00  0.00    -0.744 OA
ENDBRANCH  54  55
ENDBRANCH  26  49
BRANCH  38  59
ATOM     59  C   UNL A   1      48.068  27.124  30.592  1.00  0.00    -0.014 A 
ATOM     60  C   UNL A   1      48.466  26.455  31.763  1.00  0.00     0.010 A 
ATOM     61  C   UNL A   1      49.046  27.530  29.666  1.00  0.00     0.010 A 
ATOM     62  C   UNL A   1      49.821  26.230  32.021  1.00  0.00     0.020 A 
ATOM     63  C   UNL A   1      50.399  27.278  29.904  1.00  0.00     0.020 A 
ATOM     64  C   UNL A   1      50.779  26.643  31.088  1.00  0.00     0.054 A 
BRANCH  64  65
ATOM     65  S   UNL A   1      52.528  26.305  31.429  1.00  0.00     0.124 S 
ATOM     66  O   UNL A   1      52.453  25.066  32.198  1.00  0.00    -0.237 OA
ATOM     67  O   UNL A   1      53.096  26.181  30.089  1.00  0.00    -0.237 OA
ATOM     68  O   UNL A   1      52.966  27.479  32.181  1.00  0.00    -0.744 OA
ENDBRANCH  64  65
ENDBRANCH  38  59
ENDBRANCH  12  13
ENDBRANCH   5   7
ENDBRANCH   2   3
ENDBRANCH   1   2
BRANCH   1  69
ATOM     69  C   UNL A   1      33.824  26.688  24.936  1.00  0.00     0.002 C 
BRANCH  69  70
ATOM     70  C   UNL A   1      32.918  25.772  25.769  1.00  0.00     0.002 C 
BRANCH  70  71
ATOM     71  C   UNL A   1      31.609  25.351  25.089  1.00  0.00     0.021 C 
BRANCH  71  72
ATOM     72  C   UNL A   1      30.982  24.091  25.678  1.00  0.00     0.116 C 
BRANCH  72  73
ATOM     73  N   UNL A   1      31.674  23.673  26.887  1.00  0.00    -0.356 N 
ATOM     74  C   UNL A   1      32.484  22.614  27.159  1.00  0.00     0.228 C 
ATOM     75  H   UNL A   1      31.527  24.271  27.656  1.00  0.00     0.163 HD
ATOM     76  O   UNL A   1      32.904  22.529  28.317  1.00  0.00    -0.274 OA
BRANCH  74  77
ATOM     77  C   UNL A   1      32.950  21.635  26.063  1.00  0.00     0.078 C 
ATOM     78  C   UNL A   1      33.269  20.273  26.684  1.00  0.00     0.048 C 
ATOM     79  C   UNL A   1      31.776  21.251  25.148  1.00  0.00     0.177 C 
ATOM     80  C   UNL A   1      32.885  19.261  25.631  1.00  0.00     0.161 C 
ATOM     81  O   UNL A   1      31.850  19.850  24.849  1.00  0.00    -0.380 OA
BRANCH  77  82
ATOM     82  C   UNL A   1      34.126  22.305  25.291  1.00  0.00     0.012 C 
ATOM     83  C   UNL A   1      34.012  22.375  23.771  1.00  0.00     0.033 C 
ATOM     84  C   UNL A   1      35.533  21.737  25.536  1.00  0.00     0.043 C 
ATOM     85  C   UNL A   1      34.922  23.496  23.298  1.00  0.00     0.161 C 
ATOM     86  C   UNL A   1      36.596  22.726  24.986  1.00  0.00     0.094 C 
ATOM     87  O   UNL A   1      36.164  23.633  23.966  1.00  0.00    -0.372 OA
ATOM     88  C   UNL A   1      37.149  23.579  26.129  1.00  0.00     0.066 C 
ATOM     89  C   UNL A   1      37.864  22.029  24.488  1.00  0.00     0.195 C 
ATOM     90  C   UNL A   1      38.419  22.882  26.571  1.00  0.00     0.163 C 
ATOM     91  O   UNL A   1      38.776  21.915  25.584  1.00  0.00    -0.378 OA
ENDBRANCH  77  82
ENDBRANCH  74  77
ENDBRANCH  72  73
ENDBRANCH  71  72
ENDBRANCH  70  71
ENDBRANCH  69  70
ENDBRANCH   1  69
TORSDOF 17
ENDMDL
