MODEL 1
REMARK VINA RESULT:     -10.6      0.000      0.000
REMARK SMILES N#Cc1cccc(C(=O)N2CCCC[C@@H]2C(=O)NCCCCCCNC(=O)c2ccc(-c3c4nc(c(-c5ccc(S(=O)(=O)[O-])cc5)c5ccc([nH]5)c(-c5ccc(S(=O)(=O)[O-])cc5)c5nc(c(-c6ccc(S(=O)(=O)[O-])cc6)c6ccc3[nH]6)C=C5)C=C4)cc2)c1
REMARK SMILES IDX 21 1 20 2 19 3 18 4 16 5 17 6 15 8 10 9 11 10 12 11 14 12
REMARK SMILES IDX 13 13 8 14 9 15 7 16 3 17 4 18 88 19 5 20 6 21 2 22 1 23
REMARK SMILES IDX 22 24 23 25 24 26 25 27 26 28 27 30 28 31 29 32 87 33 30 34
REMARK SMILES IDX 86 35 31 36 32 37 33 38 80 39 34 40 85 41 79 42 81 43 35 44
REMARK SMILES IDX 84 45 78 46 77 47 36 49 66 50 47 51 65 52 48 53 51 54 64 55
REMARK SMILES IDX 82 56 49 57 50 58 63 60 83 61 52 62 37 63 38 64 46 65 39 66
REMARK SMILES IDX 45 67 40 68 41 69 42 70 43 71 44 72 67 73 68 74 76 75 69 76
REMARK SMILES IDX 75 77 70 78 71 79 72 80 73 81 74 82 53 83 54 84 62 85 55 86
REMARK SMILES IDX 61 87 56 88 57 89 58 90 59 91 60 92
REMARK H PARENT 18 7 25 29 81 48 51 59
REMARK Flexibility Score: inf
ROOT
ATOM      1  C   UNL A   1      32.557  27.466  23.531  1.00  0.00     0.002 C 
ENDROOT
BRANCH   1   2
ATOM      2  C   UNL A   1      32.777  26.579  22.300  1.00  0.00     0.021 C 
BRANCH   2   3
ATOM      3  C   UNL A   1      33.674  25.373  22.573  1.00  0.00     0.116 C 
BRANCH   3   4
ATOM      4  N   UNL A   1      32.972  24.142  22.249  1.00  0.00    -0.354 N 
ATOM      5  C   UNL A   1      32.291  23.288  23.060  1.00  0.00     0.242 C 
ATOM      6  O   UNL A   1      31.911  22.214  22.584  1.00  0.00    -0.273 OA
ATOM      7  H   UNL A   1      32.992  23.889  21.297  1.00  0.00     0.163 HD
BRANCH   5   8
ATOM      8  C   UNL A   1      32.038  23.615  24.547  1.00  0.00     0.174 C 
ATOM      9  N   UNL A   1      32.076  22.436  25.439  1.00  0.00    -0.327 N 
ATOM     10  C   UNL A   1      31.617  22.628  26.805  1.00  0.00     0.120 C 
ATOM     11  C   UNL A   1      30.228  23.228  26.853  1.00  0.00     0.022 C 
ATOM     12  C   UNL A   1      30.698  24.386  24.665  1.00  0.00     0.035 C 
ATOM     13  C   UNL A   1      30.207  24.553  26.101  1.00  0.00     0.004 C 
BRANCH   9  14
ATOM     14  C   UNL A   1      32.675  21.207  25.179  1.00  0.00     0.254 C 
ATOM     15  O   UNL A   1      31.993  20.181  25.170  1.00  0.00    -0.269 OA
BRANCH  14  16
ATOM     16  C   UNL A   1      34.156  21.063  25.046  1.00  0.00     0.041 A 
ATOM     17  C   UNL A   1      36.436  21.849  25.331  1.00  0.00     0.053 A 
ATOM     18  C   UNL A   1      36.922  20.558  25.098  1.00  0.00     0.019 A 
ATOM     19  C   UNL A   1      35.057  22.096  25.321  1.00  0.00     0.033 A 
ATOM     20  C   UNL A   1      36.033  19.519  24.834  1.00  0.00     0.002 A 
ATOM     21  C   UNL A   1      34.661  19.773  24.803  1.00  0.00     0.014 A 
BRANCH  17  22
ATOM     22  C   UNL A   1      37.350  22.918  25.623  1.00  0.00     0.099 C 
ATOM     23  N   UNL A   1      38.087  23.784  25.843  1.00  0.00    -0.192 NA
ENDBRANCH  17  22
ENDBRANCH  14  16
ENDBRANCH   9  14
ENDBRANCH   5   8
ENDBRANCH   3   4
ENDBRANCH   2   3
ENDBRANCH   1   2
BRANCH   1  24
ATOM     24  C   UNL A   1      33.409  27.082  24.745  1.00  0.00     0.002 C 
BRANCH  24  25
ATOM     25  C   UNL A   1      34.053  28.268  25.467  1.00  0.00     0.021 C 
BRANCH  25  26
ATOM     26  C   UNL A   1      33.604  28.431  26.914  1.00  0.00     0.116 C 
BRANCH  26  27
ATOM     27  N   UNL A   1      33.504  29.833  27.288  1.00  0.00    -0.352 N 
ATOM     28  C   UNL A   1      34.372  30.600  28.019  1.00  0.00     0.251 C 
ATOM     29  H   UNL A   1      32.696  30.297  26.970  1.00  0.00     0.163 HD
ATOM     30  O   UNL A   1      34.008  31.691  28.451  1.00  0.00    -0.269 OA
BRANCH  28  31
ATOM     31  C   UNL A   1      35.738  30.107  28.295  1.00  0.00     0.039 A 
ATOM     32  C   UNL A   1      36.701  30.193  27.289  1.00  0.00     0.014 A 
ATOM     33  C   UNL A   1      36.065  29.550  29.536  1.00  0.00     0.014 A 
ATOM     34  C   UNL A   1      38.005  29.770  27.547  1.00  0.00     0.010 A 
ATOM     35  C   UNL A   1      37.384  29.210  29.818  1.00  0.00     0.010 A 
ATOM     36  C   UNL A   1      38.369  29.308  28.824  1.00  0.00    -0.014 A 
BRANCH  36  37
ATOM     37  C   UNL A   1      39.777  28.948  29.127  1.00  0.00     0.031 A 
ATOM     38  C   UNL A   1      40.691  29.932  29.810  1.00  0.00     0.074 A 
ATOM     39  C   UNL A   1      40.241  27.737  28.757  1.00  0.00     0.049 A 
ATOM     40  N   UNL A   1      41.940  29.780  30.170  1.00  0.00    -0.248 NA
ATOM     41  C   UNL A   1      40.141  31.264  30.114  1.00  0.00     0.031 C 
ATOM     42  C   UNL A   1      39.465  26.712  28.054  1.00  0.00     0.029 A 
ATOM     43  N   UNL A   1      41.473  27.156  28.926  1.00  0.00    -0.354 N 
ATOM     44  C   UNL A   1      42.328  30.993  30.726  1.00  0.00     0.074 A 
ATOM     45  C   UNL A   1      41.197  31.888  30.616  1.00  0.00     0.031 C 
ATOM     46  C   UNL A   1      40.220  25.613  27.901  1.00  0.00     0.029 A 
ATOM     47  C   UNL A   1      41.550  25.871  28.441  1.00  0.00     0.049 A 
ATOM     48  H   UNL A   1      42.231  27.616  29.356  1.00  0.00     0.167 HD
ATOM     49  C   UNL A   1      43.514  31.327  31.289  1.00  0.00     0.031 A 
ATOM     50  C   UNL A   1      42.576  24.998  28.427  1.00  0.00     0.031 A 
ATOM     51  C   UNL A   1      44.633  30.428  31.399  1.00  0.00     0.049 A 
ATOM     52  C   UNL A   1      43.890  25.411  29.034  1.00  0.00     0.074 A 
ATOM     53  C   UNL A   1      45.852  30.651  32.014  1.00  0.00     0.029 A 
ATOM     54  N   UNL A   1      44.679  29.145  30.875  1.00  0.00    -0.354 N 
ATOM     55  N   UNL A   1      44.206  26.531  29.638  1.00  0.00    -0.248 NA
ATOM     56  C   UNL A   1      44.985  24.434  28.966  1.00  0.00     0.031 C 
ATOM     57  C   UNL A   1      46.666  29.537  31.788  1.00  0.00     0.029 A 
ATOM     58  C   UNL A   1      45.923  28.584  31.111  1.00  0.00     0.049 A 
ATOM     59  H   UNL A   1      43.938  28.700  30.404  1.00  0.00     0.167 HD
ATOM     60  C   UNL A   1      45.524  26.379  30.053  1.00  0.00     0.074 A 
ATOM     61  C   UNL A   1      45.937  25.049  29.653  1.00  0.00     0.031 C 
ATOM     62  C   UNL A   1      46.323  27.259  30.706  1.00  0.00     0.031 A 
BRANCH  49  63
ATOM     63  C   UNL A   1      43.682  32.732  31.813  1.00  0.00    -0.014 A 
ATOM     64  C   UNL A   1      44.203  33.760  31.007  1.00  0.00     0.010 A 
ATOM     65  C   UNL A   1      43.229  33.044  33.108  1.00  0.00     0.010 A 
ATOM     66  C   UNL A   1      44.292  35.067  31.496  1.00  0.00     0.020 A 
ATOM     67  C   UNL A   1      43.286  34.355  33.589  1.00  0.00     0.020 A 
ATOM     68  C   UNL A   1      43.827  35.357  32.782  1.00  0.00     0.054 A 
BRANCH  68  69
ATOM     69  S   UNL A   1      43.904  37.072  33.367  1.00  0.00     0.124 S 
ATOM     70  O   UNL A   1      42.642  37.201  34.091  1.00  0.00    -0.237 OA
ATOM     71  O   UNL A   1      45.106  37.070  34.196  1.00  0.00    -0.237 OA
ATOM     72  O   UNL A   1      43.997  37.855  32.138  1.00  0.00    -0.744 OA
ENDBRANCH  68  69
ENDBRANCH  49  63
BRANCH  50  73
ATOM     73  C   UNL A   1      42.411  23.644  27.823  1.00  0.00    -0.014 A 
ATOM     74  C   UNL A   1      42.071  22.538  28.624  1.00  0.00     0.010 A 
ATOM     75  C   UNL A   1      42.625  23.448  26.447  1.00  0.00     0.010 A 
ATOM     76  C   UNL A   1      41.991  21.258  28.069  1.00  0.00     0.020 A 
ATOM     77  C   UNL A   1      42.506  22.175  25.880  1.00  0.00     0.020 A 
ATOM     78  C   UNL A   1      42.209  21.085  26.699  1.00  0.00     0.054 A 
BRANCH  78  79
ATOM     79  S   UNL A   1      42.085  19.417  25.998  1.00  0.00     0.124 S 
ATOM     80  O   UNL A   1      42.951  19.515  24.827  1.00  0.00    -0.237 OA
ATOM     81  O   UNL A   1      42.586  18.582  27.087  1.00  0.00    -0.237 OA
ATOM     82  O   UNL A   1      40.660  19.270  25.713  1.00  0.00    -0.744 OA
ENDBRANCH  78  79
ENDBRANCH  50  73
BRANCH  62  83
ATOM     83  C   UNL A   1      47.713  26.799  31.067  1.00  0.00    -0.014 A 
ATOM     84  C   UNL A   1      47.973  26.109  32.263  1.00  0.00     0.010 A 
ATOM     85  C   UNL A   1      48.773  27.035  30.170  1.00  0.00     0.010 A 
ATOM     86  C   UNL A   1      49.274  25.706  32.580  1.00  0.00     0.020 A 
ATOM     87  C   UNL A   1      50.067  26.598  30.464  1.00  0.00     0.020 A 
ATOM     88  C   UNL A   1      50.312  25.953  31.677  1.00  0.00     0.054 A 
BRANCH  88  89
ATOM     89  S   UNL A   1      51.984  25.394  32.099  1.00  0.00     0.124 S 
ATOM     90  O   UNL A   1      51.800  23.950  32.223  1.00  0.00    -0.237 OA
ATOM     91  O   UNL A   1      52.766  25.831  30.946  1.00  0.00    -0.237 OA
ATOM     92  O   UNL A   1      52.281  26.093  33.348  1.00  0.00    -0.744 OA
ENDBRANCH  88  89
ENDBRANCH  62  83
ENDBRANCH  36  37
ENDBRANCH  28  31
ENDBRANCH  26  27
ENDBRANCH  25  26
ENDBRANCH  24  25
ENDBRANCH   1  24
TORSDOF 19
ENDMDL
MODEL 2
REMARK VINA RESULT:     -10.4      3.217      9.166
REMARK SMILES N#Cc1cccc(C(=O)N2CCCC[C@@H]2C(=O)NCCCCCCNC(=O)c2ccc(-c3c4nc(c(-c5ccc(S(=O)(=O)[O-])cc5)c5ccc([nH]5)c(-c5ccc(S(=O)(=O)[O-])cc5)c5nc(c(-c6ccc(S(=O)(=O)[O-])cc6)c6ccc3[nH]6)C=C5)C=C4)cc2)c1
REMARK SMILES IDX 21 1 20 2 19 3 18 4 16 5 17 6 15 8 10 9 11 10 12 11 14 12
REMARK SMILES IDX 13 13 8 14 9 15 7 16 3 17 4 18 88 19 5 20 6 21 2 22 1 23
REMARK SMILES IDX 22 24 23 25 24 26 25 27 26 28 27 30 28 31 29 32 87 33 30 34
REMARK SMILES IDX 86 35 31 36 32 37 33 38 80 39 34 40 85 41 79 42 81 43 35 44
REMARK SMILES IDX 84 45 78 46 77 47 36 49 66 50 47 51 65 52 48 53 51 54 64 55
REMARK SMILES IDX 82 56 49 57 50 58 63 60 83 61 52 62 37 63 38 64 46 65 39 66
REMARK SMILES IDX 45 67 40 68 41 69 42 70 43 71 44 72 67 73 68 74 76 75 69 76
REMARK SMILES IDX 75 77 70 78 71 79 72 80 73 81 74 82 53 83 54 84 62 85 55 86
REMARK SMILES IDX 61 87 56 88 57 89 58 90 59 91 60 92
REMARK H PARENT 18 7 25 29 81 48 51 59
REMARK Flexibility Score: inf
ROOT
ATOM      1  C   UNL A   1      32.167  29.206  26.190  1.00  0.00     0.002 C 
ENDROOT
BRANCH   1   2
ATOM      2  C   UNL A   1      31.315  27.945  26.372  1.00  0.00     0.021 C 
BRANCH   2   3
ATOM      3  C   UNL A   1      32.142  26.676  26.570  1.00  0.00     0.116 C 
BRANCH   3   4
ATOM      4  N   UNL A   1      31.279  25.569  26.949  1.00  0.00    -0.354 N 
ATOM      5  C   UNL A   1      31.491  24.228  26.857  1.00  0.00     0.242 C 
ATOM      6  O   UNL A   1      30.543  23.473  27.093  1.00  0.00    -0.273 OA
ATOM      7  H   UNL A   1      30.410  25.830  27.331  1.00  0.00     0.163 HD
BRANCH   5   8
ATOM      8  C   UNL A   1      32.856  23.654  26.421  1.00  0.00     0.174 C 
ATOM      9  N   UNL A   1      32.932  23.303  24.986  1.00  0.00    -0.327 N 
ATOM     10  C   UNL A   1      34.094  22.544  24.554  1.00  0.00     0.120 C 
ATOM     11  C   UNL A   1      34.278  21.283  25.372  1.00  0.00     0.022 C 
ATOM     12  C   UNL A   1      33.199  22.446  27.330  1.00  0.00     0.035 C 
ATOM     13  C   UNL A   1      34.400  21.634  26.849  1.00  0.00     0.004 C 
BRANCH   9  14
ATOM     14  C   UNL A   1      32.114  23.776  23.963  1.00  0.00     0.254 C 
ATOM     15  O   UNL A   1      31.326  23.011  23.404  1.00  0.00    -0.269 OA
BRANCH  14  16
ATOM     16  C   UNL A   1      32.256  25.157  23.413  1.00  0.00     0.041 A 
ATOM     17  C   UNL A   1      31.369  27.317  22.743  1.00  0.00     0.053 A 
ATOM     18  C   UNL A   1      32.661  27.852  22.722  1.00  0.00     0.019 A 
ATOM     19  C   UNL A   1      31.167  25.977  23.104  1.00  0.00     0.033 A 
ATOM     20  C   UNL A   1      33.752  27.048  23.039  1.00  0.00     0.002 A 
ATOM     21  C   UNL A   1      33.549  25.708  23.376  1.00  0.00     0.014 A 
BRANCH  17  22
ATOM     22  C   UNL A   1      30.241  28.150  22.436  1.00  0.00     0.099 C 
ATOM     23  N   UNL A   1      29.340  28.834  22.188  1.00  0.00    -0.192 NA
ENDBRANCH  17  22
ENDBRANCH  14  16
ENDBRANCH   9  14
ENDBRANCH   5   8
ENDBRANCH   3   4
ENDBRANCH   2   3
ENDBRANCH   1   2
BRANCH   1  24
ATOM     24  C   UNL A   1      33.170  29.457  27.320  1.00  0.00     0.002 C 
BRANCH  24  25
ATOM     25  C   UNL A   1      34.598  28.999  27.014  1.00  0.00     0.021 C 
BRANCH  25  26
ATOM     26  C   UNL A   1      35.677  29.888  27.619  1.00  0.00     0.116 C 
BRANCH  26  27
ATOM     27  N   UNL A   1      35.550  29.973  29.066  1.00  0.00    -0.352 N 
ATOM     28  C   UNL A   1      36.469  29.677  30.038  1.00  0.00     0.251 C 
ATOM     29  H   UNL A   1      34.676  30.288  29.394  1.00  0.00     0.163 HD
ATOM     30  O   UNL A   1      36.108  29.565  31.206  1.00  0.00    -0.269 OA
BRANCH  28  31
ATOM     31  C   UNL A   1      37.888  29.482  29.673  1.00  0.00     0.039 A 
ATOM     32  C   UNL A   1      38.747  28.895  30.603  1.00  0.00     0.014 A 
ATOM     33  C   UNL A   1      38.374  29.888  28.426  1.00  0.00     0.014 A 
ATOM     34  C   UNL A   1      40.080  28.667  30.260  1.00  0.00     0.010 A 
ATOM     35  C   UNL A   1      39.679  29.581  28.055  1.00  0.00     0.010 A 
ATOM     36  C   UNL A   1      40.551  28.974  28.971  1.00  0.00    -0.014 A 
BRANCH  36  37
ATOM     37  C   UNL A   1      41.942  28.643  28.573  1.00  0.00     0.031 A 
ATOM     38  C   UNL A   1      42.296  27.260  28.094  1.00  0.00     0.074 A 
ATOM     39  C   UNL A   1      42.898  29.590  28.674  1.00  0.00     0.049 A 
ATOM     40  N   UNL A   1      43.453  26.802  27.688  1.00  0.00    -0.248 NA
ATOM     41  C   UNL A   1      41.220  26.254  28.085  1.00  0.00     0.031 C 
ATOM     42  C   UNL A   1      42.688  30.956  29.161  1.00  0.00     0.029 A 
ATOM     43  N   UNL A   1      44.235  29.555  28.364  1.00  0.00    -0.354 N 
ATOM     44  C   UNL A   1      43.249  25.459  27.390  1.00  0.00     0.074 A 
ATOM     45  C   UNL A   1      41.869  25.162  27.705  1.00  0.00     0.031 C 
ATOM     46  C   UNL A   1      43.838  31.641  29.067  1.00  0.00     0.029 A 
ATOM     47  C   UNL A   1      44.881  30.751  28.568  1.00  0.00     0.049 A 
ATOM     48  H   UNL A   1      44.688  28.748  28.026  1.00  0.00     0.167 HD
ATOM     49  C   UNL A   1      44.127  24.560  26.887  1.00  0.00     0.031 A 
ATOM     50  C   UNL A   1      46.171  31.096  28.380  1.00  0.00     0.031 A 
ATOM     51  C   UNL A   1      45.499  24.865  26.571  1.00  0.00     0.049 A 
ATOM     52  C   UNL A   1      47.129  30.064  27.849  1.00  0.00     0.074 A 
ATOM     53  C   UNL A   1      46.448  24.040  25.993  1.00  0.00     0.029 A 
ATOM     54  N   UNL A   1      46.121  26.080  26.815  1.00  0.00    -0.354 N 
ATOM     55  N   UNL A   1      46.892  28.826  27.487  1.00  0.00    -0.248 NA
ATOM     56  C   UNL A   1      48.528  30.481  27.691  1.00  0.00     0.031 C 
ATOM     57  C   UNL A   1      47.665  24.726  25.966  1.00  0.00     0.029 A 
ATOM     58  C   UNL A   1      47.454  26.010  26.443  1.00  0.00     0.049 A 
ATOM     59  H   UNL A   1      45.681  26.873  27.196  1.00  0.00     0.167 HD
ATOM     60  C   UNL A   1      48.106  28.328  27.025  1.00  0.00     0.074 A 
ATOM     61  C   UNL A   1      49.067  29.408  27.130  1.00  0.00     0.031 C 
ATOM     62  C   UNL A   1      48.401  27.091  26.555  1.00  0.00     0.031 A 
BRANCH  49  63
ATOM     63  C   UNL A   1      43.649  23.146  26.665  1.00  0.00    -0.014 A 
ATOM     64  C   UNL A   1      43.888  22.469  25.456  1.00  0.00     0.010 A 
ATOM     65  C   UNL A   1      43.024  22.456  27.720  1.00  0.00     0.010 A 
ATOM     66  C   UNL A   1      43.488  21.139  25.298  1.00  0.00     0.020 A 
ATOM     67  C   UNL A   1      42.653  21.116  27.579  1.00  0.00     0.020 A 
ATOM     68  C   UNL A   1      42.879  20.469  26.363  1.00  0.00     0.054 A 
BRANCH  68  69
ATOM     69  S   UNL A   1      42.422  18.727  26.147  1.00  0.00     0.124 S 
ATOM     70  O   UNL A   1      43.391  18.282  25.149  1.00  0.00    -0.237 OA
ATOM     71  O   UNL A   1      42.607  18.182  27.489  1.00  0.00    -0.237 OA
ATOM     72  O   UNL A   1      41.038  18.785  25.684  1.00  0.00    -0.744 OA
ENDBRANCH  68  69
ENDBRANCH  49  63
BRANCH  50  73
ATOM     73  C   UNL A   1      46.639  32.477  28.691  1.00  0.00    -0.014 A 
ATOM     74  C   UNL A   1      47.131  32.797  29.969  1.00  0.00     0.010 A 
ATOM     75  C   UNL A   1      46.563  33.490  27.718  1.00  0.00     0.010 A 
ATOM     76  C   UNL A   1      47.498  34.109  30.282  1.00  0.00     0.020 A 
ATOM     77  C   UNL A   1      46.967  34.796  28.014  1.00  0.00     0.020 A 
ATOM     78  C   UNL A   1      47.413  35.101  29.300  1.00  0.00     0.054 A 
BRANCH  78  79
ATOM     79  S   UNL A   1      47.908  36.794  29.724  1.00  0.00     0.124 S 
ATOM     80  O   UNL A   1      46.761  37.570  29.263  1.00  0.00    -0.237 OA
ATOM     81  O   UNL A   1      48.080  36.716  31.173  1.00  0.00    -0.237 OA
ATOM     82  O   UNL A   1      49.142  36.989  28.966  1.00  0.00    -0.744 OA
ENDBRANCH  78  79
ENDBRANCH  50  73
BRANCH  62  83
ATOM     83  C   UNL A   1      49.812  26.847  26.080  1.00  0.00    -0.014 A 
ATOM     84  C   UNL A   1      50.830  26.455  26.967  1.00  0.00     0.010 A 
ATOM     85  C   UNL A   1      50.112  26.981  24.711  1.00  0.00     0.010 A 
ATOM     86  C   UNL A   1      52.132  26.250  26.502  1.00  0.00     0.020 A 
ATOM     87  C   UNL A   1      51.402  26.737  24.236  1.00  0.00     0.020 A 
ATOM     88  C   UNL A   1      52.409  26.391  25.139  1.00  0.00     0.054 A 
BRANCH  88  89
ATOM     89  S   UNL A   1      54.100  26.089  24.559  1.00  0.00     0.124 S 
ATOM     90  O   UNL A   1      54.239  24.650  24.761  1.00  0.00    -0.237 OA
ATOM     91  O   UNL A   1      54.040  26.526  23.166  1.00  0.00    -0.237 OA
ATOM     92  O   UNL A   1      54.923  26.923  25.433  1.00  0.00    -0.744 OA
ENDBRANCH  88  89
ENDBRANCH  62  83
ENDBRANCH  36  37
ENDBRANCH  28  31
ENDBRANCH  26  27
ENDBRANCH  25  26
ENDBRANCH  24  25
ENDBRANCH   1  24
TORSDOF 19
ENDMDL
MODEL 3
REMARK VINA RESULT:     -10.2      3.155      4.116
REMARK SMILES N#Cc1cccc(C(=O)N2CCCC[C@@H]2C(=O)NCCCCCCNC(=O)c2ccc(-c3c4nc(c(-c5ccc(S(=O)(=O)[O-])cc5)c5ccc([nH]5)c(-c5ccc(S(=O)(=O)[O-])cc5)c5nc(c(-c6ccc(S(=O)(=O)[O-])cc6)c6ccc3[nH]6)C=C5)C=C4)cc2)c1
REMARK SMILES IDX 21 1 20 2 19 3 18 4 16 5 17 6 15 8 10 9 11 10 12 11 14 12
REMARK SMILES IDX 13 13 8 14 9 15 7 16 3 17 4 18 88 19 5 20 6 21 2 22 1 23
REMARK SMILES IDX 22 24 23 25 24 26 25 27 26 28 27 30 28 31 29 32 87 33 30 34
REMARK SMILES IDX 86 35 31 36 32 37 33 38 80 39 34 40 85 41 79 42 81 43 35 44
REMARK SMILES IDX 84 45 78 46 77 47 36 49 66 50 47 51 65 52 48 53 51 54 64 55
REMARK SMILES IDX 82 56 49 57 50 58 63 60 83 61 52 62 37 63 38 64 46 65 39 66
REMARK SMILES IDX 45 67 40 68 41 69 42 70 43 71 44 72 67 73 68 74 76 75 69 76
REMARK SMILES IDX 75 77 70 78 71 79 72 80 73 81 74 82 53 83 54 84 62 85 55 86
REMARK SMILES IDX 61 87 56 88 57 89 58 90 59 91 60 92
REMARK H PARENT 18 7 25 29 81 48 51 59
REMARK Flexibility Score: inf
ROOT
ATOM      1  C   UNL A   1      31.929  29.682  27.060  1.00  0.00     0.002 C 
ENDROOT
BRANCH   1   2
ATOM      2  C   UNL A   1      31.810  28.200  27.434  1.00  0.00     0.021 C 
BRANCH   2   3
ATOM      3  C   UNL A   1      31.439  27.304  26.253  1.00  0.00     0.116 C 
BRANCH   3   4
ATOM      4  N   UNL A   1      31.355  25.918  26.683  1.00  0.00    -0.354 N 
ATOM      5  C   UNL A   1      31.432  24.773  25.952  1.00  0.00     0.242 C 
ATOM      6  O   UNL A   1      31.170  23.706  26.515  1.00  0.00    -0.273 OA
ATOM      7  H   UNL A   1      31.224  25.789  27.650  1.00  0.00     0.163 HD
BRANCH   5   8
ATOM      8  C   UNL A   1      31.784  24.796  24.450  1.00  0.00     0.174 C 
ATOM      9  N   UNL A   1      33.213  25.055  24.169  1.00  0.00    -0.327 N 
ATOM     10  C   UNL A   1      33.574  25.325  22.786  1.00  0.00     0.120 C 
ATOM     11  C   UNL A   1      32.753  26.453  22.200  1.00  0.00     0.022 C 
ATOM     12  C   UNL A   1      30.861  25.820  23.740  1.00  0.00     0.035 C 
ATOM     13  C   UNL A   1      31.269  26.124  22.300  1.00  0.00     0.004 C 
BRANCH   9  14
ATOM     14  C   UNL A   1      34.283  24.885  25.042  1.00  0.00     0.254 C 
ATOM     15  O   UNL A   1      34.620  25.807  25.787  1.00  0.00    -0.269 OA
BRANCH  14  16
ATOM     16  C   UNL A   1      35.139  23.661  25.014  1.00  0.00     0.041 A 
ATOM     17  C   UNL A   1      37.159  22.425  25.554  1.00  0.00     0.053 A 
ATOM     18  C   UNL A   1      36.521  21.223  25.234  1.00  0.00     0.019 A 
ATOM     19  C   UNL A   1      36.464  23.639  25.459  1.00  0.00     0.033 A 
ATOM     20  C   UNL A   1      35.198  21.232  24.800  1.00  0.00     0.002 A 
ATOM     21  C   UNL A   1      34.516  22.444  24.685  1.00  0.00     0.014 A 
BRANCH  17  22
ATOM     22  C   UNL A   1      38.517  22.416  26.021  1.00  0.00     0.099 C 
ATOM     23  N   UNL A   1      39.607  22.401  26.410  1.00  0.00    -0.192 NA
ENDBRANCH  17  22
ENDBRANCH  14  16
ENDBRANCH   9  14
ENDBRANCH   5   8
ENDBRANCH   3   4
ENDBRANCH   2   3
ENDBRANCH   1   2
BRANCH   1  24
ATOM     24  C   UNL A   1      33.180  30.372  27.613  1.00  0.00     0.002 C 
BRANCH  24  25
ATOM     25  C   UNL A   1      34.475  30.016  26.880  1.00  0.00     0.021 C 
BRANCH  25  26
ATOM     26  C   UNL A   1      35.485  29.261  27.737  1.00  0.00     0.116 C 
BRANCH  26  27
ATOM     27  N   UNL A   1      35.438  29.695  29.124  1.00  0.00    -0.352 N 
ATOM     28  C   UNL A   1      36.432  29.696  30.068  1.00  0.00     0.251 C 
ATOM     29  H   UNL A   1      34.567  30.035  29.430  1.00  0.00     0.163 HD
ATOM     30  O   UNL A   1      36.150  29.859  31.251  1.00  0.00    -0.269 OA
BRANCH  28  31
ATOM     31  C   UNL A   1      37.837  29.490  29.657  1.00  0.00     0.039 A 
ATOM     32  C   UNL A   1      38.760  29.058  30.610  1.00  0.00     0.014 A 
ATOM     33  C   UNL A   1      38.246  29.735  28.341  1.00  0.00     0.014 A 
ATOM     34  C   UNL A   1      40.082  28.820  30.229  1.00  0.00     0.010 A 
ATOM     35  C   UNL A   1      39.540  29.414  27.946  1.00  0.00     0.010 A 
ATOM     36  C   UNL A   1      40.476  28.960  28.887  1.00  0.00    -0.014 A 
BRANCH  36  37
ATOM     37  C   UNL A   1      41.856  28.615  28.462  1.00  0.00     0.031 A 
ATOM     38  C   UNL A   1      42.930  29.670  28.408  1.00  0.00     0.074 A 
ATOM     39  C   UNL A   1      42.134  27.347  28.094  1.00  0.00     0.049 A 
ATOM     40  N   UNL A   1      44.191  29.543  28.082  1.00  0.00    -0.248 NA
ATOM     41  C   UNL A   1      42.538  31.048  28.747  1.00  0.00     0.031 C 
ATOM     42  C   UNL A   1      41.169  26.244  28.066  1.00  0.00     0.029 A 
ATOM     43  N   UNL A   1      43.307  26.766  27.683  1.00  0.00    -0.354 N 
ATOM     44  C   UNL A   1      44.736  30.819  28.161  1.00  0.00     0.074 A 
ATOM     45  C   UNL A   1      43.661  31.715  28.522  1.00  0.00     0.031 C 
ATOM     46  C   UNL A   1      41.800  25.113  27.711  1.00  0.00     0.029 A 
ATOM     47  C   UNL A   1      43.199  25.418  27.432  1.00  0.00     0.049 A 
ATOM     48  H   UNL A   1      44.149  27.268  27.578  1.00  0.00     0.167 HD
ATOM     49  C   UNL A   1      46.019  31.206  27.965  1.00  0.00     0.031 A 
ATOM     50  C   UNL A   1      44.121  24.526  27.018  1.00  0.00     0.031 A 
ATOM     51  C   UNL A   1      47.086  30.305  27.610  1.00  0.00     0.049 A 
ATOM     52  C   UNL A   1      45.531  24.994  26.779  1.00  0.00     0.074 A 
ATOM     53  C   UNL A   1      48.431  30.590  27.457  1.00  0.00     0.029 A 
ATOM     54  N   UNL A   1      46.931  28.953  27.342  1.00  0.00    -0.354 N 
ATOM     55  N   UNL A   1      46.045  26.188  26.950  1.00  0.00    -0.248 NA
ATOM     56  C   UNL A   1      46.488  23.988  26.300  1.00  0.00     0.031 C 
ATOM     57  C   UNL A   1      49.076  29.432  27.013  1.00  0.00     0.029 A 
ATOM     58  C   UNL A   1      48.149  28.403  26.977  1.00  0.00     0.049 A 
ATOM     59  H   UNL A   1      46.082  28.459  27.401  1.00  0.00     0.167 HD
ATOM     60  C   UNL A   1      47.394  26.068  26.634  1.00  0.00     0.074 A 
ATOM     61  C   UNL A   1      47.619  24.680  26.287  1.00  0.00     0.031 C 
ATOM     62  C   UNL A   1      48.360  27.019  26.631  1.00  0.00     0.031 A 
BRANCH  49  63
ATOM     63  C   UNL A   1      46.349  32.672  28.102  1.00  0.00    -0.014 A 
ATOM     64  C   UNL A   1      46.253  33.553  27.010  1.00  0.00     0.010 A 
ATOM     65  C   UNL A   1      46.679  33.189  29.368  1.00  0.00     0.010 A 
ATOM     66  C   UNL A   1      46.505  34.918  27.177  1.00  0.00     0.020 A 
ATOM     67  C   UNL A   1      46.899  34.557  29.547  1.00  0.00     0.020 A 
ATOM     68  C   UNL A   1      46.820  35.412  28.447  1.00  0.00     0.054 A 
BRANCH  68  69
ATOM     69  S   UNL A   1      47.087  37.195  28.643  1.00  0.00     0.124 S 
ATOM     70  O   UNL A   1      46.469  37.452  29.941  1.00  0.00    -0.237 OA
ATOM     71  O   UNL A   1      48.543  37.304  28.606  1.00  0.00    -0.237 OA
ATOM     72  O   UNL A   1      46.391  37.779  27.498  1.00  0.00    -0.744 OA
ENDBRANCH  68  69
ENDBRANCH  49  63
BRANCH  50  73
ATOM     73  C   UNL A   1      43.749  23.097  26.804  1.00  0.00    -0.014 A 
ATOM     74  C   UNL A   1      44.043  22.454  25.588  1.00  0.00     0.010 A 
ATOM     75  C   UNL A   1      43.067  22.381  27.805  1.00  0.00     0.010 A 
ATOM     76  C   UNL A   1      43.626  21.139  25.361  1.00  0.00     0.020 A 
ATOM     77  C   UNL A   1      42.684  21.052  27.598  1.00  0.00     0.020 A 
ATOM     78  C   UNL A   1      42.949  20.447  26.369  1.00  0.00     0.054 A 
BRANCH  78  79
ATOM     79  S   UNL A   1      42.430  18.737  26.057  1.00  0.00     0.124 S 
ATOM     80  O   UNL A   1      41.017  18.903  25.732  1.00  0.00    -0.237 OA
ATOM     81  O   UNL A   1      43.294  18.345  24.946  1.00  0.00    -0.237 OA
ATOM     82  O   UNL A   1      42.706  18.059  27.322  1.00  0.00    -0.744 OA
ENDBRANCH  78  79
ENDBRANCH  50  73
BRANCH  62  83
ATOM     83  C   UNL A   1      49.761  26.585  26.279  1.00  0.00    -0.014 A 
ATOM     84  C   UNL A   1      50.578  25.913  27.205  1.00  0.00     0.010 A 
ATOM     85  C   UNL A   1      50.254  26.826  24.983  1.00  0.00     0.010 A 
ATOM     86  C   UNL A   1      51.878  25.534  26.858  1.00  0.00     0.020 A 
ATOM     87  C   UNL A   1      51.537  26.413  24.618  1.00  0.00     0.020 A 
ATOM     88  C   UNL A   1      52.348  25.786  25.566  1.00  0.00     0.054 A 
BRANCH  88  89
ATOM     89  S   UNL A   1      54.027  25.257  25.132  1.00  0.00     0.124 S 
ATOM     90  O   UNL A   1      54.288  26.033  23.922  1.00  0.00    -0.237 OA
ATOM     91  O   UNL A   1      54.798  25.650  26.309  1.00  0.00    -0.237 OA
ATOM     92  O   UNL A   1      53.898  23.815  24.931  1.00  0.00    -0.744 OA
ENDBRANCH  88  89
ENDBRANCH  62  83
ENDBRANCH  36  37
ENDBRANCH  28  31
ENDBRANCH  26  27
ENDBRANCH  25  26
ENDBRANCH  24  25
ENDBRANCH   1  24
TORSDOF 19
ENDMDL
