MODEL 1
REMARK VINA RESULT:     -12.6      0.000      0.000
REMARK SMILES O=C(CCc1cn(-c2ccc(Br)cc2)nc1-c1ccccc1)NCCCCCCNC(=O)c1ccc(-c2c3nc(c(-c4ccc(S(=O)(=O)[O-])cc4)c4ccc([nH]4)c(-c4ccc(S(=O)(=O)[O-])cc4)c4nc(c(-c5ccc(S(=O)(=O)[O-])cc5)c5ccc2[nH]5)C=C4)C=C3)cc1
REMARK SMILES IDX 26 1 25 2 24 3 23 4 1 5 2 6 3 8 4 9 5 10 6 11 16 12 7 13
REMARK SMILES IDX 15 14 17 15 18 16 22 17 19 18 21 19 20 20 8 21 9 22 14 23
REMARK SMILES IDX 10 24 13 25 11 26 12 27 27 28 28 29 29 30 30 31 31 32 32 34
REMARK SMILES IDX 33 35 34 36 92 37 35 38 91 39 36 40 37 41 38 42 85 43 39 44
REMARK SMILES IDX 90 45 84 46 86 47 40 48 89 49 83 50 82 51 41 53 71 54 52 55
REMARK SMILES IDX 70 56 53 57 56 58 69 59 87 60 54 61 55 62 68 64 88 65 57 66
REMARK SMILES IDX 42 67 43 68 51 69 44 70 50 71 45 72 46 73 47 74 48 75 49 76
REMARK SMILES IDX 72 77 73 78 81 79 74 80 80 81 75 82 76 83 77 84 78 85 79 86
REMARK SMILES IDX 58 87 59 88 67 89 60 90 66 91 61 92 62 93 63 94 64 95 65 96
REMARK H PARENT 23 7 30 33 86 52 56 63
REMARK Flexibility Score: inf
ROOT
ATOM      1  C   UNL A   1      43.004  19.366  26.355  1.00  0.00     0.002 C 
ENDROOT
BRANCH   1   2
ATOM      2  C   UNL A   1      41.526  19.700  26.080  1.00  0.00     0.021 C 
BRANCH   2   3
ATOM      3  C   UNL A   1      40.687  21.036  26.750  1.00  0.00     0.116 C 
BRANCH   3   4
ATOM      4  N   UNL A   1      39.517  22.572  25.954  1.00  0.00    -0.356 N 
ATOM      5  O   UNL A   1      39.426  24.914  26.176  1.00  0.00    -0.275 OA
ATOM      6  C   UNL A   1      38.852  23.824  26.147  1.00  0.00     0.220 C 
ATOM      7  H   UNL A   1      39.343  22.318  25.018  1.00  0.00     0.163 HD
BRANCH   6   8
ATOM      8  C   UNL A   1      37.306  23.784  26.137  1.00  0.00     0.105 C 
BRANCH   8   9
ATOM      9  C   UNL A   1      36.551  23.679  24.801  1.00  0.00     0.049 C 
BRANCH   9  10
ATOM     10  C   UNL A   1      35.580  22.535  24.699  1.00  0.00    -0.001 A 
ATOM     11  C   UNL A   1      35.741  21.192  24.990  1.00  0.00     0.119 A 
ATOM     12  C   UNL A   1      34.216  22.625  24.340  1.00  0.00     0.096 A 
ATOM     13  N   UNL A   1      34.542  20.570  24.702  1.00  0.00    -0.240 N 
ATOM     14  N   UNL A   1      33.646  21.435  24.190  1.00  0.00    -0.168 NA
BRANCH  12  15
ATOM     15  C   UNL A   1      33.502  23.869  24.205  1.00  0.00     0.002 A 
ATOM     16  C   UNL A   1      33.231  24.444  22.503  1.00  0.00     0.010 A 
ATOM     17  C   UNL A   1      32.362  24.333  25.544  1.00  0.00     0.010 A 
ATOM     18  C   UNL A   1      31.761  25.457  22.133  1.00  0.00     0.001 A 
ATOM     19  C   UNL A   1      30.920  25.365  25.164  1.00  0.00     0.001 A 
ATOM     20  C   UNL A   1      30.589  25.867  23.445  1.00  0.00     0.000 A 
ENDBRANCH  12  15
BRANCH  13  21
ATOM     21  C   UNL A   1      34.135  19.239  24.963  1.00  0.00     0.065 A 
ATOM     22  C   UNL A   1      32.963  18.974  25.678  1.00  0.00     0.029 A 
ATOM     23  C   UNL A   1      34.875  18.185  24.402  1.00  0.00     0.029 A 
ATOM     24  C   UNL A   1      32.520  17.653  25.799  1.00  0.00     0.018 A 
ATOM     25  C   UNL A   1      34.454  16.865  24.570  1.00  0.00     0.018 A 
ATOM     26  C   UNL A   1      33.269  16.608  25.255  1.00  0.00     0.018 A 
ATOM     27  Br  UNL A   1      32.660  14.826  25.425  1.00  0.00    -0.051 Br
ENDBRANCH  13  21
ENDBRANCH   9  10
ENDBRANCH   8   9
ENDBRANCH   6   8
ENDBRANCH   3   4
ENDBRANCH   2   3
ENDBRANCH   1   2
BRANCH   1  28
ATOM     28  C   UNL A   1      43.878  18.680  25.292  1.00  0.00     0.002 C 
BRANCH  28  29
ATOM     29  C   UNL A   1      45.400  18.730  25.418  1.00  0.00     0.021 C 
BRANCH  29  30
ATOM     30  C   UNL A   1      46.021  20.097  25.207  1.00  0.00     0.116 C 
BRANCH  30  31
ATOM     31  N   UNL A   1      45.643  20.714  23.934  1.00  0.00    -0.352 N 
ATOM     32  C   UNL A   1      44.844  21.825  23.728  1.00  0.00     0.251 C 
ATOM     33  H   UNL A   1      46.001  20.286  23.123  1.00  0.00     0.163 HD
ATOM     34  O   UNL A   1      44.325  22.045  22.641  1.00  0.00    -0.269 OA
BRANCH  32  35
ATOM     35  C   UNL A   1      44.635  22.738  24.863  1.00  0.00     0.039 A 
ATOM     36  C   UNL A   1      45.600  22.927  25.853  1.00  0.00     0.014 A 
ATOM     37  C   UNL A   1      43.469  23.491  24.847  1.00  0.00     0.014 A 
ATOM     38  C   UNL A   1      45.419  23.961  26.771  1.00  0.00     0.010 A 
ATOM     39  C   UNL A   1      43.393  24.622  25.613  1.00  0.00     0.010 A 
ATOM     40  C   UNL A   1      44.322  24.824  26.626  1.00  0.00    -0.014 A 
BRANCH  40  41
ATOM     41  C   UNL A   1      44.148  25.986  27.488  1.00  0.00     0.031 A 
ATOM     42  C   UNL A   1      45.107  27.106  27.280  1.00  0.00     0.074 A 
ATOM     43  C   UNL A   1      43.051  26.154  28.257  1.00  0.00     0.049 A 
ATOM     44  N   UNL A   1      46.030  27.514  28.085  1.00  0.00    -0.248 NA
ATOM     45  C   UNL A   1      45.109  27.791  25.976  1.00  0.00     0.031 C 
ATOM     46  C   UNL A   1      41.839  25.324  28.323  1.00  0.00     0.029 A 
ATOM     47  N   UNL A   1      42.726  27.210  29.044  1.00  0.00    -0.354 N 
ATOM     48  C   UNL A   1      46.596  28.639  27.490  1.00  0.00     0.074 A 
ATOM     49  C   UNL A   1      46.119  28.651  26.129  1.00  0.00     0.031 C 
ATOM     50  C   UNL A   1      40.833  26.040  28.868  1.00  0.00     0.029 A 
ATOM     51  C   UNL A   1      41.379  27.288  29.365  1.00  0.00     0.049 A 
ATOM     52  H   UNL A   1      43.390  27.865  29.359  1.00  0.00     0.167 HD
ATOM     53  C   UNL A   1      47.229  29.600  28.223  1.00  0.00     0.031 A 
ATOM     54  C   UNL A   1      40.747  28.331  29.955  1.00  0.00     0.031 A 
ATOM     55  C   UNL A   1      47.469  29.168  29.577  1.00  0.00     0.049 A 
ATOM     56  C   UNL A   1      41.792  29.121  30.656  1.00  0.00     0.074 A 
ATOM     57  C   UNL A   1      48.138  28.105  30.152  1.00  0.00     0.029 A 
ATOM     58  N   UNL A   1      46.621  29.647  30.552  1.00  0.00    -0.354 N 
ATOM     59  N   UNL A   1      42.496  28.651  31.650  1.00  0.00    -0.248 NA
ATOM     60  C   UNL A   1      42.390  30.246  29.952  1.00  0.00     0.031 C 
ATOM     61  C   UNL A   1      47.295  27.685  31.223  1.00  0.00     0.029 A 
ATOM     62  C   UNL A   1      46.210  28.564  31.288  1.00  0.00     0.049 A 
ATOM     63  H   UNL A   1      46.360  30.585  30.693  1.00  0.00     0.167 HD
ATOM     64  C   UNL A   1      43.786  29.115  31.430  1.00  0.00     0.074 A 
ATOM     65  C   UNL A   1      43.637  30.172  30.428  1.00  0.00     0.031 C 
ATOM     66  C   UNL A   1      44.884  28.422  31.860  1.00  0.00     0.031 A 
BRANCH  53  67
ATOM     67  C   UNL A   1      47.289  31.059  27.840  1.00  0.00    -0.014 A 
ATOM     68  C   UNL A   1      46.104  31.825  27.877  1.00  0.00     0.010 A 
ATOM     69  C   UNL A   1      48.399  31.634  27.189  1.00  0.00     0.010 A 
ATOM     70  C   UNL A   1      46.016  33.065  27.228  1.00  0.00     0.020 A 
ATOM     71  C   UNL A   1      48.337  32.890  26.581  1.00  0.00     0.020 A 
ATOM     72  C   UNL A   1      47.132  33.580  26.570  1.00  0.00     0.054 A 
BRANCH  72  73
ATOM     73  S   UNL A   1      46.979  35.120  25.633  1.00  0.00     0.124 S 
ATOM     74  O   UNL A   1      48.355  35.347  25.205  1.00  0.00    -0.237 OA
ATOM     75  O   UNL A   1      46.040  34.749  24.578  1.00  0.00    -0.237 OA
ATOM     76  O   UNL A   1      46.462  36.068  26.617  1.00  0.00    -0.744 OA
ENDBRANCH  72  73
ENDBRANCH  53  67
BRANCH  54  77
ATOM     77  C   UNL A   1      39.390  28.835  29.623  1.00  0.00    -0.014 A 
ATOM     78  C   UNL A   1      38.436  29.078  30.627  1.00  0.00     0.010 A 
ATOM     79  C   UNL A   1      39.113  29.325  28.327  1.00  0.00     0.010 A 
ATOM     80  C   UNL A   1      37.278  29.830  30.355  1.00  0.00     0.020 A 
ATOM     81  C   UNL A   1      37.959  30.063  28.047  1.00  0.00     0.020 A 
ATOM     82  C   UNL A   1      37.057  30.334  29.070  1.00  0.00     0.054 A 
BRANCH  82  83
ATOM     83  S   UNL A   1      35.652  31.448  28.770  1.00  0.00     0.124 S 
ATOM     84  O   UNL A   1      34.712  30.580  28.067  1.00  0.00    -0.237 OA
ATOM     85  O   UNL A   1      35.265  31.841  30.121  1.00  0.00    -0.237 OA
ATOM     86  O   UNL A   1      36.232  32.520  27.959  1.00  0.00    -0.744 OA
ENDBRANCH  82  83
ENDBRANCH  54  77
BRANCH  66  87
ATOM     87  C   UNL A   1      44.695  27.250  32.801  1.00  0.00    -0.014 A 
ATOM     88  C   UNL A   1      44.432  27.388  34.179  1.00  0.00     0.010 A 
ATOM     89  C   UNL A   1      44.592  25.968  32.232  1.00  0.00     0.010 A 
ATOM     90  C   UNL A   1      44.095  26.273  34.964  1.00  0.00     0.020 A 
ATOM     91  C   UNL A   1      44.239  24.856  33.004  1.00  0.00     0.020 A 
ATOM     92  C   UNL A   1      43.998  25.012  34.369  1.00  0.00     0.054 A 
BRANCH  92  93
ATOM     93  S   UNL A   1      43.506  23.582  35.374  1.00  0.00     0.124 S 
ATOM     94  O   UNL A   1      42.429  24.127  36.195  1.00  0.00    -0.237 OA
ATOM     95  O   UNL A   1      43.097  22.602  34.370  1.00  0.00    -0.237 OA
ATOM     96  O   UNL A   1      44.723  23.234  36.105  1.00  0.00    -0.744 OA
ENDBRANCH  92  93
ENDBRANCH  66  87
ENDBRANCH  40  41
ENDBRANCH  32  35
ENDBRANCH  30  31
ENDBRANCH  29  30
ENDBRANCH  28  29
ENDBRANCH   1  28
TORSDOF 20
ENDMDL
MODEL 2
REMARK VINA RESULT:     -12.5      2.380      3.304
REMARK SMILES O=C(CCc1cn(-c2ccc(Br)cc2)nc1-c1ccccc1)NCCCCCCNC(=O)c1ccc(-c2c3nc(c(-c4ccc(S(=O)(=O)[O-])cc4)c4ccc([nH]4)c(-c4ccc(S(=O)(=O)[O-])cc4)c4nc(c(-c5ccc(S(=O)(=O)[O-])cc5)c5ccc2[nH]5)C=C4)C=C3)cc1
REMARK SMILES IDX 26 1 25 2 24 3 23 4 1 5 2 6 3 8 4 9 5 10 6 11 16 12 7 13
REMARK SMILES IDX 15 14 17 15 18 16 22 17 19 18 21 19 20 20 8 21 9 22 14 23
REMARK SMILES IDX 10 24 13 25 11 26 12 27 27 28 28 29 29 30 30 31 31 32 32 34
REMARK SMILES IDX 33 35 34 36 92 37 35 38 91 39 36 40 37 41 38 42 85 43 39 44
REMARK SMILES IDX 90 45 84 46 86 47 40 48 89 49 83 50 82 51 41 53 71 54 52 55
REMARK SMILES IDX 70 56 53 57 56 58 69 59 87 60 54 61 55 62 68 64 88 65 57 66
REMARK SMILES IDX 42 67 43 68 51 69 44 70 50 71 45 72 46 73 47 74 48 75 49 76
REMARK SMILES IDX 72 77 73 78 81 79 74 80 80 81 75 82 76 83 77 84 78 85 79 86
REMARK SMILES IDX 58 87 59 88 67 89 60 90 66 91 61 92 62 93 63 94 64 95 65 96
REMARK H PARENT 23 7 30 33 86 52 56 63
REMARK Flexibility Score: inf
ROOT
ATOM      1  C   UNL A   1      41.470  22.763  28.298  1.00  0.00     0.002 C 
ENDROOT
BRANCH   1   2
ATOM      2  C   UNL A   1      41.008  24.210  28.049  1.00  0.00     0.021 C 
BRANCH   2   3
ATOM      3  C   UNL A   1      39.452  24.655  27.489  1.00  0.00     0.116 C 
BRANCH   3   4
ATOM      4  N   UNL A   1      37.909  23.643  26.510  1.00  0.00    -0.356 N 
ATOM      5  O   UNL A   1      37.768  21.980  24.849  1.00  0.00    -0.275 OA
ATOM      6  C   UNL A   1      37.403  23.065  25.303  1.00  0.00     0.220 C 
ATOM      7  H   UNL A   1      37.212  23.496  27.190  1.00  0.00     0.163 HD
BRANCH   6   8
ATOM      8  C   UNL A   1      36.201  23.791  24.651  1.00  0.00     0.105 C 
BRANCH   8   9
ATOM      9  C   UNL A   1      34.775  23.514  25.156  1.00  0.00     0.049 C 
BRANCH   9  10
ATOM     10  C   UNL A   1      34.189  22.194  24.737  1.00  0.00    -0.001 A 
ATOM     11  C   UNL A   1      34.449  20.913  25.191  1.00  0.00     0.119 A 
ATOM     12  C   UNL A   1      33.146  21.998  23.804  1.00  0.00     0.096 A 
ATOM     13  N   UNL A   1      33.652  20.055  24.459  1.00  0.00    -0.240 N 
ATOM     14  N   UNL A   1      32.940  20.717  23.526  1.00  0.00    -0.168 NA
BRANCH  12  15
ATOM     15  C   UNL A   1      32.353  23.067  23.253  1.00  0.00     0.002 A 
ATOM     16  C   UNL A   1      31.081  23.756  24.352  1.00  0.00     0.010 A 
ATOM     17  C   UNL A   1      33.101  24.075  21.937  1.00  0.00     0.010 A 
ATOM     18  C   UNL A   1      30.593  25.502  24.158  1.00  0.00     0.001 A 
ATOM     19  C   UNL A   1      32.584  25.803  21.740  1.00  0.00     0.001 A 
ATOM     20  C   UNL A   1      31.379  26.529  22.897  1.00  0.00     0.000 A 
ENDBRANCH  12  15
BRANCH  13  21
ATOM     21  C   UNL A   1      33.428  18.668  24.633  1.00  0.00     0.065 A 
ATOM     22  C   UNL A   1      34.168  17.726  23.911  1.00  0.00     0.029 A 
ATOM     23  C   UNL A   1      32.521  18.248  25.619  1.00  0.00     0.029 A 
ATOM     24  C   UNL A   1      34.018  16.367  24.206  1.00  0.00     0.018 A 
ATOM     25  C   UNL A   1      32.339  16.889  25.874  1.00  0.00     0.018 A 
ATOM     26  C   UNL A   1      33.102  15.955  25.176  1.00  0.00     0.018 A 
ATOM     27  Br  UNL A   1      32.908  14.115  25.566  1.00  0.00    -0.051 Br
ENDBRANCH  13  21
ENDBRANCH   9  10
ENDBRANCH   8   9
ENDBRANCH   6   8
ENDBRANCH   3   4
ENDBRANCH   2   3
ENDBRANCH   1   2
BRANCH   1  28
ATOM     28  C   UNL A   1      42.687  22.175  27.565  1.00  0.00     0.002 C 
BRANCH  28  29
ATOM     29  C   UNL A   1      42.591  21.857  26.074  1.00  0.00     0.021 C 
BRANCH  29  30
ATOM     30  C   UNL A   1      42.681  23.057  25.150  1.00  0.00     0.116 C 
BRANCH  30  31
ATOM     31  N   UNL A   1      44.059  23.459  24.856  1.00  0.00    -0.352 N 
ATOM     32  C   UNL A   1      44.677  24.662  25.145  1.00  0.00     0.251 C 
ATOM     33  H   UNL A   1      44.614  22.789  24.396  1.00  0.00     0.163 HD
ATOM     34  O   UNL A   1      45.698  25.010  24.564  1.00  0.00    -0.269 OA
BRANCH  32  35
ATOM     35  C   UNL A   1      44.066  25.516  26.175  1.00  0.00     0.039 A 
ATOM     36  C   UNL A   1      44.430  25.434  27.520  1.00  0.00     0.014 A 
ATOM     37  C   UNL A   1      43.182  26.488  25.732  1.00  0.00     0.014 A 
ATOM     38  C   UNL A   1      43.967  26.416  28.395  1.00  0.00     0.010 A 
ATOM     39  C   UNL A   1      42.898  27.554  26.540  1.00  0.00     0.010 A 
ATOM     40  C   UNL A   1      43.222  27.491  27.891  1.00  0.00    -0.014 A 
BRANCH  40  41
ATOM     41  C   UNL A   1      42.811  28.601  28.741  1.00  0.00     0.031 A 
ATOM     42  C   UNL A   1      43.720  29.779  28.767  1.00  0.00     0.074 A 
ATOM     43  C   UNL A   1      41.577  28.673  29.284  1.00  0.00     0.049 A 
ATOM     44  N   UNL A   1      44.442  30.198  29.752  1.00  0.00    -0.248 NA
ATOM     45  C   UNL A   1      43.935  30.523  27.515  1.00  0.00     0.031 C 
ATOM     46  C   UNL A   1      40.428  27.777  29.079  1.00  0.00     0.029 A 
ATOM     47  N   UNL A   1      41.039  29.672  30.028  1.00  0.00    -0.354 N 
ATOM     48  C   UNL A   1      45.042  31.378  29.321  1.00  0.00     0.074 A 
ATOM     49  C   UNL A   1      44.840  31.429  27.894  1.00  0.00     0.031 C 
ATOM     50  C   UNL A   1      39.294  28.412  29.440  1.00  0.00     0.029 A 
ATOM     51  C   UNL A   1      39.653  29.662  30.080  1.00  0.00     0.049 A 
ATOM     52  H   UNL A   1      41.587  30.346  30.491  1.00  0.00     0.167 HD
ATOM     53  C   UNL A   1      45.460  32.336  30.198  1.00  0.00     0.031 A 
ATOM     54  C   UNL A   1      38.855  30.641  30.569  1.00  0.00     0.031 A 
ATOM     55  C   UNL A   1      45.457  31.855  31.557  1.00  0.00     0.049 A 
ATOM     56  C   UNL A   1      39.692  31.452  31.490  1.00  0.00     0.074 A 
ATOM     57  C   UNL A   1      46.065  30.803  32.215  1.00  0.00     0.029 A 
ATOM     58  N   UNL A   1      44.407  32.241  32.362  1.00  0.00    -0.354 N 
ATOM     59  N   UNL A   1      40.217  30.975  32.587  1.00  0.00    -0.248 NA
ATOM     60  C   UNL A   1      40.345  32.639  30.959  1.00  0.00     0.031 C 
ATOM     61  C   UNL A   1      45.056  30.289  33.083  1.00  0.00     0.029 A 
ATOM     62  C   UNL A   1      43.928  31.105  32.963  1.00  0.00     0.049 A 
ATOM     63  H   UNL A   1      44.065  33.157  32.482  1.00  0.00     0.167 HD
ATOM     64  C   UNL A   1      41.493  31.518  32.643  1.00  0.00     0.074 A 
ATOM     65  C   UNL A   1      41.477  32.610  31.669  1.00  0.00     0.031 C 
ATOM     66  C   UNL A   1      42.527  30.865  33.256  1.00  0.00     0.031 A 
BRANCH  53  67
ATOM     67  C   UNL A   1      45.502  33.813  29.887  1.00  0.00    -0.014 A 
ATOM     68  C   UNL A   1      44.309  34.563  29.961  1.00  0.00     0.010 A 
ATOM     69  C   UNL A   1      46.605  34.431  29.264  1.00  0.00     0.010 A 
ATOM     70  C   UNL A   1      44.206  35.831  29.374  1.00  0.00     0.020 A 
ATOM     71  C   UNL A   1      46.528  35.714  28.718  1.00  0.00     0.020 A 
ATOM     72  C   UNL A   1      45.316  36.390  28.741  1.00  0.00     0.054 A 
BRANCH  72  73
ATOM     73  S   UNL A   1      45.144  37.972  27.880  1.00  0.00     0.124 S 
ATOM     74  O   UNL A   1      44.697  38.851  28.956  1.00  0.00    -0.237 OA
ATOM     75  O   UNL A   1      46.499  38.208  27.390  1.00  0.00    -0.237 OA
ATOM     76  O   UNL A   1      44.152  37.692  26.845  1.00  0.00    -0.744 OA
ENDBRANCH  72  73
ENDBRANCH  53  67
BRANCH  54  77
ATOM     77  C   UNL A   1      37.560  31.087  29.994  1.00  0.00    -0.014 A 
ATOM     78  C   UNL A   1      36.453  31.363  30.815  1.00  0.00     0.010 A 
ATOM     79  C   UNL A   1      37.487  31.490  28.642  1.00  0.00     0.010 A 
ATOM     80  C   UNL A   1      35.341  32.065  30.315  1.00  0.00     0.020 A 
ATOM     81  C   UNL A   1      36.380  32.178  28.135  1.00  0.00     0.020 A 
ATOM     82  C   UNL A   1      35.320  32.484  28.982  1.00  0.00     0.054 A 
BRANCH  82  83
ATOM     83  S   UNL A   1      33.963  33.539  28.391  1.00  0.00     0.124 S 
ATOM     84  O   UNL A   1      33.072  32.572  27.757  1.00  0.00    -0.237 OA
ATOM     85  O   UNL A   1      33.469  34.141  29.626  1.00  0.00    -0.237 OA
ATOM     86  O   UNL A   1      34.624  34.468  27.474  1.00  0.00    -0.744 OA
ENDBRANCH  82  83
ENDBRANCH  54  77
BRANCH  66  87
ATOM     87  C   UNL A   1      42.231  29.641  34.099  1.00  0.00    -0.014 A 
ATOM     88  C   UNL A   1      42.153  28.333  33.580  1.00  0.00     0.010 A 
ATOM     89  C   UNL A   1      42.218  29.802  35.497  1.00  0.00     0.010 A 
ATOM     90  C   UNL A   1      42.048  27.224  34.435  1.00  0.00     0.020 A 
ATOM     91  C   UNL A   1      42.132  28.700  36.354  1.00  0.00     0.020 A 
ATOM     92  C   UNL A   1      42.040  27.415  35.819  1.00  0.00     0.054 A 
BRANCH  92  93
ATOM     93  S   UNL A   1      41.962  25.975  36.923  1.00  0.00     0.124 S 
ATOM     94  O   UNL A   1      40.532  25.859  37.193  1.00  0.00    -0.237 OA
ATOM     95  O   UNL A   1      42.537  24.907  36.107  1.00  0.00    -0.237 OA
ATOM     96  O   UNL A   1      42.776  26.371  38.071  1.00  0.00    -0.744 OA
ENDBRANCH  92  93
ENDBRANCH  66  87
ENDBRANCH  40  41
ENDBRANCH  32  35
ENDBRANCH  30  31
ENDBRANCH  29  30
ENDBRANCH  28  29
ENDBRANCH   1  28
TORSDOF 20
ENDMDL
MODEL 3
REMARK VINA RESULT:     -12.3      3.119      4.857
REMARK SMILES O=C(CCc1cn(-c2ccc(Br)cc2)nc1-c1ccccc1)NCCCCCCNC(=O)c1ccc(-c2c3nc(c(-c4ccc(S(=O)(=O)[O-])cc4)c4ccc([nH]4)c(-c4ccc(S(=O)(=O)[O-])cc4)c4nc(c(-c5ccc(S(=O)(=O)[O-])cc5)c5ccc2[nH]5)C=C4)C=C3)cc1
REMARK SMILES IDX 26 1 25 2 24 3 23 4 1 5 2 6 3 8 4 9 5 10 6 11 16 12 7 13
REMARK SMILES IDX 15 14 17 15 18 16 22 17 19 18 21 19 20 20 8 21 9 22 14 23
REMARK SMILES IDX 10 24 13 25 11 26 12 27 27 28 28 29 29 30 30 31 31 32 32 34
REMARK SMILES IDX 33 35 34 36 92 37 35 38 91 39 36 40 37 41 38 42 85 43 39 44
REMARK SMILES IDX 90 45 84 46 86 47 40 48 89 49 83 50 82 51 41 53 71 54 52 55
REMARK SMILES IDX 70 56 53 57 56 58 69 59 87 60 54 61 55 62 68 64 88 65 57 66
REMARK SMILES IDX 42 67 43 68 51 69 44 70 50 71 45 72 46 73 47 74 48 75 49 76
REMARK SMILES IDX 72 77 73 78 81 79 74 80 80 81 75 82 76 83 77 84 78 85 79 86
REMARK SMILES IDX 58 87 59 88 67 89 60 90 66 91 61 92 62 93 63 94 64 95 65 96
REMARK H PARENT 23 7 30 33 86 52 56 63
REMARK Flexibility Score: inf
ROOT
ATOM      1  C   UNL A   1      41.668  22.755  28.550  1.00  0.00     0.002 C 
ENDROOT
BRANCH   1   2
ATOM      2  C   UNL A   1      41.199  24.208  28.345  1.00  0.00     0.021 C 
BRANCH   2   3
ATOM      3  C   UNL A   1      39.666  24.660  27.729  1.00  0.00     0.116 C 
BRANCH   3   4
ATOM      4  N   UNL A   1      38.133  23.644  26.739  1.00  0.00    -0.356 N 
ATOM      5  O   UNL A   1      37.909  21.563  25.659  1.00  0.00    -0.275 OA
ATOM      6  C   UNL A   1      37.734  22.783  25.668  1.00  0.00     0.220 C 
ATOM      7  H   UNL A   1      37.310  23.853  27.236  1.00  0.00     0.163 HD
BRANCH   6   8
ATOM      8  C   UNL A   1      36.877  23.431  24.555  1.00  0.00     0.105 C 
BRANCH   8   9
ATOM      9  C   UNL A   1      35.446  22.929  24.300  1.00  0.00     0.049 C 
BRANCH   9  10
ATOM     10  C   UNL A   1      34.356  23.930  24.569  1.00  0.00    -0.001 A 
ATOM     11  C   UNL A   1      34.401  25.312  24.627  1.00  0.00     0.119 A 
ATOM     12  C   UNL A   1      32.983  23.645  24.747  1.00  0.00     0.096 A 
ATOM     13  N   UNL A   1      33.123  25.745  24.926  1.00  0.00    -0.240 N 
ATOM     14  N   UNL A   1      32.282  24.711  25.116  1.00  0.00    -0.168 NA
BRANCH  12  15
ATOM     15  C   UNL A   1      32.394  22.354  24.504  1.00  0.00     0.002 A 
ATOM     16  C   UNL A   1      32.071  21.947  22.762  1.00  0.00     0.010 A 
ATOM     17  C   UNL A   1      32.701  21.046  25.730  1.00  0.00     0.010 A 
ATOM     18  C   UNL A   1      32.110  20.201  22.238  1.00  0.00     0.001 A 
ATOM     19  C   UNL A   1      32.708  19.313  25.196  1.00  0.00     0.001 A 
ATOM     20  C   UNL A   1      32.480  18.902  23.436  1.00  0.00     0.000 A 
ENDBRANCH  12  15
BRANCH  13  21
ATOM     21  C   UNL A   1      32.604  27.062  24.949  1.00  0.00     0.065 A 
ATOM     22  C   UNL A   1      31.513  27.417  24.150  1.00  0.00     0.029 A 
ATOM     23  C   UNL A   1      33.138  27.982  25.865  1.00  0.00     0.029 A 
ATOM     24  C   UNL A   1      30.940  28.685  24.298  1.00  0.00     0.018 A 
ATOM     25  C   UNL A   1      32.594  29.262  25.973  1.00  0.00     0.018 A 
ATOM     26  C   UNL A   1      31.487  29.601  25.199  1.00  0.00     0.018 A 
ATOM     27  Br  UNL A   1      30.705  31.312  25.391  1.00  0.00    -0.051 Br
ENDBRANCH  13  21
ENDBRANCH   9  10
ENDBRANCH   8   9
ENDBRANCH   6   8
ENDBRANCH   3   4
ENDBRANCH   2   3
ENDBRANCH   1   2
BRANCH   1  28
ATOM     28  C   UNL A   1      42.853  22.179  27.758  1.00  0.00     0.002 C 
BRANCH  28  29
ATOM     29  C   UNL A   1      42.671  21.812  26.286  1.00  0.00     0.021 C 
BRANCH  29  30
ATOM     30  C   UNL A   1      42.624  22.987  25.328  1.00  0.00     0.116 C 
BRANCH  30  31
ATOM     31  N   UNL A   1      43.950  23.447  24.910  1.00  0.00    -0.352 N 
ATOM     32  C   UNL A   1      44.525  24.689  25.108  1.00  0.00     0.251 C 
ATOM     33  H   UNL A   1      44.502  22.789  24.427  1.00  0.00     0.163 HD
ATOM     34  O   UNL A   1      45.477  25.067  24.435  1.00  0.00    -0.269 OA
BRANCH  32  35
ATOM     35  C   UNL A   1      43.954  25.548  26.157  1.00  0.00     0.039 A 
ATOM     36  C   UNL A   1      44.436  25.543  27.467  1.00  0.00     0.014 A 
ATOM     37  C   UNL A   1      42.977  26.449  25.759  1.00  0.00     0.014 A 
ATOM     38  C   UNL A   1      43.992  26.531  28.344  1.00  0.00     0.010 A 
ATOM     39  C   UNL A   1      42.700  27.529  26.551  1.00  0.00     0.010 A 
ATOM     40  C   UNL A   1      43.142  27.540  27.869  1.00  0.00    -0.014 A 
BRANCH  40  41
ATOM     41  C   UNL A   1      42.739  28.658  28.712  1.00  0.00     0.031 A 
ATOM     42  C   UNL A   1      43.658  29.829  28.732  1.00  0.00     0.074 A 
ATOM     43  C   UNL A   1      41.505  28.744  29.253  1.00  0.00     0.049 A 
ATOM     44  N   UNL A   1      44.381  30.248  29.716  1.00  0.00    -0.248 NA
ATOM     45  C   UNL A   1      43.880  30.564  27.476  1.00  0.00     0.031 C 
ATOM     46  C   UNL A   1      40.349  27.856  29.052  1.00  0.00     0.029 A 
ATOM     47  N   UNL A   1      40.975  29.752  29.990  1.00  0.00    -0.354 N 
ATOM     48  C   UNL A   1      44.992  31.420  29.278  1.00  0.00     0.074 A 
ATOM     49  C   UNL A   1      44.792  31.464  27.851  1.00  0.00     0.031 C 
ATOM     50  C   UNL A   1      39.219  28.502  29.408  1.00  0.00     0.029 A 
ATOM     51  C   UNL A   1      39.588  29.753  30.040  1.00  0.00     0.049 A 
ATOM     52  H   UNL A   1      41.527  30.424  30.450  1.00  0.00     0.167 HD
ATOM     53  C   UNL A   1      45.416  32.380  30.150  1.00  0.00     0.031 A 
ATOM     54  C   UNL A   1      38.798  30.742  30.522  1.00  0.00     0.031 A 
ATOM     55  C   UNL A   1      45.408  31.908  31.512  1.00  0.00     0.049 A 
ATOM     56  C   UNL A   1      39.640  31.551  31.440  1.00  0.00     0.074 A 
ATOM     57  C   UNL A   1      46.006  30.855  32.177  1.00  0.00     0.029 A 
ATOM     58  N   UNL A   1      44.360  32.307  32.313  1.00  0.00    -0.354 N 
ATOM     59  N   UNL A   1      40.159  31.076  32.540  1.00  0.00    -0.248 NA
ATOM     60  C   UNL A   1      40.303  32.730  30.902  1.00  0.00     0.031 C 
ATOM     61  C   UNL A   1      44.992  30.355  33.046  1.00  0.00     0.029 A 
ATOM     62  C   UNL A   1      43.871  31.178  32.920  1.00  0.00     0.049 A 
ATOM     63  H   UNL A   1      44.026  33.226  32.427  1.00  0.00     0.167 HD
ATOM     64  C   UNL A   1      41.440  31.609  32.594  1.00  0.00     0.074 A 
ATOM     65  C   UNL A   1      41.435  32.696  31.614  1.00  0.00     0.031 C 
ATOM     66  C   UNL A   1      42.468  30.951  33.213  1.00  0.00     0.031 A 
BRANCH  53  67
ATOM     67  C   UNL A   1      45.471  33.855  29.830  1.00  0.00    -0.014 A 
ATOM     68  C   UNL A   1      44.263  34.566  29.668  1.00  0.00     0.010 A 
ATOM     69  C   UNL A   1      46.652  34.504  29.416  1.00  0.00     0.010 A 
ATOM     70  C   UNL A   1      44.234  35.825  29.053  1.00  0.00     0.020 A 
ATOM     71  C   UNL A   1      46.640  35.778  28.845  1.00  0.00     0.020 A 
ATOM     72  C   UNL A   1      45.424  36.414  28.631  1.00  0.00     0.054 A 
BRANCH  72  73
ATOM     73  S   UNL A   1      45.369  37.982  27.729  1.00  0.00     0.124 S 
ATOM     74  O   UNL A   1      43.932  38.218  27.629  1.00  0.00    -0.237 OA
ATOM     75  O   UNL A   1      46.098  38.879  28.621  1.00  0.00    -0.237 OA
ATOM     76  O   UNL A   1      46.044  37.676  26.470  1.00  0.00    -0.744 OA
ENDBRANCH  72  73
ENDBRANCH  53  67
BRANCH  54  77
ATOM     77  C   UNL A   1      37.507  31.195  29.943  1.00  0.00    -0.014 A 
ATOM     78  C   UNL A   1      36.384  31.426  30.755  1.00  0.00     0.010 A 
ATOM     79  C   UNL A   1      37.451  31.648  28.606  1.00  0.00     0.010 A 
ATOM     80  C   UNL A   1      35.271  32.135  30.263  1.00  0.00     0.020 A 
ATOM     81  C   UNL A   1      36.345  32.343  28.107  1.00  0.00     0.020 A 
ATOM     82  C   UNL A   1      35.268  32.604  28.947  1.00  0.00     0.054 A 
BRANCH  82  83
ATOM     83  S   UNL A   1      33.908  33.666  28.374  1.00  0.00     0.124 S 
ATOM     84  O   UNL A   1      33.395  34.216  29.625  1.00  0.00    -0.237 OA
ATOM     85  O   UNL A   1      34.591  34.612  27.498  1.00  0.00    -0.237 OA
ATOM     86  O   UNL A   1      33.009  32.734  27.691  1.00  0.00    -0.744 OA
ENDBRANCH  82  83
ENDBRANCH  54  77
BRANCH  66  87
ATOM     87  C   UNL A   1      42.160  29.736  34.063  1.00  0.00    -0.014 A 
ATOM     88  C   UNL A   1      42.169  28.415  33.572  1.00  0.00     0.010 A 
ATOM     89  C   UNL A   1      42.044  29.926  35.452  1.00  0.00     0.010 A 
ATOM     90  C   UNL A   1      42.047  27.320  34.444  1.00  0.00     0.020 A 
ATOM     91  C   UNL A   1      41.940  28.840  36.328  1.00  0.00     0.020 A 
ATOM     92  C   UNL A   1      41.935  27.542  35.819  1.00  0.00     0.054 A 
BRANCH  92  93
ATOM     93  S   UNL A   1      41.835  26.123  36.949  1.00  0.00     0.124 S 
ATOM     94  O   UNL A   1      42.078  24.992  36.060  1.00  0.00    -0.237 OA
ATOM     95  O   UNL A   1      42.894  26.402  37.917  1.00  0.00    -0.237 OA
ATOM     96  O   UNL A   1      40.479  26.203  37.490  1.00  0.00    -0.744 OA
ENDBRANCH  92  93
ENDBRANCH  66  87
ENDBRANCH  40  41
ENDBRANCH  32  35
ENDBRANCH  30  31
ENDBRANCH  29  30
ENDBRANCH  28  29
ENDBRANCH   1  28
TORSDOF 20
ENDMDL
