MODEL 1
REMARK VINA RESULT:      -7.3      0.000      0.000
REMARK SMILES Cc1cc(O[C@@H](C)C(=O)NCCC(=O)NCCCCCCNC(=O)c2ccc(-c3c4nc(c(-c5ccc(S(=O)(=O)[O-])cc5)c5ccc([nH]5)c(-c5ccc(S(=O)(=O)[O-])cc5)c5nc(c(-c6ccc(S(=O)(=O)[O-])cc6)c6ccc3[nH]6)C=C5)C=C4)cc2)c2c3c(c(=O)oc2c1)CCCC3
REMARK SMILES IDX 17 1 16 2 15 3 13 4 14 5 12 7 11 8 10 9 8 10 9 11 6 13 7 14
REMARK SMILES IDX 5 15 4 16 1 17 2 18 3 19 92 20 91 21 85 22 90 23 86 24 88 25
REMARK SMILES IDX 87 26 96 27 89 28 93 29 95 30 94 31 18 32 19 33 20 34 21 35
REMARK SMILES IDX 22 36 23 37 24 39 25 40 26 41 84 42 27 43 83 44 28 45 29 46
REMARK SMILES IDX 30 47 77 48 31 49 82 50 76 51 78 52 32 53 81 54 75 55 74 56
REMARK SMILES IDX 33 58 63 59 44 60 62 61 45 62 48 63 61 64 79 65 46 66 47 67
REMARK SMILES IDX 60 69 80 70 49 71 34 72 35 73 43 74 36 75 42 76 37 77 38 78
REMARK SMILES IDX 39 79 40 80 41 81 64 82 65 83 73 84 66 85 72 86 67 87 68 88
REMARK SMILES IDX 69 89 70 90 71 91 50 92 51 93 59 94 52 95 58 96 53 97 54 98
REMARK SMILES IDX 55 99 56 100 57 101
REMARK H PARENT 15 6 10 12 22 38 78 57 48 68
REMARK Flexibility Score: inf
ROOT
ATOM      1  C   UNL A   1      38.467  29.180  28.557  1.00  0.00     0.021 C 
ENDROOT
BRANCH   1   2
ATOM      2  C   UNL A   1      39.288  28.861  29.804  1.00  0.00     0.116 C 
BRANCH   2   3
ATOM      3  N   UNL A   1      38.423  28.326  30.828  1.00  0.00    -0.356 N 
ATOM      4  C   UNL A   1      38.727  28.126  32.138  1.00  0.00     0.221 C 
ATOM      5  O   UNL A   1      37.958  27.471  32.841  1.00  0.00    -0.275 OA
ATOM      6  H   UNL A   1      37.512  28.080  30.548  1.00  0.00     0.163 HD
BRANCH   4   7
ATOM      7  C   UNL A   1      39.997  28.721  32.701  1.00  0.00     0.121 C 
BRANCH   7   8
ATOM      8  C   UNL A   1      40.895  27.696  33.391  1.00  0.00     0.126 C 
BRANCH   8   9
ATOM      9  N   UNL A   1      41.191  28.052  34.767  1.00  0.00    -0.352 N 
ATOM     10  C   UNL A   1      41.487  27.342  35.882  1.00  0.00     0.260 C 
ATOM     11  O   UNL A   1      41.323  27.968  36.938  1.00  0.00    -0.271 OA
ATOM     12  H   UNL A   1      41.175  29.023  34.925  1.00  0.00     0.163 HD
BRANCH  10  13
ATOM     13  C   UNL A   1      42.131  25.926  35.914  1.00  0.00     0.258 C 
ATOM     14  C   UNL A   1      41.269  24.964  36.732  1.00  0.00     0.064 C 
BRANCH  13  15
ATOM     15  O   UNL A   1      43.510  25.608  35.887  1.00  0.00    -0.480 OA
BRANCH  15  16
ATOM     16  C   UNL A   1      44.117  24.696  35.089  1.00  0.00     0.132 A 
ATOM     17  C   UNL A   1      44.175  23.693  31.420  1.00  0.00     0.044 C 
ATOM     18  C   UNL A   1      44.538  23.743  32.876  1.00  0.00    -0.044 A 
ATOM     19  C   UNL A   1      44.063  24.777  33.692  1.00  0.00     0.050 A 
ATOM     20  C   UNL A   1      45.190  22.673  33.477  1.00  0.00     0.051 A 
ATOM     21  C   UNL A   1      45.380  22.673  34.860  1.00  0.00     0.142 A 
ATOM     22  C   UNL A   1      44.870  23.666  35.705  1.00  0.00     0.063 A 
ATOM     23  O   UNL A   1      46.117  21.580  35.344  1.00  0.00    -0.422 OA
ATOM     24  C   UNL A   1      45.185  23.545  37.157  1.00  0.00    -0.023 A 
ATOM     25  C   UNL A   1      46.504  21.497  36.665  1.00  0.00     0.339 A 
ATOM     26  C   UNL A   1      45.970  22.532  37.583  1.00  0.00     0.042 A 
ATOM     27  C   UNL A   1      44.681  24.583  38.141  1.00  0.00     0.037 C 
ATOM     28  O   UNL A   1      47.248  20.602  37.050  1.00  0.00    -0.246 OA
ATOM     29  C   UNL A   1      46.394  22.348  39.021  1.00  0.00     0.043 C 
ATOM     30  C   UNL A   1      45.375  24.577  39.506  1.00  0.00     0.005 C 
ATOM     31  C   UNL A   1      45.581  23.164  40.018  1.00  0.00     0.005 C 
ENDBRANCH  15  16
ENDBRANCH  13  15
ENDBRANCH  10  13
ENDBRANCH   8   9
ENDBRANCH   7   8
ENDBRANCH   4   7
ENDBRANCH   2   3
ENDBRANCH   1   2
BRANCH   1  32
ATOM     32  C   UNL A   1      39.242  29.024  27.248  1.00  0.00     0.002 C 
BRANCH  32  33
ATOM     33  C   UNL A   1      40.636  28.414  27.407  1.00  0.00     0.002 C 
BRANCH  33  34
ATOM     34  C   UNL A   1      41.331  28.070  26.089  1.00  0.00     0.021 C 
BRANCH  34  35
ATOM     35  C   UNL A   1      42.548  28.935  25.791  1.00  0.00     0.116 C 
BRANCH  35  36
ATOM     36  N   UNL A   1      43.643  28.148  25.249  1.00  0.00    -0.352 N 
ATOM     37  C   UNL A   1      44.781  27.734  25.894  1.00  0.00     0.251 C 
ATOM     38  H   UNL A   1      43.557  27.878  24.306  1.00  0.00     0.163 HD
ATOM     39  O   UNL A   1      45.732  27.279  25.268  1.00  0.00    -0.269 OA
BRANCH  37  40
ATOM     40  C   UNL A   1      44.832  27.874  27.360  1.00  0.00     0.039 A 
ATOM     41  C   UNL A   1      45.633  28.870  27.925  1.00  0.00     0.014 A 
ATOM     42  C   UNL A   1      44.152  26.958  28.162  1.00  0.00     0.014 A 
ATOM     43  C   UNL A   1      45.872  28.859  29.290  1.00  0.00     0.010 A 
ATOM     44  C   UNL A   1      44.321  27.009  29.546  1.00  0.00     0.010 A 
ATOM     45  C   UNL A   1      45.205  27.941  30.117  1.00  0.00    -0.014 A 
BRANCH  45  46
ATOM     46  C   UNL A   1      45.404  28.001  31.585  1.00  0.00     0.031 A 
ATOM     47  C   UNL A   1      44.622  28.966  32.431  1.00  0.00     0.074 A 
ATOM     48  C   UNL A   1      46.289  27.154  32.149  1.00  0.00     0.049 A 
ATOM     49  N   UNL A   1      44.727  29.196  33.713  1.00  0.00    -0.248 NA
ATOM     50  C   UNL A   1      43.591  29.775  31.759  1.00  0.00     0.031 C 
ATOM     51  C   UNL A   1      47.070  26.151  31.419  1.00  0.00     0.029 A 
ATOM     52  N   UNL A   1      46.671  26.986  33.454  1.00  0.00    -0.354 N 
ATOM     53  C   UNL A   1      43.788  30.180  34.002  1.00  0.00     0.074 A 
ATOM     54  C   UNL A   1      43.140  30.526  32.756  1.00  0.00     0.031 C 
ATOM     55  C   UNL A   1      47.802  25.445  32.291  1.00  0.00     0.029 A 
ATOM     56  C   UNL A   1      47.617  26.003  33.626  1.00  0.00     0.049 A 
ATOM     57  H   UNL A   1      46.303  27.517  34.198  1.00  0.00     0.167 HD
ATOM     58  C   UNL A   1      43.492  30.728  35.203  1.00  0.00     0.031 A 
ATOM     59  C   UNL A   1      48.294  25.611  34.723  1.00  0.00     0.031 A 
ATOM     60  C   UNL A   1      44.145  30.359  36.432  1.00  0.00     0.049 A 
ATOM     61  C   UNL A   1      48.005  26.293  36.028  1.00  0.00     0.074 A 
ATOM     62  C   UNL A   1      43.916  30.858  37.703  1.00  0.00     0.029 A 
ATOM     63  N   UNL A   1      45.140  29.399  36.552  1.00  0.00    -0.354 N 
ATOM     64  N   UNL A   1      47.125  27.231  36.280  1.00  0.00    -0.248 NA
ATOM     65  C   UNL A   1      48.796  25.876  37.193  1.00  0.00     0.031 C 
ATOM     66  C   UNL A   1      44.819  30.251  38.577  1.00  0.00     0.029 A 
ATOM     67  C   UNL A   1      45.556  29.314  37.870  1.00  0.00     0.049 A 
ATOM     68  H   UNL A   1      45.497  28.860  35.811  1.00  0.00     0.167 HD
ATOM     69  C   UNL A   1      47.247  27.512  37.634  1.00  0.00     0.074 A 
ATOM     70  C   UNL A   1      48.274  26.631  38.153  1.00  0.00     0.031 C 
ATOM     71  C   UNL A   1      46.574  28.425  38.374  1.00  0.00     0.031 A 
BRANCH  58  72
ATOM     72  C   UNL A   1      42.417  31.782  35.278  1.00  0.00    -0.014 A 
ATOM     73  C   UNL A   1      41.069  31.397  35.410  1.00  0.00     0.010 A 
ATOM     74  C   UNL A   1      42.721  33.136  35.053  1.00  0.00     0.010 A 
ATOM     75  C   UNL A   1      40.043  32.336  35.269  1.00  0.00     0.020 A 
ATOM     76  C   UNL A   1      41.699  34.084  34.939  1.00  0.00     0.020 A 
ATOM     77  C   UNL A   1      40.365  33.672  35.019  1.00  0.00     0.054 A 
BRANCH  77  78
ATOM     78  S   UNL A   1      39.020  34.866  34.777  1.00  0.00     0.124 S 
ATOM     79  O   UNL A   1      38.881  34.886  33.325  1.00  0.00    -0.237 OA
ATOM     80  O   UNL A   1      37.915  34.252  35.511  1.00  0.00    -0.237 OA
ATOM     81  O   UNL A   1      39.543  36.095  35.372  1.00  0.00    -0.744 OA
ENDBRANCH  77  78
ENDBRANCH  58  72
BRANCH  59  82
ATOM     82  C   UNL A   1      49.308  24.529  34.595  1.00  0.00    -0.014 A 
ATOM     83  C   UNL A   1      50.656  24.850  34.334  1.00  0.00     0.010 A 
ATOM     84  C   UNL A   1      48.922  23.179  34.615  1.00  0.00     0.010 A 
ATOM     85  C   UNL A   1      51.578  23.851  34.021  1.00  0.00     0.020 A 
ATOM     86  C   UNL A   1      49.852  22.171  34.338  1.00  0.00     0.020 A 
ATOM     87  C   UNL A   1      51.165  22.517  34.009  1.00  0.00     0.054 A 
BRANCH  87  88
ATOM     88  S   UNL A   1      52.364  21.241  33.535  1.00  0.00     0.124 S 
ATOM     89  O   UNL A   1      52.073  20.184  34.500  1.00  0.00    -0.237 OA
ATOM     90  O   UNL A   1      51.991  20.950  32.152  1.00  0.00    -0.237 OA
ATOM     91  O   UNL A   1      53.653  21.905  33.703  1.00  0.00    -0.744 OA
ENDBRANCH  87  88
ENDBRANCH  59  82
BRANCH  71  92
ATOM     92  C   UNL A   1      46.905  28.544  39.837  1.00  0.00    -0.014 A 
ATOM     93  C   UNL A   1      46.368  27.616  40.749  1.00  0.00     0.010 A 
ATOM     94  C   UNL A   1      47.580  29.676  40.324  1.00  0.00     0.010 A 
ATOM     95  C   UNL A   1      46.444  27.850  42.123  1.00  0.00     0.020 A 
ATOM     96  C   UNL A   1      47.684  29.899  41.699  1.00  0.00     0.020 A 
ATOM     97  C   UNL A   1      47.084  29.002  42.588  1.00  0.00     0.054 A 
BRANCH  97  98
ATOM     98  S   UNL A   1      47.086  29.337  44.370  1.00  0.00     0.124 S 
ATOM     99  O   UNL A   1      46.752  28.030  44.928  1.00  0.00    -0.237 OA
ATOM    100  O   UNL A   1      48.454  29.792  44.607  1.00  0.00    -0.237 OA
ATOM    101  O   UNL A   1      46.060  30.365  44.528  1.00  0.00    -0.744 OA
ENDBRANCH  97  98
ENDBRANCH  71  92
ENDBRANCH  45  46
ENDBRANCH  37  40
ENDBRANCH  35  36
ENDBRANCH  34  35
ENDBRANCH  33  34
ENDBRANCH  32  33
ENDBRANCH   1  32
TORSDOF 21
ENDMDL
MODEL 2
REMARK VINA RESULT:      -7.3      4.385     11.228
REMARK SMILES Cc1cc(O[C@@H](C)C(=O)NCCC(=O)NCCCCCCNC(=O)c2ccc(-c3c4nc(c(-c5ccc(S(=O)(=O)[O-])cc5)c5ccc([nH]5)c(-c5ccc(S(=O)(=O)[O-])cc5)c5nc(c(-c6ccc(S(=O)(=O)[O-])cc6)c6ccc3[nH]6)C=C5)C=C4)cc2)c2c3c(c(=O)oc2c1)CCCC3
REMARK SMILES IDX 17 1 16 2 15 3 13 4 14 5 12 7 11 8 10 9 8 10 9 11 6 13 7 14
REMARK SMILES IDX 5 15 4 16 1 17 2 18 3 19 92 20 91 21 85 22 90 23 86 24 88 25
REMARK SMILES IDX 87 26 96 27 89 28 93 29 95 30 94 31 18 32 19 33 20 34 21 35
REMARK SMILES IDX 22 36 23 37 24 39 25 40 26 41 84 42 27 43 83 44 28 45 29 46
REMARK SMILES IDX 30 47 77 48 31 49 82 50 76 51 78 52 32 53 81 54 75 55 74 56
REMARK SMILES IDX 33 58 63 59 44 60 62 61 45 62 48 63 61 64 79 65 46 66 47 67
REMARK SMILES IDX 60 69 80 70 49 71 34 72 35 73 43 74 36 75 42 76 37 77 38 78
REMARK SMILES IDX 39 79 40 80 41 81 64 82 65 83 73 84 66 85 72 86 67 87 68 88
REMARK SMILES IDX 69 89 70 90 71 91 50 92 51 93 59 94 52 95 58 96 53 97 54 98
REMARK SMILES IDX 55 99 56 100 57 101
REMARK H PARENT 15 6 10 12 22 38 78 57 48 68
REMARK Flexibility Score: inf
ROOT
ATOM      1  C   UNL A   1      44.229  36.691  30.112  1.00  0.00     0.021 C 
ENDROOT
BRANCH   1   2
ATOM      2  C   UNL A   1      44.494  35.734  31.272  1.00  0.00     0.116 C 
BRANCH   2   3
ATOM      3  N   UNL A   1      43.890  36.254  32.475  1.00  0.00    -0.356 N 
ATOM      4  C   UNL A   1      42.749  35.822  33.074  1.00  0.00     0.221 C 
ATOM      5  O   UNL A   1      42.249  36.497  33.974  1.00  0.00    -0.275 OA
ATOM      6  H   UNL A   1      44.356  37.005  32.911  1.00  0.00     0.163 HD
BRANCH   4   7
ATOM      7  C   UNL A   1      42.127  34.519  32.627  1.00  0.00     0.121 C 
BRANCH   7   8
ATOM      8  C   UNL A   1      41.546  33.698  33.776  1.00  0.00     0.126 C 
BRANCH   8   9
ATOM      9  N   UNL A   1      40.247  34.185  34.207  1.00  0.00    -0.352 N 
ATOM     10  C   UNL A   1      39.077  34.437  33.574  1.00  0.00     0.260 C 
ATOM     11  O   UNL A   1      38.311  35.180  34.204  1.00  0.00    -0.271 OA
ATOM     12  H   UNL A   1      40.209  34.374  35.173  1.00  0.00     0.163 HD
BRANCH  10  13
ATOM     13  C   UNL A   1      38.594  33.768  32.255  1.00  0.00     0.258 C 
ATOM     14  C   UNL A   1      39.046  34.585  31.044  1.00  0.00     0.064 C 
BRANCH  13  15
ATOM     15  O   UNL A   1      37.413  33.016  32.055  1.00  0.00    -0.480 OA
BRANCH  15  16
ATOM     16  C   UNL A   1      36.928  32.565  30.872  1.00  0.00     0.132 A 
ATOM     17  C   UNL A   1      37.901  30.118  28.128  1.00  0.00     0.044 C 
ATOM     18  C   UNL A   1      37.085  31.094  28.924  1.00  0.00    -0.044 A 
ATOM     19  C   UNL A   1      37.470  31.449  30.223  1.00  0.00     0.050 A 
ATOM     20  C   UNL A   1      36.049  31.800  28.326  1.00  0.00     0.051 A 
ATOM     21  C   UNL A   1      35.404  32.812  29.040  1.00  0.00     0.142 A 
ATOM     22  C   UNL A   1      35.802  33.223  30.318  1.00  0.00     0.063 A 
ATOM     23  O   UNL A   1      34.324  33.402  28.363  1.00  0.00    -0.422 OA
ATOM     24  C   UNL A   1      34.993  34.295  30.965  1.00  0.00    -0.023 A 
ATOM     25  C   UNL A   1      33.503  34.324  28.977  1.00  0.00     0.339 A 
ATOM     26  C   UNL A   1      33.907  34.783  30.328  1.00  0.00     0.042 A 
ATOM     27  C   UNL A   1      35.349  34.792  32.353  1.00  0.00     0.037 C 
ATOM     28  O   UNL A   1      32.494  34.741  28.419  1.00  0.00    -0.246 OA
ATOM     29  C   UNL A   1      32.989  35.828  30.915  1.00  0.00     0.043 C 
ATOM     30  C   UNL A   1      34.249  35.589  33.060  1.00  0.00     0.005 C 
ATOM     31  C   UNL A   1      33.574  36.564  32.115  1.00  0.00     0.005 C 
ENDBRANCH  15  16
ENDBRANCH  13  15
ENDBRANCH  10  13
ENDBRANCH   8   9
ENDBRANCH   7   8
ENDBRANCH   4   7
ENDBRANCH   2   3
ENDBRANCH   1   2
BRANCH   1  32
ATOM     32  C   UNL A   1      43.037  36.293  29.240  1.00  0.00     0.002 C 
BRANCH  32  33
ATOM     33  C   UNL A   1      42.552  37.392  28.293  1.00  0.00     0.002 C 
BRANCH  33  34
ATOM     34  C   UNL A   1      42.522  36.990  26.818  1.00  0.00     0.021 C 
BRANCH  34  35
ATOM     35  C   UNL A   1      42.547  35.484  26.590  1.00  0.00     0.116 C 
BRANCH  35  36
ATOM     36  N   UNL A   1      43.386  35.130  25.457  1.00  0.00    -0.352 N 
ATOM     37  C   UNL A   1      44.393  34.198  25.413  1.00  0.00     0.251 C 
ATOM     38  H   UNL A   1      43.209  35.615  24.619  1.00  0.00     0.163 HD
ATOM     39  O   UNL A   1      45.177  34.159  24.471  1.00  0.00    -0.269 OA
BRANCH  37  40
ATOM     40  C   UNL A   1      44.515  33.264  26.546  1.00  0.00     0.039 A 
ATOM     41  C   UNL A   1      45.224  33.657  27.684  1.00  0.00     0.014 A 
ATOM     42  C   UNL A   1      44.001  31.973  26.430  1.00  0.00     0.014 A 
ATOM     43  C   UNL A   1      45.546  32.712  28.646  1.00  0.00     0.010 A 
ATOM     44  C   UNL A   1      44.247  31.049  27.447  1.00  0.00     0.010 A 
ATOM     45  C   UNL A   1      45.046  31.404  28.547  1.00  0.00    -0.014 A 
BRANCH  45  46
ATOM     46  C   UNL A   1      45.325  30.431  29.630  1.00  0.00     0.031 A 
ATOM     47  C   UNL A   1      46.518  29.519  29.559  1.00  0.00     0.074 A 
ATOM     48  C   UNL A   1      44.496  30.395  30.692  1.00  0.00     0.049 A 
ATOM     49  N   UNL A   1      46.865  28.565  30.382  1.00  0.00    -0.248 NA
ATOM     50  C   UNL A   1      47.441  29.698  28.425  1.00  0.00     0.031 C 
ATOM     51  C   UNL A   1      43.332  31.267  30.876  1.00  0.00     0.029 A 
ATOM     52  N   UNL A   1      44.507  29.616  31.820  1.00  0.00    -0.354 N 
ATOM     53  C   UNL A   1      48.035  28.022  29.866  1.00  0.00     0.074 A 
ATOM     54  C   UNL A   1      48.328  28.734  28.641  1.00  0.00     0.031 C 
ATOM     55  C   UNL A   1      42.769  31.004  32.062  1.00  0.00     0.029 A 
ATOM     56  C   UNL A   1      43.471  29.887  32.683  1.00  0.00     0.049 A 
ATOM     57  H   UNL A   1      45.191  28.929  31.996  1.00  0.00     0.167 HD
ATOM     58  C   UNL A   1      48.797  27.029  30.381  1.00  0.00     0.031 A 
ATOM     59  C   UNL A   1      43.096  29.285  33.829  1.00  0.00     0.031 A 
ATOM     60  C   UNL A   1      48.490  26.342  31.609  1.00  0.00     0.049 A 
ATOM     61  C   UNL A   1      43.912  28.132  34.336  1.00  0.00     0.074 A 
ATOM     62  C   UNL A   1      49.200  25.321  32.215  1.00  0.00     0.029 A 
ATOM     63  N   UNL A   1      47.398  26.609  32.422  1.00  0.00    -0.354 N 
ATOM     64  N   UNL A   1      45.007  27.623  33.827  1.00  0.00    -0.248 NA
ATOM     65  C   UNL A   1      43.446  27.468  35.559  1.00  0.00     0.031 C 
ATOM     66  C   UNL A   1      48.502  24.923  33.356  1.00  0.00     0.029 A 
ATOM     67  C   UNL A   1      47.399  25.750  33.508  1.00  0.00     0.049 A 
ATOM     68  H   UNL A   1      46.723  27.304  32.252  1.00  0.00     0.167 HD
ATOM     69  C   UNL A   1      45.371  26.583  34.672  1.00  0.00     0.074 A 
ATOM     70  C   UNL A   1      44.388  26.547  35.737  1.00  0.00     0.031 C 
ATOM     71  C   UNL A   1      46.418  25.732  34.566  1.00  0.00     0.031 A 
BRANCH  58  72
ATOM     72  C   UNL A   1      50.043  26.610  29.644  1.00  0.00    -0.014 A 
ATOM     73  C   UNL A   1      51.246  27.313  29.851  1.00  0.00     0.010 A 
ATOM     74  C   UNL A   1      49.987  25.635  28.633  1.00  0.00     0.010 A 
ATOM     75  C   UNL A   1      52.354  27.083  29.030  1.00  0.00     0.020 A 
ATOM     76  C   UNL A   1      51.103  25.382  27.828  1.00  0.00     0.020 A 
ATOM     77  C   UNL A   1      52.270  26.128  28.013  1.00  0.00     0.054 A 
BRANCH  77  78
ATOM     78  S   UNL A   1      53.697  25.888  26.918  1.00  0.00     0.124 S 
ATOM     79  O   UNL A   1      54.737  25.470  27.854  1.00  0.00    -0.237 OA
ATOM     80  O   UNL A   1      53.222  24.858  25.998  1.00  0.00    -0.237 OA
ATOM     81  O   UNL A   1      53.891  27.206  26.316  1.00  0.00    -0.744 OA
ENDBRANCH  77  78
ENDBRANCH  58  72
BRANCH  59  82
ATOM     82  C   UNL A   1      41.884  29.778  34.538  1.00  0.00    -0.014 A 
ATOM     83  C   UNL A   1      40.603  29.530  34.004  1.00  0.00     0.010 A 
ATOM     84  C   UNL A   1      42.001  30.591  35.676  1.00  0.00     0.010 A 
ATOM     85  C   UNL A   1      39.474  30.144  34.547  1.00  0.00     0.020 A 
ATOM     86  C   UNL A   1      40.867  31.181  36.246  1.00  0.00     0.020 A 
ATOM     87  C   UNL A   1      39.616  30.980  35.657  1.00  0.00     0.054 A 
BRANCH  87  88
ATOM     88  S   UNL A   1      38.146  31.822  36.305  1.00  0.00     0.124 S 
ATOM     89  O   UNL A   1      37.299  31.902  35.117  1.00  0.00    -0.237 OA
ATOM     90  O   UNL A   1      37.685  30.904  37.345  1.00  0.00    -0.237 OA
ATOM     91  O   UNL A   1      38.668  33.096  36.789  1.00  0.00    -0.744 OA
ENDBRANCH  87  88
ENDBRANCH  59  82
BRANCH  71  92
ATOM     92  C   UNL A   1      46.587  24.671  35.620  1.00  0.00    -0.014 A 
ATOM     93  C   UNL A   1      45.875  23.462  35.509  1.00  0.00     0.010 A 
ATOM     94  C   UNL A   1      47.293  24.948  36.802  1.00  0.00     0.010 A 
ATOM     95  C   UNL A   1      45.811  22.577  36.587  1.00  0.00     0.020 A 
ATOM     96  C   UNL A   1      47.256  24.051  37.873  1.00  0.00     0.020 A 
ATOM     97  C   UNL A   1      46.486  22.889  37.770  1.00  0.00     0.054 A 
BRANCH  97  98
ATOM     98  S   UNL A   1      46.311  21.776  39.191  1.00  0.00     0.124 S 
ATOM     99  O   UNL A   1      47.595  21.938  39.867  1.00  0.00    -0.237 OA
ATOM    100  O   UNL A   1      45.156  22.331  39.890  1.00  0.00    -0.237 OA
ATOM    101  O   UNL A   1      46.090  20.468  38.578  1.00  0.00    -0.744 OA
ENDBRANCH  97  98
ENDBRANCH  71  92
ENDBRANCH  45  46
ENDBRANCH  37  40
ENDBRANCH  35  36
ENDBRANCH  34  35
ENDBRANCH  33  34
ENDBRANCH  32  33
ENDBRANCH   1  32
TORSDOF 21
ENDMDL
MODEL 3
REMARK VINA RESULT:      -6.9      4.528      8.930
REMARK SMILES Cc1cc(O[C@@H](C)C(=O)NCCC(=O)NCCCCCCNC(=O)c2ccc(-c3c4nc(c(-c5ccc(S(=O)(=O)[O-])cc5)c5ccc([nH]5)c(-c5ccc(S(=O)(=O)[O-])cc5)c5nc(c(-c6ccc(S(=O)(=O)[O-])cc6)c6ccc3[nH]6)C=C5)C=C4)cc2)c2c3c(c(=O)oc2c1)CCCC3
REMARK SMILES IDX 17 1 16 2 15 3 13 4 14 5 12 7 11 8 10 9 8 10 9 11 6 13 7 14
REMARK SMILES IDX 5 15 4 16 1 17 2 18 3 19 92 20 91 21 85 22 90 23 86 24 88 25
REMARK SMILES IDX 87 26 96 27 89 28 93 29 95 30 94 31 18 32 19 33 20 34 21 35
REMARK SMILES IDX 22 36 23 37 24 39 25 40 26 41 84 42 27 43 83 44 28 45 29 46
REMARK SMILES IDX 30 47 77 48 31 49 82 50 76 51 78 52 32 53 81 54 75 55 74 56
REMARK SMILES IDX 33 58 63 59 44 60 62 61 45 62 48 63 61 64 79 65 46 66 47 67
REMARK SMILES IDX 60 69 80 70 49 71 34 72 35 73 43 74 36 75 42 76 37 77 38 78
REMARK SMILES IDX 39 79 40 80 41 81 64 82 65 83 73 84 66 85 72 86 67 87 68 88
REMARK SMILES IDX 69 89 70 90 71 91 50 92 51 93 59 94 52 95 58 96 53 97 54 98
REMARK SMILES IDX 55 99 56 100 57 101
REMARK H PARENT 15 6 10 12 22 38 78 57 48 68
REMARK Flexibility Score: inf
ROOT
ATOM      1  C   UNL A   1      38.881  27.424  28.770  1.00  0.00     0.021 C 
ENDROOT
BRANCH   1   2
ATOM      2  C   UNL A   1      39.402  28.087  30.043  1.00  0.00     0.116 C 
BRANCH   2   3
ATOM      3  N   UNL A   1      38.322  28.235  30.988  1.00  0.00    -0.356 N 
ATOM      4  C   UNL A   1      38.424  28.378  32.336  1.00  0.00     0.221 C 
ATOM      5  O   UNL A   1      37.411  28.284  33.030  1.00  0.00    -0.275 OA
ATOM      6  H   UNL A   1      37.410  28.233  30.616  1.00  0.00     0.163 HD
BRANCH   4   7
ATOM      7  C   UNL A   1      39.776  28.658  32.950  1.00  0.00     0.121 C 
BRANCH   7   8
ATOM      8  C   UNL A   1      39.940  30.100  33.426  1.00  0.00     0.126 C 
BRANCH   8   9
ATOM      9  N   UNL A   1      38.849  30.532  34.281  1.00  0.00    -0.352 N 
ATOM     10  C   UNL A   1      38.020  31.603  34.283  1.00  0.00     0.260 C 
ATOM     11  O   UNL A   1      37.460  31.807  35.369  1.00  0.00    -0.271 OA
ATOM     12  H   UNL A   1      38.671  29.909  35.022  1.00  0.00     0.163 HD
BRANCH  10  13
ATOM     13  C   UNL A   1      37.628  32.453  33.039  1.00  0.00     0.258 C 
ATOM     14  C   UNL A   1      38.699  33.503  32.749  1.00  0.00     0.064 C 
BRANCH  13  15
ATOM     15  O   UNL A   1      36.325  32.802  32.613  1.00  0.00    -0.480 OA
BRANCH  15  16
ATOM     16  C   UNL A   1      35.770  32.546  31.404  1.00  0.00     0.132 A 
ATOM     17  C   UNL A   1      36.006  29.940  28.642  1.00  0.00     0.044 C 
ATOM     18  C   UNL A   1      35.521  31.123  29.430  1.00  0.00    -0.044 A 
ATOM     19  C   UNL A   1      35.945  31.320  30.750  1.00  0.00     0.050 A 
ATOM     20  C   UNL A   1      34.798  32.135  28.809  1.00  0.00     0.051 A 
ATOM     21  C   UNL A   1      34.490  33.295  29.522  1.00  0.00     0.142 A 
ATOM     22  C   UNL A   1      34.947  33.542  30.823  1.00  0.00     0.063 A 
ATOM     23  O   UNL A   1      33.693  34.213  28.819  1.00  0.00    -0.422 OA
ATOM     24  C   UNL A   1      34.506  34.814  31.463  1.00  0.00    -0.023 A 
ATOM     25  C   UNL A   1      33.193  35.347  29.422  1.00  0.00     0.339 A 
ATOM     26  C   UNL A   1      33.667  35.636  30.797  1.00  0.00     0.042 A 
ATOM     27  C   UNL A   1      34.945  35.154  32.875  1.00  0.00     0.037 C 
ATOM     28  O   UNL A   1      32.401  36.077  28.837  1.00  0.00    -0.246 OA
ATOM     29  C   UNL A   1      33.118  36.919  31.373  1.00  0.00     0.043 C 
ATOM     30  C   UNL A   1      34.136  36.260  33.558  1.00  0.00     0.005 C 
ATOM     31  C   UNL A   1      33.859  37.411  32.611  1.00  0.00     0.005 C 
ENDBRANCH  15  16
ENDBRANCH  13  15
ENDBRANCH  10  13
ENDBRANCH   8   9
ENDBRANCH   7   8
ENDBRANCH   4   7
ENDBRANCH   2   3
ENDBRANCH   1   2
BRANCH   1  32
ATOM     32  C   UNL A   1      39.372  25.990  28.571  1.00  0.00     0.002 C 
BRANCH  32  33
ATOM     33  C   UNL A   1      40.031  25.729  27.215  1.00  0.00     0.002 C 
BRANCH  33  34
ATOM     34  C   UNL A   1      39.910  24.288  26.718  1.00  0.00     0.021 C 
BRANCH  34  35
ATOM     35  C   UNL A   1      41.055  23.851  25.814  1.00  0.00     0.116 C 
BRANCH  35  36
ATOM     36  N   UNL A   1      41.342  22.434  25.965  1.00  0.00    -0.352 N 
ATOM     37  C   UNL A   1      42.296  21.849  26.760  1.00  0.00     0.251 C 
ATOM     38  H   UNL A   1      40.786  21.821  25.434  1.00  0.00     0.163 HD
ATOM     39  O   UNL A   1      42.595  20.667  26.622  1.00  0.00    -0.269 OA
BRANCH  37  40
ATOM     40  C   UNL A   1      42.965  22.691  27.767  1.00  0.00     0.039 A 
ATOM     41  C   UNL A   1      42.257  23.090  28.904  1.00  0.00     0.014 A 
ATOM     42  C   UNL A   1      44.260  23.151  27.529  1.00  0.00     0.014 A 
ATOM     43  C   UNL A   1      42.790  24.067  29.730  1.00  0.00     0.010 A 
ATOM     44  C   UNL A   1      44.831  24.064  28.416  1.00  0.00     0.010 A 
ATOM     45  C   UNL A   1      44.089  24.551  29.506  1.00  0.00    -0.014 A 
BRANCH  45  46
ATOM     46  C   UNL A   1      44.678  25.529  30.451  1.00  0.00     0.031 A 
ATOM     47  C   UNL A   1      44.940  26.948  30.029  1.00  0.00     0.074 A 
ATOM     48  C   UNL A   1      44.955  25.125  31.706  1.00  0.00     0.049 A 
ATOM     49  N   UNL A   1      45.514  27.907  30.706  1.00  0.00    -0.248 NA
ATOM     50  C   UNL A   1      44.503  27.346  28.679  1.00  0.00     0.031 C 
ATOM     51  C   UNL A   1      44.701  23.778  32.227  1.00  0.00     0.029 A 
ATOM     52  N   UNL A   1      45.491  25.796  32.774  1.00  0.00    -0.354 N 
ATOM     53  C   UNL A   1      45.519  29.016  29.868  1.00  0.00     0.074 A 
ATOM     54  C   UNL A   1      44.915  28.606  28.619  1.00  0.00     0.031 C 
ATOM     55  C   UNL A   1      45.040  23.737  33.522  1.00  0.00     0.029 A 
ATOM     56  C   UNL A   1      45.620  25.020  33.901  1.00  0.00     0.049 A 
ATOM     57  H   UNL A   1      45.758  26.744  32.737  1.00  0.00     0.167 HD
ATOM     58  C   UNL A   1      45.976  30.262  30.130  1.00  0.00     0.031 A 
ATOM     59  C   UNL A   1      46.175  25.288  35.099  1.00  0.00     0.031 A 
ATOM     60  C   UNL A   1      46.564  30.649  31.386  1.00  0.00     0.049 A 
ATOM     61  C   UNL A   1      46.749  26.654  35.336  1.00  0.00     0.074 A 
ATOM     62  C   UNL A   1      47.058  31.890  31.751  1.00  0.00     0.029 A 
ATOM     63  N   UNL A   1      46.728  29.815  32.483  1.00  0.00    -0.354 N 
ATOM     64  N   UNL A   1      46.758  27.686  34.528  1.00  0.00    -0.248 NA
ATOM     65  C   UNL A   1      47.391  26.896  36.634  1.00  0.00     0.031 C 
ATOM     66  C   UNL A   1      47.583  31.787  33.039  1.00  0.00     0.029 A 
ATOM     67  C   UNL A   1      47.344  30.506  33.512  1.00  0.00     0.049 A 
ATOM     68  H   UNL A   1      46.450  28.872  32.523  1.00  0.00     0.167 HD
ATOM     69  C   UNL A   1      47.397  28.705  35.220  1.00  0.00     0.074 A 
ATOM     70  C   UNL A   1      47.745  28.172  36.522  1.00  0.00     0.031 C 
ATOM     71  C   UNL A   1      47.676  29.964  34.808  1.00  0.00     0.031 A 
BRANCH  58  72
ATOM     72  C   UNL A   1      45.865  31.319  29.062  1.00  0.00    -0.014 A 
ATOM     73  C   UNL A   1      44.729  32.151  29.016  1.00  0.00     0.010 A 
ATOM     74  C   UNL A   1      46.797  31.380  28.011  1.00  0.00     0.010 A 
ATOM     75  C   UNL A   1      44.503  32.988  27.920  1.00  0.00     0.020 A 
ATOM     76  C   UNL A   1      46.589  32.237  26.925  1.00  0.00     0.020 A 
ATOM     77  C   UNL A   1      45.429  33.014  26.873  1.00  0.00     0.054 A 
BRANCH  77  78
ATOM     78  S   UNL A   1      45.088  34.061  25.431  1.00  0.00     0.124 S 
ATOM     79  O   UNL A   1      44.216  35.088  25.993  1.00  0.00    -0.237 OA
ATOM     80  O   UNL A   1      46.423  34.508  25.040  1.00  0.00    -0.237 OA
ATOM     81  O   UNL A   1      44.448  33.145  24.488  1.00  0.00    -0.744 OA
ENDBRANCH  77  78
ENDBRANCH  58  72
BRANCH  59  82
ATOM     82  C   UNL A   1      46.210  24.218  36.133  1.00  0.00    -0.014 A 
ATOM     83  C   UNL A   1      45.168  24.113  37.077  1.00  0.00     0.010 A 
ATOM     84  C   UNL A   1      47.327  23.377  36.256  1.00  0.00     0.010 A 
ATOM     85  C   UNL A   1      45.277  23.245  38.164  1.00  0.00     0.020 A 
ATOM     86  C   UNL A   1      47.424  22.479  37.325  1.00  0.00     0.020 A 
ATOM     87  C   UNL A   1      46.414  22.444  38.290  1.00  0.00     0.054 A 
BRANCH  87  88
ATOM     88  S   UNL A   1      46.566  21.372  39.745  1.00  0.00     0.124 S 
ATOM     89  O   UNL A   1      47.973  21.541  40.096  1.00  0.00    -0.237 OA
ATOM     90  O   UNL A   1      45.610  21.964  40.679  1.00  0.00    -0.237 OA
ATOM     91  O   UNL A   1      46.201  20.053  39.237  1.00  0.00    -0.744 OA
ENDBRANCH  87  88
ENDBRANCH  59  82
BRANCH  71  92
ATOM     92  C   UNL A   1      48.398  30.884  35.755  1.00  0.00    -0.014 A 
ATOM     93  C   UNL A   1      47.658  31.767  36.565  1.00  0.00     0.010 A 
ATOM     94  C   UNL A   1      49.796  31.007  35.701  1.00  0.00     0.010 A 
ATOM     95  C   UNL A   1      48.298  32.798  37.253  1.00  0.00     0.020 A 
ATOM     96  C   UNL A   1      50.444  32.021  36.412  1.00  0.00     0.020 A 
ATOM     97  C   UNL A   1      49.686  32.931  37.155  1.00  0.00     0.054 A 
BRANCH  97  98
ATOM     98  S   UNL A   1      50.487  34.335  37.978  1.00  0.00     0.124 S 
ATOM     99  O   UNL A   1      49.944  34.248  39.330  1.00  0.00    -0.237 OA
ATOM    100  O   UNL A   1      51.905  34.014  37.846  1.00  0.00    -0.237 OA
ATOM    101  O   UNL A   1      50.042  35.489  37.199  1.00  0.00    -0.744 OA
ENDBRANCH  97  98
ENDBRANCH  71  92
ENDBRANCH  45  46
ENDBRANCH  37  40
ENDBRANCH  35  36
ENDBRANCH  34  35
ENDBRANCH  33  34
ENDBRANCH  32  33
ENDBRANCH   1  32
TORSDOF 21
ENDMDL
