MODEL 1
REMARK VINA RESULT:      -7.9      0.000      0.000
REMARK SMILES CCCCNC(=O)[C@@H](C)Oc1ccc(N)cc1C(=O)NCCCCCCNC(=O)c1ccc(-c2c3nc(c(-c4ccc(S(=O)(=O)[O-])cc4)c4ccc([nH]4)c(-c4ccc(S(=O)(=O)[O-])cc4)c4nc(c(-c5ccc(S(=O)(=O)[O-])cc5)c5ccc2[nH]5)C=C4)C=C3)cc1
REMARK SMILES IDX 22 1 21 2 20 3 18 4 19 5 17 7 11 8 12 9 13 10 16 11 14 12
REMARK SMILES IDX 10 13 8 14 9 15 6 16 5 17 7 19 4 20 3 21 2 22 1 23 15 24
REMARK SMILES IDX 23 27 24 28 25 29 26 30 27 31 28 32 29 34 30 35 31 36 89 37
REMARK SMILES IDX 32 38 88 39 33 40 34 41 35 42 82 43 36 44 87 45 81 46 83 47
REMARK SMILES IDX 37 48 86 49 80 50 79 51 38 53 68 54 49 55 67 56 50 57 53 58
REMARK SMILES IDX 66 59 84 60 51 61 52 62 65 64 85 65 54 66 39 67 40 68 48 69
REMARK SMILES IDX 41 70 47 71 42 72 43 73 44 74 45 75 46 76 69 77 70 78 78 79
REMARK SMILES IDX 71 80 77 81 72 82 73 83 74 84 75 85 76 86 55 87 56 88 64 89
REMARK SMILES IDX 57 90 63 91 58 92 59 93 60 94 61 95 62 96
REMARK H PARENT 20 6 5 18 15 25 15 26 27 33 83 52 53 63
REMARK Flexibility Score: inf
ROOT
ATOM      1  C   UNL A   1      40.354  28.240  27.440  1.00  0.00     0.021 C 
ENDROOT
BRANCH   1   2
ATOM      2  C   UNL A   1      39.489  29.226  28.207  1.00  0.00     0.116 C 
BRANCH   2   3
ATOM      3  N   UNL A   1      38.104  29.207  27.866  1.00  0.00    -0.352 N 
ATOM      4  C   UNL A   1      36.999  29.544  28.604  1.00  0.00     0.255 C 
ATOM      5  O   UNL A   1      35.927  29.275  28.046  1.00  0.00    -0.269 OA
ATOM      6  H   UNL A   1      37.909  28.901  26.950  1.00  0.00     0.163 HD
BRANCH   4   7
ATOM      7  C   UNL A   1      36.949  30.231  29.959  1.00  0.00     0.083 A 
ATOM      8  C   UNL A   1      36.417  31.473  30.357  1.00  0.00     0.133 A 
ATOM      9  C   UNL A   1      36.064  31.658  31.704  1.00  0.00     0.049 A 
ATOM     10  C   UNL A   1      36.486  30.771  32.695  1.00  0.00     0.029 A 
ATOM     11  C   UNL A   1      37.421  29.387  31.001  1.00  0.00     0.043 A 
ATOM     12  C   UNL A   1      37.273  29.685  32.358  1.00  0.00     0.032 A 
BRANCH   8  13
ATOM     13  O   UNL A   1      36.094  32.500  29.525  1.00  0.00    -0.480 OA
BRANCH  13  14
ATOM     14  C   UNL A   1      34.703  32.807  29.288  1.00  0.00     0.258 C 
ATOM     15  C   UNL A   1      33.993  32.034  28.152  1.00  0.00     0.064 C 
BRANCH  14  16
ATOM     16  C   UNL A   1      34.133  34.246  29.391  1.00  0.00     0.260 C 
ATOM     17  N   UNL A   1      34.435  35.067  30.441  1.00  0.00    -0.353 N 
ATOM     18  H   UNL A   1      34.328  36.031  30.275  1.00  0.00     0.163 HD
ATOM     19  O   UNL A   1      33.435  34.712  28.487  1.00  0.00    -0.271 OA
BRANCH  17  20
ATOM     20  C   UNL A   1      34.892  34.701  31.762  1.00  0.00     0.116 C 
BRANCH  20  21
ATOM     21  C   UNL A   1      33.944  35.084  32.884  1.00  0.00     0.021 C 
BRANCH  21  22
ATOM     22  C   UNL A   1      33.036  36.266  32.543  1.00  0.00    -0.002 C 
ATOM     23  C   UNL A   1      31.550  35.918  32.569  1.00  0.00     0.004 C 
ENDBRANCH  21  22
ENDBRANCH  20  21
ENDBRANCH  17  20
ENDBRANCH  14  16
ENDBRANCH  13  14
ENDBRANCH   8  13
BRANCH  12  24
ATOM     24  N   UNL A   1      37.760  28.827  33.330  1.00  0.00    -0.399 N 
ATOM     25  H   UNL A   1      37.973  27.894  33.099  1.00  0.00     0.156 HD
ATOM     26  H   UNL A   1      37.892  29.150  34.251  1.00  0.00     0.156 HD
ENDBRANCH  12  24
ENDBRANCH   4   7
ENDBRANCH   2   3
ENDBRANCH   1   2
BRANCH   1  27
ATOM     27  C   UNL A   1      39.978  26.777  27.603  1.00  0.00     0.002 C 
BRANCH  27  28
ATOM     28  C   UNL A   1      40.987  25.769  27.047  1.00  0.00     0.002 C 
BRANCH  28  29
ATOM     29  C   UNL A   1      41.409  24.625  27.978  1.00  0.00     0.021 C 
BRANCH  29  30
ATOM     30  C   UNL A   1      42.631  24.882  28.856  1.00  0.00     0.116 C 
BRANCH  30  31
ATOM     31  N   UNL A   1      43.875  24.838  28.108  1.00  0.00    -0.352 N 
ATOM     32  C   UNL A   1      44.747  25.841  27.786  1.00  0.00     0.251 C 
ATOM     33  H   UNL A   1      44.132  23.944  27.782  1.00  0.00     0.163 HD
ATOM     34  O   UNL A   1      45.663  25.615  26.990  1.00  0.00    -0.269 OA
BRANCH  32  35
ATOM     35  C   UNL A   1      44.592  27.190  28.363  1.00  0.00     0.039 A 
ATOM     36  C   UNL A   1      45.235  27.480  29.570  1.00  0.00     0.014 A 
ATOM     37  C   UNL A   1      43.799  28.161  27.742  1.00  0.00     0.014 A 
ATOM     38  C   UNL A   1      45.131  28.758  30.122  1.00  0.00     0.010 A 
ATOM     39  C   UNL A   1      43.750  29.454  28.260  1.00  0.00     0.010 A 
ATOM     40  C   UNL A   1      44.416  29.766  29.455  1.00  0.00    -0.014 A 
BRANCH  40  41
ATOM     41  C   UNL A   1      44.366  31.152  29.990  1.00  0.00     0.031 A 
ATOM     42  C   UNL A   1      45.297  32.207  29.456  1.00  0.00     0.074 A 
ATOM     43  C   UNL A   1      43.512  31.447  30.991  1.00  0.00     0.049 A 
ATOM     44  N   UNL A   1      45.443  33.448  29.843  1.00  0.00    -0.248 NA
ATOM     45  C   UNL A   1      46.195  31.811  28.358  1.00  0.00     0.031 C 
ATOM     46  C   UNL A   1      42.584  30.502  31.617  1.00  0.00     0.029 A 
ATOM     47  N   UNL A   1      43.293  32.621  31.667  1.00  0.00    -0.354 N 
ATOM     48  C   UNL A   1      46.447  33.981  29.042  1.00  0.00     0.074 A 
ATOM     49  C   UNL A   1      46.912  32.913  28.184  1.00  0.00     0.031 C 
ATOM     50  C   UNL A   1      41.886  31.138  32.573  1.00  0.00     0.029 A 
ATOM     51  C   UNL A   1      42.346  32.520  32.658  1.00  0.00     0.049 A 
ATOM     52  H   UNL A   1      43.770  33.458  31.460  1.00  0.00     0.167 HD
ATOM     53  C   UNL A   1      46.922  35.248  29.007  1.00  0.00     0.031 A 
ATOM     54  C   UNL A   1      41.907  33.431  33.548  1.00  0.00     0.031 A 
ATOM     55  C   UNL A   1      46.456  36.309  29.862  1.00  0.00     0.049 A 
ATOM     56  C   UNL A   1      42.475  34.825  33.509  1.00  0.00     0.074 A 
ATOM     57  C   UNL A   1      46.854  37.634  29.882  1.00  0.00     0.029 A 
ATOM     58  N   UNL A   1      45.488  36.168  30.845  1.00  0.00    -0.354 N 
ATOM     59  N   UNL A   1      43.386  35.322  32.707  1.00  0.00    -0.248 NA
ATOM     60  C   UNL A   1      41.946  35.785  34.489  1.00  0.00     0.031 C 
ATOM     61  C   UNL A   1      46.163  38.283  30.910  1.00  0.00     0.029 A 
ATOM     62  C   UNL A   1      45.289  37.378  31.489  1.00  0.00     0.049 A 
ATOM     63  H   UNL A   1      45.012  35.332  31.053  1.00  0.00     0.167 HD
ATOM     64  C   UNL A   1      43.519  36.659  33.067  1.00  0.00     0.074 A 
ATOM     65  C   UNL A   1      42.581  36.897  34.145  1.00  0.00     0.031 C 
ATOM     66  C   UNL A   1      44.347  37.602  32.555  1.00  0.00     0.031 A 
BRANCH  53  67
ATOM     67  C   UNL A   1      47.998  35.566  28.003  1.00  0.00    -0.014 A 
ATOM     68  C   UNL A   1      49.353  35.336  28.302  1.00  0.00     0.010 A 
ATOM     69  C   UNL A   1      47.652  36.036  26.723  1.00  0.00     0.010 A 
ATOM     70  C   UNL A   1      50.344  35.595  27.351  1.00  0.00     0.020 A 
ATOM     71  C   UNL A   1      48.638  36.272  25.759  1.00  0.00     0.020 A 
ATOM     72  C   UNL A   1      49.979  36.060  26.084  1.00  0.00     0.054 A 
BRANCH  72  73
ATOM     73  S   UNL A   1      51.284  36.345  24.858  1.00  0.00     0.124 S 
ATOM     74  O   UNL A   1      52.002  37.477  25.438  1.00  0.00    -0.237 OA
ATOM     75  O   UNL A   1      52.007  35.076  24.859  1.00  0.00    -0.237 OA
ATOM     76  O   UNL A   1      50.550  36.639  23.629  1.00  0.00    -0.744 OA
ENDBRANCH  72  73
ENDBRANCH  53  67
BRANCH  54  77
ATOM     77  C   UNL A   1      40.886  33.054  34.565  1.00  0.00    -0.014 A 
ATOM     78  C   UNL A   1      39.513  33.104  34.263  1.00  0.00     0.010 A 
ATOM     79  C   UNL A   1      41.285  32.658  35.856  1.00  0.00     0.010 A 
ATOM     80  C   UNL A   1      38.560  32.803  35.240  1.00  0.00     0.020 A 
ATOM     81  C   UNL A   1      40.336  32.324  36.825  1.00  0.00     0.020 A 
ATOM     82  C   UNL A   1      38.978  32.417  36.518  1.00  0.00     0.054 A 
BRANCH  82  83
ATOM     83  S   UNL A   1      37.725  32.015  37.766  1.00  0.00     0.124 S 
ATOM     84  O   UNL A   1      37.442  30.613  37.471  1.00  0.00    -0.237 OA
ATOM     85  O   UNL A   1      38.433  32.267  39.018  1.00  0.00    -0.237 OA
ATOM     86  O   UNL A   1      36.640  32.948  37.473  1.00  0.00    -0.744 OA
ENDBRANCH  82  83
ENDBRANCH  54  77
BRANCH  66  87
ATOM     87  C   UNL A   1      44.250  38.992  33.125  1.00  0.00    -0.014 A 
ATOM     88  C   UNL A   1      45.092  39.414  34.169  1.00  0.00     0.010 A 
ATOM     89  C   UNL A   1      43.339  39.909  32.566  1.00  0.00     0.010 A 
ATOM     90  C   UNL A   1      45.003  40.718  34.665  1.00  0.00     0.020 A 
ATOM     91  C   UNL A   1      43.269  41.221  33.039  1.00  0.00     0.020 A 
ATOM     92  C   UNL A   1      44.092  41.614  34.095  1.00  0.00     0.054 A 
BRANCH  92  93
ATOM     93  S   UNL A   1      44.033  43.314  34.725  1.00  0.00     0.124 S 
ATOM     94  O   UNL A   1      44.606  44.070  33.615  1.00  0.00    -0.237 OA
ATOM     95  O   UNL A   1      42.606  43.521  34.955  1.00  0.00    -0.237 OA
ATOM     96  O   UNL A   1      44.853  43.265  35.934  1.00  0.00    -0.744 OA
ENDBRANCH  92  93
ENDBRANCH  66  87
ENDBRANCH  40  41
ENDBRANCH  32  35
ENDBRANCH  30  31
ENDBRANCH  29  30
ENDBRANCH  28  29
ENDBRANCH  27  28
ENDBRANCH   1  27
TORSDOF 23
ENDMDL
MODEL 2
REMARK VINA RESULT:      -7.9      4.620     13.340
REMARK SMILES CCCCNC(=O)[C@@H](C)Oc1ccc(N)cc1C(=O)NCCCCCCNC(=O)c1ccc(-c2c3nc(c(-c4ccc(S(=O)(=O)[O-])cc4)c4ccc([nH]4)c(-c4ccc(S(=O)(=O)[O-])cc4)c4nc(c(-c5ccc(S(=O)(=O)[O-])cc5)c5ccc2[nH]5)C=C4)C=C3)cc1
REMARK SMILES IDX 22 1 21 2 20 3 18 4 19 5 17 7 11 8 12 9 13 10 16 11 14 12
REMARK SMILES IDX 10 13 8 14 9 15 6 16 5 17 7 19 4 20 3 21 2 22 1 23 15 24
REMARK SMILES IDX 23 27 24 28 25 29 26 30 27 31 28 32 29 34 30 35 31 36 89 37
REMARK SMILES IDX 32 38 88 39 33 40 34 41 35 42 82 43 36 44 87 45 81 46 83 47
REMARK SMILES IDX 37 48 86 49 80 50 79 51 38 53 68 54 49 55 67 56 50 57 53 58
REMARK SMILES IDX 66 59 84 60 51 61 52 62 65 64 85 65 54 66 39 67 40 68 48 69
REMARK SMILES IDX 41 70 47 71 42 72 43 73 44 74 45 75 46 76 69 77 70 78 78 79
REMARK SMILES IDX 71 80 77 81 72 82 73 83 74 84 75 85 76 86 55 87 56 88 64 89
REMARK SMILES IDX 57 90 63 91 58 92 59 93 60 94 61 95 62 96
REMARK H PARENT 20 6 5 18 15 25 15 26 27 33 83 52 53 63
REMARK Flexibility Score: inf
ROOT
ATOM      1  C   UNL A   1      40.904  35.606  29.452  1.00  0.00     0.021 C 
ENDROOT
BRANCH   1   2
ATOM      2  C   UNL A   1      40.999  34.245  30.121  1.00  0.00     0.116 C 
BRANCH   2   3
ATOM      3  N   UNL A   1      41.030  34.274  31.547  1.00  0.00    -0.352 N 
ATOM      4  C   UNL A   1      40.042  34.033  32.467  1.00  0.00     0.255 C 
ATOM      5  O   UNL A   1      40.376  34.283  33.633  1.00  0.00    -0.269 OA
ATOM      6  H   UNL A   1      41.906  34.506  31.936  1.00  0.00     0.163 HD
BRANCH   4   7
ATOM      7  C   UNL A   1      38.653  33.466  32.225  1.00  0.00     0.083 A 
ATOM      8  C   UNL A   1      38.181  32.140  32.175  1.00  0.00     0.133 A 
ATOM      9  C   UNL A   1      36.820  31.896  32.422  1.00  0.00     0.049 A 
ATOM     10  C   UNL A   1      35.885  32.932  32.428  1.00  0.00     0.029 A 
ATOM     11  C   UNL A   1      37.665  34.487  32.167  1.00  0.00     0.043 A 
ATOM     12  C   UNL A   1      36.292  34.230  32.180  1.00  0.00     0.032 A 
BRANCH   8  13
ATOM     13  O   UNL A   1      38.953  31.030  32.022  1.00  0.00    -0.480 OA
BRANCH  13  14
ATOM     14  C   UNL A   1      40.019  30.775  32.960  1.00  0.00     0.258 C 
ATOM     15  C   UNL A   1      41.443  30.603  32.382  1.00  0.00     0.064 C 
BRANCH  14  16
ATOM     16  C   UNL A   1      39.839  29.872  34.209  1.00  0.00     0.260 C 
ATOM     17  N   UNL A   1      38.989  30.209  35.225  1.00  0.00    -0.353 N 
ATOM     18  H   UNL A   1      38.678  29.465  35.788  1.00  0.00     0.163 HD
ATOM     19  O   UNL A   1      40.418  28.786  34.289  1.00  0.00    -0.271 OA
BRANCH  17  20
ATOM     20  C   UNL A   1      38.489  31.518  35.578  1.00  0.00     0.116 C 
BRANCH  20  21
ATOM     21  C   UNL A   1      38.466  31.803  37.068  1.00  0.00     0.021 C 
BRANCH  21  22
ATOM     22  C   UNL A   1      38.322  33.288  37.407  1.00  0.00    -0.002 C 
ATOM     23  C   UNL A   1      38.208  33.561  38.903  1.00  0.00     0.004 C 
ENDBRANCH  21  22
ENDBRANCH  20  21
ENDBRANCH  17  20
ENDBRANCH  14  16
ENDBRANCH  13  14
ENDBRANCH   8  13
BRANCH  12  24
ATOM     24  N   UNL A   1      35.375  35.266  32.115  1.00  0.00    -0.399 N 
ATOM     25  H   UNL A   1      35.046  35.682  32.943  1.00  0.00     0.156 HD
ATOM     26  H   UNL A   1      35.055  35.585  31.241  1.00  0.00     0.156 HD
ENDBRANCH  12  24
ENDBRANCH   4   7
ENDBRANCH   2   3
ENDBRANCH   1   2
BRANCH   1  27
ATOM     27  C   UNL A   1      41.913  35.861  28.345  1.00  0.00     0.002 C 
BRANCH  27  28
ATOM     28  C   UNL A   1      43.384  35.807  28.767  1.00  0.00     0.002 C 
BRANCH  28  29
ATOM     29  C   UNL A   1      44.179  37.116  28.676  1.00  0.00     0.021 C 
BRANCH  29  30
ATOM     30  C   UNL A   1      44.815  37.612  29.972  1.00  0.00     0.116 C 
BRANCH  30  31
ATOM     31  N   UNL A   1      46.250  37.808  29.852  1.00  0.00    -0.352 N 
ATOM     32  C   UNL A   1      47.241  36.909  29.572  1.00  0.00     0.251 C 
ATOM     33  H   UNL A   1      46.555  38.734  29.993  1.00  0.00     0.163 HD
ATOM     34  O   UNL A   1      48.421  37.254  29.688  1.00  0.00    -0.269 OA
BRANCH  32  35
ATOM     35  C   UNL A   1      46.917  35.531  29.154  1.00  0.00     0.039 A 
ATOM     36  C   UNL A   1      46.791  35.259  27.789  1.00  0.00     0.014 A 
ATOM     37  C   UNL A   1      46.711  34.516  30.092  1.00  0.00     0.014 A 
ATOM     38  C   UNL A   1      46.516  33.958  27.364  1.00  0.00     0.010 A 
ATOM     39  C   UNL A   1      46.501  33.206  29.665  1.00  0.00     0.010 A 
ATOM     40  C   UNL A   1      46.402  32.913  28.296  1.00  0.00    -0.014 A 
BRANCH  40  41
ATOM     41  C   UNL A   1      46.191  31.510  27.852  1.00  0.00     0.031 A 
ATOM     42  C   UNL A   1      44.822  30.890  27.917  1.00  0.00     0.074 A 
ATOM     43  C   UNL A   1      47.246  30.781  27.436  1.00  0.00     0.049 A 
ATOM     44  N   UNL A   1      44.459  29.665  27.635  1.00  0.00    -0.248 NA
ATOM     45  C   UNL A   1      43.719  31.751  28.376  1.00  0.00     0.031 C 
ATOM     46  C   UNL A   1      48.629  31.258  27.361  1.00  0.00     0.029 A 
ATOM     47  N   UNL A   1      47.323  29.479  27.006  1.00  0.00    -0.354 N 
ATOM     48  C   UNL A   1      43.092  29.606  27.884  1.00  0.00     0.074 A 
ATOM     49  C   UNL A   1      42.700  30.903  28.390  1.00  0.00     0.031 C 
ATOM     50  C   UNL A   1      49.412  30.269  26.899  1.00  0.00     0.029 A 
ATOM     51  C   UNL A   1      48.599  29.077  26.686  1.00  0.00     0.049 A 
ATOM     52  H   UNL A   1      46.538  28.889  26.934  1.00  0.00     0.167 HD
ATOM     53  C   UNL A   1      42.238  28.574  27.686  1.00  0.00     0.031 A 
ATOM     54  C   UNL A   1      49.066  27.880  26.284  1.00  0.00     0.031 A 
ATOM     55  C   UNL A   1      42.632  27.285  27.181  1.00  0.00     0.049 A 
ATOM     56  C   UNL A   1      48.099  26.740  26.103  1.00  0.00     0.074 A 
ATOM     57  C   UNL A   1      41.833  26.185  26.918  1.00  0.00     0.029 A 
ATOM     58  N   UNL A   1      43.930  26.922  26.859  1.00  0.00    -0.354 N 
ATOM     59  N   UNL A   1      46.801  26.722  26.292  1.00  0.00    -0.248 NA
ATOM     60  C   UNL A   1      48.658  25.461  25.641  1.00  0.00     0.031 C 
ATOM     61  C   UNL A   1      42.656  25.141  26.484  1.00  0.00     0.029 A 
ATOM     62  C   UNL A   1      43.958  25.610  26.417  1.00  0.00     0.049 A 
ATOM     63  H   UNL A   1      44.716  27.510  26.933  1.00  0.00     0.167 HD
ATOM     64  C   UNL A   1      46.386  25.440  25.947  1.00  0.00     0.074 A 
ATOM     65  C   UNL A   1      47.566  24.719  25.518  1.00  0.00     0.031 C 
ATOM     66  C   UNL A   1      45.140  24.907  25.987  1.00  0.00     0.031 A 
BRANCH  53  67
ATOM     67  C   UNL A   1      40.783  28.798  28.007  1.00  0.00    -0.014 A 
ATOM     68  C   UNL A   1      40.292  28.581  29.308  1.00  0.00     0.010 A 
ATOM     69  C   UNL A   1      39.912  29.293  27.021  1.00  0.00     0.010 A 
ATOM     70  C   UNL A   1      38.949  28.829  29.609  1.00  0.00     0.020 A 
ATOM     71  C   UNL A   1      38.574  29.568  27.325  1.00  0.00     0.020 A 
ATOM     72  C   UNL A   1      38.099  29.323  28.615  1.00  0.00     0.054 A 
BRANCH  72  73
ATOM     73  S   UNL A   1      36.374  29.676  29.048  1.00  0.00     0.124 S 
ATOM     74  O   UNL A   1      36.346  31.136  29.012  1.00  0.00    -0.237 OA
ATOM     75  O   UNL A   1      35.634  29.007  27.981  1.00  0.00    -0.237 OA
ATOM     76  O   UNL A   1      36.220  29.084  30.375  1.00  0.00    -0.744 OA
ENDBRANCH  72  73
ENDBRANCH  53  67
BRANCH  54  77
ATOM     77  C   UNL A   1      50.523  27.687  26.038  1.00  0.00    -0.014 A 
ATOM     78  C   UNL A   1      51.376  27.243  27.064  1.00  0.00     0.010 A 
ATOM     79  C   UNL A   1      51.069  27.967  24.771  1.00  0.00     0.010 A 
ATOM     80  C   UNL A   1      52.750  27.120  26.840  1.00  0.00     0.020 A 
ATOM     81  C   UNL A   1      52.437  27.813  24.534  1.00  0.00     0.020 A 
ATOM     82  C   UNL A   1      53.273  27.408  25.575  1.00  0.00     0.054 A 
BRANCH  82  83
ATOM     83  S   UNL A   1      55.057  27.226  25.302  1.00  0.00     0.124 S 
ATOM     84  O   UNL A   1      55.531  26.853  26.632  1.00  0.00    -0.237 OA
ATOM     85  O   UNL A   1      55.116  26.173  24.292  1.00  0.00    -0.237 OA
ATOM     86  O   UNL A   1      55.468  28.548  24.838  1.00  0.00    -0.744 OA
ENDBRANCH  82  83
ENDBRANCH  54  77
BRANCH  66  87
ATOM     87  C   UNL A   1      44.979  23.486  25.517  1.00  0.00    -0.014 A 
ATOM     88  C   UNL A   1      44.957  23.166  24.148  1.00  0.00     0.010 A 
ATOM     89  C   UNL A   1      44.907  22.447  26.465  1.00  0.00     0.010 A 
ATOM     90  C   UNL A   1      44.833  21.837  23.736  1.00  0.00     0.020 A 
ATOM     91  C   UNL A   1      44.813  21.115  26.055  1.00  0.00     0.020 A 
ATOM     92  C   UNL A   1      44.764  20.819  24.692  1.00  0.00     0.054 A 
BRANCH  92  93
ATOM     93  S   UNL A   1      44.653  19.098  24.128  1.00  0.00     0.124 S 
ATOM     94  O   UNL A   1      43.515  18.600  24.894  1.00  0.00    -0.237 OA
ATOM     95  O   UNL A   1      44.429  19.246  22.693  1.00  0.00    -0.237 OA
ATOM     96  O   UNL A   1      45.948  18.530  24.495  1.00  0.00    -0.744 OA
ENDBRANCH  92  93
ENDBRANCH  66  87
ENDBRANCH  40  41
ENDBRANCH  32  35
ENDBRANCH  30  31
ENDBRANCH  29  30
ENDBRANCH  28  29
ENDBRANCH  27  28
ENDBRANCH   1  27
TORSDOF 23
ENDMDL
MODEL 3
REMARK VINA RESULT:      -7.6      5.226     12.893
REMARK SMILES CCCCNC(=O)[C@@H](C)Oc1ccc(N)cc1C(=O)NCCCCCCNC(=O)c1ccc(-c2c3nc(c(-c4ccc(S(=O)(=O)[O-])cc4)c4ccc([nH]4)c(-c4ccc(S(=O)(=O)[O-])cc4)c4nc(c(-c5ccc(S(=O)(=O)[O-])cc5)c5ccc2[nH]5)C=C4)C=C3)cc1
REMARK SMILES IDX 22 1 21 2 20 3 18 4 19 5 17 7 11 8 12 9 13 10 16 11 14 12
REMARK SMILES IDX 10 13 8 14 9 15 6 16 5 17 7 19 4 20 3 21 2 22 1 23 15 24
REMARK SMILES IDX 23 27 24 28 25 29 26 30 27 31 28 32 29 34 30 35 31 36 89 37
REMARK SMILES IDX 32 38 88 39 33 40 34 41 35 42 82 43 36 44 87 45 81 46 83 47
REMARK SMILES IDX 37 48 86 49 80 50 79 51 38 53 68 54 49 55 67 56 50 57 53 58
REMARK SMILES IDX 66 59 84 60 51 61 52 62 65 64 85 65 54 66 39 67 40 68 48 69
REMARK SMILES IDX 41 70 47 71 42 72 43 73 44 74 45 75 46 76 69 77 70 78 78 79
REMARK SMILES IDX 71 80 77 81 72 82 73 83 74 84 75 85 76 86 55 87 56 88 64 89
REMARK SMILES IDX 57 90 63 91 58 92 59 93 60 94 61 95 62 96
REMARK H PARENT 20 6 5 18 15 25 15 26 27 33 83 52 53 63
REMARK Flexibility Score: inf
ROOT
ATOM      1  C   UNL A   1      39.057  34.219  32.827  1.00  0.00     0.021 C 
ENDROOT
BRANCH   1   2
ATOM      2  C   UNL A   1      37.724  34.235  32.097  1.00  0.00     0.116 C 
BRANCH   2   3
ATOM      3  N   UNL A   1      36.640  33.636  32.806  1.00  0.00    -0.352 N 
ATOM      4  C   UNL A   1      35.313  33.978  32.862  1.00  0.00     0.255 C 
ATOM      5  O   UNL A   1      34.666  33.323  33.690  1.00  0.00    -0.269 OA
ATOM      6  H   UNL A   1      36.885  32.847  33.343  1.00  0.00     0.163 HD
BRANCH   4   7
ATOM      7  C   UNL A   1      34.570  34.998  32.016  1.00  0.00     0.083 A 
ATOM      8  C   UNL A   1      33.721  34.848  30.902  1.00  0.00     0.133 A 
ATOM      9  C   UNL A   1      32.796  35.863  30.613  1.00  0.00     0.049 A 
ATOM     10  C   UNL A   1      32.888  37.122  31.209  1.00  0.00     0.029 A 
ATOM     11  C   UNL A   1      34.677  36.311  32.550  1.00  0.00     0.043 A 
ATOM     12  C   UNL A   1      33.911  37.389  32.100  1.00  0.00     0.032 A 
BRANCH   8  13
ATOM     13  O   UNL A   1      33.625  33.735  30.125  1.00  0.00    -0.480 OA
BRANCH  13  14
ATOM     14  C   UNL A   1      34.828  33.128  29.608  1.00  0.00     0.258 C 
ATOM     15  C   UNL A   1      35.804  34.044  28.833  1.00  0.00     0.064 C 
BRANCH  14  16
ATOM     16  C   UNL A   1      34.855  31.695  29.013  1.00  0.00     0.260 C 
ATOM     17  N   UNL A   1      35.530  30.675  29.622  1.00  0.00    -0.353 N 
ATOM     18  H   UNL A   1      35.232  29.766  29.390  1.00  0.00     0.163 HD
ATOM     19  O   UNL A   1      34.212  31.424  27.996  1.00  0.00    -0.271 OA
BRANCH  17  20
ATOM     20  C   UNL A   1      36.623  30.759  30.563  1.00  0.00     0.116 C 
BRANCH  20  21
ATOM     21  C   UNL A   1      37.912  30.112  30.091  1.00  0.00     0.021 C 
BRANCH  21  22
ATOM     22  C   UNL A   1      38.305  30.499  28.664  1.00  0.00    -0.002 C 
ATOM     23  C   UNL A   1      37.736  29.564  27.602  1.00  0.00     0.004 C 
ENDBRANCH  21  22
ENDBRANCH  20  21
ENDBRANCH  17  20
ENDBRANCH  14  16
ENDBRANCH  13  14
ENDBRANCH   8  13
BRANCH  12  24
ATOM     24  N   UNL A   1      34.064  38.649  32.655  1.00  0.00    -0.399 N 
ATOM     25  H   UNL A   1      34.963  38.984  32.873  1.00  0.00     0.156 HD
ATOM     26  H   UNL A   1      33.273  39.209  32.831  1.00  0.00     0.156 HD
ENDBRANCH  12  24
ENDBRANCH   4   7
ENDBRANCH   2   3
ENDBRANCH   1   2
BRANCH   1  27
ATOM     27  C   UNL A   1      40.223  33.642  32.043  1.00  0.00     0.002 C 
BRANCH  27  28
ATOM     28  C   UNL A   1      39.945  33.346  30.566  1.00  0.00     0.002 C 
BRANCH  28  29
ATOM     29  C   UNL A   1      40.054  34.525  29.591  1.00  0.00     0.021 C 
BRANCH  29  30
ATOM     30  C   UNL A   1      41.444  35.131  29.414  1.00  0.00     0.116 C 
BRANCH  30  31
ATOM     31  N   UNL A   1      41.552  35.940  28.212  1.00  0.00    -0.352 N 
ATOM     32  C   UNL A   1      42.493  35.924  27.221  1.00  0.00     0.251 C 
ATOM     33  H   UNL A   1      40.834  36.604  28.093  1.00  0.00     0.163 HD
ATOM     34  O   UNL A   1      42.492  36.819  26.371  1.00  0.00    -0.269 OA
BRANCH  32  35
ATOM     35  C   UNL A   1      43.516  34.862  27.168  1.00  0.00     0.039 A 
ATOM     36  C   UNL A   1      43.876  34.341  25.922  1.00  0.00     0.014 A 
ATOM     37  C   UNL A   1      44.103  34.358  28.333  1.00  0.00     0.014 A 
ATOM     38  C   UNL A   1      44.864  33.358  25.840  1.00  0.00     0.010 A 
ATOM     39  C   UNL A   1      45.135  33.425  28.244  1.00  0.00     0.010 A 
ATOM     40  C   UNL A   1      45.527  32.915  26.997  1.00  0.00    -0.014 A 
BRANCH  40  41
ATOM     41  C   UNL A   1      46.637  31.931  26.915  1.00  0.00     0.031 A 
ATOM     42  C   UNL A   1      46.349  30.454  26.972  1.00  0.00     0.074 A 
ATOM     43  C   UNL A   1      47.909  32.370  26.836  1.00  0.00     0.049 A 
ATOM     44  N   UNL A   1      47.190  29.452  26.980  1.00  0.00    -0.248 NA
ATOM     45  C   UNL A   1      44.935  30.052  27.051  1.00  0.00     0.031 C 
ATOM     46  C   UNL A   1      48.318  33.776  26.808  1.00  0.00     0.029 A 
ATOM     47  N   UNL A   1      49.094  31.680  26.776  1.00  0.00    -0.354 N 
ATOM     48  C   UNL A   1      46.411  28.304  27.067  1.00  0.00     0.074 A 
ATOM     49  C   UNL A   1      45.034  28.735  27.163  1.00  0.00     0.031 C 
ATOM     50  C   UNL A   1      49.658  33.843  26.721  1.00  0.00     0.029 A 
ATOM     51  C   UNL A   1      50.204  32.491  26.731  1.00  0.00     0.049 A 
ATOM     52  H   UNL A   1      49.145  30.697  26.766  1.00  0.00     0.167 HD
ATOM     53  C   UNL A   1      46.805  27.008  27.044  1.00  0.00     0.031 A 
ATOM     54  C   UNL A   1      51.515  32.183  26.717  1.00  0.00     0.031 A 
ATOM     55  C   UNL A   1      48.177  26.583  26.947  1.00  0.00     0.049 A 
ATOM     56  C   UNL A   1      51.927  30.735  26.725  1.00  0.00     0.074 A 
ATOM     57  C   UNL A   1      48.674  25.292  26.887  1.00  0.00     0.029 A 
ATOM     58  N   UNL A   1      49.270  27.434  26.892  1.00  0.00    -0.354 N 
ATOM     59  N   UNL A   1      51.171  29.663  26.753  1.00  0.00    -0.248 NA
ATOM     60  C   UNL A   1      53.369  30.454  26.687  1.00  0.00     0.031 C 
ATOM     61  C   UNL A   1      50.070  25.363  26.846  1.00  0.00     0.029 A 
ATOM     62  C   UNL A   1      50.440  26.698  26.818  1.00  0.00     0.049 A 
ATOM     63  H   UNL A   1      49.221  28.417  26.904  1.00  0.00     0.167 HD
ATOM     64  C   UNL A   1      52.045  28.582  26.708  1.00  0.00     0.074 A 
ATOM     65  C   UNL A   1      53.384  29.130  26.631  1.00  0.00     0.031 C 
ATOM     66  C   UNL A   1      51.765  27.256  26.734  1.00  0.00     0.031 A 
BRANCH  53  67
ATOM     67  C   UNL A   1      45.736  25.949  27.116  1.00  0.00    -0.014 A 
ATOM     68  C   UNL A   1      45.311  25.438  28.355  1.00  0.00     0.010 A 
ATOM     69  C   UNL A   1      45.102  25.508  25.940  1.00  0.00     0.010 A 
ATOM     70  C   UNL A   1      44.290  24.485  28.417  1.00  0.00     0.020 A 
ATOM     71  C   UNL A   1      44.061  24.574  26.000  1.00  0.00     0.020 A 
ATOM     72  C   UNL A   1      43.670  24.060  27.238  1.00  0.00     0.054 A 
BRANCH  72  73
ATOM     73  S   UNL A   1      42.320  22.856  27.355  1.00  0.00     0.124 S 
ATOM     74  O   UNL A   1      42.148  22.734  28.800  1.00  0.00    -0.237 OA
ATOM     75  O   UNL A   1      41.232  23.526  26.647  1.00  0.00    -0.237 OA
ATOM     76  O   UNL A   1      42.853  21.669  26.690  1.00  0.00    -0.744 OA
ENDBRANCH  72  73
ENDBRANCH  53  67
BRANCH  54  77
ATOM     77  C   UNL A   1      52.540  33.265  26.710  1.00  0.00    -0.014 A 
ATOM     78  C   UNL A   1      53.105  33.732  27.910  1.00  0.00     0.010 A 
ATOM     79  C   UNL A   1      52.943  33.848  25.494  1.00  0.00     0.010 A 
ATOM     80  C   UNL A   1      54.023  34.786  27.898  1.00  0.00     0.020 A 
ATOM     81  C   UNL A   1      53.886  34.879  25.475  1.00  0.00     0.020 A 
ATOM     82  C   UNL A   1      54.406  35.355  26.679  1.00  0.00     0.054 A 
BRANCH  82  83
ATOM     83  S   UNL A   1      55.612  36.710  26.686  1.00  0.00     0.124 S 
ATOM     84  O   UNL A   1      56.584  36.256  25.696  1.00  0.00    -0.237 OA
ATOM     85  O   UNL A   1      54.800  37.859  26.294  1.00  0.00    -0.237 OA
ATOM     86  O   UNL A   1      56.089  36.736  28.066  1.00  0.00    -0.744 OA
ENDBRANCH  82  83
ENDBRANCH  54  77
BRANCH  66  87
ATOM     87  C   UNL A   1      52.925  26.300  26.638  1.00  0.00    -0.014 A 
ATOM     88  C   UNL A   1      53.099  25.473  25.515  1.00  0.00     0.010 A 
ATOM     89  C   UNL A   1      53.886  26.272  27.666  1.00  0.00     0.010 A 
ATOM     90  C   UNL A   1      54.198  24.613  25.435  1.00  0.00     0.020 A 
ATOM     91  C   UNL A   1      55.000  25.435  27.576  1.00  0.00     0.020 A 
ATOM     92  C   UNL A   1      55.143  24.601  26.466  1.00  0.00     0.054 A 
BRANCH  92  93
ATOM     93  S   UNL A   1      56.584  23.510  26.314  1.00  0.00     0.124 S 
ATOM     94  O   UNL A   1      55.996  22.195  26.552  1.00  0.00    -0.237 OA
ATOM     95  O   UNL A   1      57.032  23.760  24.946  1.00  0.00    -0.237 OA
ATOM     96  O   UNL A   1      57.490  23.985  27.357  1.00  0.00    -0.744 OA
ENDBRANCH  92  93
ENDBRANCH  66  87
ENDBRANCH  40  41
ENDBRANCH  32  35
ENDBRANCH  30  31
ENDBRANCH  29  30
ENDBRANCH  28  29
ENDBRANCH  27  28
ENDBRANCH   1  27
TORSDOF 23
ENDMDL
