MODEL 1
REMARK VINA RESULT:     -12.3      0.000      0.000
REMARK SMILES O=C(NCCCCCCNC(=O)[C@H]1Cc2[nH]cnc2CN1C(=O)c1ccncc1Cl)c1ccc(-c2c3nc(c(-c4ccc(S(=O)(=O)[O-])cc4)c4ccc([nH]4)c(-c4ccc(S(=O)(=O)[O-])cc4)c4nc(c(-c5ccc(S(=O)(=O)[O-])cc5)c5ccc2[nH]5)C=C4)C=C3)cc1
REMARK SMILES IDX 6 1 5 2 4 3 3 4 1 5 2 6 31 8 32 9 90 10 33 11 89 12 34 13
REMARK SMILES IDX 35 14 36 15 83 16 37 17 88 18 82 19 84 20 38 21 87 22 81 23
REMARK SMILES IDX 80 24 39 26 69 27 50 28 68 29 51 30 54 31 67 32 85 33 52 34
REMARK SMILES IDX 53 35 66 37 86 38 55 39 40 40 41 41 49 42 42 43 48 44 43 45
REMARK SMILES IDX 44 46 45 47 46 48 47 49 70 50 71 51 79 52 72 53 78 54 73 55
REMARK SMILES IDX 74 56 75 57 76 58 77 59 56 60 57 61 65 62 58 63 64 64 59 65
REMARK SMILES IDX 60 66 61 67 62 68 63 69 7 70 8 71 9 72 10 73 11 74 12 76
REMARK SMILES IDX 13 77 14 78 21 79 15 80 20 81 16 82 19 83 17 84 18 86 22 87
REMARK SMILES IDX 23 88 24 89 25 90 29 91 26 92 28 93 30 94 27 95
REMARK H PARENT 3 7 84 25 54 36 10 75 16 85
REMARK Flexibility Score: inf
ROOT
ATOM      1  C   UNL A   1      31.782  27.533  26.774  1.00  0.00     0.002 C 
ENDROOT
BRANCH   1   2
ATOM      2  C   UNL A   1      33.266  27.810  26.513  1.00  0.00     0.021 C 
BRANCH   2   3
ATOM      3  C   UNL A   1      33.560  29.184  25.912  1.00  0.00     0.116 C 
BRANCH   3   4
ATOM      4  N   UNL A   1      33.417  30.283  26.841  1.00  0.00    -0.352 N 
ATOM      5  O   UNL A   1      33.829  31.931  28.254  1.00  0.00    -0.269 OA
ATOM      6  C   UNL A   1      34.288  30.972  27.644  1.00  0.00     0.251 C 
ATOM      7  H   UNL A   1      32.489  30.607  26.912  1.00  0.00     0.163 HD
BRANCH   6   8
ATOM      8  C   UNL A   1      35.712  30.586  27.857  1.00  0.00     0.039 A 
ATOM      9  C   UNL A   1      36.249  29.313  27.656  1.00  0.00     0.014 A 
ATOM     10  C   UNL A   1      36.560  31.610  28.313  1.00  0.00     0.014 A 
ATOM     11  C   UNL A   1      37.565  29.033  28.004  1.00  0.00     0.010 A 
ATOM     12  C   UNL A   1      37.887  31.346  28.625  1.00  0.00     0.010 A 
ATOM     13  C   UNL A   1      38.376  30.043  28.512  1.00  0.00    -0.014 A 
BRANCH  13  14
ATOM     14  C   UNL A   1      39.764  29.718  28.831  1.00  0.00     0.031 A 
ATOM     15  C   UNL A   1      40.137  29.741  30.280  1.00  0.00     0.074 A 
ATOM     16  C   UNL A   1      40.603  29.232  27.894  1.00  0.00     0.049 A 
ATOM     17  N   UNL A   1      41.158  30.294  30.857  1.00  0.00    -0.248 NA
ATOM     18  C   UNL A   1      39.204  29.091  31.219  1.00  0.00     0.031 C 
ATOM     19  C   UNL A   1      40.268  28.866  26.515  1.00  0.00     0.029 A 
ATOM     20  N   UNL A   1      41.889  28.803  28.029  1.00  0.00    -0.354 N 
ATOM     21  C   UNL A   1      41.093  29.918  32.200  1.00  0.00     0.074 A 
ATOM     22  C   UNL A   1      39.816  29.276  32.386  1.00  0.00     0.031 C 
ATOM     23  C   UNL A   1      41.220  28.037  26.038  1.00  0.00     0.029 A 
ATOM     24  C   UNL A   1      42.279  27.923  27.026  1.00  0.00     0.049 A 
ATOM     25  H   UNL A   1      42.483  29.088  28.760  1.00  0.00     0.167 HD
ATOM     26  C   UNL A   1      42.156  29.982  33.050  1.00  0.00     0.031 A 
ATOM     27  C   UNL A   1      43.329  27.068  27.056  1.00  0.00     0.031 A 
ATOM     28  C   UNL A   1      43.191  30.858  32.581  1.00  0.00     0.049 A 
ATOM     29  C   UNL A   1      44.262  27.527  28.110  1.00  0.00     0.074 A 
ATOM     30  C   UNL A   1      43.280  32.207  32.306  1.00  0.00     0.029 A 
ATOM     31  N   UNL A   1      44.313  30.289  32.030  1.00  0.00    -0.354 N 
ATOM     32  N   UNL A   1      44.926  28.647  28.056  1.00  0.00    -0.248 NA
ATOM     33  C   UNL A   1      44.174  26.921  29.430  1.00  0.00     0.031 C 
ATOM     34  C   UNL A   1      44.185  32.303  31.210  1.00  0.00     0.029 A 
ATOM     35  C   UNL A   1      44.609  31.009  30.902  1.00  0.00     0.049 A 
ATOM     36  H   UNL A   1      44.810  29.514  32.379  1.00  0.00     0.167 HD
ATOM     37  C   UNL A   1      44.991  29.091  29.368  1.00  0.00     0.074 A 
ATOM     38  C   UNL A   1      44.618  27.935  30.176  1.00  0.00     0.031 C 
ATOM     39  C   UNL A   1      45.075  30.424  29.663  1.00  0.00     0.031 A 
BRANCH  26  40
ATOM     40  C   UNL A   1      42.401  28.969  34.144  1.00  0.00    -0.014 A 
ATOM     41  C   UNL A   1      42.927  27.702  33.814  1.00  0.00     0.010 A 
ATOM     42  C   UNL A   1      41.857  29.116  35.439  1.00  0.00     0.010 A 
ATOM     43  C   UNL A   1      42.835  26.621  34.704  1.00  0.00     0.020 A 
ATOM     44  C   UNL A   1      41.803  28.059  36.349  1.00  0.00     0.020 A 
ATOM     45  C   UNL A   1      42.251  26.805  35.958  1.00  0.00     0.054 A 
BRANCH  45  46
ATOM     46  S   UNL A   1      41.986  25.375  37.035  1.00  0.00     0.124 S 
ATOM     47  O   UNL A   1      40.860  25.821  37.851  1.00  0.00    -0.237 OA
ATOM     48  O   UNL A   1      41.693  24.312  36.078  1.00  0.00    -0.237 OA
ATOM     49  O   UNL A   1      43.258  25.238  37.742  1.00  0.00    -0.744 OA
ENDBRANCH  45  46
ENDBRANCH  26  40
BRANCH  27  50
ATOM     50  C   UNL A   1      43.364  25.701  26.476  1.00  0.00    -0.014 A 
ATOM     51  C   UNL A   1      43.969  25.448  25.235  1.00  0.00     0.010 A 
ATOM     52  C   UNL A   1      43.008  24.591  27.272  1.00  0.00     0.010 A 
ATOM     53  C   UNL A   1      44.239  24.132  24.821  1.00  0.00     0.020 A 
ATOM     54  C   UNL A   1      43.260  23.279  26.862  1.00  0.00     0.020 A 
ATOM     55  C   UNL A   1      43.893  23.055  25.644  1.00  0.00     0.054 A 
BRANCH  55  56
ATOM     56  S   UNL A   1      44.376  21.370  25.171  1.00  0.00     0.124 S 
ATOM     57  O   UNL A   1      43.341  20.560  25.808  1.00  0.00    -0.237 OA
ATOM     58  O   UNL A   1      44.330  21.425  23.713  1.00  0.00    -0.237 OA
ATOM     59  O   UNL A   1      45.716  21.223  25.741  1.00  0.00    -0.744 OA
ENDBRANCH  55  56
ENDBRANCH  27  50
BRANCH  39  60
ATOM     60  C   UNL A   1      45.371  31.392  28.539  1.00  0.00    -0.014 A 
ATOM     61  C   UNL A   1      44.365  31.914  27.702  1.00  0.00     0.010 A 
ATOM     62  C   UNL A   1      46.666  31.929  28.445  1.00  0.00     0.010 A 
ATOM     63  C   UNL A   1      44.651  32.937  26.788  1.00  0.00     0.020 A 
ATOM     64  C   UNL A   1      46.954  32.961  27.546  1.00  0.00     0.020 A 
ATOM     65  C   UNL A   1      45.944  33.459  26.720  1.00  0.00     0.054 A 
BRANCH  65  66
ATOM     66  S   UNL A   1      46.281  34.848  25.600  1.00  0.00     0.124 S 
ATOM     67  O   UNL A   1      45.377  34.584  24.485  1.00  0.00    -0.237 OA
ATOM     68  O   UNL A   1      45.948  36.014  26.417  1.00  0.00    -0.237 OA
ATOM     69  O   UNL A   1      47.704  34.709  25.291  1.00  0.00    -0.744 OA
ENDBRANCH  65  66
ENDBRANCH  39  60
ENDBRANCH  13  14
ENDBRANCH   6   8
ENDBRANCH   3   4
ENDBRANCH   2   3
ENDBRANCH   1   2
BRANCH   1  70
ATOM     70  C   UNL A   1      31.040  26.805  25.649  1.00  0.00     0.002 C 
BRANCH  70  71
ATOM     71  C   UNL A   1      30.838  25.299  25.860  1.00  0.00     0.021 C 
BRANCH  71  72
ATOM     72  C   UNL A   1      32.121  24.474  25.822  1.00  0.00     0.116 C 
BRANCH  72  73
ATOM     73  N   UNL A   1      32.877  24.680  24.597  1.00  0.00    -0.354 N 
ATOM     74  C   UNL A   1      33.624  23.802  23.863  1.00  0.00     0.243 C 
ATOM     75  H   UNL A   1      32.846  25.597  24.242  1.00  0.00     0.163 HD
ATOM     76  O   UNL A   1      33.974  24.155  22.737  1.00  0.00    -0.273 OA
BRANCH  74  77
ATOM     77  C   UNL A   1      33.906  22.393  24.415  1.00  0.00     0.181 C 
ATOM     78  C   UNL A   1      32.804  21.541  23.696  1.00  0.00     0.091 C 
ATOM     79  N   UNL A   1      35.254  21.709  24.323  1.00  0.00    -0.320 N 
ATOM     80  C   UNL A   1      32.961  20.126  24.073  1.00  0.00     0.042 A 
ATOM     81  C   UNL A   1      35.321  20.356  24.945  1.00  0.00     0.178 C 
ATOM     82  N   UNL A   1      32.081  19.100  23.908  1.00  0.00    -0.348 N 
ATOM     83  C   UNL A   1      34.090  19.580  24.628  1.00  0.00     0.081 A 
ATOM     84  C   UNL A   1      32.698  17.980  24.404  1.00  0.00     0.197 A 
ATOM     85  H   UNL A   1      31.182  19.152  23.511  1.00  0.00     0.167 HD
ATOM     86  N   UNL A   1      33.908  18.241  24.854  1.00  0.00    -0.240 NA
BRANCH  79  87
ATOM     87  C   UNL A   1      36.499  22.269  24.048  1.00  0.00     0.256 C 
ATOM     88  O   UNL A   1      36.840  22.647  22.927  1.00  0.00    -0.269 OA
BRANCH  87  89
ATOM     89  C   UNL A   1      37.477  22.526  25.104  1.00  0.00     0.061 A 
ATOM     90  C   UNL A   1      37.523  23.818  25.638  1.00  0.00     0.035 A 
ATOM     91  C   UNL A   1      38.402  21.565  25.497  1.00  0.00     0.072 A 
ATOM     92  C   UNL A   1      38.475  24.080  26.606  1.00  0.00     0.112 A 
ATOM     93  C   UNL A   1      39.314  21.935  26.472  1.00  0.00     0.132 A 
ATOM     94  Cl  UNL A   1      38.446  19.977  24.839  1.00  0.00    -0.082 Cl
ATOM     95  N   UNL A   1      39.378  23.169  27.032  1.00  0.00    -0.263 NA
ENDBRANCH  87  89
ENDBRANCH  79  87
ENDBRANCH  74  77
ENDBRANCH  72  73
ENDBRANCH  71  72
ENDBRANCH  70  71
ENDBRANCH   1  70
TORSDOF 18
ENDMDL
MODEL 2
REMARK VINA RESULT:     -12.2      2.332      9.070
REMARK SMILES O=C(NCCCCCCNC(=O)[C@H]1Cc2[nH]cnc2CN1C(=O)c1ccncc1Cl)c1ccc(-c2c3nc(c(-c4ccc(S(=O)(=O)[O-])cc4)c4ccc([nH]4)c(-c4ccc(S(=O)(=O)[O-])cc4)c4nc(c(-c5ccc(S(=O)(=O)[O-])cc5)c5ccc2[nH]5)C=C4)C=C3)cc1
REMARK SMILES IDX 6 1 5 2 4 3 3 4 1 5 2 6 31 8 32 9 90 10 33 11 89 12 34 13
REMARK SMILES IDX 35 14 36 15 83 16 37 17 88 18 82 19 84 20 38 21 87 22 81 23
REMARK SMILES IDX 80 24 39 26 69 27 50 28 68 29 51 30 54 31 67 32 85 33 52 34
REMARK SMILES IDX 53 35 66 37 86 38 55 39 40 40 41 41 49 42 42 43 48 44 43 45
REMARK SMILES IDX 44 46 45 47 46 48 47 49 70 50 71 51 79 52 72 53 78 54 73 55
REMARK SMILES IDX 74 56 75 57 76 58 77 59 56 60 57 61 65 62 58 63 64 64 59 65
REMARK SMILES IDX 60 66 61 67 62 68 63 69 7 70 8 71 9 72 10 73 11 74 12 76
REMARK SMILES IDX 13 77 14 78 21 79 15 80 20 81 16 82 19 83 17 84 18 86 22 87
REMARK SMILES IDX 23 88 24 89 25 90 29 91 26 92 28 93 30 94 27 95
REMARK H PARENT 3 7 84 25 54 36 10 75 16 85
REMARK Flexibility Score: inf
ROOT
ATOM      1  C   UNL A   1      39.647  21.385  25.960  1.00  0.00     0.002 C 
ENDROOT
BRANCH   1   2
ATOM      2  C   UNL A   1      40.583  20.298  26.499  1.00  0.00     0.021 C 
BRANCH   2   3
ATOM      3  C   UNL A   1      42.047  20.722  26.614  1.00  0.00     0.116 C 
BRANCH   3   4
ATOM      4  N   UNL A   1      42.584  21.337  25.421  1.00  0.00    -0.352 N 
ATOM      5  O   UNL A   1      43.466  22.771  23.989  1.00  0.00    -0.269 OA
ATOM      6  C   UNL A   1      42.953  22.615  25.091  1.00  0.00     0.251 C 
ATOM      7  H   UNL A   1      42.713  20.697  24.684  1.00  0.00     0.163 HD
BRANCH   6   8
ATOM      8  C   UNL A   1      42.709  23.804  25.956  1.00  0.00     0.039 A 
ATOM      9  C   UNL A   1      42.035  24.966  25.573  1.00  0.00     0.014 A 
ATOM     10  C   UNL A   1      43.227  23.726  27.261  1.00  0.00     0.014 A 
ATOM     11  C   UNL A   1      41.972  26.064  26.422  1.00  0.00     0.010 A 
ATOM     12  C   UNL A   1      43.132  24.806  28.128  1.00  0.00     0.010 A 
ATOM     13  C   UNL A   1      42.543  25.993  27.689  1.00  0.00    -0.014 A 
BRANCH  13  14
ATOM     14  C   UNL A   1      42.422  27.156  28.566  1.00  0.00     0.031 A 
ATOM     15  C   UNL A   1      43.552  28.137  28.528  1.00  0.00     0.074 A 
ATOM     16  C   UNL A   1      41.274  27.428  29.216  1.00  0.00     0.049 A 
ATOM     17  N   UNL A   1      44.197  28.685  29.510  1.00  0.00    -0.248 NA
ATOM     18  C   UNL A   1      44.060  28.517  27.197  1.00  0.00     0.031 C 
ATOM     19  C   UNL A   1      39.997  26.719  29.085  1.00  0.00     0.029 A 
ATOM     20  N   UNL A   1      40.959  28.498  29.999  1.00  0.00    -0.354 N 
ATOM     21  C   UNL A   1      45.071  29.608  28.931  1.00  0.00     0.074 A 
ATOM     22  C   UNL A   1      45.024  29.381  27.509  1.00  0.00     0.031 C 
ATOM     23  C   UNL A   1      39.005  27.516  29.533  1.00  0.00     0.029 A 
ATOM     24  C   UNL A   1      39.591  28.723  30.091  1.00  0.00     0.049 A 
ATOM     25  H   UNL A   1      41.632  29.053  30.455  1.00  0.00     0.167 HD
ATOM     26  C   UNL A   1      45.647  30.631  29.621  1.00  0.00     0.031 A 
ATOM     27  C   UNL A   1      38.979  29.867  30.482  1.00  0.00     0.031 A 
ATOM     28  C   UNL A   1      45.634  30.423  31.040  1.00  0.00     0.049 A 
ATOM     29  C   UNL A   1      39.965  30.682  31.227  1.00  0.00     0.074 A 
ATOM     30  C   UNL A   1      46.179  29.488  31.896  1.00  0.00     0.029 A 
ATOM     31  N   UNL A   1      44.709  31.115  31.783  1.00  0.00    -0.354 N 
ATOM     32  N   UNL A   1      40.478  30.335  32.374  1.00  0.00    -0.248 NA
ATOM     33  C   UNL A   1      40.690  31.721  30.513  1.00  0.00     0.031 C 
ATOM     34  C   UNL A   1      45.228  29.350  32.949  1.00  0.00     0.029 A 
ATOM     35  C   UNL A   1      44.175  30.227  32.680  1.00  0.00     0.049 A 
ATOM     36  H   UNL A   1      44.475  32.067  31.689  1.00  0.00     0.167 HD
ATOM     37  C   UNL A   1      41.782  30.805  32.343  1.00  0.00     0.074 A 
ATOM     38  C   UNL A   1      41.816  31.748  31.230  1.00  0.00     0.031 C 
ATOM     39  C   UNL A   1      42.776  30.186  33.048  1.00  0.00     0.031 A 
BRANCH  26  40
ATOM     40  C   UNL A   1      45.911  31.991  29.015  1.00  0.00    -0.014 A 
ATOM     41  C   UNL A   1      44.824  32.828  28.687  1.00  0.00     0.010 A 
ATOM     42  C   UNL A   1      47.172  32.347  28.490  1.00  0.00     0.010 A 
ATOM     43  C   UNL A   1      44.980  33.914  27.811  1.00  0.00     0.020 A 
ATOM     44  C   UNL A   1      47.347  33.451  27.655  1.00  0.00     0.020 A 
ATOM     45  C   UNL A   1      46.239  34.201  27.284  1.00  0.00     0.054 A 
BRANCH  45  46
ATOM     46  S   UNL A   1      46.405  35.496  26.029  1.00  0.00     0.124 S 
ATOM     47  O   UNL A   1      45.445  36.490  26.499  1.00  0.00    -0.237 OA
ATOM     48  O   UNL A   1      47.812  35.868  26.147  1.00  0.00    -0.237 OA
ATOM     49  O   UNL A   1      46.047  34.816  24.786  1.00  0.00    -0.744 OA
ENDBRANCH  45  46
ENDBRANCH  26  40
BRANCH  27  50
ATOM     50  C   UNL A   1      37.719  30.421  29.925  1.00  0.00    -0.014 A 
ATOM     51  C   UNL A   1      36.655  30.802  30.759  1.00  0.00     0.010 A 
ATOM     52  C   UNL A   1      37.659  30.805  28.568  1.00  0.00     0.010 A 
ATOM     53  C   UNL A   1      35.587  31.567  30.259  1.00  0.00     0.020 A 
ATOM     54  C   UNL A   1      36.594  31.555  28.060  1.00  0.00     0.020 A 
ATOM     55  C   UNL A   1      35.571  31.950  28.914  1.00  0.00     0.054 A 
BRANCH  55  56
ATOM     56  S   UNL A   1      34.267  33.061  28.311  1.00  0.00     0.124 S 
ATOM     57  O   UNL A   1      35.016  33.991  27.471  1.00  0.00    -0.237 OA
ATOM     58  O   UNL A   1      33.374  32.147  27.605  1.00  0.00    -0.237 OA
ATOM     59  O   UNL A   1      33.714  33.640  29.536  1.00  0.00    -0.744 OA
ENDBRANCH  55  56
ENDBRANCH  27  50
BRANCH  39  60
ATOM     60  C   UNL A   1      42.389  29.146  34.076  1.00  0.00    -0.014 A 
ATOM     61  C   UNL A   1      42.059  27.821  33.729  1.00  0.00     0.010 A 
ATOM     62  C   UNL A   1      42.542  29.463  35.436  1.00  0.00     0.010 A 
ATOM     63  C   UNL A   1      41.875  26.844  34.716  1.00  0.00     0.020 A 
ATOM     64  C   UNL A   1      42.376  28.489  36.426  1.00  0.00     0.020 A 
ATOM     65  C   UNL A   1      42.042  27.183  36.061  1.00  0.00     0.054 A 
BRANCH  65  66
ATOM     66  S   UNL A   1      41.895  25.889  37.326  1.00  0.00     0.124 S 
ATOM     67  O   UNL A   1      40.492  25.984  37.718  1.00  0.00    -0.237 OA
ATOM     68  O   UNL A   1      42.263  24.677  36.595  1.00  0.00    -0.237 OA
ATOM     69  O   UNL A   1      42.855  26.295  38.352  1.00  0.00    -0.744 OA
ENDBRANCH  65  66
ENDBRANCH  39  60
ENDBRANCH  13  14
ENDBRANCH   6   8
ENDBRANCH   3   4
ENDBRANCH   2   3
ENDBRANCH   1   2
BRANCH   1  70
ATOM     70  C   UNL A   1      39.480  22.615  26.858  1.00  0.00     0.002 C 
BRANCH  70  71
ATOM     71  C   UNL A   1      38.568  23.717  26.302  1.00  0.00     0.021 C 
BRANCH  71  72
ATOM     72  C   UNL A   1      37.247  23.218  25.725  1.00  0.00     0.116 C 
BRANCH  72  73
ATOM     73  N   UNL A   1      36.123  23.474  26.610  1.00  0.00    -0.354 N 
ATOM     74  C   UNL A   1      34.943  22.800  26.757  1.00  0.00     0.243 C 
ATOM     75  H   UNL A   1      36.228  24.259  27.195  1.00  0.00     0.163 HD
ATOM     76  O   UNL A   1      34.251  23.069  27.738  1.00  0.00    -0.273 OA
BRANCH  74  77
ATOM     77  C   UNL A   1      34.580  21.675  25.771  1.00  0.00     0.181 C 
ATOM     78  C   UNL A   1      33.711  20.729  26.669  1.00  0.00     0.091 C 
ATOM     79  N   UNL A   1      33.903  21.912  24.437  1.00  0.00    -0.320 N 
ATOM     80  C   UNL A   1      33.222  19.601  25.858  1.00  0.00     0.042 A 
ATOM     81  C   UNL A   1      33.664  20.689  23.621  1.00  0.00     0.178 C 
ATOM     82  N   UNL A   1      32.677  18.426  26.277  1.00  0.00    -0.348 N 
ATOM     83  C   UNL A   1      33.189  19.575  24.488  1.00  0.00     0.081 A 
ATOM     84  C   UNL A   1      32.368  17.719  25.144  1.00  0.00     0.197 A 
ATOM     85  H   UNL A   1      32.531  18.142  27.208  1.00  0.00     0.167 HD
ATOM     86  N   UNL A   1      32.675  18.383  24.049  1.00  0.00    -0.240 NA
BRANCH  79  87
ATOM     87  C   UNL A   1      33.772  23.103  23.725  1.00  0.00     0.256 C 
ATOM     88  O   UNL A   1      34.584  23.479  22.880  1.00  0.00    -0.269 OA
BRANCH  87  89
ATOM     89  C   UNL A   1      32.602  23.965  23.877  1.00  0.00     0.061 A 
ATOM     90  C   UNL A   1      31.406  23.537  23.292  1.00  0.00     0.035 A 
ATOM     91  C   UNL A   1      32.684  25.214  24.484  1.00  0.00     0.072 A 
ATOM     92  C   UNL A   1      30.306  24.368  23.394  1.00  0.00     0.112 A 
ATOM     93  C   UNL A   1      31.522  25.968  24.528  1.00  0.00     0.132 A 
ATOM     94  Cl  UNL A   1      34.135  25.833  25.168  1.00  0.00    -0.082 Cl
ATOM     95  N   UNL A   1      30.337  25.579  23.993  1.00  0.00    -0.263 NA
ENDBRANCH  87  89
ENDBRANCH  79  87
ENDBRANCH  74  77
ENDBRANCH  72  73
ENDBRANCH  71  72
ENDBRANCH  70  71
ENDBRANCH   1  70
TORSDOF 18
ENDMDL
MODEL 3
REMARK VINA RESULT:     -12.1      1.147      2.842
REMARK SMILES O=C(NCCCCCCNC(=O)[C@H]1Cc2[nH]cnc2CN1C(=O)c1ccncc1Cl)c1ccc(-c2c3nc(c(-c4ccc(S(=O)(=O)[O-])cc4)c4ccc([nH]4)c(-c4ccc(S(=O)(=O)[O-])cc4)c4nc(c(-c5ccc(S(=O)(=O)[O-])cc5)c5ccc2[nH]5)C=C4)C=C3)cc1
REMARK SMILES IDX 6 1 5 2 4 3 3 4 1 5 2 6 31 8 32 9 90 10 33 11 89 12 34 13
REMARK SMILES IDX 35 14 36 15 83 16 37 17 88 18 82 19 84 20 38 21 87 22 81 23
REMARK SMILES IDX 80 24 39 26 69 27 50 28 68 29 51 30 54 31 67 32 85 33 52 34
REMARK SMILES IDX 53 35 66 37 86 38 55 39 40 40 41 41 49 42 42 43 48 44 43 45
REMARK SMILES IDX 44 46 45 47 46 48 47 49 70 50 71 51 79 52 72 53 78 54 73 55
REMARK SMILES IDX 74 56 75 57 76 58 77 59 56 60 57 61 65 62 58 63 64 64 59 65
REMARK SMILES IDX 60 66 61 67 62 68 63 69 7 70 8 71 9 72 10 73 11 74 12 76
REMARK SMILES IDX 13 77 14 78 21 79 15 80 20 81 16 82 19 83 17 84 18 86 22 87
REMARK SMILES IDX 23 88 24 89 25 90 29 91 26 92 28 93 30 94 27 95
REMARK H PARENT 3 7 84 25 54 36 10 75 16 85
REMARK Flexibility Score: inf
ROOT
ATOM      1  C   UNL A   1      31.765  27.713  26.715  1.00  0.00     0.002 C 
ENDROOT
BRANCH   1   2
ATOM      2  C   UNL A   1      33.288  27.751  26.549  1.00  0.00     0.021 C 
BRANCH   2   3
ATOM      3  C   UNL A   1      33.823  29.018  25.883  1.00  0.00     0.116 C 
BRANCH   3   4
ATOM      4  N   UNL A   1      33.532  30.237  26.603  1.00  0.00    -0.352 N 
ATOM      5  O   UNL A   1      33.715  32.097  27.782  1.00  0.00    -0.269 OA
ATOM      6  C   UNL A   1      34.273  31.078  27.392  1.00  0.00     0.251 C 
ATOM      7  H   UNL A   1      32.596  30.528  26.504  1.00  0.00     0.163 HD
BRANCH   6   8
ATOM      8  C   UNL A   1      35.664  30.791  27.842  1.00  0.00     0.039 A 
ATOM      9  C   UNL A   1      36.556  31.723  28.379  1.00  0.00     0.014 A 
ATOM     10  C   UNL A   1      36.093  29.461  27.687  1.00  0.00     0.014 A 
ATOM     11  C   UNL A   1      37.873  31.372  28.650  1.00  0.00     0.010 A 
ATOM     12  C   UNL A   1      37.397  29.095  27.995  1.00  0.00     0.010 A 
ATOM     13  C   UNL A   1      38.300  30.065  28.434  1.00  0.00    -0.014 A 
BRANCH  13  14
ATOM     14  C   UNL A   1      39.681  29.728  28.768  1.00  0.00     0.031 A 
ATOM     15  C   UNL A   1      40.034  29.731  30.222  1.00  0.00     0.074 A 
ATOM     16  C   UNL A   1      40.531  29.248  27.837  1.00  0.00     0.049 A 
ATOM     17  N   UNL A   1      41.050  30.271  30.820  1.00  0.00    -0.248 NA
ATOM     18  C   UNL A   1      39.085  29.076  31.140  1.00  0.00     0.031 C 
ATOM     19  C   UNL A   1      40.213  28.900  26.449  1.00  0.00     0.029 A 
ATOM     20  N   UNL A   1      41.813  28.809  27.985  1.00  0.00    -0.354 N 
ATOM     21  C   UNL A   1      40.964  29.880  32.158  1.00  0.00     0.074 A 
ATOM     22  C   UNL A   1      39.681  29.243  32.318  1.00  0.00     0.031 C 
ATOM     23  C   UNL A   1      41.166  28.071  25.975  1.00  0.00     0.029 A 
ATOM     24  C   UNL A   1      42.210  27.938  26.977  1.00  0.00     0.049 A 
ATOM     25  H   UNL A   1      42.397  29.082  28.727  1.00  0.00     0.167 HD
ATOM     26  C   UNL A   1      42.016  29.927  33.022  1.00  0.00     0.031 A 
ATOM     27  C   UNL A   1      43.255  27.077  27.012  1.00  0.00     0.031 A 
ATOM     28  C   UNL A   1      43.062  30.803  32.579  1.00  0.00     0.049 A 
ATOM     29  C   UNL A   1      44.177  27.518  28.084  1.00  0.00     0.074 A 
ATOM     30  C   UNL A   1      43.163  32.155  32.321  1.00  0.00     0.029 A 
ATOM     31  N   UNL A   1      44.189  30.234  32.036  1.00  0.00    -0.354 N 
ATOM     32  N   UNL A   1      44.847  28.635  28.053  1.00  0.00    -0.248 NA
ATOM     33  C   UNL A   1      44.067  26.897  29.395  1.00  0.00     0.031 C 
ATOM     34  C   UNL A   1      44.084  32.258  31.239  1.00  0.00     0.029 A 
ATOM     35  C   UNL A   1      44.505  30.965  30.921  1.00  0.00     0.049 A 
ATOM     36  H   UNL A   1      44.676  29.452  32.383  1.00  0.00     0.167 HD
ATOM     37  C   UNL A   1      44.896  29.063  29.370  1.00  0.00     0.074 A 
ATOM     38  C   UNL A   1      44.506  27.900  30.160  1.00  0.00     0.031 C 
ATOM     39  C   UNL A   1      44.985  30.391  29.682  1.00  0.00     0.031 A 
BRANCH  26  40
ATOM     40  C   UNL A   1      42.239  28.900  34.108  1.00  0.00    -0.014 A 
ATOM     41  C   UNL A   1      42.666  27.601  33.759  1.00  0.00     0.010 A 
ATOM     42  C   UNL A   1      41.763  29.083  35.424  1.00  0.00     0.010 A 
ATOM     43  C   UNL A   1      42.540  26.528  34.655  1.00  0.00     0.020 A 
ATOM     44  C   UNL A   1      41.677  28.032  36.339  1.00  0.00     0.020 A 
ATOM     45  C   UNL A   1      42.024  26.751  35.932  1.00  0.00     0.054 A 
BRANCH  45  46
ATOM     46  S   UNL A   1      41.710  25.341  37.024  1.00  0.00     0.124 S 
ATOM     47  O   UNL A   1      42.941  25.293  37.809  1.00  0.00    -0.237 OA
ATOM     48  O   UNL A   1      40.514  25.764  37.745  1.00  0.00    -0.237 OA
ATOM     49  O   UNL A   1      41.513  24.228  36.097  1.00  0.00    -0.744 OA
ENDBRANCH  45  46
ENDBRANCH  26  40
BRANCH  27  50
ATOM     50  C   UNL A   1      43.290  25.717  26.416  1.00  0.00    -0.014 A 
ATOM     51  C   UNL A   1      43.872  25.483  25.160  1.00  0.00     0.010 A 
ATOM     52  C   UNL A   1      42.961  24.595  27.207  1.00  0.00     0.010 A 
ATOM     53  C   UNL A   1      44.144  24.174  24.725  1.00  0.00     0.020 A 
ATOM     54  C   UNL A   1      43.216  23.290  26.777  1.00  0.00     0.020 A 
ATOM     55  C   UNL A   1      43.826  23.086  25.544  1.00  0.00     0.054 A 
BRANCH  55  56
ATOM     56  S   UNL A   1      44.314  21.410  25.043  1.00  0.00     0.124 S 
ATOM     57  O   UNL A   1      44.463  21.550  23.597  1.00  0.00    -0.237 OA
ATOM     58  O   UNL A   1      45.550  21.203  25.790  1.00  0.00    -0.237 OA
ATOM     59  O   UNL A   1      43.188  20.580  25.471  1.00  0.00    -0.744 OA
ENDBRANCH  55  56
ENDBRANCH  27  50
BRANCH  39  60
ATOM     60  C   UNL A   1      45.301  31.371  28.574  1.00  0.00    -0.014 A 
ATOM     61  C   UNL A   1      44.337  31.802  27.642  1.00  0.00     0.010 A 
ATOM     62  C   UNL A   1      46.552  32.012  28.588  1.00  0.00     0.010 A 
ATOM     63  C   UNL A   1      44.621  32.836  26.741  1.00  0.00     0.020 A 
ATOM     64  C   UNL A   1      46.836  33.057  27.703  1.00  0.00     0.020 A 
ATOM     65  C   UNL A   1      45.868  33.463  26.781  1.00  0.00     0.054 A 
BRANCH  65  66
ATOM     66  S   UNL A   1      46.192  34.865  25.674  1.00  0.00     0.124 S 
ATOM     67  O   UNL A   1      45.447  34.501  24.473  1.00  0.00    -0.237 OA
ATOM     68  O   UNL A   1      45.659  36.002  26.424  1.00  0.00    -0.237 OA
ATOM     69  O   UNL A   1      47.647  34.863  25.525  1.00  0.00    -0.744 OA
ENDBRANCH  65  66
ENDBRANCH  39  60
ENDBRANCH  13  14
ENDBRANCH   6   8
ENDBRANCH   3   4
ENDBRANCH   2   3
ENDBRANCH   1   2
BRANCH   1  70
ATOM     70  C   UNL A   1      30.961  27.695  25.412  1.00  0.00     0.002 C 
BRANCH  70  71
ATOM     71  C   UNL A   1      31.605  26.925  24.251  1.00  0.00     0.021 C 
BRANCH  71  72
ATOM     72  C   UNL A   1      31.132  25.483  24.104  1.00  0.00     0.116 C 
BRANCH  72  73
ATOM     73  N   UNL A   1      31.072  24.786  25.379  1.00  0.00    -0.354 N 
ATOM     74  C   UNL A   1      32.021  24.048  26.028  1.00  0.00     0.243 C 
ATOM     75  H   UNL A   1      30.210  24.857  25.848  1.00  0.00     0.163 HD
ATOM     76  O   UNL A   1      31.811  23.756  27.205  1.00  0.00    -0.273 OA
BRANCH  74  77
ATOM     77  C   UNL A   1      33.340  23.704  25.313  1.00  0.00     0.181 C 
ATOM     78  C   UNL A   1      34.359  23.698  26.504  1.00  0.00     0.091 C 
ATOM     79  N   UNL A   1      33.531  22.479  24.443  1.00  0.00    -0.320 N 
ATOM     80  C   UNL A   1      35.693  23.327  26.002  1.00  0.00     0.042 A 
ATOM     81  C   UNL A   1      34.878  22.347  23.820  1.00  0.00     0.178 C 
ATOM     82  N   UNL A   1      36.900  23.460  26.617  1.00  0.00    -0.348 N 
ATOM     83  C   UNL A   1      35.938  22.712  24.800  1.00  0.00     0.081 A 
ATOM     84  C   UNL A   1      37.833  22.954  25.748  1.00  0.00     0.197 A 
ATOM     85  H   UNL A   1      37.069  23.842  27.508  1.00  0.00     0.167 HD
ATOM     86  N   UNL A   1      37.282  22.504  24.639  1.00  0.00    -0.240 NA
BRANCH  79  87
ATOM     87  C   UNL A   1      32.562  21.651  23.879  1.00  0.00     0.256 C 
ATOM     88  O   UNL A   1      31.613  22.071  23.217  1.00  0.00    -0.269 OA
BRANCH  87  89
ATOM     89  C   UNL A   1      32.649  20.194  23.969  1.00  0.00     0.061 A 
ATOM     90  C   UNL A   1      32.355  19.460  22.816  1.00  0.00     0.035 A 
ATOM     91  C   UNL A   1      32.907  19.548  25.172  1.00  0.00     0.072 A 
ATOM     92  C   UNL A   1      32.392  18.081  22.905  1.00  0.00     0.112 A 
ATOM     93  C   UNL A   1      32.917  18.162  25.150  1.00  0.00     0.132 A 
ATOM     94  Cl  UNL A   1      33.214  20.384  26.643  1.00  0.00    -0.082 Cl
ATOM     95  N   UNL A   1      32.661  17.412  24.049  1.00  0.00    -0.263 NA
ENDBRANCH  87  89
ENDBRANCH  79  87
ENDBRANCH  74  77
ENDBRANCH  72  73
ENDBRANCH  71  72
ENDBRANCH  70  71
ENDBRANCH   1  70
TORSDOF 18
ENDMDL
