MODEL 1
REMARK VINA RESULT:      -8.0      0.000      0.000
REMARK SMILES O=C(COc1ccccc1/C=C1/SC(=O)N(c2ccc(F)cc2)C1=O)NCCCCCCNC(=O)c1ccc(-c2c3nc(c(-c4ccc(S(=O)(=O)[O-])cc4)c4ccc([nH]4)c(-c4ccc(S(=O)(=O)[O-])cc4)c4nc(c(-c5ccc(S(=O)(=O)[O-])cc5)c5ccc2[nH]5)C=C4)C=C3)cc1
REMARK SMILES IDX 29 1 28 2 27 3 26 4 1 5 2 6 3 8 4 9 5 10 6 11 10 12 7 13
REMARK SMILES IDX 9 14 8 15 11 16 12 17 13 18 24 19 14 20 16 21 25 22 15 23
REMARK SMILES IDX 17 24 18 25 23 26 19 27 22 28 20 29 21 30 30 31 31 32 32 33
REMARK SMILES IDX 33 34 34 35 35 37 36 38 37 39 95 40 38 41 94 42 39 43 40 44
REMARK SMILES IDX 41 45 88 46 42 47 93 48 87 49 89 50 43 51 92 52 86 53 85 54
REMARK SMILES IDX 44 56 74 57 55 58 73 59 56 60 59 61 72 62 90 63 57 64 58 65
REMARK SMILES IDX 71 67 91 68 60 69 45 70 46 71 54 72 47 73 53 74 48 75 49 76
REMARK SMILES IDX 50 77 51 78 52 79 75 80 76 81 84 82 77 83 83 84 78 85 79 86
REMARK SMILES IDX 80 87 81 88 82 89 61 90 62 91 70 92 63 93 69 94 64 95 65 96
REMARK SMILES IDX 66 97 67 98 68 99
REMARK H PARENT 26 7 33 36 89 55 59 66
REMARK Flexibility Score: inf
ROOT
ATOM      1  C   UNL A   1      37.037  31.699  28.558  1.00  0.00     0.002 C 
ENDROOT
BRANCH   1   2
ATOM      2  C   UNL A   1      36.680  30.650  29.626  1.00  0.00     0.021 C 
BRANCH   2   3
ATOM      3  C   UNL A   1      37.754  29.316  29.855  1.00  0.00     0.116 C 
BRANCH   3   4
ATOM      4  N   UNL A   1      39.193  29.023  31.352  1.00  0.00    -0.353 N 
ATOM      5  O   UNL A   1      39.036  29.416  33.797  1.00  0.00    -0.271 OA
ATOM      6  C   UNL A   1      39.598  28.984  32.796  1.00  0.00     0.257 C 
ATOM      7  H   UNL A   1      40.017  28.798  30.861  1.00  0.00     0.163 HD
BRANCH   6   8
ATOM      8  C   UNL A   1      40.922  28.264  32.970  1.00  0.00     0.329 C 
BRANCH   8   9
ATOM      9  O   UNL A   1      41.895  29.154  33.479  1.00  0.00    -0.483 OA
BRANCH   9  10
ATOM     10  C   UNL A   1      42.678  28.649  34.492  1.00  0.00     0.127 A 
ATOM     11  C   UNL A   1      42.051  28.788  35.735  1.00  0.00     0.047 A 
ATOM     12  C   UNL A   1      44.045  28.260  34.393  1.00  0.00     0.018 A 
ATOM     13  C   UNL A   1      42.766  28.589  36.905  1.00  0.00     0.004 A 
ATOM     14  C   UNL A   1      44.748  28.092  35.594  1.00  0.00     0.012 A 
ATOM     15  C   UNL A   1      44.118  28.269  36.835  1.00  0.00     0.001 A 
BRANCH  12  16
ATOM     16  C   UNL A   1      44.817  28.067  33.134  1.00  0.00     0.033 C 
ATOM     17  C   UNL A   1      45.148  26.829  32.697  1.00  0.00     0.084 C 
ATOM     18  S   UNL A   1      47.264  26.568  31.880  1.00  0.00    -0.022 SA
ATOM     19  C   UNL A   1      44.670  25.351  33.883  1.00  0.00     0.272 C 
ATOM     20  C   UNL A   1      47.671  24.753  33.325  1.00  0.00     0.298 C 
ATOM     21  N   UNL A   1      46.117  24.296  34.156  1.00  0.00    -0.236 N 
ATOM     22  O   UNL A   1      43.527  25.176  34.289  1.00  0.00    -0.268 OA
ATOM     23  O   UNL A   1      48.824  24.370  33.504  1.00  0.00    -0.260 OA
BRANCH  21  24
ATOM     24  C   UNL A   1      45.976  23.158  35.027  1.00  0.00     0.053 A 
ATOM     25  C   UNL A   1      46.017  21.852  34.500  1.00  0.00     0.030 A 
ATOM     26  C   UNL A   1      45.885  23.295  36.414  1.00  0.00     0.030 A 
ATOM     27  C   UNL A   1      46.006  20.722  35.320  1.00  0.00     0.041 A 
ATOM     28  C   UNL A   1      45.877  22.160  37.241  1.00  0.00     0.041 A 
ATOM     29  C   UNL A   1      45.942  20.887  36.688  1.00  0.00     0.123 A 
ATOM     30  F   UNL A   1      45.951  19.809  37.483  1.00  0.00    -0.207 F 
ENDBRANCH  21  24
ENDBRANCH  12  16
ENDBRANCH   9  10
ENDBRANCH   8   9
ENDBRANCH   6   8
ENDBRANCH   3   4
ENDBRANCH   2   3
ENDBRANCH   1   2
BRANCH   1  31
ATOM     31  C   UNL A   1      36.859  33.150  28.995  1.00  0.00     0.002 C 
BRANCH  31  32
ATOM     32  C   UNL A   1      35.585  33.796  28.477  1.00  0.00     0.021 C 
BRANCH  32  33
ATOM     33  C   UNL A   1      34.326  33.183  29.064  1.00  0.00     0.116 C 
BRANCH  33  34
ATOM     34  N   UNL A   1      33.434  34.204  29.608  1.00  0.00    -0.352 N 
ATOM     35  C   UNL A   1      33.363  34.640  30.905  1.00  0.00     0.251 C 
ATOM     36  H   UNL A   1      32.813  34.627  28.970  1.00  0.00     0.163 HD
ATOM     37  O   UNL A   1      32.420  35.302  31.314  1.00  0.00    -0.269 OA
BRANCH  35  38
ATOM     38  C   UNL A   1      34.486  34.276  31.778  1.00  0.00     0.039 A 
ATOM     39  C   UNL A   1      34.716  32.939  32.090  1.00  0.00     0.014 A 
ATOM     40  C   UNL A   1      35.376  35.284  32.162  1.00  0.00     0.014 A 
ATOM     41  C   UNL A   1      35.880  32.608  32.777  1.00  0.00     0.010 A 
ATOM     42  C   UNL A   1      36.580  34.937  32.743  1.00  0.00     0.010 A 
ATOM     43  C   UNL A   1      36.825  33.603  33.089  1.00  0.00    -0.014 A 
BRANCH  43  44
ATOM     44  C   UNL A   1      38.061  33.274  33.829  1.00  0.00     0.031 A 
ATOM     45  C   UNL A   1      39.305  32.925  33.060  1.00  0.00     0.074 A 
ATOM     46  C   UNL A   1      38.041  33.250  35.175  1.00  0.00     0.049 A 
ATOM     47  N   UNL A   1      40.497  32.635  33.511  1.00  0.00    -0.248 NA
ATOM     48  C   UNL A   1      39.189  32.853  31.592  1.00  0.00     0.031 C 
ATOM     49  C   UNL A   1      36.866  33.509  36.012  1.00  0.00     0.029 A 
ATOM     50  N   UNL A   1      39.045  33.012  36.076  1.00  0.00    -0.354 N 
ATOM     51  C   UNL A   1      41.257  32.329  32.389  1.00  0.00     0.074 A 
ATOM     52  C   UNL A   1      40.380  32.394  31.245  1.00  0.00     0.031 C 
ATOM     53  C   UNL A   1      37.232  33.479  37.303  1.00  0.00     0.029 A 
ATOM     54  C   UNL A   1      38.654  33.165  37.384  1.00  0.00     0.049 A 
ATOM     55  H   UNL A   1      39.957  32.754  35.811  1.00  0.00     0.167 HD
ATOM     56  C   UNL A   1      42.578  32.046  32.315  1.00  0.00     0.031 A 
ATOM     57  C   UNL A   1      39.375  33.084  38.518  1.00  0.00     0.031 A 
ATOM     58  C   UNL A   1      43.440  32.007  33.464  1.00  0.00     0.049 A 
ATOM     59  C   UNL A   1      40.846  32.793  38.411  1.00  0.00     0.074 A 
ATOM     60  C   UNL A   1      44.807  31.810  33.510  1.00  0.00     0.029 A 
ATOM     61  N   UNL A   1      43.010  32.165  34.774  1.00  0.00    -0.354 N 
ATOM     62  N   UNL A   1      41.573  32.597  37.335  1.00  0.00    -0.248 NA
ATOM     63  C   UNL A   1      41.598  32.731  39.670  1.00  0.00     0.031 C 
ATOM     64  C   UNL A   1      45.195  31.788  34.855  1.00  0.00     0.029 A 
ATOM     65  C   UNL A   1      44.080  32.038  35.641  1.00  0.00     0.049 A 
ATOM     66  H   UNL A   1      42.081  32.342  35.046  1.00  0.00     0.167 HD
ATOM     67  C   UNL A   1      42.874  32.409  37.786  1.00  0.00     0.074 A 
ATOM     68  C   UNL A   1      42.834  32.541  39.230  1.00  0.00     0.031 C 
ATOM     69  C   UNL A   1      44.002  32.153  37.076  1.00  0.00     0.031 A 
BRANCH  56  70
ATOM     70  C   UNL A   1      43.149  31.746  30.954  1.00  0.00    -0.014 A 
ATOM     71  C   UNL A   1      43.567  32.776  30.088  1.00  0.00     0.010 A 
ATOM     72  C   UNL A   1      43.265  30.411  30.527  1.00  0.00     0.010 A 
ATOM     73  C   UNL A   1      44.033  32.479  28.805  1.00  0.00     0.020 A 
ATOM     74  C   UNL A   1      43.764  30.108  29.257  1.00  0.00     0.020 A 
ATOM     75  C   UNL A   1      44.124  31.146  28.395  1.00  0.00     0.054 A 
BRANCH  75  76
ATOM     76  S   UNL A   1      44.738  30.788  26.726  1.00  0.00     0.124 S 
ATOM     77  O   UNL A   1      46.136  30.453  26.986  1.00  0.00    -0.237 OA
ATOM     78  O   UNL A   1      43.893  29.673  26.307  1.00  0.00    -0.237 OA
ATOM     79  O   UNL A   1      44.521  32.038  26.002  1.00  0.00    -0.744 OA
ENDBRANCH  75  76
ENDBRANCH  56  70
BRANCH  57  80
ATOM     80  C   UNL A   1      38.727  33.342  39.833  1.00  0.00    -0.014 A 
ATOM     81  C   UNL A   1      38.766  34.629  40.402  1.00  0.00     0.010 A 
ATOM     82  C   UNL A   1      38.041  32.318  40.508  1.00  0.00     0.010 A 
ATOM     83  C   UNL A   1      38.143  34.882  41.628  1.00  0.00     0.020 A 
ATOM     84  C   UNL A   1      37.392  32.574  41.721  1.00  0.00     0.020 A 
ATOM     85  C   UNL A   1      37.455  33.853  42.277  1.00  0.00     0.054 A 
BRANCH  85  86
ATOM     86  S   UNL A   1      36.603  34.222  43.836  1.00  0.00     0.124 S 
ATOM     87  O   UNL A   1      35.200  34.134  43.446  1.00  0.00    -0.237 OA
ATOM     88  O   UNL A   1      37.085  33.159  44.716  1.00  0.00    -0.237 OA
ATOM     89  O   UNL A   1      37.076  35.562  44.175  1.00  0.00    -0.744 OA
ENDBRANCH  85  86
ENDBRANCH  57  80
BRANCH  69  90
ATOM     90  C   UNL A   1      45.280  32.017  37.858  1.00  0.00    -0.014 A 
ATOM     91  C   UNL A   1      45.800  30.753  38.189  1.00  0.00     0.010 A 
ATOM     92  C   UNL A   1      45.980  33.173  38.249  1.00  0.00     0.010 A 
ATOM     93  C   UNL A   1      46.970  30.648  38.944  1.00  0.00     0.020 A 
ATOM     94  C   UNL A   1      47.169  33.071  38.973  1.00  0.00     0.020 A 
ATOM     95  C   UNL A   1      47.644  31.810  39.337  1.00  0.00     0.054 A 
BRANCH  95  96
ATOM     96  S   UNL A   1      49.164  31.648  40.310  1.00  0.00     0.124 S 
ATOM     97  O   UNL A   1      49.509  33.045  40.563  1.00  0.00    -0.237 OA
ATOM     98  O   UNL A   1      48.720  30.888  41.476  1.00  0.00    -0.237 OA
ATOM     99  O   UNL A   1      50.072  30.934  39.416  1.00  0.00    -0.744 OA
ENDBRANCH  95  96
ENDBRANCH  69  90
ENDBRANCH  43  44
ENDBRANCH  35  38
ENDBRANCH  33  34
ENDBRANCH  32  33
ENDBRANCH  31  32
ENDBRANCH   1  31
TORSDOF 20
ENDMDL
MODEL 2
REMARK VINA RESULT:      -8.0     10.512     15.827
REMARK SMILES O=C(COc1ccccc1/C=C1/SC(=O)N(c2ccc(F)cc2)C1=O)NCCCCCCNC(=O)c1ccc(-c2c3nc(c(-c4ccc(S(=O)(=O)[O-])cc4)c4ccc([nH]4)c(-c4ccc(S(=O)(=O)[O-])cc4)c4nc(c(-c5ccc(S(=O)(=O)[O-])cc5)c5ccc2[nH]5)C=C4)C=C3)cc1
REMARK SMILES IDX 29 1 28 2 27 3 26 4 1 5 2 6 3 8 4 9 5 10 6 11 10 12 7 13
REMARK SMILES IDX 9 14 8 15 11 16 12 17 13 18 24 19 14 20 16 21 25 22 15 23
REMARK SMILES IDX 17 24 18 25 23 26 19 27 22 28 20 29 21 30 30 31 31 32 32 33
REMARK SMILES IDX 33 34 34 35 35 37 36 38 37 39 95 40 38 41 94 42 39 43 40 44
REMARK SMILES IDX 41 45 88 46 42 47 93 48 87 49 89 50 43 51 92 52 86 53 85 54
REMARK SMILES IDX 44 56 74 57 55 58 73 59 56 60 59 61 72 62 90 63 57 64 58 65
REMARK SMILES IDX 71 67 91 68 60 69 45 70 46 71 54 72 47 73 53 74 48 75 49 76
REMARK SMILES IDX 50 77 51 78 52 79 75 80 76 81 84 82 77 83 83 84 78 85 79 86
REMARK SMILES IDX 80 87 81 88 82 89 61 90 62 91 70 92 63 93 69 94 64 95 65 96
REMARK SMILES IDX 66 97 67 98 68 99
REMARK H PARENT 26 7 33 36 89 55 59 66
REMARK Flexibility Score: inf
ROOT
ATOM      1  C   UNL A   1      42.699  43.656  22.803  1.00  0.00     0.002 C 
ENDROOT
BRANCH   1   2
ATOM      2  C   UNL A   1      43.028  43.109  21.402  1.00  0.00     0.021 C 
BRANCH   2   3
ATOM      3  C   UNL A   1      41.938  43.461  20.109  1.00  0.00     0.116 C 
BRANCH   3   4
ATOM      4  N   UNL A   1      42.080  44.942  18.630  1.00  0.00    -0.353 N 
ATOM      5  O   UNL A   1      42.640  44.725  16.223  1.00  0.00    -0.271 OA
ATOM      6  C   UNL A   1      42.251  45.357  17.199  1.00  0.00     0.257 C 
ATOM      7  H   UNL A   1      41.989  45.790  19.122  1.00  0.00     0.163 HD
BRANCH   6   8
ATOM      8  C   UNL A   1      41.839  46.804  17.000  1.00  0.00     0.329 C 
BRANCH   8   9
ATOM      9  O   UNL A   1      42.920  47.548  16.474  1.00  0.00    -0.483 OA
BRANCH   9  10
ATOM     10  C   UNL A   1      43.746  48.123  17.412  1.00  0.00     0.127 A 
ATOM     11  C   UNL A   1      43.035  48.989  18.251  1.00  0.00     0.047 A 
ATOM     12  C   UNL A   1      45.170  48.086  17.425  1.00  0.00     0.018 A 
ATOM     13  C   UNL A   1      43.709  49.864  19.086  1.00  0.00     0.004 A 
ATOM     14  C   UNL A   1      45.824  49.002  18.261  1.00  0.00     0.012 A 
ATOM     15  C   UNL A   1      45.100  49.889  19.072  1.00  0.00     0.001 A 
BRANCH  12  16
ATOM     16  C   UNL A   1      46.035  47.204  16.593  1.00  0.00     0.033 C 
ATOM     17  C   UNL A   1      46.453  45.999  17.048  1.00  0.00     0.084 C 
ATOM     18  S   UNL A   1      48.630  45.451  16.635  1.00  0.00    -0.022 SA
ATOM     19  C   UNL A   1      45.961  45.568  18.890  1.00  0.00     0.272 C 
ATOM     20  C   UNL A   1      49.019  44.994  18.912  1.00  0.00     0.298 C 
ATOM     21  N   UNL A   1      47.433  45.041  19.806  1.00  0.00    -0.236 N 
ATOM     22  O   UNL A   1      44.803  45.598  19.287  1.00  0.00    -0.268 OA
ATOM     23  O   UNL A   1      50.173  44.903  19.322  1.00  0.00    -0.260 OA
BRANCH  21  24
ATOM     24  C   UNL A   1      47.285  44.702  21.197  1.00  0.00     0.053 A 
ATOM     25  C   UNL A   1      47.242  45.717  22.174  1.00  0.00     0.030 A 
ATOM     26  C   UNL A   1      47.092  43.386  21.622  1.00  0.00     0.030 A 
ATOM     27  C   UNL A   1      46.979  45.442  23.517  1.00  0.00     0.041 A 
ATOM     28  C   UNL A   1      46.824  43.107  22.972  1.00  0.00     0.041 A 
ATOM     29  C   UNL A   1      46.766  44.135  23.905  1.00  0.00     0.123 A 
ATOM     30  F   UNL A   1      46.493  43.864  25.187  1.00  0.00    -0.207 F 
ENDBRANCH  21  24
ENDBRANCH  12  16
ENDBRANCH   9  10
ENDBRANCH   8   9
ENDBRANCH   6   8
ENDBRANCH   3   4
ENDBRANCH   2   3
ENDBRANCH   1   2
BRANCH   1  31
ATOM     31  C   UNL A   1      43.325  42.884  23.961  1.00  0.00     0.002 C 
BRANCH  31  32
ATOM     32  C   UNL A   1      42.387  41.880  24.608  1.00  0.00     0.021 C 
BRANCH  32  33
ATOM     33  C   UNL A   1      43.033  41.108  25.745  1.00  0.00     0.116 C 
BRANCH  33  34
ATOM     34  N   UNL A   1      44.468  41.367  25.824  1.00  0.00    -0.352 N 
ATOM     35  C   UNL A   1      45.383  40.739  26.628  1.00  0.00     0.251 C 
ATOM     36  H   UNL A   1      44.817  42.073  25.233  1.00  0.00     0.163 HD
ATOM     37  O   UNL A   1      46.502  41.196  26.813  1.00  0.00    -0.269 OA
BRANCH  35  38
ATOM     38  C   UNL A   1      44.949  39.483  27.252  1.00  0.00     0.039 A 
ATOM     39  C   UNL A   1      45.126  38.277  26.581  1.00  0.00     0.014 A 
ATOM     40  C   UNL A   1      44.492  39.528  28.573  1.00  0.00     0.014 A 
ATOM     41  C   UNL A   1      44.864  37.091  27.261  1.00  0.00     0.010 A 
ATOM     42  C   UNL A   1      44.342  38.348  29.277  1.00  0.00     0.010 A 
ATOM     43  C   UNL A   1      44.489  37.122  28.617  1.00  0.00    -0.014 A 
BRANCH  43  44
ATOM     44  C   UNL A   1      44.194  35.877  29.354  1.00  0.00     0.031 A 
ATOM     45  C   UNL A   1      45.320  35.133  30.018  1.00  0.00     0.074 A 
ATOM     46  C   UNL A   1      42.933  35.406  29.382  1.00  0.00     0.049 A 
ATOM     47  N   UNL A   1      45.276  34.042  30.736  1.00  0.00    -0.248 NA
ATOM     48  C   UNL A   1      46.682  35.662  29.820  1.00  0.00     0.031 C 
ATOM     49  C   UNL A   1      41.783  36.020  28.714  1.00  0.00     0.029 A 
ATOM     50  N   UNL A   1      42.406  34.311  30.013  1.00  0.00    -0.354 N 
ATOM     51  C   UNL A   1      46.596  33.747  31.051  1.00  0.00     0.074 A 
ATOM     52  C   UNL A   1      47.424  34.727  30.389  1.00  0.00     0.031 C 
ATOM     53  C   UNL A   1      40.675  35.327  29.023  1.00  0.00     0.029 A 
ATOM     54  C   UNL A   1      41.042  34.206  29.880  1.00  0.00     0.049 A 
ATOM     55  H   UNL A   1      42.952  33.661  30.512  1.00  0.00     0.167 HD
ATOM     56  C   UNL A   1      47.075  32.764  31.847  1.00  0.00     0.031 A 
ATOM     57  C   UNL A   1      40.186  33.315  30.415  1.00  0.00     0.031 A 
ATOM     58  C   UNL A   1      46.233  31.811  32.515  1.00  0.00     0.049 A 
ATOM     59  C   UNL A   1      40.738  32.245  31.316  1.00  0.00     0.074 A 
ATOM     60  C   UNL A   1      46.592  30.818  33.407  1.00  0.00     0.029 A 
ATOM     61  N   UNL A   1      44.856  31.733  32.356  1.00  0.00    -0.354 N 
ATOM     62  N   UNL A   1      41.982  32.033  31.681  1.00  0.00    -0.248 NA
ATOM     63  C   UNL A   1      39.768  31.305  31.891  1.00  0.00     0.031 C 
ATOM     64  C   UNL A   1      45.438  30.100  33.741  1.00  0.00     0.029 A 
ATOM     65  C   UNL A   1      44.352  30.687  33.109  1.00  0.00     0.049 A 
ATOM     66  H   UNL A   1      44.318  32.333  31.791  1.00  0.00     0.167 HD
ATOM     67  C   UNL A   1      41.941  30.948  32.548  1.00  0.00     0.074 A 
ATOM     68  C   UNL A   1      40.547  30.566  32.668  1.00  0.00     0.031 C 
ATOM     69  C   UNL A   1      42.960  30.321  33.190  1.00  0.00     0.031 A 
BRANCH  56  70
ATOM     70  C   UNL A   1      48.570  32.672  32.014  1.00  0.00    -0.014 A 
ATOM     71  C   UNL A   1      49.359  31.879  31.157  1.00  0.00     0.010 A 
ATOM     72  C   UNL A   1      49.199  33.386  33.049  1.00  0.00     0.010 A 
ATOM     73  C   UNL A   1      50.734  31.757  31.369  1.00  0.00     0.020 A 
ATOM     74  C   UNL A   1      50.580  33.295  33.244  1.00  0.00     0.020 A 
ATOM     75  C   UNL A   1      51.336  32.462  32.416  1.00  0.00     0.054 A 
BRANCH  75  76
ATOM     76  S   UNL A   1      53.125  32.291  32.665  1.00  0.00     0.124 S 
ATOM     77  O   UNL A   1      53.660  33.116  31.584  1.00  0.00    -0.237 OA
ATOM     78  O   UNL A   1      53.312  32.823  34.012  1.00  0.00    -0.237 OA
ATOM     79  O   UNL A   1      53.358  30.855  32.527  1.00  0.00    -0.744 OA
ENDBRANCH  75  76
ENDBRANCH  56  70
BRANCH  57  80
ATOM     80  C   UNL A   1      38.726  33.440  30.159  1.00  0.00    -0.014 A 
ATOM     81  C   UNL A   1      38.152  32.844  29.021  1.00  0.00     0.010 A 
ATOM     82  C   UNL A   1      37.894  34.123  31.064  1.00  0.00     0.010 A 
ATOM     83  C   UNL A   1      36.777  32.942  28.785  1.00  0.00     0.020 A 
ATOM     84  C   UNL A   1      36.515  34.199  30.846  1.00  0.00     0.020 A 
ATOM     85  C   UNL A   1      35.966  33.615  29.703  1.00  0.00     0.054 A 
BRANCH  85  86
ATOM     86  S   UNL A   1      34.177  33.676  29.407  1.00  0.00     0.124 S 
ATOM     87  O   UNL A   1      33.649  33.839  30.757  1.00  0.00    -0.237 OA
ATOM     88  O   UNL A   1      34.044  34.836  28.528  1.00  0.00    -0.237 OA
ATOM     89  O   UNL A   1      33.892  32.390  28.773  1.00  0.00    -0.744 OA
ENDBRANCH  85  86
ENDBRANCH  57  80
BRANCH  69  90
ATOM     90  C   UNL A   1      42.592  29.172  34.087  1.00  0.00    -0.014 A 
ATOM     91  C   UNL A   1      42.212  29.385  35.425  1.00  0.00     0.010 A 
ATOM     92  C   UNL A   1      42.606  27.861  33.577  1.00  0.00     0.010 A 
ATOM     93  C   UNL A   1      41.907  28.301  36.251  1.00  0.00     0.020 A 
ATOM     94  C   UNL A   1      42.266  26.779  34.390  1.00  0.00     0.020 A 
ATOM     95  C   UNL A   1      41.941  27.004  35.729  1.00  0.00     0.054 A 
BRANCH  95  96
ATOM     96  S   UNL A   1      41.533  25.615  36.819  1.00  0.00     0.124 S 
ATOM     97  O   UNL A   1      41.155  24.580  35.859  1.00  0.00    -0.237 OA
ATOM     98  O   UNL A   1      42.787  25.385  37.531  1.00  0.00    -0.237 OA
ATOM     99  O   UNL A   1      40.441  26.131  37.641  1.00  0.00    -0.744 OA
ENDBRANCH  95  96
ENDBRANCH  69  90
ENDBRANCH  43  44
ENDBRANCH  35  38
ENDBRANCH  33  34
ENDBRANCH  32  33
ENDBRANCH  31  32
ENDBRANCH   1  31
TORSDOF 20
ENDMDL
MODEL 3
REMARK VINA RESULT:      -7.8      4.361     10.217
REMARK SMILES O=C(COc1ccccc1/C=C1/SC(=O)N(c2ccc(F)cc2)C1=O)NCCCCCCNC(=O)c1ccc(-c2c3nc(c(-c4ccc(S(=O)(=O)[O-])cc4)c4ccc([nH]4)c(-c4ccc(S(=O)(=O)[O-])cc4)c4nc(c(-c5ccc(S(=O)(=O)[O-])cc5)c5ccc2[nH]5)C=C4)C=C3)cc1
REMARK SMILES IDX 29 1 28 2 27 3 26 4 1 5 2 6 3 8 4 9 5 10 6 11 10 12 7 13
REMARK SMILES IDX 9 14 8 15 11 16 12 17 13 18 24 19 14 20 16 21 25 22 15 23
REMARK SMILES IDX 17 24 18 25 23 26 19 27 22 28 20 29 21 30 30 31 31 32 32 33
REMARK SMILES IDX 33 34 34 35 35 37 36 38 37 39 95 40 38 41 94 42 39 43 40 44
REMARK SMILES IDX 41 45 88 46 42 47 93 48 87 49 89 50 43 51 92 52 86 53 85 54
REMARK SMILES IDX 44 56 74 57 55 58 73 59 56 60 59 61 72 62 90 63 57 64 58 65
REMARK SMILES IDX 71 67 91 68 60 69 45 70 46 71 54 72 47 73 53 74 48 75 49 76
REMARK SMILES IDX 50 77 51 78 52 79 75 80 76 81 84 82 77 83 83 84 78 85 79 86
REMARK SMILES IDX 80 87 81 88 82 89 61 90 62 91 70 92 63 93 69 94 64 95 65 96
REMARK SMILES IDX 66 97 67 98 68 99
REMARK H PARENT 26 7 33 36 89 55 59 66
REMARK Flexibility Score: inf
ROOT
ATOM      1  C   UNL A   1      40.607  28.536  26.908  1.00  0.00     0.002 C 
ENDROOT
BRANCH   1   2
ATOM      2  C   UNL A   1      39.594  27.823  27.820  1.00  0.00     0.021 C 
BRANCH   2   3
ATOM      3  C   UNL A   1      39.904  27.789  29.519  1.00  0.00     0.116 C 
BRANCH   3   4
ATOM      4  N   UNL A   1      38.853  28.730  31.072  1.00  0.00    -0.353 N 
ATOM      5  O   UNL A   1      36.423  29.176  31.294  1.00  0.00    -0.271 OA
ATOM      6  C   UNL A   1      37.569  29.140  31.729  1.00  0.00     0.257 C 
ATOM      7  H   UNL A   1      39.556  29.079  31.668  1.00  0.00     0.163 HD
BRANCH   6   8
ATOM      8  C   UNL A   1      37.803  29.549  33.172  1.00  0.00     0.329 C 
BRANCH   8   9
ATOM      9  O   UNL A   1      37.638  30.946  33.312  1.00  0.00    -0.483 OA
BRANCH   9  10
ATOM     10  C   UNL A   1      38.797  31.652  33.541  1.00  0.00     0.127 A 
ATOM     11  C   UNL A   1      38.925  31.992  34.893  1.00  0.00     0.047 A 
ATOM     12  C   UNL A   1      39.658  32.211  32.554  1.00  0.00     0.018 A 
ATOM     13  C   UNL A   1      39.873  32.920  35.293  1.00  0.00     0.004 A 
ATOM     14  C   UNL A   1      40.589  33.165  32.986  1.00  0.00     0.012 A 
ATOM     15  C   UNL A   1      40.684  33.525  34.339  1.00  0.00     0.001 A 
BRANCH  12  16
ATOM     16  C   UNL A   1      39.630  31.918  31.093  1.00  0.00     0.033 C 
ATOM     17  C   UNL A   1      38.795  32.583  30.260  1.00  0.00     0.084 C 
ATOM     18  S   UNL A   1      37.731  31.334  28.673  1.00  0.00    -0.022 SA
ATOM     19  C   UNL A   1      37.556  33.831  31.113  1.00  0.00     0.272 C 
ATOM     20  C   UNL A   1      35.627  32.156  29.338  1.00  0.00     0.298 C 
ATOM     21  N   UNL A   1      35.869  33.501  30.542  1.00  0.00    -0.236 N 
ATOM     22  O   UNL A   1      37.934  34.728  31.857  1.00  0.00    -0.268 OA
ATOM     23  O   UNL A   1      34.608  31.581  28.967  1.00  0.00    -0.260 OA
BRANCH  21  24
ATOM     24  C   UNL A   1      34.800  34.303  31.077  1.00  0.00     0.053 A 
ATOM     25  C   UNL A   1      33.962  35.035  30.212  1.00  0.00     0.030 A 
ATOM     26  C   UNL A   1      34.497  34.319  32.440  1.00  0.00     0.030 A 
ATOM     27  C   UNL A   1      32.842  35.728  30.676  1.00  0.00     0.041 A 
ATOM     28  C   UNL A   1      33.369  35.012  32.909  1.00  0.00     0.041 A 
ATOM     29  C   UNL A   1      32.551  35.705  32.025  1.00  0.00     0.123 A 
ATOM     30  F   UNL A   1      31.468  36.349  32.477  1.00  0.00    -0.207 F 
ENDBRANCH  21  24
ENDBRANCH  12  16
ENDBRANCH   9  10
ENDBRANCH   8   9
ENDBRANCH   6   8
ENDBRANCH   3   4
ENDBRANCH   2   3
ENDBRANCH   1   2
BRANCH   1  31
ATOM     31  C   UNL A   1      41.799  27.685  26.478  1.00  0.00     0.002 C 
BRANCH  31  32
ATOM     32  C   UNL A   1      41.429  26.525  25.568  1.00  0.00     0.021 C 
BRANCH  32  33
ATOM     33  C   UNL A   1      42.639  25.811  24.992  1.00  0.00     0.116 C 
BRANCH  33  34
ATOM     34  N   UNL A   1      42.545  24.365  25.171  1.00  0.00    -0.352 N 
ATOM     35  C   UNL A   1      43.052  23.620  26.203  1.00  0.00     0.251 C 
ATOM     36  H   UNL A   1      42.063  23.868  24.470  1.00  0.00     0.163 HD
ATOM     37  O   UNL A   1      43.150  22.403  26.136  1.00  0.00    -0.269 OA
BRANCH  35  38
ATOM     38  C   UNL A   1      43.468  24.362  27.400  1.00  0.00     0.039 A 
ATOM     39  C   UNL A   1      44.745  24.912  27.467  1.00  0.00     0.014 A 
ATOM     40  C   UNL A   1      42.509  24.609  28.387  1.00  0.00     0.014 A 
ATOM     41  C   UNL A   1      45.053  25.750  28.535  1.00  0.00     0.010 A 
ATOM     42  C   UNL A   1      42.784  25.529  29.381  1.00  0.00     0.010 A 
ATOM     43  C   UNL A   1      44.068  26.077  29.485  1.00  0.00    -0.014 A 
BRANCH  43  44
ATOM     44  C   UNL A   1      44.378  26.954  30.632  1.00  0.00     0.031 A 
ATOM     45  C   UNL A   1      44.211  28.441  30.485  1.00  0.00     0.074 A 
ATOM     46  C   UNL A   1      44.845  26.413  31.773  1.00  0.00     0.049 A 
ATOM     47  N   UNL A   1      44.398  29.383  31.371  1.00  0.00    -0.248 NA
ATOM     48  C   UNL A   1      43.818  28.943  29.155  1.00  0.00     0.031 C 
ATOM     49  C   UNL A   1      45.104  24.988  31.993  1.00  0.00     0.029 A 
ATOM     50  N   UNL A   1      45.169  26.998  32.968  1.00  0.00    -0.354 N 
ATOM     51  C   UNL A   1      44.169  30.578  30.702  1.00  0.00     0.074 A 
ATOM     52  C   UNL A   1      43.901  30.253  29.321  1.00  0.00     0.031 C 
ATOM     53  C   UNL A   1      45.486  24.803  33.267  1.00  0.00     0.029 A 
ATOM     54  C   UNL A   1      45.531  26.096  33.939  1.00  0.00     0.049 A 
ATOM     55  H   UNL A   1      45.146  27.971  33.116  1.00  0.00     0.167 HD
ATOM     56  C   UNL A   1      44.153  31.836  31.200  1.00  0.00     0.031 A 
ATOM     57  C   UNL A   1      45.839  26.295  35.235  1.00  0.00     0.031 A 
ATOM     58  C   UNL A   1      44.401  32.138  32.583  1.00  0.00     0.049 A 
ATOM     59  C   UNL A   1      45.791  27.699  35.773  1.00  0.00     0.074 A 
ATOM     60  C   UNL A   1      44.337  33.360  33.224  1.00  0.00     0.029 A 
ATOM     61  N   UNL A   1      44.766  31.200  33.538  1.00  0.00    -0.354 N 
ATOM     62  N   UNL A   1      45.481  28.812  35.150  1.00  0.00    -0.248 NA
ATOM     63  C   UNL A   1      46.118  27.868  37.194  1.00  0.00     0.031 C 
ATOM     64  C   UNL A   1      44.723  33.171  34.556  1.00  0.00     0.029 A 
ATOM     65  C   UNL A   1      44.963  31.820  34.759  1.00  0.00     0.049 A 
ATOM     66  H   UNL A   1      44.870  30.235  33.372  1.00  0.00     0.167 HD
ATOM     67  C   UNL A   1      45.554  29.815  36.110  1.00  0.00     0.074 A 
ATOM     68  C   UNL A   1      45.913  29.168  37.358  1.00  0.00     0.031 C 
ATOM     69  C   UNL A   1      45.342  31.149  35.978  1.00  0.00     0.031 A 
BRANCH  56  70
ATOM     70  C   UNL A   1      43.875  32.961  30.238  1.00  0.00    -0.014 A 
ATOM     71  C   UNL A   1      42.571  33.456  30.041  1.00  0.00     0.010 A 
ATOM     72  C   UNL A   1      44.934  33.531  29.510  1.00  0.00     0.010 A 
ATOM     73  C   UNL A   1      42.326  34.456  29.097  1.00  0.00     0.020 A 
ATOM     74  C   UNL A   1      44.699  34.556  28.589  1.00  0.00     0.020 A 
ATOM     75  C   UNL A   1      43.391  34.996  28.372  1.00  0.00     0.054 A 
BRANCH  75  76
ATOM     76  S   UNL A   1      43.046  36.298  27.156  1.00  0.00     0.124 S 
ATOM     77  O   UNL A   1      42.721  35.517  25.965  1.00  0.00    -0.237 OA
ATOM     78  O   UNL A   1      41.926  37.013  27.763  1.00  0.00    -0.237 OA
ATOM     79  O   UNL A   1      44.297  37.048  27.088  1.00  0.00    -0.744 OA
ENDBRANCH  75  76
ENDBRANCH  56  70
BRANCH  57  80
ATOM     80  C   UNL A   1      46.155  25.136  36.112  1.00  0.00    -0.014 A 
ATOM     81  C   UNL A   1      47.477  24.663  36.212  1.00  0.00     0.010 A 
ATOM     82  C   UNL A   1      45.150  24.518  36.876  1.00  0.00     0.010 A 
ATOM     83  C   UNL A   1      47.784  23.585  37.049  1.00  0.00     0.020 A 
ATOM     84  C   UNL A   1      45.458  23.459  37.736  1.00  0.00     0.020 A 
ATOM     85  C   UNL A   1      46.772  22.994  37.810  1.00  0.00     0.054 A 
BRANCH  85  86
ATOM     86  S   UNL A   1      47.206  21.637  38.935  1.00  0.00     0.124 S 
ATOM     87  O   UNL A   1      45.964  20.873  38.986  1.00  0.00    -0.237 OA
ATOM     88  O   UNL A   1      48.318  20.995  38.237  1.00  0.00    -0.237 OA
ATOM     89  O   UNL A   1      47.572  22.323  40.172  1.00  0.00    -0.744 OA
ENDBRANCH  85  86
ENDBRANCH  57  80
BRANCH  69  90
ATOM     90  C   UNL A   1      45.480  31.985  37.221  1.00  0.00    -0.014 A 
ATOM     91  C   UNL A   1      46.700  32.601  37.552  1.00  0.00     0.010 A 
ATOM     92  C   UNL A   1      44.364  32.173  38.057  1.00  0.00     0.010 A 
ATOM     93  C   UNL A   1      46.816  33.345  38.728  1.00  0.00     0.020 A 
ATOM     94  C   UNL A   1      44.467  32.946  39.215  1.00  0.00     0.020 A 
ATOM     95  C   UNL A   1      45.699  33.508  39.555  1.00  0.00     0.054 A 
BRANCH  95  96
ATOM     96  S   UNL A   1      45.873  34.485  41.071  1.00  0.00     0.124 S 
ATOM     97  O   UNL A   1      46.763  33.645  41.870  1.00  0.00    -0.237 OA
ATOM     98  O   UNL A   1      46.455  35.733  40.585  1.00  0.00    -0.237 OA
ATOM     99  O   UNL A   1      44.505  34.594  41.570  1.00  0.00    -0.744 OA
ENDBRANCH  95  96
ENDBRANCH  69  90
ENDBRANCH  43  44
ENDBRANCH  35  38
ENDBRANCH  33  34
ENDBRANCH  32  33
ENDBRANCH  31  32
ENDBRANCH   1  31
TORSDOF 20
ENDMDL
