MODEL 1
REMARK VINA RESULT:      -9.4      0.000      0.000
REMARK SMILES O=C(CC1CC[NH+](CCC(=O)NC2CC2)CC1)NCCCCCCNC(=O)c1ccc(-c2c3nc(c(-c4ccc(S(=O)(=O)[O-])cc4)c4ccc([nH]4)c(-c4ccc(S(=O)(=O)[O-])cc4)c4nc(c(-c5ccc(S(=O)(=O)[O-])cc5)c5ccc2[nH]5)C=C4)C=C3)cc1
REMARK SMILES IDX 20 1 19 2 18 3 1 4 2 5 3 7 4 8 5 9 17 10 6 11 16 12 7 13
REMARK SMILES IDX 8 15 9 16 10 17 11 18 12 19 13 21 14 22 15 23 21 24 22 25
REMARK SMILES IDX 23 26 24 27 25 28 26 29 27 31 28 32 29 33 87 34 30 35 86 36
REMARK SMILES IDX 31 37 32 38 33 39 80 40 34 41 85 42 79 43 81 44 35 45 84 46
REMARK SMILES IDX 78 47 77 48 36 50 66 51 47 52 65 53 48 54 51 55 64 56 82 57
REMARK SMILES IDX 49 58 50 59 63 61 83 62 52 63 37 64 38 65 46 66 39 67 45 68
REMARK SMILES IDX 40 69 41 70 42 71 43 72 44 73 67 74 68 75 76 76 69 77 75 78
REMARK SMILES IDX 70 79 71 80 72 81 73 82 74 83 53 84 54 85 62 86 55 87 61 88
REMARK SMILES IDX 56 89 57 90 58 91 59 92 60 93
REMARK H PARENT 18 6 7 14 12 20 25 30 81 49 51 60
REMARK Flexibility Score: inf
ROOT
ATOM      1  C   UNL A   1      32.892  28.876  23.415  1.00  0.00     0.021 C 
ENDROOT
BRANCH   1   2
ATOM      2  C   UNL A   1      33.022  27.916  22.237  1.00  0.00     0.116 C 
BRANCH   2   3
ATOM      3  N   UNL A   1      32.334  26.667  22.498  1.00  0.00    -0.356 N 
ATOM      4  O   UNL A   1      34.100  25.261  22.258  1.00  0.00    -0.275 OA
ATOM      5  C   UNL A   1      32.929  25.444  22.579  1.00  0.00     0.220 C 
ATOM      6  H   UNL A   1      31.359  26.705  22.626  1.00  0.00     0.163 HD
BRANCH   5   7
ATOM      7  C   UNL A   1      32.004  24.288  22.959  1.00  0.00     0.104 C 
BRANCH   7   8
ATOM      8  C   UNL A   1      31.789  23.777  24.417  1.00  0.00     0.009 C 
ATOM      9  C   UNL A   1      32.576  24.425  25.549  1.00  0.00     0.066 C 
ATOM     10  C   UNL A   1      31.776  22.245  24.606  1.00  0.00     0.066 C 
ATOM     11  C   UNL A   1      33.977  23.845  25.692  1.00  0.00     0.262 C 
ATOM     12  C   UNL A   1      32.950  21.586  25.369  1.00  0.00     0.262 C 
ATOM     13  N   UNL A   1      33.972  22.424  25.967  1.00  0.00    -0.334 N 
ATOM     14  H   UNL A   1      33.583  22.398  26.910  1.00  0.00     0.348 HD
BRANCH  13  15
ATOM     15  C   UNL A   1      35.322  21.850  26.084  1.00  0.00     0.272 C 
BRANCH  15  16
ATOM     16  C   UNL A   1      36.133  21.507  24.826  1.00  0.00     0.161 C 
BRANCH  16  17
ATOM     17  C   UNL A   1      36.812  22.671  24.127  1.00  0.00     0.225 C 
ATOM     18  O   UNL A   1      36.655  22.891  22.926  1.00  0.00    -0.275 OA
ATOM     19  N   UNL A   1      37.594  23.509  24.885  1.00  0.00    -0.353 N 
ATOM     20  H   UNL A   1      37.775  24.406  24.523  1.00  0.00     0.163 HD
BRANCH  19  21
ATOM     21  C   UNL A   1      38.165  23.188  26.144  1.00  0.00     0.082 C 
ATOM     22  C   UNL A   1      39.487  22.496  26.282  1.00  0.00     0.027 C 
ATOM     23  C   UNL A   1      39.325  23.912  26.749  1.00  0.00     0.027 C 
ENDBRANCH  19  21
ENDBRANCH  16  17
ENDBRANCH  15  16
ENDBRANCH  13  15
ENDBRANCH   7   8
ENDBRANCH   5   7
ENDBRANCH   2   3
ENDBRANCH   1   2
BRANCH   1  24
ATOM     24  C   UNL A   1      31.690  28.595  24.327  1.00  0.00     0.002 C 
BRANCH  24  25
ATOM     25  C   UNL A   1      31.988  28.584  25.830  1.00  0.00     0.002 C 
BRANCH  25  26
ATOM     26  C   UNL A   1      33.288  27.888  26.226  1.00  0.00     0.021 C 
BRANCH  26  27
ATOM     27  C   UNL A   1      34.442  28.832  26.537  1.00  0.00     0.116 C 
BRANCH  27  28
ATOM     28  N   UNL A   1      33.998  30.202  26.748  1.00  0.00    -0.352 N 
ATOM     29  C   UNL A   1      34.473  31.135  27.634  1.00  0.00     0.251 C 
ATOM     30  H   UNL A   1      33.255  30.499  26.177  1.00  0.00     0.163 HD
ATOM     31  O   UNL A   1      33.874  32.196  27.791  1.00  0.00    -0.269 OA
BRANCH  29  32
ATOM     32  C   UNL A   1      35.692  30.842  28.414  1.00  0.00     0.039 A 
ATOM     33  C   UNL A   1      35.642  29.850  29.395  1.00  0.00     0.014 A 
ATOM     34  C   UNL A   1      36.885  31.526  28.161  1.00  0.00     0.014 A 
ATOM     35  C   UNL A   1      36.808  29.501  30.079  1.00  0.00     0.010 A 
ATOM     36  C   UNL A   1      38.060  31.122  28.786  1.00  0.00     0.010 A 
ATOM     37  C   UNL A   1      38.033  30.107  29.753  1.00  0.00    -0.014 A 
BRANCH  37  38
ATOM     38  C   UNL A   1      39.295  29.672  30.403  1.00  0.00     0.031 A 
ATOM     39  C   UNL A   1      39.789  30.356  31.647  1.00  0.00     0.074 A 
ATOM     40  C   UNL A   1      40.021  28.685  29.840  1.00  0.00     0.049 A 
ATOM     41  N   UNL A   1      40.864  30.109  32.351  1.00  0.00    -0.248 NA
ATOM     42  C   UNL A   1      38.985  31.480  32.155  1.00  0.00     0.031 C 
ATOM     43  C   UNL A   1      39.671  27.976  28.606  1.00  0.00     0.029 A 
ATOM     44  N   UNL A   1      41.201  28.106  30.232  1.00  0.00    -0.354 N 
ATOM     45  C   UNL A   1      40.872  31.049  33.374  1.00  0.00     0.074 A 
ATOM     46  C   UNL A   1      39.726  31.907  33.167  1.00  0.00     0.031 C 
ATOM     47  C   UNL A   1      40.591  27.030  28.367  1.00  0.00     0.029 A 
ATOM     48  C   UNL A   1      41.620  27.093  29.401  1.00  0.00     0.049 A 
ATOM     49  H   UNL A   1      41.701  28.388  31.030  1.00  0.00     0.167 HD
ATOM     50  C   UNL A   1      41.743  31.177  34.405  1.00  0.00     0.031 A 
ATOM     51  C   UNL A   1      42.708  26.302  29.462  1.00  0.00     0.031 A 
ATOM     52  C   UNL A   1      42.886  30.323  34.601  1.00  0.00     0.049 A 
ATOM     53  C   UNL A   1      43.672  26.473  30.604  1.00  0.00     0.074 A 
ATOM     54  C   UNL A   1      43.797  30.331  35.643  1.00  0.00     0.029 A 
ATOM     55  N   UNL A   1      43.283  29.318  33.731  1.00  0.00    -0.354 N 
ATOM     56  N   UNL A   1      43.618  27.315  31.609  1.00  0.00    -0.248 NA
ATOM     57  C   UNL A   1      44.837  25.579  30.625  1.00  0.00     0.031 C 
ATOM     58  C   UNL A   1      44.781  29.376  35.369  1.00  0.00     0.029 A 
ATOM     59  C   UNL A   1      44.446  28.722  34.194  1.00  0.00     0.049 A 
ATOM     60  H   UNL A   1      42.809  29.064  32.906  1.00  0.00     0.167 HD
ATOM     61  C   UNL A   1      44.731  27.037  32.395  1.00  0.00     0.074 A 
ATOM     62  C   UNL A   1      45.425  25.936  31.759  1.00  0.00     0.031 C 
ATOM     63  C   UNL A   1      45.138  27.638  33.541  1.00  0.00     0.031 A 
BRANCH  50  64
ATOM     64  C   UNL A   1      41.500  32.295  35.387  1.00  0.00    -0.014 A 
ATOM     65  C   UNL A   1      40.746  32.090  36.559  1.00  0.00     0.010 A 
ATOM     66  C   UNL A   1      42.049  33.568  35.146  1.00  0.00     0.010 A 
ATOM     67  C   UNL A   1      40.502  33.146  37.439  1.00  0.00     0.020 A 
ATOM     68  C   UNL A   1      41.834  34.620  36.042  1.00  0.00     0.020 A 
ATOM     69  C   UNL A   1      41.044  34.407  37.173  1.00  0.00     0.054 A 
BRANCH  69  70
ATOM     70  S   UNL A   1      40.711  35.759  38.334  1.00  0.00     0.124 S 
ATOM     71  O   UNL A   1      39.810  35.119  39.290  1.00  0.00    -0.237 OA
ATOM     72  O   UNL A   1      42.042  36.078  38.844  1.00  0.00    -0.237 OA
ATOM     73  O   UNL A   1      40.101  36.791  37.500  1.00  0.00    -0.744 OA
ENDBRANCH  69  70
ENDBRANCH  50  64
BRANCH  51  74
ATOM     74  C   UNL A   1      42.923  25.258  28.423  1.00  0.00    -0.014 A 
ATOM     75  C   UNL A   1      43.501  25.592  27.185  1.00  0.00     0.010 A 
ATOM     76  C   UNL A   1      42.585  23.916  28.679  1.00  0.00     0.010 A 
ATOM     77  C   UNL A   1      43.728  24.606  26.219  1.00  0.00     0.020 A 
ATOM     78  C   UNL A   1      42.838  22.923  27.728  1.00  0.00     0.020 A 
ATOM     79  C   UNL A   1      43.401  23.277  26.501  1.00  0.00     0.054 A 
BRANCH  79  80
ATOM     80  S   UNL A   1      43.773  22.007  25.260  1.00  0.00     0.124 S 
ATOM     81  O   UNL A   1      42.690  21.051  25.468  1.00  0.00    -0.237 OA
ATOM     82  O   UNL A   1      43.719  22.763  24.010  1.00  0.00    -0.237 OA
ATOM     83  O   UNL A   1      45.104  21.538  25.637  1.00  0.00    -0.744 OA
ENDBRANCH  79  80
ENDBRANCH  51  74
BRANCH  63  84
ATOM     84  C   UNL A   1      46.386  27.102  34.196  1.00  0.00    -0.014 A 
ATOM     85  C   UNL A   1      47.653  27.637  33.902  1.00  0.00     0.010 A 
ATOM     86  C   UNL A   1      46.282  26.074  35.151  1.00  0.00     0.010 A 
ATOM     87  C   UNL A   1      48.796  27.126  34.523  1.00  0.00     0.020 A 
ATOM     88  C   UNL A   1      47.419  25.583  35.798  1.00  0.00     0.020 A 
ATOM     89  C   UNL A   1      48.672  26.102  35.466  1.00  0.00     0.054 A 
BRANCH  89  90
ATOM     90  S   UNL A   1      50.168  25.480  36.281  1.00  0.00     0.124 S 
ATOM     91  O   UNL A   1      49.774  24.122  36.643  1.00  0.00    -0.237 OA
ATOM     92  O   UNL A   1      51.173  25.583  35.227  1.00  0.00    -0.237 OA
ATOM     93  O   UNL A   1      50.357  26.394  37.405  1.00  0.00    -0.744 OA
ENDBRANCH  89  90
ENDBRANCH  63  84
ENDBRANCH  37  38
ENDBRANCH  29  32
ENDBRANCH  27  28
ENDBRANCH  26  27
ENDBRANCH  25  26
ENDBRANCH  24  25
ENDBRANCH   1  24
TORSDOF 21
ENDMDL
MODEL 2
REMARK VINA RESULT:      -9.2      2.791      9.682
REMARK SMILES O=C(CC1CC[NH+](CCC(=O)NC2CC2)CC1)NCCCCCCNC(=O)c1ccc(-c2c3nc(c(-c4ccc(S(=O)(=O)[O-])cc4)c4ccc([nH]4)c(-c4ccc(S(=O)(=O)[O-])cc4)c4nc(c(-c5ccc(S(=O)(=O)[O-])cc5)c5ccc2[nH]5)C=C4)C=C3)cc1
REMARK SMILES IDX 20 1 19 2 18 3 1 4 2 5 3 7 4 8 5 9 17 10 6 11 16 12 7 13
REMARK SMILES IDX 8 15 9 16 10 17 11 18 12 19 13 21 14 22 15 23 21 24 22 25
REMARK SMILES IDX 23 26 24 27 25 28 26 29 27 31 28 32 29 33 87 34 30 35 86 36
REMARK SMILES IDX 31 37 32 38 33 39 80 40 34 41 85 42 79 43 81 44 35 45 84 46
REMARK SMILES IDX 78 47 77 48 36 50 66 51 47 52 65 53 48 54 51 55 64 56 82 57
REMARK SMILES IDX 49 58 50 59 63 61 83 62 52 63 37 64 38 65 46 66 39 67 45 68
REMARK SMILES IDX 40 69 41 70 42 71 43 72 44 73 67 74 68 75 76 76 69 77 75 78
REMARK SMILES IDX 70 79 71 80 72 81 73 82 74 83 53 84 54 85 62 86 55 87 61 88
REMARK SMILES IDX 56 89 57 90 58 91 59 92 60 93
REMARK H PARENT 18 6 7 14 12 20 25 30 81 49 51 60
REMARK Flexibility Score: inf
ROOT
ATOM      1  C   UNL A   1      41.231  22.502  26.521  1.00  0.00     0.021 C 
ENDROOT
BRANCH   1   2
ATOM      2  C   UNL A   1      39.907  21.799  26.804  1.00  0.00     0.116 C 
BRANCH   2   3
ATOM      3  N   UNL A   1      38.783  22.694  26.610  1.00  0.00    -0.356 N 
ATOM      4  O   UNL A   1      37.720  21.536  24.972  1.00  0.00    -0.275 OA
ATOM      5  C   UNL A   1      37.729  22.461  25.779  1.00  0.00     0.220 C 
ATOM      6  H   UNL A   1      38.782  23.537  27.118  1.00  0.00     0.163 HD
BRANCH   5   7
ATOM      7  C   UNL A   1      36.619  23.512  25.819  1.00  0.00     0.104 C 
BRANCH   7   8
ATOM      8  C   UNL A   1      35.185  23.298  25.243  1.00  0.00     0.009 C 
ATOM      9  C   UNL A   1      34.649  24.285  24.215  1.00  0.00     0.066 C 
ATOM     10  C   UNL A   1      34.082  22.971  26.271  1.00  0.00     0.066 C 
ATOM     11  C   UNL A   1      34.062  25.536  24.856  1.00  0.00     0.262 C 
ATOM     12  C   UNL A   1      32.983  24.027  26.536  1.00  0.00     0.262 C 
ATOM     13  N   UNL A   1      32.961  25.246  25.749  1.00  0.00    -0.334 N 
ATOM     14  H   UNL A   1      32.244  24.930  25.095  1.00  0.00     0.348 HD
BRANCH  13  15
ATOM     15  C   UNL A   1      32.402  26.446  26.392  1.00  0.00     0.272 C 
BRANCH  15  16
ATOM     16  C   UNL A   1      33.039  27.823  26.155  1.00  0.00     0.161 C 
BRANCH  16  17
ATOM     17  C   UNL A   1      32.082  28.995  26.042  1.00  0.00     0.225 C 
ATOM     18  O   UNL A   1      31.884  29.768  26.979  1.00  0.00    -0.275 OA
ATOM     19  N   UNL A   1      31.452  29.198  24.838  1.00  0.00    -0.353 N 
ATOM     20  H   UNL A   1      31.089  30.097  24.665  1.00  0.00     0.163 HD
BRANCH  19  21
ATOM     21  C   UNL A   1      31.278  28.220  23.824  1.00  0.00     0.082 C 
ATOM     22  C   UNL A   1      29.943  27.627  23.489  1.00  0.00     0.027 C 
ATOM     23  C   UNL A   1      30.655  28.493  22.492  1.00  0.00     0.027 C 
ENDBRANCH  19  21
ENDBRANCH  16  17
ENDBRANCH  15  16
ENDBRANCH  13  15
ENDBRANCH   7   8
ENDBRANCH   5   7
ENDBRANCH   2   3
ENDBRANCH   1   2
BRANCH   1  24
ATOM     24  C   UNL A   1      42.361  21.563  26.078  1.00  0.00     0.002 C 
BRANCH  24  25
ATOM     25  C   UNL A   1      43.756  22.194  26.007  1.00  0.00     0.002 C 
BRANCH  25  26
ATOM     26  C   UNL A   1      44.073  23.187  27.122  1.00  0.00     0.021 C 
BRANCH  26  27
ATOM     27  C   UNL A   1      44.358  24.605  26.644  1.00  0.00     0.116 C 
BRANCH  27  28
ATOM     28  N   UNL A   1      43.394  25.063  25.654  1.00  0.00    -0.352 N 
ATOM     29  C   UNL A   1      42.339  25.925  25.813  1.00  0.00     0.251 C 
ATOM     30  H   UNL A   1      43.515  24.704  24.747  1.00  0.00     0.163 HD
ATOM     31  O   UNL A   1      41.526  26.078  24.904  1.00  0.00    -0.269 OA
BRANCH  29  32
ATOM     32  C   UNL A   1      42.175  26.645  27.092  1.00  0.00     0.039 A 
ATOM     33  C   UNL A   1      42.841  27.858  27.272  1.00  0.00     0.014 A 
ATOM     34  C   UNL A   1      41.347  26.136  28.097  1.00  0.00     0.014 A 
ATOM     35  C   UNL A   1      42.625  28.592  28.440  1.00  0.00     0.010 A 
ATOM     36  C   UNL A   1      41.072  26.907  29.222  1.00  0.00     0.010 A 
ATOM     37  C   UNL A   1      41.710  28.142  29.406  1.00  0.00    -0.014 A 
BRANCH  37  38
ATOM     38  C   UNL A   1      41.399  28.964  30.603  1.00  0.00     0.031 A 
ATOM     39  C   UNL A   1      42.233  28.848  31.848  1.00  0.00     0.074 A 
ATOM     40  C   UNL A   1      40.329  29.784  30.578  1.00  0.00     0.049 A 
ATOM     41  N   UNL A   1      42.110  29.487  32.983  1.00  0.00    -0.248 NA
ATOM     42  C   UNL A   1      43.332  27.869  31.826  1.00  0.00     0.031 C 
ATOM     43  C   UNL A   1      39.414  29.949  29.445  1.00  0.00     0.029 A 
ATOM     44  N   UNL A   1      39.831  30.636  31.532  1.00  0.00    -0.354 N 
ATOM     45  C   UNL A   1      43.106  28.983  33.811  1.00  0.00     0.074 A 
ATOM     46  C   UNL A   1      43.787  27.946  33.068  1.00  0.00     0.031 C 
ATOM     47  C   UNL A   1      38.495  30.876  29.754  1.00  0.00     0.029 A 
ATOM     48  C   UNL A   1      38.724  31.339  31.119  1.00  0.00     0.049 A 
ATOM     49  H   UNL A   1      40.228  30.733  32.427  1.00  0.00     0.167 HD
ATOM     50  C   UNL A   1      43.438  29.363  35.070  1.00  0.00     0.031 A 
ATOM     51  C   UNL A   1      37.976  32.255  31.764  1.00  0.00     0.031 A 
ATOM     52  C   UNL A   1      42.751  30.392  35.805  1.00  0.00     0.049 A 
ATOM     53  C   UNL A   1      38.350  32.647  33.166  1.00  0.00     0.074 A 
ATOM     54  C   UNL A   1      43.044  30.891  37.063  1.00  0.00     0.029 A 
ATOM     55  N   UNL A   1      41.627  31.071  35.358  1.00  0.00    -0.354 N 
ATOM     56  N   UNL A   1      39.347  32.218  33.904  1.00  0.00    -0.248 NA
ATOM     57  C   UNL A   1      37.504  33.655  33.818  1.00  0.00     0.031 C 
ATOM     58  C   UNL A   1      42.058  31.824  37.402  1.00  0.00     0.029 A 
ATOM     59  C   UNL A   1      41.192  31.961  36.328  1.00  0.00     0.049 A 
ATOM     60  H   UNL A   1      41.201  30.941  34.479  1.00  0.00     0.167 HD
ATOM     61  C   UNL A   1      39.261  32.921  35.100  1.00  0.00     0.074 A 
ATOM     62  C   UNL A   1      38.129  33.816  34.977  1.00  0.00     0.031 C 
ATOM     63  C   UNL A   1      40.052  32.834  36.200  1.00  0.00     0.031 A 
BRANCH  50  64
ATOM     64  C   UNL A   1      44.584  28.642  35.734  1.00  0.00    -0.014 A 
ATOM     65  C   UNL A   1      44.371  27.479  36.501  1.00  0.00     0.010 A 
ATOM     66  C   UNL A   1      45.897  29.119  35.573  1.00  0.00     0.010 A 
ATOM     67  C   UNL A   1      45.440  26.844  37.138  1.00  0.00     0.020 A 
ATOM     68  C   UNL A   1      46.974  28.467  36.181  1.00  0.00     0.020 A 
ATOM     69  C   UNL A   1      46.736  27.346  36.977  1.00  0.00     0.054 A 
BRANCH  69  70
ATOM     70  S   UNL A   1      48.104  26.500  37.814  1.00  0.00     0.124 S 
ATOM     71  O   UNL A   1      47.514  25.197  38.113  1.00  0.00    -0.237 OA
ATOM     72  O   UNL A   1      49.149  26.495  36.794  1.00  0.00    -0.237 OA
ATOM     73  O   UNL A   1      48.375  27.342  38.976  1.00  0.00    -0.744 OA
ENDBRANCH  69  70
ENDBRANCH  50  64
BRANCH  51  74
ATOM     74  C   UNL A   1      36.817  32.882  31.072  1.00  0.00    -0.014 A 
ATOM     75  C   UNL A   1      35.520  32.768  31.605  1.00  0.00     0.010 A 
ATOM     76  C   UNL A   1      37.007  33.629  29.894  1.00  0.00     0.010 A 
ATOM     77  C   UNL A   1      34.436  33.380  30.970  1.00  0.00     0.020 A 
ATOM     78  C   UNL A   1      35.930  34.267  29.272  1.00  0.00     0.020 A 
ATOM     79  C   UNL A   1      34.650  34.132  29.811  1.00  0.00     0.054 A 
BRANCH  79  80
ATOM     80  S   UNL A   1      33.237  34.977  29.047  1.00  0.00     0.124 S 
ATOM     81  O   UNL A   1      32.771  33.982  28.086  1.00  0.00    -0.237 OA
ATOM     82  O   UNL A   1      32.358  35.215  30.189  1.00  0.00    -0.237 OA
ATOM     83  O   UNL A   1      33.830  36.179  28.466  1.00  0.00    -0.744 OA
ENDBRANCH  79  80
ENDBRANCH  51  74
BRANCH  63  84
ATOM     84  C   UNL A   1      39.730  33.749  37.355  1.00  0.00    -0.014 A 
ATOM     85  C   UNL A   1      39.098  33.267  38.515  1.00  0.00     0.010 A 
ATOM     86  C   UNL A   1      40.106  35.104  37.292  1.00  0.00     0.010 A 
ATOM     87  C   UNL A   1      38.812  34.133  39.574  1.00  0.00     0.020 A 
ATOM     88  C   UNL A   1      39.851  35.965  38.363  1.00  0.00     0.020 A 
ATOM     89  C   UNL A   1      39.190  35.476  39.491  1.00  0.00     0.054 A 
BRANCH  89  90
ATOM     90  S   UNL A   1      38.837  36.570  40.894  1.00  0.00     0.124 S 
ATOM     91  O   UNL A   1      38.328  37.765  40.225  1.00  0.00    -0.237 OA
ATOM     92  O   UNL A   1      37.851  35.807  41.655  1.00  0.00    -0.237 OA
ATOM     93  O   UNL A   1      40.134  36.728  41.547  1.00  0.00    -0.744 OA
ENDBRANCH  89  90
ENDBRANCH  63  84
ENDBRANCH  37  38
ENDBRANCH  29  32
ENDBRANCH  27  28
ENDBRANCH  26  27
ENDBRANCH  25  26
ENDBRANCH  24  25
ENDBRANCH   1  24
TORSDOF 21
ENDMDL
MODEL 3
REMARK VINA RESULT:      -9.1      5.026      6.517
REMARK SMILES O=C(CC1CC[NH+](CCC(=O)NC2CC2)CC1)NCCCCCCNC(=O)c1ccc(-c2c3nc(c(-c4ccc(S(=O)(=O)[O-])cc4)c4ccc([nH]4)c(-c4ccc(S(=O)(=O)[O-])cc4)c4nc(c(-c5ccc(S(=O)(=O)[O-])cc5)c5ccc2[nH]5)C=C4)C=C3)cc1
REMARK SMILES IDX 20 1 19 2 18 3 1 4 2 5 3 7 4 8 5 9 17 10 6 11 16 12 7 13
REMARK SMILES IDX 8 15 9 16 10 17 11 18 12 19 13 21 14 22 15 23 21 24 22 25
REMARK SMILES IDX 23 26 24 27 25 28 26 29 27 31 28 32 29 33 87 34 30 35 86 36
REMARK SMILES IDX 31 37 32 38 33 39 80 40 34 41 85 42 79 43 81 44 35 45 84 46
REMARK SMILES IDX 78 47 77 48 36 50 66 51 47 52 65 53 48 54 51 55 64 56 82 57
REMARK SMILES IDX 49 58 50 59 63 61 83 62 52 63 37 64 38 65 46 66 39 67 45 68
REMARK SMILES IDX 40 69 41 70 42 71 43 72 44 73 67 74 68 75 76 76 69 77 75 78
REMARK SMILES IDX 70 79 71 80 72 81 73 82 74 83 53 84 54 85 62 86 55 87 61 88
REMARK SMILES IDX 56 89 57 90 58 91 59 92 60 93
REMARK H PARENT 18 6 7 14 12 20 25 30 81 49 51 60
REMARK Flexibility Score: inf
ROOT
ATOM      1  C   UNL A   1      34.499  29.287  27.398  1.00  0.00     0.021 C 
ENDROOT
BRANCH   1   2
ATOM      2  C   UNL A   1      33.034  29.673  27.221  1.00  0.00     0.116 C 
BRANCH   2   3
ATOM      3  N   UNL A   1      32.320  28.684  26.437  1.00  0.00    -0.356 N 
ATOM      4  O   UNL A   1      31.319  30.092  24.964  1.00  0.00    -0.275 OA
ATOM      5  C   UNL A   1      31.589  28.948  25.318  1.00  0.00     0.220 C 
ATOM      6  H   UNL A   1      32.366  27.748  26.738  1.00  0.00     0.163 HD
BRANCH   5   7
ATOM      7  C   UNL A   1      31.008  27.723  24.611  1.00  0.00     0.104 C 
BRANCH   7   8
ATOM      8  C   UNL A   1      31.810  26.808  23.635  1.00  0.00     0.009 C 
ATOM      9  C   UNL A   1      31.108  25.617  22.997  1.00  0.00     0.066 C 
ATOM     10  C   UNL A   1      33.220  26.389  24.102  1.00  0.00     0.066 C 
ATOM     11  C   UNL A   1      31.080  24.397  23.909  1.00  0.00     0.262 C 
ATOM     12  C   UNL A   1      33.466  24.906  24.468  1.00  0.00     0.262 C 
ATOM     13  N   UNL A   1      32.403  23.937  24.273  1.00  0.00    -0.334 N 
ATOM     14  H   UNL A   1      32.751  23.586  23.381  1.00  0.00     0.348 HD
BRANCH  13  15
ATOM     15  C   UNL A   1      32.387  22.773  25.173  1.00  0.00     0.272 C 
BRANCH  15  16
ATOM     16  C   UNL A   1      33.630  21.884  25.318  1.00  0.00     0.161 C 
BRANCH  16  17
ATOM     17  C   UNL A   1      33.712  21.044  26.579  1.00  0.00     0.225 C 
ATOM     18  O   UNL A   1      34.260  21.454  27.602  1.00  0.00    -0.275 OA
ATOM     19  N   UNL A   1      33.121  19.803  26.565  1.00  0.00    -0.353 N 
ATOM     20  H   UNL A   1      32.902  19.398  27.435  1.00  0.00     0.163 HD
BRANCH  19  21
ATOM     21  C   UNL A   1      32.801  19.056  25.401  1.00  0.00     0.082 C 
ATOM     22  C   UNL A   1      33.840  18.583  24.430  1.00  0.00     0.027 C 
ATOM     23  C   UNL A   1      33.062  17.592  25.244  1.00  0.00     0.027 C 
ENDBRANCH  19  21
ENDBRANCH  16  17
ENDBRANCH  15  16
ENDBRANCH  13  15
ENDBRANCH   7   8
ENDBRANCH   5   7
ENDBRANCH   2   3
ENDBRANCH   1   2
BRANCH   1  24
ATOM     24  C   UNL A   1      35.413  30.453  27.803  1.00  0.00     0.002 C 
BRANCH  24  25
ATOM     25  C   UNL A   1      34.725  31.608  28.539  1.00  0.00     0.002 C 
BRANCH  25  26
ATOM     26  C   UNL A   1      35.567  32.873  28.687  1.00  0.00     0.021 C 
BRANCH  26  27
ATOM     27  C   UNL A   1      36.467  32.893  29.915  1.00  0.00     0.116 C 
BRANCH  27  28
ATOM     28  N   UNL A   1      36.081  31.898  30.904  1.00  0.00    -0.352 N 
ATOM     29  C   UNL A   1      36.742  30.758  31.284  1.00  0.00     0.251 C 
ATOM     30  H   UNL A   1      35.227  32.066  31.364  1.00  0.00     0.163 HD
ATOM     31  O   UNL A   1      36.192  29.944  32.022  1.00  0.00    -0.269 OA
BRANCH  29  32
ATOM     32  C   UNL A   1      38.106  30.505  30.777  1.00  0.00     0.039 A 
ATOM     33  C   UNL A   1      39.132  30.266  31.692  1.00  0.00     0.014 A 
ATOM     34  C   UNL A   1      38.364  30.480  29.403  1.00  0.00     0.014 A 
ATOM     35  C   UNL A   1      40.405  29.939  31.225  1.00  0.00     0.010 A 
ATOM     36  C   UNL A   1      39.612  30.076  28.941  1.00  0.00     0.010 A 
ATOM     37  C   UNL A   1      40.646  29.803  29.847  1.00  0.00    -0.014 A 
BRANCH  37  38
ATOM     38  C   UNL A   1      41.971  29.358  29.346  1.00  0.00     0.031 A 
ATOM     39  C   UNL A   1      43.133  30.310  29.306  1.00  0.00     0.074 A 
ATOM     40  C   UNL A   1      42.110  28.100  28.880  1.00  0.00     0.049 A 
ATOM     41  N   UNL A   1      44.360  30.095  28.904  1.00  0.00    -0.248 NA
ATOM     42  C   UNL A   1      42.881  31.690  29.753  1.00  0.00     0.031 C 
ATOM     43  C   UNL A   1      41.044  27.096  28.822  1.00  0.00     0.029 A 
ATOM     44  N   UNL A   1      43.206  27.450  28.370  1.00  0.00    -0.354 N 
ATOM     45  C   UNL A   1      45.021  31.311  29.039  1.00  0.00     0.074 A 
ATOM     46  C   UNL A   1      44.045  32.271  29.506  1.00  0.00     0.031 C 
ATOM     47  C   UNL A   1      41.548  25.947  28.347  1.00  0.00     0.029 A 
ATOM     48  C   UNL A   1      42.958  26.142  28.024  1.00  0.00     0.049 A 
ATOM     49  H   UNL A   1      44.084  27.878  28.262  1.00  0.00     0.167 HD
ATOM     50  C   UNL A   1      46.327  31.597  28.813  1.00  0.00     0.031 A 
ATOM     51  C   UNL A   1      43.772  25.202  27.506  1.00  0.00     0.031 A 
ATOM     52  C   UNL A   1      47.290  30.636  28.343  1.00  0.00     0.049 A 
ATOM     53  C   UNL A   1      45.213  25.548  27.246  1.00  0.00     0.074 A 
ATOM     54  C   UNL A   1      48.648  30.811  28.138  1.00  0.00     0.029 A 
ATOM     55  N   UNL A   1      46.998  29.327  27.992  1.00  0.00    -0.354 N 
ATOM     56  N   UNL A   1      45.839  26.681  27.458  1.00  0.00    -0.248 NA
ATOM     57  C   UNL A   1      46.056  24.484  26.688  1.00  0.00     0.031 C 
ATOM     58  C   UNL A   1      49.163  29.627  27.600  1.00  0.00     0.029 A 
ATOM     59  C   UNL A   1      48.142  28.691  27.537  1.00  0.00     0.049 A 
ATOM     60  H   UNL A   1      46.108  28.910  28.056  1.00  0.00     0.167 HD
ATOM     61  C   UNL A   1      47.159  26.459  27.079  1.00  0.00     0.074 A 
ATOM     62  C   UNL A   1      47.242  25.079  26.646  1.00  0.00     0.031 C 
ATOM     63  C   UNL A   1      48.207  27.321  27.092  1.00  0.00     0.031 A 
BRANCH  50  64
ATOM     64  C   UNL A   1      46.778  33.016  29.056  1.00  0.00    -0.014 A 
ATOM     65  C   UNL A   1      47.257  33.426  30.316  1.00  0.00     0.010 A 
ATOM     66  C   UNL A   1      46.744  33.949  28.005  1.00  0.00     0.010 A 
ATOM     67  C   UNL A   1      47.638  34.753  30.532  1.00  0.00     0.020 A 
ATOM     68  C   UNL A   1      47.157  35.270  28.208  1.00  0.00     0.020 A 
ATOM     69  C   UNL A   1      47.581  35.668  29.476  1.00  0.00     0.054 A 
BRANCH  69  70
ATOM     70  S   UNL A   1      48.084  37.383  29.786  1.00  0.00     0.124 S 
ATOM     71  O   UNL A   1      48.738  37.274  31.088  1.00  0.00    -0.237 OA
ATOM     72  O   UNL A   1      48.972  37.664  28.661  1.00  0.00    -0.237 OA
ATOM     73  O   UNL A   1      46.824  38.121  29.781  1.00  0.00    -0.744 OA
ENDBRANCH  69  70
ENDBRANCH  50  64
BRANCH  51  74
ATOM     74  C   UNL A   1      43.245  23.838  27.229  1.00  0.00    -0.014 A 
ATOM     75  C   UNL A   1      42.782  23.499  25.945  1.00  0.00     0.010 A 
ATOM     76  C   UNL A   1      43.238  22.857  28.239  1.00  0.00     0.010 A 
ATOM     77  C   UNL A   1      42.312  22.210  25.679  1.00  0.00     0.020 A 
ATOM     78  C   UNL A   1      42.798  21.559  27.968  1.00  0.00     0.020 A 
ATOM     79  C   UNL A   1      42.331  21.246  26.690  1.00  0.00     0.054 A 
BRANCH  79  80
ATOM     80  S   UNL A   1      41.784  19.560  26.299  1.00  0.00     0.124 S 
ATOM     81  O   UNL A   1      42.115  18.840  27.525  1.00  0.00    -0.237 OA
ATOM     82  O   UNL A   1      40.359  19.745  26.037  1.00  0.00    -0.237 OA
ATOM     83  O   UNL A   1      42.583  19.204  25.128  1.00  0.00    -0.744 OA
ENDBRANCH  79  80
ENDBRANCH  51  74
BRANCH  63  84
ATOM     84  C   UNL A   1      49.544  26.788  26.641  1.00  0.00    -0.014 A 
ATOM     85  C   UNL A   1      50.444  26.208  27.553  1.00  0.00     0.010 A 
ATOM     86  C   UNL A   1      49.884  26.831  25.277  1.00  0.00     0.010 A 
ATOM     87  C   UNL A   1      51.677  25.718  27.112  1.00  0.00     0.020 A 
ATOM     88  C   UNL A   1      51.101  26.313  24.828  1.00  0.00     0.020 A 
ATOM     89  C   UNL A   1      51.998  25.774  25.753  1.00  0.00     0.054 A 
BRANCH  89  90
ATOM     90  S   UNL A   1      53.590  25.101  25.203  1.00  0.00     0.124 S 
ATOM     91  O   UNL A   1      53.334  23.664  25.222  1.00  0.00    -0.237 OA
ATOM     92  O   UNL A   1      53.748  25.695  23.879  1.00  0.00    -0.237 OA
ATOM     93  O   UNL A   1      54.535  25.578  26.210  1.00  0.00    -0.744 OA
ENDBRANCH  89  90
ENDBRANCH  63  84
ENDBRANCH  37  38
ENDBRANCH  29  32
ENDBRANCH  27  28
ENDBRANCH  26  27
ENDBRANCH  25  26
ENDBRANCH  24  25
ENDBRANCH   1  24
TORSDOF 21
ENDMDL
