MODEL 1
REMARK VINA RESULT:     -12.6      0.000      0.000
REMARK SMILES Cc1ccc(-c2cc(C(=O)NCCCCCCNC(=O)c3ccc(-c4c5nc(c(-c6ccc(S(=O)(=O)[O-])cc6)c6ccc([nH]6)c(-c6ccc(S(=O)(=O)[O-])cc6)c6nc(c(-c7ccc(S(=O)(=O)[O-])cc7)c7ccc4[nH]7)C=C6)C=C5)cc3)c3cc(C)ccc3n2)c(C)c1
REMARK SMILES IDX 15 1 14 2 13 3 12 4 11 5 9 6 10 7 8 9 6 10 7 11 88 12 87 13
REMARK SMILES IDX 81 14 86 15 82 16 85 17 83 18 84 19 5 20 1 21 2 22 3 23
REMARK SMILES IDX 91 24 4 25 89 26 90 27 16 28 17 29 18 30 19 31 20 33 21 34
REMARK SMILES IDX 22 35 80 36 23 37 79 38 24 39 25 40 26 41 73 42 27 43 78 44
REMARK SMILES IDX 72 45 74 46 28 47 77 48 71 49 70 50 29 52 59 53 40 54 58 55
REMARK SMILES IDX 41 56 44 57 57 58 75 59 42 60 43 61 56 63 76 64 45 65 30 66
REMARK SMILES IDX 31 67 39 68 32 69 38 70 33 71 34 72 35 73 36 74 37 75 60 76
REMARK SMILES IDX 61 77 69 78 62 79 68 80 63 81 64 82 65 83 66 84 67 85 46 86
REMARK SMILES IDX 47 87 55 88 48 89 54 90 49 91 50 92 51 93 52 94 53 95
REMARK H PARENT 11 8 18 32 74 51 44 62
REMARK Flexibility Score: inf
ROOT
ATOM      1  C   UNL A   1      38.399  23.701  26.410  1.00  0.00     0.002 C 
ENDROOT
BRANCH   1   2
ATOM      2  C   UNL A   1      37.304  23.450  25.366  1.00  0.00     0.002 C 
BRANCH   2   3
ATOM      3  C   UNL A   1      37.283  22.096  24.651  1.00  0.00     0.021 C 
BRANCH   3   4
ATOM      4  C   UNL A   1      36.379  21.022  25.236  1.00  0.00     0.116 C 
BRANCH   4   5
ATOM      5  N   UNL A   1      35.590  21.378  26.400  1.00  0.00    -0.352 N 
ATOM      6  C   UNL A   1      34.234  21.623  26.522  1.00  0.00     0.252 C 
ATOM      7  O   UNL A   1      33.790  21.820  27.656  1.00  0.00    -0.269 OA
ATOM      8  H   UNL A   1      36.102  21.458  27.237  1.00  0.00     0.163 HD
BRANCH   6   9
ATOM      9  C   UNL A   1      33.301  21.780  25.358  1.00  0.00     0.051 A 
ATOM     10  C   UNL A   1      32.121  23.352  23.980  1.00  0.00     0.072 A 
ATOM     11  C   UNL A   1      32.879  23.094  25.110  1.00  0.00     0.043 A 
ATOM     12  N   UNL A   1      31.894  22.408  23.041  1.00  0.00    -0.248 NA
ATOM     13  C   UNL A   1      32.267  21.145  23.285  1.00  0.00     0.072 A 
ATOM     14  C   UNL A   1      32.860  20.748  24.496  1.00  0.00     0.013 A 
ATOM     15  C   UNL A   1      32.063  20.196  22.294  1.00  0.00     0.029 A 
ATOM     16  C   UNL A   1      32.976  19.364  24.745  1.00  0.00     0.014 A 
ATOM     17  C   UNL A   1      32.411  18.856  22.475  1.00  0.00     0.005 A 
ATOM     18  C   UNL A   1      32.854  18.423  23.719  1.00  0.00    -0.050 A 
ATOM     19  C   UNL A   1      33.345  17.021  23.921  1.00  0.00     0.044 C 
BRANCH  10  20
ATOM     20  C   UNL A   1      31.447  24.637  23.751  1.00  0.00     0.003 A 
ATOM     21  C   UNL A   1      29.466  28.449  23.158  1.00  0.00     0.044 C 
ATOM     22  C   UNL A   1      30.135  27.125  23.372  1.00  0.00    -0.051 A 
ATOM     23  C   UNL A   1      29.757  26.278  24.415  1.00  0.00     0.004 A 
ATOM     24  C   UNL A   1      31.166  26.726  22.517  1.00  0.00     0.007 A 
ATOM     25  C   UNL A   1      30.407  25.052  24.602  1.00  0.00     0.011 A 
ATOM     26  C   UNL A   1      31.820  25.491  22.685  1.00  0.00    -0.041 A 
ATOM     27  C   UNL A   1      32.927  25.158  21.716  1.00  0.00     0.045 C 
ENDBRANCH  10  20
ENDBRANCH   6   9
ENDBRANCH   4   5
ENDBRANCH   3   4
ENDBRANCH   2   3
ENDBRANCH   1   2
BRANCH   1  28
ATOM     28  C   UNL A   1      39.507  22.655  26.553  1.00  0.00     0.021 C 
BRANCH  28  29
ATOM     29  C   UNL A   1      40.883  23.166  26.968  1.00  0.00     0.116 C 
BRANCH  29  30
ATOM     30  N   UNL A   1      41.527  23.961  25.938  1.00  0.00    -0.352 N 
ATOM     31  C   UNL A   1      41.888  25.286  25.946  1.00  0.00     0.251 C 
ATOM     32  H   UNL A   1      41.739  23.476  25.108  1.00  0.00     0.163 HD
ATOM     33  O   UNL A   1      42.303  25.808  24.911  1.00  0.00    -0.269 OA
BRANCH  31  34
ATOM     34  C   UNL A   1      41.752  26.098  27.176  1.00  0.00     0.039 A 
ATOM     35  C   UNL A   1      42.678  27.119  27.415  1.00  0.00     0.014 A 
ATOM     36  C   UNL A   1      40.731  25.856  28.100  1.00  0.00     0.014 A 
ATOM     37  C   UNL A   1      42.538  27.941  28.536  1.00  0.00     0.010 A 
ATOM     38  C   UNL A   1      40.553  26.719  29.182  1.00  0.00     0.010 A 
ATOM     39  C   UNL A   1      41.449  27.775  29.408  1.00  0.00    -0.014 A 
BRANCH  39  40
ATOM     40  C   UNL A   1      41.219  28.709  30.542  1.00  0.00     0.031 A 
ATOM     41  C   UNL A   1      42.033  28.592  31.803  1.00  0.00     0.074 A 
ATOM     42  C   UNL A   1      40.232  29.627  30.461  1.00  0.00     0.049 A 
ATOM     43  N   UNL A   1      41.915  29.254  32.926  1.00  0.00    -0.248 NA
ATOM     44  C   UNL A   1      43.110  27.586  31.810  1.00  0.00     0.031 C 
ATOM     45  C   UNL A   1      39.354  29.826  29.306  1.00  0.00     0.029 A 
ATOM     46  N   UNL A   1      39.794  30.557  31.372  1.00  0.00    -0.354 N 
ATOM     47  C   UNL A   1      42.897  28.750  33.769  1.00  0.00     0.074 A 
ATOM     48  C   UNL A   1      43.565  27.687  33.051  1.00  0.00     0.031 C 
ATOM     49  C   UNL A   1      38.493  30.821  29.572  1.00  0.00     0.029 A 
ATOM     50  C   UNL A   1      38.723  31.300  30.932  1.00  0.00     0.049 A 
ATOM     51  H   UNL A   1      40.207  30.680  32.257  1.00  0.00     0.167 HD
ATOM     52  C   UNL A   1      43.231  29.151  35.020  1.00  0.00     0.031 A 
ATOM     53  C   UNL A   1      37.992  32.245  31.556  1.00  0.00     0.031 A 
ATOM     54  C   UNL A   1      42.562  30.206  35.735  1.00  0.00     0.049 A 
ATOM     55  C   UNL A   1      38.346  32.632  32.968  1.00  0.00     0.074 A 
ATOM     56  C   UNL A   1      42.843  30.700  36.998  1.00  0.00     0.029 A 
ATOM     57  N   UNL A   1      41.483  30.932  35.254  1.00  0.00    -0.354 N 
ATOM     58  N   UNL A   1      39.313  32.177  33.728  1.00  0.00    -0.248 NA
ATOM     59  C   UNL A   1      37.514  33.663  33.604  1.00  0.00     0.031 C 
ATOM     60  C   UNL A   1      41.899  31.685  37.302  1.00  0.00     0.029 A 
ATOM     61  C   UNL A   1      41.072  31.852  36.203  1.00  0.00     0.049 A 
ATOM     62  H   UNL A   1      41.071  30.811  34.369  1.00  0.00     0.167 HD
ATOM     63  C   UNL A   1      39.222  32.887  34.921  1.00  0.00     0.074 A 
ATOM     64  C   UNL A   1      38.120  33.815  34.774  1.00  0.00     0.031 C 
ATOM     65  C   UNL A   1      39.979  32.777  36.040  1.00  0.00     0.031 A 
BRANCH  52  66
ATOM     66  C   UNL A   1      44.382  28.453  35.697  1.00  0.00    -0.014 A 
ATOM     67  C   UNL A   1      45.699  28.922  35.542  1.00  0.00     0.010 A 
ATOM     68  C   UNL A   1      44.142  27.360  36.551  1.00  0.00     0.010 A 
ATOM     69  C   UNL A   1      46.758  28.295  36.203  1.00  0.00     0.020 A 
ATOM     70  C   UNL A   1      45.196  26.748  37.237  1.00  0.00     0.020 A 
ATOM     71  C   UNL A   1      46.499  27.213  37.049  1.00  0.00     0.054 A 
BRANCH  71  72
ATOM     72  S   UNL A   1      47.891  26.447  37.924  1.00  0.00     0.124 S 
ATOM     73  O   UNL A   1      48.222  27.468  38.915  1.00  0.00    -0.237 OA
ATOM     74  O   UNL A   1      47.298  25.224  38.457  1.00  0.00    -0.237 OA
ATOM     75  O   UNL A   1      48.892  26.248  36.879  1.00  0.00    -0.744 OA
ENDBRANCH  71  72
ENDBRANCH  52  66
BRANCH  53  76
ATOM     76  C   UNL A   1      36.829  32.874  30.867  1.00  0.00    -0.014 A 
ATOM     77  C   UNL A   1      37.016  33.917  29.943  1.00  0.00     0.010 A 
ATOM     78  C   UNL A   1      35.520  32.447  31.156  1.00  0.00     0.010 A 
ATOM     79  C   UNL A   1      35.915  34.547  29.352  1.00  0.00     0.020 A 
ATOM     80  C   UNL A   1      34.418  33.050  30.542  1.00  0.00     0.020 A 
ATOM     81  C   UNL A   1      34.624  34.111  29.658  1.00  0.00     0.054 A 
BRANCH  81  82
ATOM     82  S   UNL A   1      33.210  34.935  28.873  1.00  0.00     0.124 S 
ATOM     83  O   UNL A   1      32.337  35.188  30.014  1.00  0.00    -0.237 OA
ATOM     84  O   UNL A   1      33.828  36.113  28.272  1.00  0.00    -0.237 OA
ATOM     85  O   UNL A   1      32.723  33.940  27.920  1.00  0.00    -0.744 OA
ENDBRANCH  81  82
ENDBRANCH  53  76
BRANCH  65  86
ATOM     86  C   UNL A   1      39.671  33.704  37.186  1.00  0.00    -0.014 A 
ATOM     87  C   UNL A   1      38.904  33.275  38.284  1.00  0.00     0.010 A 
ATOM     88  C   UNL A   1      40.218  35.000  37.198  1.00  0.00     0.010 A 
ATOM     89  C   UNL A   1      38.674  34.133  39.363  1.00  0.00     0.020 A 
ATOM     90  C   UNL A   1      40.016  35.850  38.287  1.00  0.00     0.020 A 
ATOM     91  C   UNL A   1      39.236  35.413  39.360  1.00  0.00     0.054 A 
BRANCH  91  92
ATOM     92  S   UNL A   1      38.977  36.480  40.803  1.00  0.00     0.124 S 
ATOM     93  O   UNL A   1      38.540  37.729  40.185  1.00  0.00    -0.237 OA
ATOM     94  O   UNL A   1      37.952  35.758  41.554  1.00  0.00    -0.237 OA
ATOM     95  O   UNL A   1      40.290  36.528  41.441  1.00  0.00    -0.744 OA
ENDBRANCH  91  92
ENDBRANCH  65  86
ENDBRANCH  39  40
ENDBRANCH  31  34
ENDBRANCH  29  30
ENDBRANCH  28  29
ENDBRANCH   1  28
TORSDOF 17
ENDMDL
MODEL 2
REMARK VINA RESULT:     -12.5      0.484      8.005
REMARK SMILES Cc1ccc(-c2cc(C(=O)NCCCCCCNC(=O)c3ccc(-c4c5nc(c(-c6ccc(S(=O)(=O)[O-])cc6)c6ccc([nH]6)c(-c6ccc(S(=O)(=O)[O-])cc6)c6nc(c(-c7ccc(S(=O)(=O)[O-])cc7)c7ccc4[nH]7)C=C6)C=C5)cc3)c3cc(C)ccc3n2)c(C)c1
REMARK SMILES IDX 15 1 14 2 13 3 12 4 11 5 9 6 10 7 8 9 6 10 7 11 88 12 87 13
REMARK SMILES IDX 81 14 86 15 82 16 85 17 83 18 84 19 5 20 1 21 2 22 3 23
REMARK SMILES IDX 91 24 4 25 89 26 90 27 16 28 17 29 18 30 19 31 20 33 21 34
REMARK SMILES IDX 22 35 80 36 23 37 79 38 24 39 25 40 26 41 73 42 27 43 78 44
REMARK SMILES IDX 72 45 74 46 28 47 77 48 71 49 70 50 29 52 59 53 40 54 58 55
REMARK SMILES IDX 41 56 44 57 57 58 75 59 42 60 43 61 56 63 76 64 45 65 30 66
REMARK SMILES IDX 31 67 39 68 32 69 38 70 33 71 34 72 35 73 36 74 37 75 60 76
REMARK SMILES IDX 61 77 69 78 62 79 68 80 63 81 64 82 65 83 66 84 67 85 46 86
REMARK SMILES IDX 47 87 55 88 48 89 54 90 49 91 50 92 51 93 52 94 53 95
REMARK H PARENT 11 8 18 32 74 51 44 62
REMARK Flexibility Score: inf
ROOT
ATOM      1  C   UNL A   1      38.078  24.089  26.105  1.00  0.00     0.002 C 
ENDROOT
BRANCH   1   2
ATOM      2  C   UNL A   1      36.847  23.629  25.314  1.00  0.00     0.002 C 
BRANCH   2   3
ATOM      3  C   UNL A   1      36.934  22.308  24.544  1.00  0.00     0.021 C 
BRANCH   3   4
ATOM      4  C   UNL A   1      36.352  21.076  25.221  1.00  0.00     0.116 C 
BRANCH   4   5
ATOM      5  N   UNL A   1      35.509  21.290  26.381  1.00  0.00    -0.352 N 
ATOM      6  C   UNL A   1      34.136  21.436  26.477  1.00  0.00     0.252 C 
ATOM      7  O   UNL A   1      33.649  21.517  27.607  1.00  0.00    -0.269 OA
ATOM      8  H   UNL A   1      35.991  21.341  27.238  1.00  0.00     0.163 HD
BRANCH   6   9
ATOM      9  C   UNL A   1      33.228  21.618  25.297  1.00  0.00     0.051 A 
ATOM     10  C   UNL A   1      32.090  23.222  23.920  1.00  0.00     0.072 A 
ATOM     11  C   UNL A   1      32.823  22.940  25.061  1.00  0.00     0.043 A 
ATOM     12  N   UNL A   1      31.872  22.293  22.963  1.00  0.00    -0.248 NA
ATOM     13  C   UNL A   1      32.227  21.023  23.197  1.00  0.00     0.072 A 
ATOM     14  C   UNL A   1      32.793  20.603  24.413  1.00  0.00     0.013 A 
ATOM     15  C   UNL A   1      32.033  20.090  22.188  1.00  0.00     0.029 A 
ATOM     16  C   UNL A   1      32.891  19.214  24.644  1.00  0.00     0.014 A 
ATOM     17  C   UNL A   1      32.365  18.745  22.357  1.00  0.00     0.005 A 
ATOM     18  C   UNL A   1      32.779  18.290  23.603  1.00  0.00    -0.050 A 
ATOM     19  C   UNL A   1      33.252  16.880  23.793  1.00  0.00     0.044 C 
BRANCH  10  20
ATOM     20  C   UNL A   1      31.433  24.517  23.697  1.00  0.00     0.003 A 
ATOM     21  C   UNL A   1      29.501  28.357  23.122  1.00  0.00     0.044 C 
ATOM     22  C   UNL A   1      30.153  27.023  23.329  1.00  0.00    -0.051 A 
ATOM     23  C   UNL A   1      29.750  26.167  24.355  1.00  0.00     0.004 A 
ATOM     24  C   UNL A   1      31.194  26.624  22.486  1.00  0.00     0.007 A 
ATOM     25  C   UNL A   1      30.383  24.931  24.537  1.00  0.00     0.011 A 
ATOM     26  C   UNL A   1      31.832  25.380  22.648  1.00  0.00    -0.041 A 
ATOM     27  C   UNL A   1      32.951  25.048  21.693  1.00  0.00     0.045 C 
ENDBRANCH  10  20
ENDBRANCH   6   9
ENDBRANCH   4   5
ENDBRANCH   3   4
ENDBRANCH   2   3
ENDBRANCH   1   2
BRANCH   1  28
ATOM     28  C   UNL A   1      39.111  23.032  26.504  1.00  0.00     0.021 C 
BRANCH  28  29
ATOM     29  C   UNL A   1      40.446  23.544  27.032  1.00  0.00     0.116 C 
BRANCH  29  30
ATOM     30  N   UNL A   1      41.216  24.260  26.032  1.00  0.00    -0.352 N 
ATOM     31  C   UNL A   1      41.572  25.586  25.977  1.00  0.00     0.251 C 
ATOM     32  H   UNL A   1      41.532  23.712  25.277  1.00  0.00     0.163 HD
ATOM     33  O   UNL A   1      42.116  26.027  24.964  1.00  0.00    -0.269 OA
BRANCH  31  34
ATOM     34  C   UNL A   1      41.281  26.493  27.110  1.00  0.00     0.039 A 
ATOM     35  C   UNL A   1      40.268  26.143  28.008  1.00  0.00     0.014 A 
ATOM     36  C   UNL A   1      41.985  27.688  27.287  1.00  0.00     0.014 A 
ATOM     37  C   UNL A   1      40.013  26.949  29.121  1.00  0.00     0.010 A 
ATOM     38  C   UNL A   1      41.776  28.456  28.433  1.00  0.00     0.010 A 
ATOM     39  C   UNL A   1      40.794  28.091  29.367  1.00  0.00    -0.014 A 
BRANCH  39  40
ATOM     40  C   UNL A   1      40.613  28.898  30.603  1.00  0.00     0.031 A 
ATOM     41  C   UNL A   1      39.580  29.992  30.654  1.00  0.00     0.074 A 
ATOM     42  C   UNL A   1      41.424  28.688  31.661  1.00  0.00     0.049 A 
ATOM     43  N   UNL A   1      39.341  30.856  31.608  1.00  0.00    -0.248 NA
ATOM     44  C   UNL A   1      38.714  30.147  29.473  1.00  0.00     0.031 C 
ATOM     45  C   UNL A   1      42.483  27.677  31.729  1.00  0.00     0.029 A 
ATOM     46  N   UNL A   1      41.493  29.318  32.879  1.00  0.00    -0.354 N 
ATOM     47  C   UNL A   1      38.301  31.653  31.146  1.00  0.00     0.074 A 
ATOM     48  C   UNL A   1      37.993  31.209  29.804  1.00  0.00     0.031 C 
ATOM     49  C   UNL A   1      43.084  27.748  32.927  1.00  0.00     0.029 A 
ATOM     50  C   UNL A   1      42.491  28.839  33.695  1.00  0.00     0.049 A 
ATOM     51  H   UNL A   1      40.885  30.046  33.144  1.00  0.00     0.167 HD
ATOM     52  C   UNL A   1      37.644  32.650  31.788  1.00  0.00     0.031 A 
ATOM     53  C   UNL A   1      42.900  29.241  34.915  1.00  0.00     0.031 A 
ATOM     54  C   UNL A   1      37.955  33.094  33.122  1.00  0.00     0.049 A 
ATOM     55  C   UNL A   1      42.192  30.390  35.583  1.00  0.00     0.074 A 
ATOM     56  C   UNL A   1      37.331  34.081  33.866  1.00  0.00     0.029 A 
ATOM     57  N   UNL A   1      38.973  32.582  33.912  1.00  0.00    -0.354 N 
ATOM     58  N   UNL A   1      41.176  31.096  35.148  1.00  0.00    -0.248 NA
ATOM     59  C   UNL A   1      42.681  30.793  36.910  1.00  0.00     0.031 C 
ATOM     60  C   UNL A   1      38.007  34.203  35.084  1.00  0.00     0.029 A 
ATOM     61  C   UNL A   1      39.009  33.248  35.126  1.00  0.00     0.049 A 
ATOM     62  H   UNL A   1      39.580  31.853  33.649  1.00  0.00     0.167 HD
ATOM     63  C   UNL A   1      40.888  32.007  36.159  1.00  0.00     0.074 A 
ATOM     64  C   UNL A   1      41.822  31.749  37.236  1.00  0.00     0.031 C 
ATOM     65  C   UNL A   1      39.938  32.974  36.192  1.00  0.00     0.031 A 
BRANCH  52  66
ATOM     66  C   UNL A   1      36.510  33.325  31.061  1.00  0.00    -0.014 A 
ATOM     67  C   UNL A   1      35.203  33.292  31.578  1.00  0.00     0.010 A 
ATOM     68  C   UNL A   1      36.762  34.059  29.887  1.00  0.00     0.010 A 
ATOM     69  C   UNL A   1      34.163  33.953  30.920  1.00  0.00     0.020 A 
ATOM     70  C   UNL A   1      35.729  34.747  29.241  1.00  0.00     0.020 A 
ATOM     71  C   UNL A   1      34.433  34.679  29.757  1.00  0.00     0.054 A 
BRANCH  71  72
ATOM     72  S   UNL A   1      33.068  35.560  28.950  1.00  0.00     0.124 S 
ATOM     73  O   UNL A   1      33.783  36.540  28.135  1.00  0.00    -0.237 OA
ATOM     74  O   UNL A   1      32.397  34.497  28.209  1.00  0.00    -0.237 OA
ATOM     75  O   UNL A   1      32.307  36.117  30.065  1.00  0.00    -0.744 OA
ENDBRANCH  71  72
ENDBRANCH  52  66
BRANCH  53  76
ATOM     76  C   UNL A   1      44.060  28.577  35.577  1.00  0.00    -0.014 A 
ATOM     77  C   UNL A   1      43.868  27.488  36.445  1.00  0.00     0.010 A 
ATOM     78  C   UNL A   1      45.366  29.055  35.361  1.00  0.00     0.010 A 
ATOM     79  C   UNL A   1      44.955  26.915  37.114  1.00  0.00     0.020 A 
ATOM     80  C   UNL A   1      46.459  28.463  36.001  1.00  0.00     0.020 A 
ATOM     81  C   UNL A   1      46.242  27.408  36.890  1.00  0.00     0.054 A 
BRANCH  81  82
ATOM     82  S   UNL A   1      47.639  26.644  37.760  1.00  0.00     0.124 S 
ATOM     83  O   UNL A   1      48.306  27.805  38.339  1.00  0.00    -0.237 OA
ATOM     84  O   UNL A   1      46.970  25.757  38.708  1.00  0.00    -0.237 OA
ATOM     85  O   UNL A   1      48.375  25.966  36.694  1.00  0.00    -0.744 OA
ENDBRANCH  81  82
ENDBRANCH  53  76
BRANCH  65  86
ATOM     86  C   UNL A   1      39.832  33.807  37.443  1.00  0.00    -0.014 A 
ATOM     87  C   UNL A   1      40.520  35.028  37.565  1.00  0.00     0.010 A 
ATOM     88  C   UNL A   1      38.975  33.396  38.480  1.00  0.00     0.010 A 
ATOM     89  C   UNL A   1      40.366  35.812  38.711  1.00  0.00     0.020 A 
ATOM     90  C   UNL A   1      38.795  34.192  39.613  1.00  0.00     0.020 A 
ATOM     91  C   UNL A   1      39.501  35.392  39.726  1.00  0.00     0.054 A 
BRANCH  91  92
ATOM     92  S   UNL A   1      39.269  36.463  41.171  1.00  0.00     0.124 S 
ATOM     93  O   UNL A   1      38.768  37.692  40.561  1.00  0.00    -0.237 OA
ATOM     94  O   UNL A   1      38.299  35.717  41.969  1.00  0.00    -0.237 OA
ATOM     95  O   UNL A   1      40.606  36.557  41.753  1.00  0.00    -0.744 OA
ENDBRANCH  91  92
ENDBRANCH  65  86
ENDBRANCH  39  40
ENDBRANCH  31  34
ENDBRANCH  29  30
ENDBRANCH  28  29
ENDBRANCH   1  28
TORSDOF 17
ENDMDL
MODEL 3
REMARK VINA RESULT:     -12.4      4.542     10.291
REMARK SMILES Cc1ccc(-c2cc(C(=O)NCCCCCCNC(=O)c3ccc(-c4c5nc(c(-c6ccc(S(=O)(=O)[O-])cc6)c6ccc([nH]6)c(-c6ccc(S(=O)(=O)[O-])cc6)c6nc(c(-c7ccc(S(=O)(=O)[O-])cc7)c7ccc4[nH]7)C=C6)C=C5)cc3)c3cc(C)ccc3n2)c(C)c1
REMARK SMILES IDX 15 1 14 2 13 3 12 4 11 5 9 6 10 7 8 9 6 10 7 11 88 12 87 13
REMARK SMILES IDX 81 14 86 15 82 16 85 17 83 18 84 19 5 20 1 21 2 22 3 23
REMARK SMILES IDX 91 24 4 25 89 26 90 27 16 28 17 29 18 30 19 31 20 33 21 34
REMARK SMILES IDX 22 35 80 36 23 37 79 38 24 39 25 40 26 41 73 42 27 43 78 44
REMARK SMILES IDX 72 45 74 46 28 47 77 48 71 49 70 50 29 52 59 53 40 54 58 55
REMARK SMILES IDX 41 56 44 57 57 58 75 59 42 60 43 61 56 63 76 64 45 65 30 66
REMARK SMILES IDX 31 67 39 68 32 69 38 70 33 71 34 72 35 73 36 74 37 75 60 76
REMARK SMILES IDX 61 77 69 78 62 79 68 80 63 81 64 82 65 83 66 84 67 85 46 86
REMARK SMILES IDX 47 87 55 88 48 89 54 90 49 91 50 92 51 93 52 94 53 95
REMARK H PARENT 11 8 18 32 74 51 44 62
REMARK Flexibility Score: inf
ROOT
ATOM      1  C   UNL A   1      32.298  27.953  25.189  1.00  0.00     0.002 C 
ENDROOT
BRANCH   1   2
ATOM      2  C   UNL A   1      33.344  28.786  24.438  1.00  0.00     0.002 C 
BRANCH   2   3
ATOM      3  C   UNL A   1      33.563  28.501  22.949  1.00  0.00     0.021 C 
BRANCH   3   4
ATOM      4  C   UNL A   1      32.442  27.783  22.213  1.00  0.00     0.116 C 
BRANCH   4   5
ATOM      5  N   UNL A   1      32.823  26.808  21.209  1.00  0.00    -0.352 N 
ATOM      6  C   UNL A   1      32.875  25.427  21.275  1.00  0.00     0.252 C 
ATOM      7  O   UNL A   1      33.148  24.817  20.239  1.00  0.00    -0.269 OA
ATOM      8  H   UNL A   1      33.088  27.191  20.342  1.00  0.00     0.163 HD
BRANCH   6   9
ATOM      9  C   UNL A   1      32.736  24.642  22.546  1.00  0.00     0.051 A 
ATOM     10  C   UNL A   1      33.824  23.112  24.041  1.00  0.00     0.072 A 
ATOM     11  C   UNL A   1      33.805  23.779  22.828  1.00  0.00     0.043 A 
ATOM     12  N   UNL A   1      32.923  23.371  25.014  1.00  0.00    -0.248 NA
ATOM     13  C   UNL A   1      31.883  24.169  24.740  1.00  0.00     0.072 A 
ATOM     14  C   UNL A   1      31.668  24.730  23.469  1.00  0.00     0.013 A 
ATOM     15  C   UNL A   1      30.989  24.457  25.762  1.00  0.00     0.029 A 
ATOM     16  C   UNL A   1      30.419  25.339  23.226  1.00  0.00     0.014 A 
ATOM     17  C   UNL A   1      29.873  25.269  25.555  1.00  0.00     0.005 A 
ATOM     18  C   UNL A   1      29.566  25.702  24.271  1.00  0.00    -0.050 A 
ATOM     19  C   UNL A   1      28.444  26.667  24.027  1.00  0.00     0.044 C 
BRANCH  10  20
ATOM     20  C   UNL A   1      34.770  22.027  24.337  1.00  0.00     0.003 A 
ATOM     21  C   UNL A   1      37.524  18.776  25.150  1.00  0.00     0.044 C 
ATOM     22  C   UNL A   1      36.558  19.891  24.878  1.00  0.00    -0.051 A 
ATOM     23  C   UNL A   1      35.182  19.662  24.810  1.00  0.00     0.004 A 
ATOM     24  C   UNL A   1      37.039  21.188  24.679  1.00  0.00     0.007 A 
ATOM     25  C   UNL A   1      34.302  20.716  24.541  1.00  0.00     0.011 A 
ATOM     26  C   UNL A   1      36.164  22.260  24.420  1.00  0.00    -0.041 A 
ATOM     27  C   UNL A   1      36.783  23.620  24.209  1.00  0.00     0.045 C 
ENDBRANCH  10  20
ENDBRANCH   6   9
ENDBRANCH   4   5
ENDBRANCH   3   4
ENDBRANCH   2   3
ENDBRANCH   1   2
BRANCH   1  28
ATOM     28  C   UNL A   1      32.277  28.039  26.717  1.00  0.00     0.021 C 
BRANCH  28  29
ATOM     29  C   UNL A   1      33.554  28.524  27.394  1.00  0.00     0.116 C 
BRANCH  29  30
ATOM     30  N   UNL A   1      33.530  29.943  27.702  1.00  0.00    -0.352 N 
ATOM     31  C   UNL A   1      34.503  30.742  28.250  1.00  0.00     0.251 C 
ATOM     32  H   UNL A   1      32.687  30.403  27.484  1.00  0.00     0.163 HD
ATOM     33  O   UNL A   1      34.233  31.902  28.559  1.00  0.00    -0.269 OA
BRANCH  31  34
ATOM     34  C   UNL A   1      35.863  30.212  28.500  1.00  0.00     0.039 A 
ATOM     35  C   UNL A   1      36.791  30.219  27.454  1.00  0.00     0.014 A 
ATOM     36  C   UNL A   1      36.227  29.697  29.748  1.00  0.00     0.014 A 
ATOM     37  C   UNL A   1      38.099  29.783  27.678  1.00  0.00     0.010 A 
ATOM     38  C   UNL A   1      37.549  29.324  29.989  1.00  0.00     0.010 A 
ATOM     39  C   UNL A   1      38.502  29.371  28.959  1.00  0.00    -0.014 A 
BRANCH  39  40
ATOM     40  C   UNL A   1      39.917  29.009  29.245  1.00  0.00     0.031 A 
ATOM     41  C   UNL A   1      40.863  30.030  29.818  1.00  0.00     0.074 A 
ATOM     42  C   UNL A   1      40.367  27.777  28.929  1.00  0.00     0.049 A 
ATOM     43  N   UNL A   1      42.148  29.926  30.047  1.00  0.00    -0.248 NA
ATOM     44  C   UNL A   1      40.297  31.345  30.162  1.00  0.00     0.031 C 
ATOM     45  C   UNL A   1      39.558  26.704  28.343  1.00  0.00     0.029 A 
ATOM     46  N   UNL A   1      41.616  27.220  29.045  1.00  0.00    -0.354 N 
ATOM     47  C   UNL A   1      42.542  31.155  30.561  1.00  0.00     0.074 A 
ATOM     48  C   UNL A   1      41.374  32.009  30.557  1.00  0.00     0.031 C 
ATOM     49  C   UNL A   1      40.328  25.619  28.165  1.00  0.00     0.029 A 
ATOM     50  C   UNL A   1      41.693  25.929  28.575  1.00  0.00     0.049 A 
ATOM     51  H   UNL A   1      42.386  27.699  29.429  1.00  0.00     0.167 HD
ATOM     52  C   UNL A   1      43.760  31.533  31.020  1.00  0.00     0.031 A 
ATOM     53  C   UNL A   1      42.746  25.094  28.465  1.00  0.00     0.031 A 
ATOM     54  C   UNL A   1      44.923  30.684  31.019  1.00  0.00     0.049 A 
ATOM     55  C   UNL A   1      44.102  25.559  28.927  1.00  0.00     0.074 A 
ATOM     56  C   UNL A   1      46.195  30.970  31.483  1.00  0.00     0.029 A 
ATOM     57  N   UNL A   1      44.957  29.386  30.534  1.00  0.00    -0.354 N 
ATOM     58  N   UNL A   1      44.441  26.708  29.458  1.00  0.00    -0.248 NA
ATOM     59  C   UNL A   1      45.216  24.612  28.779  1.00  0.00     0.031 C 
ATOM     60  C   UNL A   1      47.012  29.864  31.228  1.00  0.00     0.029 A 
ATOM     61  C   UNL A   1      46.234  28.866  30.666  1.00  0.00     0.049 A 
ATOM     62  H   UNL A   1      44.188  28.905  30.152  1.00  0.00     0.167 HD
ATOM     63  C   UNL A   1      45.801  26.611  29.734  1.00  0.00     0.074 A 
ATOM     64  C   UNL A   1      46.217  25.284  29.330  1.00  0.00     0.031 C 
ATOM     65  C   UNL A   1      46.632  27.540  30.268  1.00  0.00     0.031 A 
BRANCH  52  66
ATOM     66  C   UNL A   1      43.899  32.928  31.574  1.00  0.00    -0.014 A 
ATOM     67  C   UNL A   1      44.220  34.007  30.731  1.00  0.00     0.010 A 
ATOM     68  C   UNL A   1      43.639  33.177  32.934  1.00  0.00     0.010 A 
ATOM     69  C   UNL A   1      44.309  35.304  31.242  1.00  0.00     0.020 A 
ATOM     70  C   UNL A   1      43.698  34.478  33.444  1.00  0.00     0.020 A 
ATOM     71  C   UNL A   1      44.045  35.532  32.596  1.00  0.00     0.054 A 
BRANCH  71  72
ATOM     72  S   UNL A   1      44.128  37.233  33.219  1.00  0.00     0.124 S 
ATOM     73  O   UNL A   1      42.879  37.341  33.970  1.00  0.00    -0.237 OA
ATOM     74  O   UNL A   1      45.346  37.218  34.024  1.00  0.00    -0.237 OA
ATOM     75  O   UNL A   1      44.195  38.045  32.006  1.00  0.00    -0.744 OA
ENDBRANCH  71  72
ENDBRANCH  52  66
BRANCH  53  76
ATOM     76  C   UNL A   1      42.573  23.741  27.863  1.00  0.00    -0.014 A 
ATOM     77  C   UNL A   1      42.213  22.638  28.658  1.00  0.00     0.010 A 
ATOM     78  C   UNL A   1      42.797  23.544  26.488  1.00  0.00     0.010 A 
ATOM     79  C   UNL A   1      42.119  21.360  28.098  1.00  0.00     0.020 A 
ATOM     80  C   UNL A   1      42.671  22.275  25.917  1.00  0.00     0.020 A 
ATOM     81  C   UNL A   1      42.352  21.186  26.731  1.00  0.00     0.054 A 
BRANCH  81  82
ATOM     82  S   UNL A   1      42.215  19.522  26.023  1.00  0.00     0.124 S 
ATOM     83  O   UNL A   1      43.109  19.609  24.872  1.00  0.00    -0.237 OA
ATOM     84  O   UNL A   1      42.673  18.675  27.120  1.00  0.00    -0.237 OA
ATOM     85  O   UNL A   1      40.793  19.403  25.703  1.00  0.00    -0.744 OA
ENDBRANCH  81  82
ENDBRANCH  53  76
BRANCH  65  86
ATOM     86  C   UNL A   1      48.070  27.147  30.484  1.00  0.00    -0.014 A 
ATOM     87  C   UNL A   1      49.047  27.391  29.501  1.00  0.00     0.010 A 
ATOM     88  C   UNL A   1      48.463  26.595  31.717  1.00  0.00     0.010 A 
ATOM     89  C   UNL A   1      50.385  27.069  29.741  1.00  0.00     0.020 A 
ATOM     90  C   UNL A   1      49.804  26.300  31.972  1.00  0.00     0.020 A 
ATOM     91  C   UNL A   1      50.756  26.531  30.977  1.00  0.00     0.054 A 
BRANCH  91  92
ATOM     92  S   UNL A   1      52.510  26.187  31.285  1.00  0.00     0.124 S 
ATOM     93  O   UNL A   1      52.879  27.273  32.189  1.00  0.00    -0.237 OA
ATOM     94  O   UNL A   1      52.473  24.855  31.884  1.00  0.00    -0.237 OA
ATOM     95  O   UNL A   1      53.115  26.250  29.957  1.00  0.00    -0.744 OA
ENDBRANCH  91  92
ENDBRANCH  65  86
ENDBRANCH  39  40
ENDBRANCH  31  34
ENDBRANCH  29  30
ENDBRANCH  28  29
ENDBRANCH   1  28
TORSDOF 17
ENDMDL
