MODEL 1
REMARK VINA RESULT:     -10.4      0.000      0.000
REMARK SMILES CC[C@@](O)(C(=O)NCCCCCCNC(=O)c1ccc(-c2c3nc(c(-c4ccc(S(=O)(=O)[O-])cc4)c4ccc([nH]4)c(-c4ccc(S(=O)(=O)[O-])cc4)c4nc(c(-c5ccc(S(=O)(=O)[O-])cc5)c5ccc2[nH]5)C=C4)C=C3)cc1)[C@@H]1CCOc2ccccc21
REMARK SMILES IDX 11 1 10 2 9 3 8 4 7 5 5 6 6 7 3 9 2 10 1 11 4 12 77 14 78 15
REMARK SMILES IDX 86 16 79 17 81 18 85 19 80 20 82 21 84 22 83 23 12 24 13 25
REMARK SMILES IDX 14 26 15 27 16 29 17 30 18 31 76 32 19 33 75 34 20 35 21 36
REMARK SMILES IDX 22 37 69 38 23 39 74 40 68 41 70 42 24 43 73 44 67 45 66 46
REMARK SMILES IDX 25 48 55 49 36 50 54 51 37 52 40 53 53 54 71 55 38 56 39 57
REMARK SMILES IDX 52 59 72 60 41 61 26 62 27 63 35 64 28 65 34 66 29 67 30 68
REMARK SMILES IDX 31 69 32 70 33 71 56 72 57 73 65 74 58 75 64 76 59 77 60 78
REMARK SMILES IDX 61 79 62 80 63 81 42 82 43 83 51 84 44 85 50 86 45 87 46 88
REMARK SMILES IDX 47 89 48 90 49 91
REMARK H PARENT 7 8 4 13 14 28 70 47 40 58
REMARK Flexibility Score: inf
ROOT
ATOM      1  C   UNL A   1      34.388  24.084  25.457  1.00  0.00     0.002 C 
ENDROOT
BRANCH   1   2
ATOM      2  C   UNL A   1      34.418  24.183  23.929  1.00  0.00     0.002 C 
BRANCH   2   3
ATOM      3  C   UNL A   1      33.127  23.726  23.239  1.00  0.00     0.021 C 
BRANCH   3   4
ATOM      4  C   UNL A   1      32.857  24.449  21.916  1.00  0.00     0.116 C 
BRANCH   4   5
ATOM      5  N   UNL A   1      33.643  25.662  21.864  1.00  0.00    -0.354 N 
ATOM      6  C   UNL A   1      33.292  26.962  22.069  1.00  0.00     0.252 C 
ATOM      7  O   UNL A   1      34.161  27.789  21.771  1.00  0.00    -0.272 OA
ATOM      8  H   UNL A   1      34.593  25.524  21.644  1.00  0.00     0.163 HD
BRANCH   6   9
ATOM      9  C   UNL A   1      31.893  27.376  22.663  1.00  0.00     0.149 C 
BRANCH   9  10
ATOM     10  C   UNL A   1      31.711  28.914  22.663  1.00  0.00     0.043 C 
ATOM     11  C   UNL A   1      30.455  29.426  23.369  1.00  0.00     0.007 C 
ENDBRANCH   9  10
BRANCH   9  12
ATOM     12  O   UNL A   1      30.925  26.850  21.725  1.00  0.00    -0.379 OA
ATOM     13  H   UNL A   1      30.165  26.493  22.211  1.00  0.00     0.212 HD
ENDBRANCH   9  12
BRANCH   9  14
ATOM     14  C   UNL A   1      31.762  26.632  24.083  1.00  0.00     0.068 C 
ATOM     15  C   UNL A   1      30.297  26.184  24.300  1.00  0.00     0.053 C 
ATOM     16  C   UNL A   1      32.288  27.285  25.358  1.00  0.00     0.001 A 
ATOM     17  C   UNL A   1      30.125  25.634  25.699  1.00  0.00     0.230 C 
ATOM     18  C   UNL A   1      31.501  27.338  26.517  1.00  0.00     0.122 A 
ATOM     19  C   UNL A   1      33.605  27.759  25.460  1.00  0.00     0.008 A 
ATOM     20  O   UNL A   1      30.299  26.692  26.647  1.00  0.00    -0.493 OA
ATOM     21  C   UNL A   1      31.925  28.051  27.640  1.00  0.00     0.047 A 
ATOM     22  C   UNL A   1      34.032  28.487  26.573  1.00  0.00     0.001 A 
ATOM     23  C   UNL A   1      33.176  28.662  27.652  1.00  0.00     0.004 A 
ENDBRANCH   9  14
ENDBRANCH   6   9
ENDBRANCH   4   5
ENDBRANCH   3   4
ENDBRANCH   2   3
ENDBRANCH   1   2
BRANCH   1  24
ATOM     24  C   UNL A   1      35.755  23.844  26.102  1.00  0.00     0.021 C 
BRANCH  24  25
ATOM     25  C   UNL A   1      36.902  23.765  25.102  1.00  0.00     0.116 C 
BRANCH  25  26
ATOM     26  N   UNL A   1      37.872  22.751  25.486  1.00  0.00    -0.352 N 
ATOM     27  C   UNL A   1      39.080  22.914  26.113  1.00  0.00     0.251 C 
ATOM     28  H   UNL A   1      37.628  21.823  25.267  1.00  0.00     0.163 HD
ATOM     29  O   UNL A   1      39.892  21.991  26.136  1.00  0.00    -0.269 OA
BRANCH  27  30
ATOM     30  C   UNL A   1      39.400  24.206  26.748  1.00  0.00     0.039 A 
ATOM     31  C   UNL A   1      38.966  24.451  28.052  1.00  0.00     0.014 A 
ATOM     32  C   UNL A   1      40.134  25.174  26.055  1.00  0.00     0.014 A 
ATOM     33  C   UNL A   1      39.315  25.647  28.680  1.00  0.00     0.010 A 
ATOM     34  C   UNL A   1      40.544  26.330  26.707  1.00  0.00     0.010 A 
ATOM     35  C   UNL A   1      40.132  26.583  28.024  1.00  0.00    -0.014 A 
BRANCH  35  36
ATOM     36  C   UNL A   1      40.567  27.832  28.697  1.00  0.00     0.031 A 
ATOM     37  C   UNL A   1      41.946  27.931  29.292  1.00  0.00     0.074 A 
ATOM     38  C   UNL A   1      39.701  28.859  28.820  1.00  0.00     0.049 A 
ATOM     39  N   UNL A   1      42.486  28.917  29.960  1.00  0.00    -0.248 NA
ATOM     40  C   UNL A   1      42.825  26.759  29.135  1.00  0.00     0.031 C 
ATOM     41  C   UNL A   1      38.326  28.873  28.314  1.00  0.00     0.029 A 
ATOM     42  N   UNL A   1      39.848  30.089  29.410  1.00  0.00    -0.354 N 
ATOM     43  C   UNL A   1      43.759  28.483  30.311  1.00  0.00     0.074 A 
ATOM     44  C   UNL A   1      43.890  27.124  29.832  1.00  0.00     0.031 C 
ATOM     45  C   UNL A   1      37.770  30.064  28.584  1.00  0.00     0.029 A 
ATOM     46  C   UNL A   1      38.728  30.880  29.324  1.00  0.00     0.049 A 
ATOM     47  H   UNL A   1      40.678  30.377  29.854  1.00  0.00     0.167 HD
ATOM     48  C   UNL A   1      44.740  29.161  30.953  1.00  0.00     0.031 A 
ATOM     49  C   UNL A   1      38.492  32.122  29.792  1.00  0.00     0.031 A 
ATOM     50  C   UNL A   1      44.606  30.514  31.425  1.00  0.00     0.049 A 
ATOM     51  C   UNL A   1      39.587  32.842  30.532  1.00  0.00     0.074 A 
ATOM     52  C   UNL A   1      45.554  31.304  32.050  1.00  0.00     0.029 A 
ATOM     53  N   UNL A   1      43.452  31.276  31.326  1.00  0.00    -0.354 N 
ATOM     54  N   UNL A   1      40.804  32.435  30.805  1.00  0.00    -0.248 NA
ATOM     55  C   UNL A   1      39.278  34.194  31.017  1.00  0.00     0.031 C 
ATOM     56  C   UNL A   1      44.955  32.523  32.382  1.00  0.00     0.029 A 
ATOM     57  C   UNL A   1      43.656  32.519  31.902  1.00  0.00     0.049 A 
ATOM     58  H   UNL A   1      42.611  30.979  30.908  1.00  0.00     0.167 HD
ATOM     59  C   UNL A   1      41.416  33.494  31.468  1.00  0.00     0.074 A 
ATOM     60  C   UNL A   1      40.441  34.562  31.540  1.00  0.00     0.031 C 
ATOM     61  C   UNL A   1      42.674  33.574  31.968  1.00  0.00     0.031 A 
BRANCH  48  62
ATOM     62  C   UNL A   1      46.046  28.445  31.187  1.00  0.00    -0.014 A 
ATOM     63  C   UNL A   1      47.115  28.569  30.279  1.00  0.00     0.010 A 
ATOM     64  C   UNL A   1      46.224  27.675  32.350  1.00  0.00     0.010 A 
ATOM     65  C   UNL A   1      48.320  27.901  30.509  1.00  0.00     0.020 A 
ATOM     66  C   UNL A   1      47.440  27.031  32.600  1.00  0.00     0.020 A 
ATOM     67  C   UNL A   1      48.475  27.135  31.669  1.00  0.00     0.054 A 
BRANCH  67  68
ATOM     68  S   UNL A   1      50.061  26.302  31.952  1.00  0.00     0.124 S 
ATOM     69  O   UNL A   1      50.537  26.088  30.588  1.00  0.00    -0.237 OA
ATOM     70  O   UNL A   1      50.806  27.289  32.730  1.00  0.00    -0.237 OA
ATOM     71  O   UNL A   1      49.691  25.089  32.679  1.00  0.00    -0.744 OA
ENDBRANCH  67  68
ENDBRANCH  48  62
BRANCH  49  72
ATOM     72  C   UNL A   1      37.171  32.768  29.559  1.00  0.00    -0.014 A 
ATOM     73  C   UNL A   1      36.230  32.860  30.600  1.00  0.00     0.010 A 
ATOM     74  C   UNL A   1      36.851  33.305  28.298  1.00  0.00     0.010 A 
ATOM     75  C   UNL A   1      34.986  33.460  30.380  1.00  0.00     0.020 A 
ATOM     76  C   UNL A   1      35.621  33.933  28.083  1.00  0.00     0.020 A 
ATOM     77  C   UNL A   1      34.691  33.997  29.123  1.00  0.00     0.054 A 
BRANCH  77  78
ATOM     78  S   UNL A   1      33.092  34.814  28.875  1.00  0.00     0.124 S 
ATOM     79  O   UNL A   1      32.453  33.943  27.894  1.00  0.00    -0.237 OA
ATOM     80  O   UNL A   1      32.514  34.787  30.217  1.00  0.00    -0.237 OA
ATOM     81  O   UNL A   1      33.458  36.142  28.389  1.00  0.00    -0.744 OA
ENDBRANCH  77  78
ENDBRANCH  49  72
BRANCH  61  82
ATOM     82  C   UNL A   1      43.087  34.874  32.605  1.00  0.00    -0.014 A 
ATOM     83  C   UNL A   1      43.654  35.914  31.849  1.00  0.00     0.010 A 
ATOM     84  C   UNL A   1      42.846  35.079  33.977  1.00  0.00     0.010 A 
ATOM     85  C   UNL A   1      44.003  37.122  32.458  1.00  0.00     0.020 A 
ATOM     86  C   UNL A   1      43.163  36.297  34.584  1.00  0.00     0.020 A 
ATOM     87  C   UNL A   1      43.753  37.307  33.821  1.00  0.00     0.054 A 
BRANCH  87  88
ATOM     88  S   UNL A   1      44.170  38.902  34.576  1.00  0.00     0.124 S 
ATOM     89  O   UNL A   1      44.106  38.589  36.001  1.00  0.00    -0.237 OA
ATOM     90  O   UNL A   1      45.508  39.164  34.051  1.00  0.00    -0.237 OA
ATOM     91  O   UNL A   1      43.128  39.801  34.088  1.00  0.00    -0.744 OA
ENDBRANCH  87  88
ENDBRANCH  61  82
ENDBRANCH  35  36
ENDBRANCH  27  30
ENDBRANCH  25  26
ENDBRANCH  24  25
ENDBRANCH   1  24
TORSDOF 19
ENDMDL
MODEL 2
REMARK VINA RESULT:     -10.3      1.180      2.155
REMARK SMILES CC[C@@](O)(C(=O)NCCCCCCNC(=O)c1ccc(-c2c3nc(c(-c4ccc(S(=O)(=O)[O-])cc4)c4ccc([nH]4)c(-c4ccc(S(=O)(=O)[O-])cc4)c4nc(c(-c5ccc(S(=O)(=O)[O-])cc5)c5ccc2[nH]5)C=C4)C=C3)cc1)[C@@H]1CCOc2ccccc21
REMARK SMILES IDX 11 1 10 2 9 3 8 4 7 5 5 6 6 7 3 9 2 10 1 11 4 12 77 14 78 15
REMARK SMILES IDX 86 16 79 17 81 18 85 19 80 20 82 21 84 22 83 23 12 24 13 25
REMARK SMILES IDX 14 26 15 27 16 29 17 30 18 31 76 32 19 33 75 34 20 35 21 36
REMARK SMILES IDX 22 37 69 38 23 39 74 40 68 41 70 42 24 43 73 44 67 45 66 46
REMARK SMILES IDX 25 48 55 49 36 50 54 51 37 52 40 53 53 54 71 55 38 56 39 57
REMARK SMILES IDX 52 59 72 60 41 61 26 62 27 63 35 64 28 65 34 66 29 67 30 68
REMARK SMILES IDX 31 69 32 70 33 71 56 72 57 73 65 74 58 75 64 76 59 77 60 78
REMARK SMILES IDX 61 79 62 80 63 81 42 82 43 83 51 84 44 85 50 86 45 87 46 88
REMARK SMILES IDX 47 89 48 90 49 91
REMARK H PARENT 7 8 4 13 14 28 70 47 40 58
REMARK Flexibility Score: inf
ROOT
ATOM      1  C   UNL A   1      35.037  22.518  23.987  1.00  0.00     0.002 C 
ENDROOT
BRANCH   1   2
ATOM      2  C   UNL A   1      33.853  22.856  23.077  1.00  0.00     0.002 C 
BRANCH   2   3
ATOM      3  C   UNL A   1      32.574  22.067  23.383  1.00  0.00     0.021 C 
BRANCH   3   4
ATOM      4  C   UNL A   1      31.406  22.953  23.831  1.00  0.00     0.116 C 
BRANCH   4   5
ATOM      5  N   UNL A   1      31.353  22.977  25.277  1.00  0.00    -0.354 N 
ATOM      6  C   UNL A   1      31.236  24.018  26.147  1.00  0.00     0.252 C 
ATOM      7  O   UNL A   1      31.404  23.724  27.336  1.00  0.00    -0.272 OA
ATOM      8  H   UNL A   1      31.411  22.091  25.703  1.00  0.00     0.163 HD
BRANCH   6   9
ATOM      9  C   UNL A   1      30.888  25.480  25.674  1.00  0.00     0.149 C 
BRANCH   9  10
ATOM     10  C   UNL A   1      30.166  25.475  24.303  1.00  0.00     0.043 C 
ATOM     11  C   UNL A   1      29.190  26.629  24.071  1.00  0.00     0.007 C 
ENDBRANCH   9  10
BRANCH   9  12
ATOM     12  O   UNL A   1      29.924  25.959  26.641  1.00  0.00    -0.379 OA
ATOM     13  H   UNL A   1      29.221  25.299  26.751  1.00  0.00     0.212 HD
ENDBRANCH   9  12
BRANCH   9  14
ATOM     14  C   UNL A   1      32.251  26.328  25.770  1.00  0.00     0.068 C 
ATOM     15  C   UNL A   1      32.118  27.398  26.880  1.00  0.00     0.053 C 
ATOM     16  C   UNL A   1      32.868  26.960  24.526  1.00  0.00     0.001 A 
ATOM     17  C   UNL A   1      33.326  28.308  26.869  1.00  0.00     0.230 C 
ATOM     18  C   UNL A   1      33.290  28.296  24.531  1.00  0.00     0.122 A 
ATOM     19  C   UNL A   1      33.136  26.212  23.369  1.00  0.00     0.008 A 
ATOM     20  O   UNL A   1      33.329  29.074  25.660  1.00  0.00    -0.493 OA
ATOM     21  C   UNL A   1      33.728  28.915  23.359  1.00  0.00     0.047 A 
ATOM     22  C   UNL A   1      33.559  26.825  22.188  1.00  0.00     0.001 A 
ATOM     23  C   UNL A   1      33.823  28.189  22.175  1.00  0.00     0.004 A 
ENDBRANCH   9  14
ENDBRANCH   6   9
ENDBRANCH   4   5
ENDBRANCH   3   4
ENDBRANCH   2   3
ENDBRANCH   1   2
BRANCH   1  24
ATOM     24  C   UNL A   1      36.214  23.489  23.879  1.00  0.00     0.021 C 
BRANCH  24  25
ATOM     25  C   UNL A   1      36.895  23.781  25.210  1.00  0.00     0.116 C 
BRANCH  25  26
ATOM     26  N   UNL A   1      37.899  22.777  25.524  1.00  0.00    -0.352 N 
ATOM     27  C   UNL A   1      39.128  22.945  26.109  1.00  0.00     0.251 C 
ATOM     28  H   UNL A   1      37.666  21.851  25.284  1.00  0.00     0.163 HD
ATOM     29  O   UNL A   1      39.958  22.039  26.071  1.00  0.00    -0.269 OA
BRANCH  27  30
ATOM     30  C   UNL A   1      39.446  24.223  26.773  1.00  0.00     0.039 A 
ATOM     31  C   UNL A   1      39.012  24.437  28.083  1.00  0.00     0.014 A 
ATOM     32  C   UNL A   1      40.179  25.206  26.103  1.00  0.00     0.014 A 
ATOM     33  C   UNL A   1      39.359  25.619  28.738  1.00  0.00     0.010 A 
ATOM     34  C   UNL A   1      40.588  26.348  26.781  1.00  0.00     0.010 A 
ATOM     35  C   UNL A   1      40.176  26.570  28.104  1.00  0.00    -0.014 A 
BRANCH  35  36
ATOM     36  C   UNL A   1      40.609  27.805  28.805  1.00  0.00     0.031 A 
ATOM     37  C   UNL A   1      41.979  27.882  29.423  1.00  0.00     0.074 A 
ATOM     38  C   UNL A   1      39.749  28.835  28.933  1.00  0.00     0.049 A 
ATOM     39  N   UNL A   1      42.516  28.852  30.117  1.00  0.00    -0.248 NA
ATOM     40  C   UNL A   1      42.852  26.707  29.259  1.00  0.00     0.031 C 
ATOM     41  C   UNL A   1      38.383  28.869  28.405  1.00  0.00     0.029 A 
ATOM     42  N   UNL A   1      39.896  30.054  29.546  1.00  0.00    -0.354 N 
ATOM     43  C   UNL A   1      43.780  28.402  30.480  1.00  0.00     0.074 A 
ATOM     44  C   UNL A   1      43.909  27.052  29.979  1.00  0.00     0.031 C 
ATOM     45  C   UNL A   1      37.831  30.059  28.687  1.00  0.00     0.029 A 
ATOM     46  C   UNL A   1      38.783  30.855  29.456  1.00  0.00     0.049 A 
ATOM     47  H   UNL A   1      40.721  30.328  30.007  1.00  0.00     0.167 HD
ATOM     48  C   UNL A   1      44.756  29.062  31.148  1.00  0.00     0.031 A 
ATOM     49  C   UNL A   1      38.549  32.090  29.942  1.00  0.00     0.031 A 
ATOM     50  C   UNL A   1      44.624  30.407  31.642  1.00  0.00     0.049 A 
ATOM     51  C   UNL A   1      39.637  32.789  30.711  1.00  0.00     0.074 A 
ATOM     52  C   UNL A   1      45.568  31.179  32.296  1.00  0.00     0.029 A 
ATOM     53  N   UNL A   1      43.478  31.180  31.538  1.00  0.00    -0.354 N 
ATOM     54  N   UNL A   1      40.847  32.368  30.997  1.00  0.00    -0.248 NA
ATOM     55  C   UNL A   1      39.331  34.135  31.215  1.00  0.00     0.031 C 
ATOM     56  C   UNL A   1      44.973  32.397  32.640  1.00  0.00     0.029 A 
ATOM     57  C   UNL A   1      43.682  32.411  32.139  1.00  0.00     0.049 A 
ATOM     58  H   UNL A   1      42.642  30.897  31.102  1.00  0.00     0.167 HD
ATOM     59  C   UNL A   1      41.457  33.410  31.687  1.00  0.00     0.074 A 
ATOM     60  C   UNL A   1      40.488  34.485  31.762  1.00  0.00     0.031 C 
ATOM     61  C   UNL A   1      42.707  33.472  32.208  1.00  0.00     0.031 A 
BRANCH  48  62
ATOM     62  C   UNL A   1      46.052  28.332  31.391  1.00  0.00    -0.014 A 
ATOM     63  C   UNL A   1      46.225  27.514  32.525  1.00  0.00     0.010 A 
ATOM     64  C   UNL A   1      47.097  28.428  30.455  1.00  0.00     0.010 A 
ATOM     65  C   UNL A   1      47.431  26.843  32.737  1.00  0.00     0.020 A 
ATOM     66  C   UNL A   1      48.294  27.732  30.647  1.00  0.00     0.020 A 
ATOM     67  C   UNL A   1      48.459  26.956  31.796  1.00  0.00     0.054 A 
BRANCH  67  68
ATOM     68  S   UNL A   1      50.004  26.051  32.087  1.00  0.00     0.124 S 
ATOM     69  O   UNL A   1      51.004  27.004  31.615  1.00  0.00    -0.237 OA
ATOM     70  O   UNL A   1      49.978  25.831  33.531  1.00  0.00    -0.237 OA
ATOM     71  O   UNL A   1      49.859  24.846  31.273  1.00  0.00    -0.744 OA
ENDBRANCH  67  68
ENDBRANCH  48  62
BRANCH  49  72
ATOM     72  C   UNL A   1      37.237  32.750  29.700  1.00  0.00    -0.014 A 
ATOM     73  C   UNL A   1      36.315  32.910  30.750  1.00  0.00     0.010 A 
ATOM     74  C   UNL A   1      36.905  33.234  28.420  1.00  0.00     0.010 A 
ATOM     75  C   UNL A   1      35.080  33.523  30.521  1.00  0.00     0.020 A 
ATOM     76  C   UNL A   1      35.685  33.875  28.195  1.00  0.00     0.020 A 
ATOM     77  C   UNL A   1      34.774  34.006  29.245  1.00  0.00     0.054 A 
BRANCH  77  78
ATOM     78  S   UNL A   1      33.186  34.842  28.985  1.00  0.00     0.124 S 
ATOM     79  O   UNL A   1      32.562  34.001  27.968  1.00  0.00    -0.237 OA
ATOM     80  O   UNL A   1      32.579  34.785  30.313  1.00  0.00    -0.237 OA
ATOM     81  O   UNL A   1      33.572  36.179  28.540  1.00  0.00    -0.744 OA
ENDBRANCH  77  78
ENDBRANCH  49  72
BRANCH  61  82
ATOM     82  C   UNL A   1      43.119  34.758  32.874  1.00  0.00    -0.014 A 
ATOM     83  C   UNL A   1      43.035  34.921  34.268  1.00  0.00     0.010 A 
ATOM     84  C   UNL A   1      43.655  35.801  32.094  1.00  0.00     0.010 A 
ATOM     85  C   UNL A   1      43.449  36.114  34.866  1.00  0.00     0.020 A 
ATOM     86  C   UNL A   1      44.101  36.982  32.691  1.00  0.00     0.020 A 
ATOM     87  C   UNL A   1      43.982  37.136  34.074  1.00  0.00     0.054 A 
BRANCH  87  88
ATOM     88  S   UNL A   1      44.558  38.654  34.881  1.00  0.00     0.124 S 
ATOM     89  O   UNL A   1      43.995  38.519  36.222  1.00  0.00    -0.237 OA
ATOM     90  O   UNL A   1      46.011  38.531  34.795  1.00  0.00    -0.237 OA
ATOM     91  O   UNL A   1      43.979  39.721  34.068  1.00  0.00    -0.744 OA
ENDBRANCH  87  88
ENDBRANCH  61  82
ENDBRANCH  35  36
ENDBRANCH  27  30
ENDBRANCH  25  26
ENDBRANCH  24  25
ENDBRANCH   1  24
TORSDOF 19
ENDMDL
MODEL 3
REMARK VINA RESULT:     -10.1      3.310      9.241
REMARK SMILES CC[C@@](O)(C(=O)NCCCCCCNC(=O)c1ccc(-c2c3nc(c(-c4ccc(S(=O)(=O)[O-])cc4)c4ccc([nH]4)c(-c4ccc(S(=O)(=O)[O-])cc4)c4nc(c(-c5ccc(S(=O)(=O)[O-])cc5)c5ccc2[nH]5)C=C4)C=C3)cc1)[C@@H]1CCOc2ccccc21
REMARK SMILES IDX 11 1 10 2 9 3 8 4 7 5 5 6 6 7 3 9 2 10 1 11 4 12 77 14 78 15
REMARK SMILES IDX 86 16 79 17 81 18 85 19 80 20 82 21 84 22 83 23 12 24 13 25
REMARK SMILES IDX 14 26 15 27 16 29 17 30 18 31 76 32 19 33 75 34 20 35 21 36
REMARK SMILES IDX 22 37 69 38 23 39 74 40 68 41 70 42 24 43 73 44 67 45 66 46
REMARK SMILES IDX 25 48 55 49 36 50 54 51 37 52 40 53 53 54 71 55 38 56 39 57
REMARK SMILES IDX 52 59 72 60 41 61 26 62 27 63 35 64 28 65 34 66 29 67 30 68
REMARK SMILES IDX 31 69 32 70 33 71 56 72 57 73 65 74 58 75 64 76 59 77 60 78
REMARK SMILES IDX 61 79 62 80 63 81 42 82 43 83 51 84 44 85 50 86 45 87 46 88
REMARK SMILES IDX 47 89 48 90 49 91
REMARK H PARENT 7 8 4 13 14 28 70 47 40 58
REMARK Flexibility Score: inf
ROOT
ATOM      1  C   UNL A   1      31.577  28.195  26.968  1.00  0.00     0.002 C 
ENDROOT
BRANCH   1   2
ATOM      2  C   UNL A   1      30.934  26.993  26.271  1.00  0.00     0.002 C 
BRANCH   2   3
ATOM      3  C   UNL A   1      30.911  27.086  24.740  1.00  0.00     0.021 C 
BRANCH   3   4
ATOM      4  C   UNL A   1      30.316  25.846  24.065  1.00  0.00     0.116 C 
BRANCH   4   5
ATOM      5  N   UNL A   1      31.257  25.332  23.094  1.00  0.00    -0.354 N 
ATOM      6  C   UNL A   1      32.211  24.367  23.202  1.00  0.00     0.252 C 
ATOM      7  O   UNL A   1      32.981  24.285  22.237  1.00  0.00    -0.272 OA
ATOM      8  H   UNL A   1      31.197  25.753  22.205  1.00  0.00     0.163 HD
BRANCH   6   9
ATOM      9  C   UNL A   1      32.310  23.411  24.450  1.00  0.00     0.149 C 
BRANCH   9  10
ATOM     10  C   UNL A   1      32.931  24.137  25.670  1.00  0.00     0.043 C 
ATOM     11  C   UNL A   1      32.330  23.769  27.027  1.00  0.00     0.007 C 
ENDBRANCH   9  10
BRANCH   9  12
ATOM     12  O   UNL A   1      30.937  23.124  24.802  1.00  0.00    -0.379 OA
ATOM     13  H   UNL A   1      30.702  22.235  24.491  1.00  0.00     0.212 HD
ENDBRANCH   9  12
BRANCH   9  14
ATOM     14  C   UNL A   1      33.054  22.077  23.947  1.00  0.00     0.068 C 
ATOM     15  C   UNL A   1      32.281  20.833  24.448  1.00  0.00     0.053 C 
ATOM     16  C   UNL A   1      34.547  21.878  24.184  1.00  0.00     0.001 A 
ATOM     17  C   UNL A   1      33.058  19.576  24.125  1.00  0.00     0.230 C 
ATOM     18  C   UNL A   1      35.039  20.674  24.706  1.00  0.00     0.122 A 
ATOM     19  C   UNL A   1      35.495  22.838  23.795  1.00  0.00     0.008 A 
ATOM     20  O   UNL A   1      34.266  19.557  24.893  1.00  0.00    -0.493 OA
ATOM     21  C   UNL A   1      36.385  20.538  25.051  1.00  0.00     0.047 A 
ATOM     22  C   UNL A   1      36.840  22.717  24.149  1.00  0.00     0.001 A 
ATOM     23  C   UNL A   1      37.280  21.577  24.810  1.00  0.00     0.004 A 
ENDBRANCH   9  14
ENDBRANCH   6   9
ENDBRANCH   4   5
ENDBRANCH   3   4
ENDBRANCH   2   3
ENDBRANCH   1   2
BRANCH   1  24
ATOM     24  C   UNL A   1      33.086  28.066  27.187  1.00  0.00     0.021 C 
BRANCH  24  25
ATOM     25  C   UNL A   1      33.918  28.987  26.304  1.00  0.00     0.116 C 
BRANCH  25  26
ATOM     26  N   UNL A   1      33.707  30.384  26.648  1.00  0.00    -0.352 N 
ATOM     27  C   UNL A   1      34.348  31.141  27.595  1.00  0.00     0.251 C 
ATOM     28  H   UNL A   1      33.010  30.850  26.132  1.00  0.00     0.163 HD
ATOM     29  O   UNL A   1      33.880  32.226  27.937  1.00  0.00    -0.269 OA
BRANCH  27  30
ATOM     30  C   UNL A   1      35.594  30.639  28.204  1.00  0.00     0.039 A 
ATOM     31  C   UNL A   1      36.821  31.090  27.716  1.00  0.00     0.014 A 
ATOM     32  C   UNL A   1      35.546  29.726  29.262  1.00  0.00     0.014 A 
ATOM     33  C   UNL A   1      38.002  30.663  28.325  1.00  0.00     0.010 A 
ATOM     34  C   UNL A   1      36.718  29.363  29.916  1.00  0.00     0.010 A 
ATOM     35  C   UNL A   1      37.959  29.822  29.449  1.00  0.00    -0.014 A 
BRANCH  35  36
ATOM     36  C   UNL A   1      39.200  29.408  30.151  1.00  0.00     0.031 A 
ATOM     37  C   UNL A   1      39.635  30.122  31.402  1.00  0.00     0.074 A 
ATOM     38  C   UNL A   1      39.963  28.426  29.631  1.00  0.00     0.049 A 
ATOM     39  N   UNL A   1      40.711  29.939  32.124  1.00  0.00    -0.248 NA
ATOM     40  C   UNL A   1      38.759  31.198  31.895  1.00  0.00     0.031 C 
ATOM     41  C   UNL A   1      39.665  27.679  28.406  1.00  0.00     0.029 A 
ATOM     42  N   UNL A   1      41.147  27.886  30.066  1.00  0.00    -0.354 N 
ATOM     43  C   UNL A   1      40.646  30.879  33.145  1.00  0.00     0.074 A 
ATOM     44  C   UNL A   1      39.456  31.669  32.918  1.00  0.00     0.031 C 
ATOM     45  C   UNL A   1      40.621  26.757  28.209  1.00  0.00     0.029 A 
ATOM     46  C   UNL A   1      41.624  26.878  29.263  1.00  0.00     0.049 A 
ATOM     47  H   UNL A   1      41.612  28.192  30.878  1.00  0.00     0.167 HD
ATOM     48  C   UNL A   1      41.487  31.054  34.192  1.00  0.00     0.031 A 
ATOM     49  C   UNL A   1      42.744  26.135  29.357  1.00  0.00     0.031 A 
ATOM     50  C   UNL A   1      42.669  30.264  34.415  1.00  0.00     0.049 A 
ATOM     51  C   UNL A   1      43.681  26.372  30.511  1.00  0.00     0.074 A 
ATOM     52  C   UNL A   1      43.564  30.335  35.467  1.00  0.00     0.029 A 
ATOM     53  N   UNL A   1      43.120  29.259  33.573  1.00  0.00    -0.354 N 
ATOM     54  N   UNL A   1      43.573  27.230  31.498  1.00  0.00    -0.248 NA
ATOM     55  C   UNL A   1      44.885  25.533  30.568  1.00  0.00     0.031 C 
ATOM     56  C   UNL A   1      44.589  29.414  35.230  1.00  0.00     0.029 A 
ATOM     57  C   UNL A   1      44.296  28.720  34.068  1.00  0.00     0.049 A 
ATOM     58  H   UNL A   1      42.671  28.970  32.745  1.00  0.00     0.167 HD
ATOM     59  C   UNL A   1      44.681  27.011  32.310  1.00  0.00     0.074 A 
ATOM     60  C   UNL A   1      45.436  25.933  31.707  1.00  0.00     0.031 C 
ATOM     61  C   UNL A   1      45.038  27.646  33.455  1.00  0.00     0.031 A 
BRANCH  48  62
ATOM     62  C   UNL A   1      41.161  32.151  35.173  1.00  0.00    -0.014 A 
ATOM     63  C   UNL A   1      41.629  33.465  34.976  1.00  0.00     0.010 A 
ATOM     64  C   UNL A   1      40.343  31.878  36.284  1.00  0.00     0.010 A 
ATOM     65  C   UNL A   1      41.318  34.471  35.894  1.00  0.00     0.020 A 
ATOM     66  C   UNL A   1      40.004  32.890  37.187  1.00  0.00     0.020 A 
ATOM     67  C   UNL A   1      40.508  34.178  36.994  1.00  0.00     0.054 A 
BRANCH  67  68
ATOM     68  S   UNL A   1      40.101  35.513  38.153  1.00  0.00     0.124 S 
ATOM     69  O   UNL A   1      41.327  35.611  38.940  1.00  0.00    -0.237 OA
ATOM     70  O   UNL A   1      39.835  36.639  37.261  1.00  0.00    -0.237 OA
ATOM     71  O   UNL A   1      38.937  35.004  38.874  1.00  0.00    -0.744 OA
ENDBRANCH  67  68
ENDBRANCH  48  62
BRANCH  49  72
ATOM     72  C   UNL A   1      43.032  25.087  28.340  1.00  0.00    -0.014 A 
ATOM     73  C   UNL A   1      43.726  25.411  27.161  1.00  0.00     0.010 A 
ATOM     74  C   UNL A   1      42.623  23.757  28.549  1.00  0.00     0.010 A 
ATOM     75  C   UNL A   1      43.990  24.429  26.201  1.00  0.00     0.020 A 
ATOM     76  C   UNL A   1      42.913  22.766  27.607  1.00  0.00     0.020 A 
ATOM     77  C   UNL A   1      43.585  23.111  26.432  1.00  0.00     0.054 A 
BRANCH  77  78
ATOM     78  S   UNL A   1      43.982  21.845  25.196  1.00  0.00     0.124 S 
ATOM     79  O   UNL A   1      42.939  20.852  25.432  1.00  0.00    -0.237 OA
ATOM     80  O   UNL A   1      43.879  22.587  23.942  1.00  0.00    -0.237 OA
ATOM     81  O   UNL A   1      45.336  21.428  25.556  1.00  0.00    -0.744 OA
ENDBRANCH  77  78
ENDBRANCH  49  72
BRANCH  61  82
ATOM     82  C   UNL A   1      46.281  27.166  34.155  1.00  0.00    -0.014 A 
ATOM     83  C   UNL A   1      47.537  27.742  33.896  1.00  0.00     0.010 A 
ATOM     84  C   UNL A   1      46.179  26.160  35.135  1.00  0.00     0.010 A 
ATOM     85  C   UNL A   1      48.672  27.299  34.579  1.00  0.00     0.020 A 
ATOM     86  C   UNL A   1      47.306  25.737  35.844  1.00  0.00     0.020 A 
ATOM     87  C   UNL A   1      48.549  26.301  35.551  1.00  0.00     0.054 A 
BRANCH  87  88
ATOM     88  S   UNL A   1      50.030  25.778  36.458  1.00  0.00     0.124 S 
ATOM     89  O   UNL A   1      49.713  26.191  37.822  1.00  0.00    -0.237 OA
ATOM     90  O   UNL A   1      50.053  24.336  36.228  1.00  0.00    -0.237 OA
ATOM     91  O   UNL A   1      51.111  26.523  35.817  1.00  0.00    -0.744 OA
ENDBRANCH  87  88
ENDBRANCH  61  82
ENDBRANCH  35  36
ENDBRANCH  27  30
ENDBRANCH  25  26
ENDBRANCH  24  25
ENDBRANCH   1  24
TORSDOF 19
ENDMDL
