MODEL 1
REMARK VINA RESULT:     -11.0      0.000      0.000
REMARK SMILES O=C(NCCCCCCNC(=O)[C@@H](c1ccccc1)[C@H](C(=O)c1ccccc1)c1ccccc1)c1ccc(-c2c3nc(c(-c4ccc(S(=O)(=O)[O-])cc4)c4ccc([nH]4)c(-c4ccc(S(=O)(=O)[O-])cc4)c4nc(c(-c5ccc(S(=O)(=O)[O-])cc5)c5ccc2[nH]5)C=C4)C=C3)cc1
REMARK SMILES IDX 6 1 5 2 4 3 3 4 1 5 2 6 35 8 36 9 94 10 37 11 93 12 38 13
REMARK SMILES IDX 39 14 40 15 87 16 41 17 92 18 86 19 88 20 42 21 91 22 85 23
REMARK SMILES IDX 84 24 43 26 73 27 54 28 72 29 55 30 58 31 71 32 89 33 56 34
REMARK SMILES IDX 57 35 70 37 90 38 59 39 44 40 45 41 53 42 46 43 52 44 47 45
REMARK SMILES IDX 48 46 49 47 50 48 51 49 74 50 75 51 83 52 76 53 82 54 77 55
REMARK SMILES IDX 78 56 79 57 80 58 81 59 60 60 61 61 69 62 62 63 68 64 63 65
REMARK SMILES IDX 64 66 65 67 66 68 67 69 7 70 8 71 9 72 10 73 11 74 12 76
REMARK SMILES IDX 13 77 14 78 15 79 19 80 16 81 18 82 17 83 20 84 29 85 30 86
REMARK SMILES IDX 34 87 31 88 33 89 32 90 21 91 22 92 23 93 24 94 28 95 25 96
REMARK SMILES IDX 27 97 26 98
REMARK H PARENT 3 7 88 25 58 36 10 75
REMARK Flexibility Score: inf
ROOT
ATOM      1  C   UNL A   1      31.855  27.861  25.604  1.00  0.00     0.002 C 
ENDROOT
BRANCH   1   2
ATOM      2  C   UNL A   1      32.916  27.283  26.541  1.00  0.00     0.021 C 
BRANCH   2   3
ATOM      3  C   UNL A   1      34.153  28.154  26.706  1.00  0.00     0.116 C 
BRANCH   3   4
ATOM      4  N   UNL A   1      33.822  29.500  27.140  1.00  0.00    -0.352 N 
ATOM      5  O   UNL A   1      34.083  31.391  28.344  1.00  0.00    -0.269 OA
ATOM      6  C   UNL A   1      34.575  30.357  27.904  1.00  0.00     0.251 C 
ATOM      7  H   UNL A   1      32.947  29.841  26.849  1.00  0.00     0.163 HD
BRANCH   6   8
ATOM      8  C   UNL A   1      35.981  30.009  28.206  1.00  0.00     0.039 A 
ATOM      9  C   UNL A   1      36.334  29.565  29.483  1.00  0.00     0.014 A 
ATOM     10  C   UNL A   1      36.952  30.132  27.209  1.00  0.00     0.014 A 
ATOM     11  C   UNL A   1      37.672  29.364  29.796  1.00  0.00     0.010 A 
ATOM     12  C   UNL A   1      38.288  29.842  27.503  1.00  0.00     0.010 A 
ATOM     13  C   UNL A   1      38.661  29.472  28.804  1.00  0.00    -0.014 A 
BRANCH  13  14
ATOM     14  C   UNL A   1      40.053  29.086  29.145  1.00  0.00     0.031 A 
ATOM     15  C   UNL A   1      40.613  27.741  28.776  1.00  0.00     0.074 A 
ATOM     16  C   UNL A   1      40.829  30.005  29.754  1.00  0.00     0.049 A 
ATOM     17  N   UNL A   1      41.829  27.289  28.947  1.00  0.00    -0.248 NA
ATOM     18  C   UNL A   1      39.699  26.778  28.142  1.00  0.00     0.031 C 
ATOM     19  C   UNL A   1      40.382  31.337  30.177  1.00  0.00     0.029 A 
ATOM     20  N   UNL A   1      42.158  29.982  30.090  1.00  0.00    -0.354 N 
ATOM     21  C   UNL A   1      41.828  25.990  28.454  1.00  0.00     0.074 A 
ATOM     22  C   UNL A   1      40.482  25.715  27.997  1.00  0.00     0.031 C 
ATOM     23  C   UNL A   1      41.429  32.024  30.654  1.00  0.00     0.029 A 
ATOM     24  C   UNL A   1      42.605  31.163  30.632  1.00  0.00     0.049 A 
ATOM     25  H   UNL A   1      42.734  29.195  29.956  1.00  0.00     0.167 HD
ATOM     26  C   UNL A   1      42.857  25.110  28.386  1.00  0.00     0.031 A 
ATOM     27  C   UNL A   1      43.825  31.518  31.074  1.00  0.00     0.031 A 
ATOM     28  C   UNL A   1      44.194  25.391  28.847  1.00  0.00     0.049 A 
ATOM     29  C   UNL A   1      44.943  30.522  30.987  1.00  0.00     0.074 A 
ATOM     30  C   UNL A   1      45.306  24.566  28.817  1.00  0.00     0.029 A 
ATOM     31  N   UNL A   1      44.601  26.586  29.419  1.00  0.00    -0.354 N 
ATOM     32  N   UNL A   1      44.920  29.303  30.502  1.00  0.00    -0.248 NA
ATOM     33  C   UNL A   1      46.249  30.948  31.504  1.00  0.00     0.031 C 
ATOM     34  C   UNL A   1      46.376  25.250  29.406  1.00  0.00     0.029 A 
ATOM     35  C   UNL A   1      45.943  26.518  29.758  1.00  0.00     0.049 A 
ATOM     36  H   UNL A   1      44.022  27.370  29.562  1.00  0.00     0.167 HD
ATOM     37  C   UNL A   1      46.210  28.814  30.660  1.00  0.00     0.074 A 
ATOM     38  C   UNL A   1      46.995  29.883  31.245  1.00  0.00     0.031 C 
ATOM     39  C   UNL A   1      46.700  27.586  30.358  1.00  0.00     0.031 A 
BRANCH  26  40
ATOM     40  C   UNL A   1      42.583  23.750  27.801  1.00  0.00    -0.014 A 
ATOM     41  C   UNL A   1      42.844  23.479  26.445  1.00  0.00     0.010 A 
ATOM     42  C   UNL A   1      42.133  22.707  28.631  1.00  0.00     0.010 A 
ATOM     43  C   UNL A   1      42.640  22.197  25.927  1.00  0.00     0.020 A 
ATOM     44  C   UNL A   1      41.947  21.418  28.121  1.00  0.00     0.020 A 
ATOM     45  C   UNL A   1      42.193  21.174  26.769  1.00  0.00     0.054 A 
BRANCH  45  46
ATOM     46  S   UNL A   1      41.981  19.507  26.081  1.00  0.00     0.124 S 
ATOM     47  O   UNL A   1      42.461  18.667  27.175  1.00  0.00    -0.237 OA
ATOM     48  O   UNL A   1      40.543  19.445  25.827  1.00  0.00    -0.237 OA
ATOM     49  O   UNL A   1      42.822  19.514  24.887  1.00  0.00    -0.744 OA
ENDBRANCH  45  46
ENDBRANCH  26  40
BRANCH  27  50
ATOM     50  C   UNL A   1      44.036  32.866  31.663  1.00  0.00    -0.014 A 
ATOM     51  C   UNL A   1      44.295  33.979  30.846  1.00  0.00     0.010 A 
ATOM     52  C   UNL A   1      43.961  33.043  33.058  1.00  0.00     0.010 A 
ATOM     53  C   UNL A   1      44.498  35.240  31.414  1.00  0.00     0.020 A 
ATOM     54  C   UNL A   1      44.132  34.305  33.626  1.00  0.00     0.020 A 
ATOM     55  C   UNL A   1      44.416  35.395  32.801  1.00  0.00     0.054 A 
BRANCH  55  56
ATOM     56  S   UNL A   1      44.640  37.045  33.520  1.00  0.00     0.124 S 
ATOM     57  O   UNL A   1      44.242  37.912  32.418  1.00  0.00    -0.237 OA
ATOM     58  O   UNL A   1      43.733  37.019  34.666  1.00  0.00    -0.237 OA
ATOM     59  O   UNL A   1      46.061  37.075  33.863  1.00  0.00    -0.744 OA
ENDBRANCH  55  56
ENDBRANCH  27  50
BRANCH  39  60
ATOM     60  C   UNL A   1      48.154  27.350  30.658  1.00  0.00    -0.014 A 
ATOM     61  C   UNL A   1      49.149  27.691  29.725  1.00  0.00     0.010 A 
ATOM     62  C   UNL A   1      48.529  26.779  31.888  1.00  0.00     0.010 A 
ATOM     63  C   UNL A   1      50.491  27.421  29.995  1.00  0.00     0.020 A 
ATOM     64  C   UNL A   1      49.873  26.530  32.171  1.00  0.00     0.020 A 
ATOM     65  C   UNL A   1      50.844  26.833  31.214  1.00  0.00     0.054 A 
BRANCH  65  66
ATOM     66  S   UNL A   1      52.594  26.494  31.548  1.00  0.00     0.124 S 
ATOM     67  O   UNL A   1      52.514  25.351  32.454  1.00  0.00    -0.237 OA
ATOM     68  O   UNL A   1      53.126  26.205  30.218  1.00  0.00    -0.237 OA
ATOM     69  O   UNL A   1      53.077  27.734  32.148  1.00  0.00    -0.744 OA
ENDBRANCH  65  66
ENDBRANCH  39  60
ENDBRANCH  13  14
ENDBRANCH   6   8
ENDBRANCH   3   4
ENDBRANCH   2   3
ENDBRANCH   1   2
BRANCH   1  70
ATOM     70  C   UNL A   1      31.408  26.932  24.470  1.00  0.00     0.002 C 
BRANCH  70  71
ATOM     71  C   UNL A   1      32.217  27.043  23.172  1.00  0.00     0.021 C 
BRANCH  71  72
ATOM     72  C   UNL A   1      33.594  26.388  23.240  1.00  0.00     0.116 C 
BRANCH  72  73
ATOM     73  N   UNL A   1      33.615  25.142  22.507  1.00  0.00    -0.356 N 
ATOM     74  C   UNL A   1      33.931  23.886  22.914  1.00  0.00     0.228 C 
ATOM     75  H   UNL A   1      33.358  25.217  21.559  1.00  0.00     0.163 HD
ATOM     76  O   UNL A   1      34.033  23.023  22.034  1.00  0.00    -0.274 OA
BRANCH  74  77
ATOM     77  C   UNL A   1      34.155  23.512  24.390  1.00  0.00     0.124 C 
BRANCH  77  78
ATOM     78  C   UNL A   1      32.838  23.558  25.175  1.00  0.00    -0.035 A 
ATOM     79  C   UNL A   1      32.749  23.934  26.526  1.00  0.00     0.004 A 
ATOM     80  C   UNL A   1      31.646  23.209  24.513  1.00  0.00     0.004 A 
ATOM     81  C   UNL A   1      31.520  23.963  27.189  1.00  0.00     0.000 A 
ATOM     82  C   UNL A   1      30.416  23.246  25.176  1.00  0.00     0.000 A 
ATOM     83  C   UNL A   1      30.354  23.623  26.514  1.00  0.00     0.000 A 
ENDBRANCH  77  78
BRANCH  77  84
ATOM     84  C   UNL A   1      35.059  22.266  24.590  1.00  0.00     0.108 C 
BRANCH  84  85
ATOM     85  C   UNL A   1      36.448  22.548  25.175  1.00  0.00    -0.036 A 
ATOM     86  C   UNL A   1      37.429  21.536  25.137  1.00  0.00     0.004 A 
ATOM     87  C   UNL A   1      36.783  23.757  25.801  1.00  0.00     0.004 A 
ATOM     88  C   UNL A   1      38.693  21.724  25.696  1.00  0.00     0.000 A 
ATOM     89  C   UNL A   1      38.042  23.934  26.386  1.00  0.00     0.000 A 
ATOM     90  C   UNL A   1      38.997  22.923  26.329  1.00  0.00     0.000 A 
ENDBRANCH  84  85
BRANCH  84  91
ATOM     91  C   UNL A   1      34.418  21.003  25.215  1.00  0.00     0.171 C 
ATOM     92  O   UNL A   1      34.319  20.957  26.449  1.00  0.00    -0.293 OA
BRANCH  91  93
ATOM     93  C   UNL A   1      33.839  19.833  24.454  1.00  0.00     0.018 A 
ATOM     94  C   UNL A   1      34.555  18.624  24.532  1.00  0.00     0.012 A 
ATOM     95  C   UNL A   1      32.694  19.850  23.654  1.00  0.00     0.012 A 
ATOM     96  C   UNL A   1      34.151  17.487  23.825  1.00  0.00     0.001 A 
ATOM     97  C   UNL A   1      32.295  18.718  22.931  1.00  0.00     0.001 A 
ATOM     98  C   UNL A   1      33.024  17.537  23.015  1.00  0.00     0.000 A 
ENDBRANCH  91  93
ENDBRANCH  84  91
ENDBRANCH  77  84
ENDBRANCH  74  77
ENDBRANCH  72  73
ENDBRANCH  71  72
ENDBRANCH  70  71
ENDBRANCH   1  70
TORSDOF 21
ENDMDL
MODEL 2
REMARK VINA RESULT:     -10.9      2.426      8.029
REMARK SMILES O=C(NCCCCCCNC(=O)[C@@H](c1ccccc1)[C@H](C(=O)c1ccccc1)c1ccccc1)c1ccc(-c2c3nc(c(-c4ccc(S(=O)(=O)[O-])cc4)c4ccc([nH]4)c(-c4ccc(S(=O)(=O)[O-])cc4)c4nc(c(-c5ccc(S(=O)(=O)[O-])cc5)c5ccc2[nH]5)C=C4)C=C3)cc1
REMARK SMILES IDX 6 1 5 2 4 3 3 4 1 5 2 6 35 8 36 9 94 10 37 11 93 12 38 13
REMARK SMILES IDX 39 14 40 15 87 16 41 17 92 18 86 19 88 20 42 21 91 22 85 23
REMARK SMILES IDX 84 24 43 26 73 27 54 28 72 29 55 30 58 31 71 32 89 33 56 34
REMARK SMILES IDX 57 35 70 37 90 38 59 39 44 40 45 41 53 42 46 43 52 44 47 45
REMARK SMILES IDX 48 46 49 47 50 48 51 49 74 50 75 51 83 52 76 53 82 54 77 55
REMARK SMILES IDX 78 56 79 57 80 58 81 59 60 60 61 61 69 62 62 63 68 64 63 65
REMARK SMILES IDX 64 66 65 67 66 68 67 69 7 70 8 71 9 72 10 73 11 74 12 76
REMARK SMILES IDX 13 77 14 78 15 79 19 80 16 81 18 82 17 83 20 84 29 85 30 86
REMARK SMILES IDX 34 87 31 88 33 89 32 90 21 91 22 92 23 93 24 94 28 95 25 96
REMARK SMILES IDX 27 97 26 98
REMARK H PARENT 3 7 88 25 58 36 10 75
REMARK Flexibility Score: inf
ROOT
ATOM      1  C   UNL A   1      31.740  27.772  25.785  1.00  0.00     0.002 C 
ENDROOT
BRANCH   1   2
ATOM      2  C   UNL A   1      33.002  27.562  26.623  1.00  0.00     0.021 C 
BRANCH   2   3
ATOM      3  C   UNL A   1      34.113  28.565  26.352  1.00  0.00     0.116 C 
BRANCH   3   4
ATOM      4  N   UNL A   1      33.691  29.932  26.606  1.00  0.00    -0.352 N 
ATOM      5  O   UNL A   1      33.643  31.890  27.729  1.00  0.00    -0.269 OA
ATOM      6  C   UNL A   1      34.225  30.835  27.492  1.00  0.00     0.251 C 
ATOM      7  H   UNL A   1      32.926  30.251  26.077  1.00  0.00     0.163 HD
BRANCH   6   8
ATOM      8  C   UNL A   1      35.499  30.515  28.172  1.00  0.00     0.039 A 
ATOM      9  C   UNL A   1      36.705  31.013  27.670  1.00  0.00     0.014 A 
ATOM     10  C   UNL A   1      35.490  29.709  29.313  1.00  0.00     0.014 A 
ATOM     11  C   UNL A   1      37.906  30.605  28.235  1.00  0.00     0.010 A 
ATOM     12  C   UNL A   1      36.696  29.372  29.934  1.00  0.00     0.010 A 
ATOM     13  C   UNL A   1      37.915  29.803  29.390  1.00  0.00    -0.014 A 
BRANCH  13  14
ATOM     14  C   UNL A   1      39.215  29.531  30.053  1.00  0.00     0.031 A 
ATOM     15  C   UNL A   1      39.646  30.278  31.283  1.00  0.00     0.074 A 
ATOM     16  C   UNL A   1      39.984  28.545  29.548  1.00  0.00     0.049 A 
ATOM     17  N   UNL A   1      40.720  30.103  32.010  1.00  0.00    -0.248 NA
ATOM     18  C   UNL A   1      38.771  31.361  31.760  1.00  0.00     0.031 C 
ATOM     19  C   UNL A   1      39.673  27.768  28.344  1.00  0.00     0.029 A 
ATOM     20  N   UNL A   1      41.160  28.002  29.996  1.00  0.00    -0.354 N 
ATOM     21  C   UNL A   1      40.659  31.054  33.022  1.00  0.00     0.074 A 
ATOM     22  C   UNL A   1      39.451  31.823  32.802  1.00  0.00     0.031 C 
ATOM     23  C   UNL A   1      40.595  26.809  28.186  1.00  0.00     0.029 A 
ATOM     24  C   UNL A   1      41.596  26.942  29.237  1.00  0.00     0.049 A 
ATOM     25  H   UNL A   1      41.644  28.338  30.785  1.00  0.00     0.167 HD
ATOM     26  C   UNL A   1      41.528  31.263  34.040  1.00  0.00     0.031 A 
ATOM     27  C   UNL A   1      42.687  26.165  29.362  1.00  0.00     0.031 A 
ATOM     28  C   UNL A   1      42.731  30.495  34.249  1.00  0.00     0.049 A 
ATOM     29  C   UNL A   1      43.630  26.421  30.498  1.00  0.00     0.074 A 
ATOM     30  C   UNL A   1      43.673  30.627  35.255  1.00  0.00     0.029 A 
ATOM     31  N   UNL A   1      43.155  29.451  33.442  1.00  0.00    -0.354 N 
ATOM     32  N   UNL A   1      43.543  27.319  31.451  1.00  0.00    -0.248 NA
ATOM     33  C   UNL A   1      44.818  25.563  30.578  1.00  0.00     0.031 C 
ATOM     34  C   UNL A   1      44.687  29.688  35.033  1.00  0.00     0.029 A 
ATOM     35  C   UNL A   1      44.351  28.938  33.917  1.00  0.00     0.049 A 
ATOM     36  H   UNL A   1      42.676  29.121  32.647  1.00  0.00     0.167 HD
ATOM     37  C   UNL A   1      44.668  27.135  32.244  1.00  0.00     0.074 A 
ATOM     38  C   UNL A   1      45.397  26.014  31.682  1.00  0.00     0.031 C 
ATOM     39  C   UNL A   1      45.070  27.836  33.332  1.00  0.00     0.031 A 
BRANCH  26  40
ATOM     40  C   UNL A   1      41.224  32.375  35.009  1.00  0.00    -0.014 A 
ATOM     41  C   UNL A   1      40.449  32.141  36.160  1.00  0.00     0.010 A 
ATOM     42  C   UNL A   1      41.782  33.652  34.809  1.00  0.00     0.010 A 
ATOM     43  C   UNL A   1      40.221  33.168  37.081  1.00  0.00     0.020 A 
ATOM     44  C   UNL A   1      41.573  34.675  35.739  1.00  0.00     0.020 A 
ATOM     45  C   UNL A   1      40.786  34.429  36.865  1.00  0.00     0.054 A 
BRANCH  45  46
ATOM     46  S   UNL A   1      40.513  35.730  38.101  1.00  0.00     0.124 S 
ATOM     47  O   UNL A   1      39.857  36.766  37.306  1.00  0.00    -0.237 OA
ATOM     48  O   UNL A   1      39.664  35.064  39.086  1.00  0.00    -0.237 OA
ATOM     49  O   UNL A   1      41.858  36.059  38.563  1.00  0.00    -0.744 OA
ENDBRANCH  45  46
ENDBRANCH  26  40
BRANCH  27  50
ATOM     50  C   UNL A   1      42.952  25.094  28.365  1.00  0.00    -0.014 A 
ATOM     51  C   UNL A   1      42.407  23.809  28.523  1.00  0.00     0.010 A 
ATOM     52  C   UNL A   1      43.744  25.368  27.234  1.00  0.00     0.010 A 
ATOM     53  C   UNL A   1      42.670  22.810  27.582  1.00  0.00     0.020 A 
ATOM     54  C   UNL A   1      43.983  24.383  26.276  1.00  0.00     0.020 A 
ATOM     55  C   UNL A   1      43.457  23.103  26.465  1.00  0.00     0.054 A 
BRANCH  55  56
ATOM     56  S   UNL A   1      43.755  21.809  25.229  1.00  0.00     0.124 S 
ATOM     57  O   UNL A   1      43.569  22.536  23.978  1.00  0.00    -0.237 OA
ATOM     58  O   UNL A   1      45.125  21.395  25.524  1.00  0.00    -0.237 OA
ATOM     59  O   UNL A   1      42.733  20.808  25.533  1.00  0.00    -0.744 OA
ENDBRANCH  55  56
ENDBRANCH  27  50
BRANCH  39  60
ATOM     60  C   UNL A   1      46.355  27.399  33.978  1.00  0.00    -0.014 A 
ATOM     61  C   UNL A   1      47.591  27.911  33.546  1.00  0.00     0.010 A 
ATOM     62  C   UNL A   1      46.325  26.464  35.029  1.00  0.00     0.010 A 
ATOM     63  C   UNL A   1      48.780  27.460  34.120  1.00  0.00     0.020 A 
ATOM     64  C   UNL A   1      47.512  26.029  35.622  1.00  0.00     0.020 A 
ATOM     65  C   UNL A   1      48.734  26.514  35.150  1.00  0.00     0.054 A 
BRANCH  65  66
ATOM     66  S   UNL A   1      50.290  25.944  35.885  1.00  0.00     0.124 S 
ATOM     67  O   UNL A   1      50.941  27.204  36.232  1.00  0.00    -0.237 OA
ATOM     68  O   UNL A   1      49.836  25.139  37.017  1.00  0.00    -0.237 OA
ATOM     69  O   UNL A   1      50.925  25.190  34.807  1.00  0.00    -0.744 OA
ENDBRANCH  65  66
ENDBRANCH  39  60
ENDBRANCH  13  14
ENDBRANCH   6   8
ENDBRANCH   3   4
ENDBRANCH   2   3
ENDBRANCH   1   2
BRANCH   1  70
ATOM     70  C   UNL A   1      31.495  26.719  24.697  1.00  0.00     0.002 C 
BRANCH  70  71
ATOM     71  C   UNL A   1      32.314  26.898  23.414  1.00  0.00     0.021 C 
BRANCH  71  72
ATOM     72  C   UNL A   1      33.744  26.376  23.512  1.00  0.00     0.116 C 
BRANCH  72  73
ATOM     73  N   UNL A   1      33.918  25.181  22.718  1.00  0.00    -0.356 N 
ATOM     74  C   UNL A   1      34.275  23.923  23.084  1.00  0.00     0.228 C 
ATOM     75  H   UNL A   1      33.749  25.297  21.754  1.00  0.00     0.163 HD
ATOM     76  O   UNL A   1      34.518  23.123  22.173  1.00  0.00    -0.274 OA
BRANCH  74  77
ATOM     77  C   UNL A   1      34.380  23.474  24.553  1.00  0.00     0.124 C 
BRANCH  77  78
ATOM     78  C   UNL A   1      33.001  23.468  25.225  1.00  0.00    -0.035 A 
ATOM     79  C   UNL A   1      31.821  23.063  24.577  1.00  0.00     0.004 A 
ATOM     80  C   UNL A   1      32.901  23.886  26.565  1.00  0.00     0.004 A 
ATOM     81  C   UNL A   1      30.592  23.072  25.242  1.00  0.00     0.000 A 
ATOM     82  C   UNL A   1      31.672  23.889  27.230  1.00  0.00     0.000 A 
ATOM     83  C   UNL A   1      30.518  23.481  26.568  1.00  0.00     0.000 A 
ENDBRANCH  77  78
BRANCH  77  84
ATOM     84  C   UNL A   1      35.279  22.227  24.763  1.00  0.00     0.108 C 
BRANCH  84  85
ATOM     85  C   UNL A   1      36.654  22.505  25.384  1.00  0.00    -0.036 A 
ATOM     86  C   UNL A   1      36.919  23.777  25.928  1.00  0.00     0.004 A 
ATOM     87  C   UNL A   1      37.694  21.564  25.390  1.00  0.00     0.004 A 
ATOM     88  C   UNL A   1      38.168  24.097  26.462  1.00  0.00     0.000 A 
ATOM     89  C   UNL A   1      38.954  21.894  25.901  1.00  0.00     0.000 A 
ATOM     90  C   UNL A   1      39.190  23.156  26.441  1.00  0.00     0.000 A 
ENDBRANCH  84  85
BRANCH  84  91
ATOM     91  C   UNL A   1      34.625  20.958  25.362  1.00  0.00     0.171 C 
ATOM     92  O   UNL A   1      34.441  20.927  26.587  1.00  0.00    -0.293 OA
BRANCH  91  93
ATOM     93  C   UNL A   1      34.128  19.764  24.581  1.00  0.00     0.018 A 
ATOM     94  C   UNL A   1      32.912  19.931  23.893  1.00  0.00     0.012 A 
ATOM     95  C   UNL A   1      34.738  18.508  24.511  1.00  0.00     0.012 A 
ATOM     96  C   UNL A   1      32.322  18.881  23.182  1.00  0.00     0.001 A 
ATOM     97  C   UNL A   1      34.142  17.449  23.813  1.00  0.00     0.001 A 
ATOM     98  C   UNL A   1      32.934  17.634  23.150  1.00  0.00     0.000 A 
ENDBRANCH  91  93
ENDBRANCH  84  91
ENDBRANCH  77  84
ENDBRANCH  74  77
ENDBRANCH  72  73
ENDBRANCH  71  72
ENDBRANCH  70  71
ENDBRANCH   1  70
TORSDOF 21
ENDMDL
MODEL 3
REMARK VINA RESULT:     -10.6      4.081      5.287
REMARK SMILES O=C(NCCCCCCNC(=O)[C@@H](c1ccccc1)[C@H](C(=O)c1ccccc1)c1ccccc1)c1ccc(-c2c3nc(c(-c4ccc(S(=O)(=O)[O-])cc4)c4ccc([nH]4)c(-c4ccc(S(=O)(=O)[O-])cc4)c4nc(c(-c5ccc(S(=O)(=O)[O-])cc5)c5ccc2[nH]5)C=C4)C=C3)cc1
REMARK SMILES IDX 6 1 5 2 4 3 3 4 1 5 2 6 35 8 36 9 94 10 37 11 93 12 38 13
REMARK SMILES IDX 39 14 40 15 87 16 41 17 92 18 86 19 88 20 42 21 91 22 85 23
REMARK SMILES IDX 84 24 43 26 73 27 54 28 72 29 55 30 58 31 71 32 89 33 56 34
REMARK SMILES IDX 57 35 70 37 90 38 59 39 44 40 45 41 53 42 46 43 52 44 47 45
REMARK SMILES IDX 48 46 49 47 50 48 51 49 74 50 75 51 83 52 76 53 82 54 77 55
REMARK SMILES IDX 78 56 79 57 80 58 81 59 60 60 61 61 69 62 62 63 68 64 63 65
REMARK SMILES IDX 64 66 65 67 66 68 67 69 7 70 8 71 9 72 10 73 11 74 12 76
REMARK SMILES IDX 13 77 14 78 15 79 19 80 16 81 18 82 17 83 20 84 29 85 30 86
REMARK SMILES IDX 34 87 31 88 33 89 32 90 21 91 22 92 23 93 24 94 28 95 25 96
REMARK SMILES IDX 27 97 26 98
REMARK H PARENT 3 7 88 25 58 36 10 75
REMARK Flexibility Score: inf
ROOT
ATOM      1  C   UNL A   1      31.847  30.065  26.472  1.00  0.00     0.002 C 
ENDROOT
BRANCH   1   2
ATOM      2  C   UNL A   1      31.713  31.572  26.687  1.00  0.00     0.021 C 
BRANCH   2   3
ATOM      3  C   UNL A   1      32.944  32.236  27.287  1.00  0.00     0.116 C 
BRANCH   3   4
ATOM      4  N   UNL A   1      32.716  33.637  27.593  1.00  0.00    -0.352 N 
ATOM      5  O   UNL A   1      32.894  35.527  28.816  1.00  0.00    -0.269 OA
ATOM      6  C   UNL A   1      33.325  34.408  28.553  1.00  0.00     0.251 C 
ATOM      7  H   UNL A   1      32.041  34.093  27.042  1.00  0.00     0.163 HD
BRANCH   6   8
ATOM      8  C   UNL A   1      34.494  33.866  29.280  1.00  0.00     0.039 A 
ATOM      9  C   UNL A   1      34.307  32.970  30.337  1.00  0.00     0.014 A 
ATOM     10  C   UNL A   1      35.782  34.258  28.907  1.00  0.00     0.014 A 
ATOM     11  C   UNL A   1      35.398  32.566  31.096  1.00  0.00     0.010 A 
ATOM     12  C   UNL A   1      36.886  33.778  29.618  1.00  0.00     0.010 A 
ATOM     13  C   UNL A   1      36.701  32.942  30.729  1.00  0.00    -0.014 A 
BRANCH  13  14
ATOM     14  C   UNL A   1      37.844  32.351  31.469  1.00  0.00     0.031 A 
ATOM     15  C   UNL A   1      38.679  31.248  30.884  1.00  0.00     0.074 A 
ATOM     16  C   UNL A   1      38.151  32.874  32.674  1.00  0.00     0.049 A 
ATOM     17  N   UNL A   1      39.748  30.681  31.383  1.00  0.00    -0.248 NA
ATOM     18  C   UNL A   1      38.267  30.705  29.580  1.00  0.00     0.031 C 
ATOM     19  C   UNL A   1      37.394  33.935  33.348  1.00  0.00     0.029 A 
ATOM     20  N   UNL A   1      39.192  32.618  33.528  1.00  0.00    -0.354 N 
ATOM     21  C   UNL A   1      40.132  29.710  30.465  1.00  0.00     0.074 A 
ATOM     22  C   UNL A   1      39.167  29.748  29.387  1.00  0.00     0.031 C 
ATOM     23  C   UNL A   1      38.030  34.283  34.475  1.00  0.00     0.029 A 
ATOM     24  C   UNL A   1      39.200  33.430  34.637  1.00  0.00     0.049 A 
ATOM     25  H   UNL A   1      39.867  31.921  33.362  1.00  0.00     0.167 HD
ATOM     26  C   UNL A   1      41.194  28.870  30.517  1.00  0.00     0.031 A 
ATOM     27  C   UNL A   1      40.049  33.480  35.680  1.00  0.00     0.031 A 
ATOM     28  C   UNL A   1      42.148  28.836  31.598  1.00  0.00     0.049 A 
ATOM     29  C   UNL A   1      41.213  32.536  35.709  1.00  0.00     0.074 A 
ATOM     30  C   UNL A   1      43.261  28.024  31.739  1.00  0.00     0.029 A 
ATOM     31  N   UNL A   1      42.106  29.652  32.719  1.00  0.00    -0.354 N 
ATOM     32  N   UNL A   1      41.563  31.637  34.821  1.00  0.00    -0.248 NA
ATOM     33  C   UNL A   1      42.097  32.613  36.879  1.00  0.00     0.031 C 
ATOM     34  C   UNL A   1      43.868  28.321  32.965  1.00  0.00     0.029 A 
ATOM     35  C   UNL A   1      43.163  29.353  33.563  1.00  0.00     0.049 A 
ATOM     36  H   UNL A   1      41.425  30.342  32.889  1.00  0.00     0.167 HD
ATOM     37  C   UNL A   1      42.708  31.037  35.328  1.00  0.00     0.074 A 
ATOM     38  C   UNL A   1      43.013  31.704  36.578  1.00  0.00     0.031 C 
ATOM     39  C   UNL A   1      43.437  30.016  34.811  1.00  0.00     0.031 A 
BRANCH  26  40
ATOM     40  C   UNL A   1      41.382  27.902  29.379  1.00  0.00    -0.014 A 
ATOM     41  C   UNL A   1      42.318  28.156  28.360  1.00  0.00     0.010 A 
ATOM     42  C   UNL A   1      40.673  26.687  29.367  1.00  0.00     0.010 A 
ATOM     43  C   UNL A   1      42.525  27.223  27.339  1.00  0.00     0.020 A 
ATOM     44  C   UNL A   1      40.892  25.742  28.359  1.00  0.00     0.020 A 
ATOM     45  C   UNL A   1      41.810  26.021  27.346  1.00  0.00     0.054 A 
BRANCH  45  46
ATOM     46  S   UNL A   1      42.132  24.808  26.035  1.00  0.00     0.124 S 
ATOM     47  O   UNL A   1      42.210  25.658  24.850  1.00  0.00    -0.237 OA
ATOM     48  O   UNL A   1      43.394  24.205  26.458  1.00  0.00    -0.237 OA
ATOM     49  O   UNL A   1      40.973  23.921  26.089  1.00  0.00    -0.744 OA
ENDBRANCH  45  46
ENDBRANCH  26  40
BRANCH  27  50
ATOM     50  C   UNL A   1      39.805  34.440  36.789  1.00  0.00    -0.014 A 
ATOM     51  C   UNL A   1      39.059  34.065  37.918  1.00  0.00     0.010 A 
ATOM     52  C   UNL A   1      40.340  35.741  36.721  1.00  0.00     0.010 A 
ATOM     53  C   UNL A   1      38.831  34.980  38.949  1.00  0.00     0.020 A 
ATOM     54  C   UNL A   1      40.141  36.647  37.764  1.00  0.00     0.020 A 
ATOM     55  C   UNL A   1      39.373  36.266  38.865  1.00  0.00     0.054 A 
BRANCH  55  56
ATOM     56  S   UNL A   1      39.104  37.429  40.231  1.00  0.00     0.124 S 
ATOM     57  O   UNL A   1      38.221  38.416  39.618  1.00  0.00    -0.237 OA
ATOM     58  O   UNL A   1      38.496  36.584  41.255  1.00  0.00    -0.237 OA
ATOM     59  O   UNL A   1      40.452  37.900  40.544  1.00  0.00    -0.744 OA
ENDBRANCH  55  56
ENDBRANCH  27  50
BRANCH  39  60
ATOM     60  C   UNL A   1      44.633  29.574  35.607  1.00  0.00    -0.014 A 
ATOM     61  C   UNL A   1      45.897  30.154  35.395  1.00  0.00     0.010 A 
ATOM     62  C   UNL A   1      44.492  28.565  36.577  1.00  0.00     0.010 A 
ATOM     63  C   UNL A   1      47.009  29.700  36.105  1.00  0.00     0.020 A 
ATOM     64  C   UNL A   1      45.599  28.126  37.307  1.00  0.00     0.020 A 
ATOM     65  C   UNL A   1      46.855  28.682  37.052  1.00  0.00     0.054 A 
BRANCH  65  66
ATOM     66  S   UNL A   1      48.311  28.109  37.966  1.00  0.00     0.124 S 
ATOM     67  O   UNL A   1      49.272  29.177  37.707  1.00  0.00    -0.237 OA
ATOM     68  O   UNL A   1      47.819  28.026  39.340  1.00  0.00    -0.237 OA
ATOM     69  O   UNL A   1      48.624  26.824  37.346  1.00  0.00    -0.744 OA
ENDBRANCH  65  66
ENDBRANCH  39  60
ENDBRANCH  13  14
ENDBRANCH   6   8
ENDBRANCH   3   4
ENDBRANCH   2   3
ENDBRANCH   1   2
BRANCH   1  70
ATOM     70  C   UNL A   1      33.095  29.622  25.700  1.00  0.00     0.002 C 
BRANCH  70  71
ATOM     71  C   UNL A   1      32.855  29.207  24.244  1.00  0.00     0.021 C 
BRANCH  71  72
ATOM     72  C   UNL A   1      34.101  28.689  23.531  1.00  0.00     0.116 C 
BRANCH  72  73
ATOM     73  N   UNL A   1      33.747  27.866  22.397  1.00  0.00    -0.356 N 
ATOM     74  C   UNL A   1      33.641  26.517  22.286  1.00  0.00     0.228 C 
ATOM     75  H   UNL A   1      33.551  28.364  21.570  1.00  0.00     0.163 HD
ATOM     76  O   UNL A   1      33.489  26.060  21.147  1.00  0.00    -0.274 OA
BRANCH  74  77
ATOM     77  C   UNL A   1      33.698  25.568  23.497  1.00  0.00     0.124 C 
BRANCH  77  78
ATOM     78  C   UNL A   1      32.412  25.660  24.328  1.00  0.00    -0.035 A 
ATOM     79  C   UNL A   1      32.375  25.512  25.725  1.00  0.00     0.004 A 
ATOM     80  C   UNL A   1      31.196  25.907  23.664  1.00  0.00     0.004 A 
ATOM     81  C   UNL A   1      31.174  25.612  26.431  1.00  0.00     0.000 A 
ATOM     82  C   UNL A   1      29.996  26.013  24.373  1.00  0.00     0.000 A 
ATOM     83  C   UNL A   1      29.986  25.865  25.756  1.00  0.00     0.000 A 
ENDBRANCH  77  78
BRANCH  77  84
ATOM     84  C   UNL A   1      34.224  24.148  23.155  1.00  0.00     0.108 C 
BRANCH  84  85
ATOM     85  C   UNL A   1      35.426  23.675  23.981  1.00  0.00    -0.036 A 
ATOM     86  C   UNL A   1      36.263  22.666  23.464  1.00  0.00     0.004 A 
ATOM     87  C   UNL A   1      35.709  24.161  25.266  1.00  0.00     0.004 A 
ATOM     88  C   UNL A   1      37.343  22.167  24.194  1.00  0.00     0.000 A 
ATOM     89  C   UNL A   1      36.775  23.641  26.008  1.00  0.00     0.000 A 
ATOM     90  C   UNL A   1      37.594  22.649  25.472  1.00  0.00     0.000 A 
ENDBRANCH  84  85
BRANCH  84  91
ATOM     91  C   UNL A   1      33.181  23.020  22.960  1.00  0.00     0.171 C 
ATOM     92  O   UNL A   1      32.459  23.070  21.954  1.00  0.00    -0.293 OA
BRANCH  91  93
ATOM     93  C   UNL A   1      32.997  21.819  23.857  1.00  0.00     0.018 A 
ATOM     94  C   UNL A   1      33.093  22.055  25.242  1.00  0.00     0.012 A 
ATOM     95  C   UNL A   1      32.784  20.501  23.444  1.00  0.00     0.012 A 
ATOM     96  C   UNL A   1      32.997  21.013  26.170  1.00  0.00     0.001 A 
ATOM     97  C   UNL A   1      32.704  19.453  24.371  1.00  0.00     0.001 A 
ATOM     98  C   UNL A   1      32.812  19.708  25.733  1.00  0.00     0.000 A 
ENDBRANCH  91  93
ENDBRANCH  84  91
ENDBRANCH  77  84
ENDBRANCH  74  77
ENDBRANCH  72  73
ENDBRANCH  71  72
ENDBRANCH  70  71
ENDBRANCH   1  70
TORSDOF 21
ENDMDL
