MODEL 1
REMARK VINA RESULT:     -12.1      0.000      0.000
REMARK SMILES Cn1c(=O)c(=O)n(C)c2cc(S(=O)(=O)N3CCC[C@H]3C(=O)NCCCCCCNC(=O)c3ccc(-c4c5nc(c(-c6ccc(S(=O)(=O)[O-])cc6)c6ccc([nH]6)c(-c6ccc(S(=O)(=O)[O-])cc6)c6nc(c(-c7ccc(S(=O)(=O)[O-])cc7)c7ccc4[nH]7)C=C6)C=C5)cc3)ccc21
REMARK SMILES IDX 26 1 25 2 24 3 23 4 22 5 20 6 21 7 19 9 15 10 16 11 17 12
REMARK SMILES IDX 18 13 12 14 13 15 14 16 11 17 1 18 2 19 3 20 94 21 4 22 5 23
REMARK SMILES IDX 9 24 93 25 6 26 7 27 10 28 92 29 8 30 27 31 28 32 29 33
REMARK SMILES IDX 30 34 31 36 32 37 33 38 91 39 34 40 90 41 35 42 36 43 37 44
REMARK SMILES IDX 84 45 38 46 89 47 83 48 85 49 39 50 88 51 82 52 81 53 40 55
REMARK SMILES IDX 70 56 51 57 69 58 52 59 55 60 68 61 86 62 53 63 54 64 67 66
REMARK SMILES IDX 87 67 56 68 41 69 42 70 50 71 43 72 49 73 44 74 45 75 46 76
REMARK SMILES IDX 47 77 48 78 71 79 72 80 80 81 73 82 79 83 74 84 75 85 76 86
REMARK SMILES IDX 77 87 78 88 57 89 58 90 66 91 59 92 65 93 60 94 61 95 62 96
REMARK SMILES IDX 63 97 64 98
REMARK H PARENT 22 8 29 35 85 54 55 65
REMARK Flexibility Score: inf
ROOT
ATOM      1  C   UNL A   1      34.467  32.393  28.515  1.00  0.00     0.002 C 
ENDROOT
BRANCH   1   2
ATOM      2  C   UNL A   1      34.471  31.130  27.644  1.00  0.00     0.002 C 
BRANCH   2   3
ATOM      3  C   UNL A   1      33.087  30.641  27.210  1.00  0.00     0.021 C 
BRANCH   3   4
ATOM      4  C   UNL A   1      33.107  29.823  25.919  1.00  0.00     0.116 C 
BRANCH   4   5
ATOM      5  N   UNL A   1      31.870  29.986  25.164  1.00  0.00    -0.355 N 
ATOM      6  C   UNL A   1      31.204  29.059  24.392  1.00  0.00     0.238 C 
ATOM      7  O   UNL A   1      30.205  29.408  23.766  1.00  0.00    -0.273 OA
ATOM      8  H   UNL A   1      31.456  30.878  25.213  1.00  0.00     0.163 HD
BRANCH   6   9
ATOM      9  C   UNL A   1      31.787  27.655  24.342  1.00  0.00     0.162 C 
ATOM     10  N   UNL A   1      30.872  26.526  24.608  1.00  0.00    -0.185 NA
ATOM     11  C   UNL A   1      30.672  25.754  23.374  1.00  0.00     0.103 C 
ATOM     12  C   UNL A   1      31.966  25.947  22.613  1.00  0.00     0.019 C 
ATOM     13  C   UNL A   1      32.376  27.370  22.952  1.00  0.00     0.032 C 
BRANCH  10  14
ATOM     14  S   UNL A   1      30.941  25.745  26.098  1.00  0.00     0.243 S 
ATOM     15  O   UNL A   1      29.581  25.473  26.498  1.00  0.00    -0.207 OA
ATOM     16  O   UNL A   1      31.847  26.491  26.951  1.00  0.00    -0.207 OA
BRANCH  14  17
ATOM     17  C   UNL A   1      31.724  24.145  25.853  1.00  0.00     0.084 A 
ATOM     18  C   UNL A   1      32.914  19.232  24.997  1.00  0.00     0.154 C 
ATOM     19  N   UNL A   1      33.694  20.459  25.108  1.00  0.00    -0.305 N 
ATOM     20  C   UNL A   1      35.078  20.364  25.001  1.00  0.00     0.316 A 
ATOM     21  C   UNL A   1      33.051  21.703  25.335  1.00  0.00     0.068 A 
ATOM     22  O   UNL A   1      35.679  19.302  24.858  1.00  0.00    -0.263 OA
ATOM     23  C   UNL A   1      35.890  21.663  25.068  1.00  0.00     0.316 A 
ATOM     24  C   UNL A   1      33.796  22.885  25.495  1.00  0.00     0.069 A 
ATOM     25  C   UNL A   1      31.656  21.771  25.402  1.00  0.00     0.030 A 
ATOM     26  O   UNL A   1      37.105  21.606  24.892  1.00  0.00    -0.263 OA
ATOM     27  N   UNL A   1      35.208  22.851  25.338  1.00  0.00    -0.305 N 
ATOM     28  C   UNL A   1      33.123  24.094  25.779  1.00  0.00     0.050 A 
ATOM     29  C   UNL A   1      31.003  22.978  25.643  1.00  0.00     0.024 A 
ATOM     30  C   UNL A   1      35.985  24.079  25.394  1.00  0.00     0.154 C 
ENDBRANCH  14  17
ENDBRANCH  10  14
ENDBRANCH   6   9
ENDBRANCH   4   5
ENDBRANCH   3   4
ENDBRANCH   2   3
ENDBRANCH   1   2
BRANCH   1  31
ATOM     31  C   UNL A   1      35.809  33.123  28.617  1.00  0.00     0.021 C 
BRANCH  31  32
ATOM     32  C   UNL A   1      36.483  33.030  29.982  1.00  0.00     0.116 C 
BRANCH  32  33
ATOM     33  N   UNL A   1      36.048  31.862  30.734  1.00  0.00    -0.352 N 
ATOM     34  C   UNL A   1      36.644  30.627  30.835  1.00  0.00     0.251 C 
ATOM     35  H   UNL A   1      35.211  31.971  31.241  1.00  0.00     0.163 HD
ATOM     36  O   UNL A   1      36.052  29.695  31.370  1.00  0.00    -0.269 OA
BRANCH  34  37
ATOM     37  C   UNL A   1      37.992  30.427  30.264  1.00  0.00     0.039 A 
ATOM     38  C   UNL A   1      38.154  30.252  28.888  1.00  0.00     0.014 A 
ATOM     39  C   UNL A   1      39.098  30.373  31.117  1.00  0.00     0.014 A 
ATOM     40  C   UNL A   1      39.389  29.858  28.387  1.00  0.00     0.010 A 
ATOM     41  C   UNL A   1      40.357  30.057  30.597  1.00  0.00     0.010 A 
ATOM     42  C   UNL A   1      40.503  29.748  29.236  1.00  0.00    -0.014 A 
BRANCH  42  43
ATOM     43  C   UNL A   1      41.806  29.301  28.677  1.00  0.00     0.031 A 
ATOM     44  C   UNL A   1      42.994  30.224  28.661  1.00  0.00     0.074 A 
ATOM     45  C   UNL A   1      41.933  28.031  28.245  1.00  0.00     0.049 A 
ATOM     46  N   UNL A   1      44.215  29.981  28.257  1.00  0.00    -0.248 NA
ATOM     47  C   UNL A   1      42.792  31.592  29.165  1.00  0.00     0.031 C 
ATOM     48  C   UNL A   1      40.859  27.037  28.242  1.00  0.00     0.029 A 
ATOM     49  N   UNL A   1      43.022  27.349  27.763  1.00  0.00    -0.354 N 
ATOM     50  C   UNL A   1      44.922  31.163  28.446  1.00  0.00     0.074 A 
ATOM     51  C   UNL A   1      43.987  32.134  28.969  1.00  0.00     0.031 C 
ATOM     52  C   UNL A   1      41.357  25.857  27.847  1.00  0.00     0.029 A 
ATOM     53  C   UNL A   1      42.766  26.024  27.499  1.00  0.00     0.049 A 
ATOM     54  H   UNL A   1      43.901  27.767  27.620  1.00  0.00     0.167 HD
ATOM     55  C   UNL A   1      46.234  31.410  28.218  1.00  0.00     0.031 A 
ATOM     56  C   UNL A   1      43.566  25.047  27.027  1.00  0.00     0.031 A 
ATOM     57  C   UNL A   1      47.160  30.438  27.696  1.00  0.00     0.049 A 
ATOM     58  C   UNL A   1      45.000  25.360  26.721  1.00  0.00     0.074 A 
ATOM     59  C   UNL A   1      48.509  30.596  27.432  1.00  0.00     0.029 A 
ATOM     60  N   UNL A   1      46.837  29.131  27.359  1.00  0.00    -0.354 N 
ATOM     61  N   UNL A   1      45.648  26.486  26.900  1.00  0.00    -0.248 NA
ATOM     62  C   UNL A   1      45.812  24.280  26.144  1.00  0.00     0.031 C 
ATOM     63  C   UNL A   1      48.987  29.407  26.880  1.00  0.00     0.029 A 
ATOM     64  C   UNL A   1      47.955  28.481  26.865  1.00  0.00     0.049 A 
ATOM     65  H   UNL A   1      45.945  28.726  27.457  1.00  0.00     0.167 HD
ATOM     66  C   UNL A   1      46.945  26.251  26.462  1.00  0.00     0.074 A 
ATOM     67  C   UNL A   1      46.997  24.869  26.028  1.00  0.00     0.031 C 
ATOM     68  C   UNL A   1      47.994  27.109  26.422  1.00  0.00     0.031 A 
BRANCH  55  69
ATOM     69  C   UNL A   1      46.758  32.791  28.523  1.00  0.00    -0.014 A 
ATOM     70  C   UNL A   1      47.336  33.059  29.777  1.00  0.00     0.010 A 
ATOM     71  C   UNL A   1      46.600  33.844  27.605  1.00  0.00     0.010 A 
ATOM     72  C   UNL A   1      47.738  34.355  30.113  1.00  0.00     0.020 A 
ATOM     73  C   UNL A   1      47.025  35.137  27.926  1.00  0.00     0.020 A 
ATOM     74  C   UNL A   1      47.576  35.387  29.185  1.00  0.00     0.054 A 
BRANCH  74  75
ATOM     75  S   UNL A   1      48.120  37.062  29.627  1.00  0.00     0.124 S 
ATOM     76  O   UNL A   1      48.897  37.452  28.455  1.00  0.00    -0.237 OA
ATOM     77  O   UNL A   1      46.856  37.770  29.815  1.00  0.00    -0.237 OA
ATOM     78  O   UNL A   1      48.892  36.854  30.851  1.00  0.00    -0.744 OA
ENDBRANCH  74  75
ENDBRANCH  55  69
BRANCH  56  79
ATOM     79  C   UNL A   1      42.999  23.682  26.856  1.00  0.00    -0.014 A 
ATOM     80  C   UNL A   1      42.983  22.778  27.936  1.00  0.00     0.010 A 
ATOM     81  C   UNL A   1      42.607  23.234  25.582  1.00  0.00     0.010 A 
ATOM     82  C   UNL A   1      42.666  21.434  27.729  1.00  0.00     0.020 A 
ATOM     83  C   UNL A   1      42.259  21.895  25.379  1.00  0.00     0.020 A 
ATOM     84  C   UNL A   1      42.330  20.997  26.447  1.00  0.00     0.054 A 
BRANCH  84  85
ATOM     85  S   UNL A   1      42.028  19.228  26.180  1.00  0.00     0.124 S 
ATOM     86  O   UNL A   1      40.633  19.226  25.752  1.00  0.00    -0.237 OA
ATOM     87  O   UNL A   1      43.005  18.889  25.147  1.00  0.00    -0.237 OA
ATOM     88  O   UNL A   1      42.281  18.636  27.492  1.00  0.00    -0.744 OA
ENDBRANCH  84  85
ENDBRANCH  56  79
BRANCH  68  89
ATOM     89  C   UNL A   1      49.304  26.602  25.877  1.00  0.00    -0.014 A 
ATOM     90  C   UNL A   1      50.189  25.906  26.721  1.00  0.00     0.010 A 
ATOM     91  C   UNL A   1      49.717  26.938  24.576  1.00  0.00     0.010 A 
ATOM     92  C   UNL A   1      51.478  25.590  26.289  1.00  0.00     0.020 A 
ATOM     93  C   UNL A   1      50.999  26.598  24.131  1.00  0.00     0.020 A 
ATOM     94  C   UNL A   1      51.880  25.950  25.001  1.00  0.00     0.054 A 
BRANCH  94  95
ATOM     95  S   UNL A   1      53.574  25.573  24.474  1.00  0.00     0.124 S 
ATOM     96  O   UNL A   1      53.565  26.005  23.080  1.00  0.00    -0.237 OA
ATOM     97  O   UNL A   1      54.381  26.388  25.380  1.00  0.00    -0.237 OA
ATOM     98  O   UNL A   1      53.684  24.131  24.682  1.00  0.00    -0.744 OA
ENDBRANCH  94  95
ENDBRANCH  68  89
ENDBRANCH  42  43
ENDBRANCH  34  37
ENDBRANCH  32  33
ENDBRANCH  31  32
ENDBRANCH   1  31
TORSDOF 18
ENDMDL
MODEL 2
REMARK VINA RESULT:     -11.5      5.955      8.315
REMARK SMILES Cn1c(=O)c(=O)n(C)c2cc(S(=O)(=O)N3CCC[C@H]3C(=O)NCCCCCCNC(=O)c3ccc(-c4c5nc(c(-c6ccc(S(=O)(=O)[O-])cc6)c6ccc([nH]6)c(-c6ccc(S(=O)(=O)[O-])cc6)c6nc(c(-c7ccc(S(=O)(=O)[O-])cc7)c7ccc4[nH]7)C=C6)C=C5)cc3)ccc21
REMARK SMILES IDX 26 1 25 2 24 3 23 4 22 5 20 6 21 7 19 9 15 10 16 11 17 12
REMARK SMILES IDX 18 13 12 14 13 15 14 16 11 17 1 18 2 19 3 20 94 21 4 22 5 23
REMARK SMILES IDX 9 24 93 25 6 26 7 27 10 28 92 29 8 30 27 31 28 32 29 33
REMARK SMILES IDX 30 34 31 36 32 37 33 38 91 39 34 40 90 41 35 42 36 43 37 44
REMARK SMILES IDX 84 45 38 46 89 47 83 48 85 49 39 50 88 51 82 52 81 53 40 55
REMARK SMILES IDX 70 56 51 57 69 58 52 59 55 60 68 61 86 62 53 63 54 64 67 66
REMARK SMILES IDX 87 67 56 68 41 69 42 70 50 71 43 72 49 73 44 74 45 75 46 76
REMARK SMILES IDX 47 77 48 78 71 79 72 80 80 81 73 82 79 83 74 84 75 85 76 86
REMARK SMILES IDX 77 87 78 88 57 89 58 90 66 91 59 92 65 93 60 94 61 95 62 96
REMARK SMILES IDX 63 97 64 98
REMARK H PARENT 22 8 29 35 85 54 55 65
REMARK Flexibility Score: inf
ROOT
ATOM      1  C   UNL A   1      35.064  33.065  28.963  1.00  0.00     0.002 C 
ENDROOT
BRANCH   1   2
ATOM      2  C   UNL A   1      34.904  31.539  28.926  1.00  0.00     0.002 C 
BRANCH   2   3
ATOM      3  C   UNL A   1      34.966  30.918  27.529  1.00  0.00     0.021 C 
BRANCH   3   4
ATOM      4  C   UNL A   1      33.982  29.764  27.330  1.00  0.00     0.116 C 
BRANCH   4   5
ATOM      5  N   UNL A   1      32.777  30.203  26.636  1.00  0.00    -0.355 N 
ATOM      6  C   UNL A   1      32.143  29.619  25.561  1.00  0.00     0.238 C 
ATOM      7  O   UNL A   1      31.169  30.182  25.063  1.00  0.00    -0.273 OA
ATOM      8  H   UNL A   1      32.361  31.024  26.983  1.00  0.00     0.163 HD
BRANCH   6   9
ATOM      9  C   UNL A   1      32.728  28.317  25.038  1.00  0.00     0.162 C 
ATOM     10  N   UNL A   1      31.781  27.278  24.580  1.00  0.00    -0.185 NA
ATOM     11  C   UNL A   1      31.888  27.122  23.123  1.00  0.00     0.103 C 
ATOM     12  C   UNL A   1      33.327  27.487  22.825  1.00  0.00     0.019 C 
ATOM     13  C   UNL A   1      33.636  28.586  23.828  1.00  0.00     0.032 C 
BRANCH  10  14
ATOM     14  S   UNL A   1      31.492  25.940  25.560  1.00  0.00     0.243 S 
ATOM     15  O   UNL A   1      30.379  25.223  24.984  1.00  0.00    -0.207 OA
ATOM     16  O   UNL A   1      31.470  26.392  26.938  1.00  0.00    -0.207 OA
BRANCH  14  17
ATOM     17  C   UNL A   1      32.913  24.844  25.439  1.00  0.00     0.084 A 
ATOM     18  C   UNL A   1      37.523  22.600  25.489  1.00  0.00     0.154 C 
ATOM     19  N   UNL A   1      36.161  22.115  25.292  1.00  0.00    -0.305 N 
ATOM     20  C   UNL A   1      35.984  20.762  25.021  1.00  0.00     0.316 A 
ATOM     21  C   UNL A   1      35.062  23.009  25.359  1.00  0.00     0.068 A 
ATOM     22  O   UNL A   1      36.910  19.964  24.901  1.00  0.00    -0.263 OA
ATOM     23  C   UNL A   1      34.548  20.248  24.863  1.00  0.00     0.316 A 
ATOM     24  C   UNL A   1      33.750  22.563  25.119  1.00  0.00     0.069 A 
ATOM     25  C   UNL A   1      35.270  24.357  25.669  1.00  0.00     0.030 A 
ATOM     26  O   UNL A   1      34.369  19.042  24.707  1.00  0.00    -0.263 OA
ATOM     27  N   UNL A   1      33.509  21.181  24.895  1.00  0.00    -0.305 N 
ATOM     28  C   UNL A   1      32.688  23.494  25.137  1.00  0.00     0.050 A 
ATOM     29  C   UNL A   1      34.208  25.257  25.722  1.00  0.00     0.024 A 
ATOM     30  C   UNL A   1      32.150  20.683  24.750  1.00  0.00     0.154 C 
ENDBRANCH  14  17
ENDBRANCH  10  14
ENDBRANCH   6   9
ENDBRANCH   4   5
ENDBRANCH   3   4
ENDBRANCH   2   3
ENDBRANCH   1   2
BRANCH   1  31
ATOM     31  C   UNL A   1      33.784  33.865  28.709  1.00  0.00     0.021 C 
BRANCH  31  32
ATOM     32  C   UNL A   1      33.825  35.306  29.204  1.00  0.00     0.116 C 
BRANCH  32  33
ATOM     33  N   UNL A   1      32.819  35.570  30.223  1.00  0.00    -0.352 N 
ATOM     34  C   UNL A   1      32.829  35.231  31.556  1.00  0.00     0.251 C 
ATOM     35  H   UNL A   1      32.021  36.056  29.916  1.00  0.00     0.163 HD
ATOM     36  O   UNL A   1      31.820  35.374  32.238  1.00  0.00    -0.269 OA
BRANCH  34  37
ATOM     37  C   UNL A   1      34.059  34.666  32.148  1.00  0.00     0.039 A 
ATOM     38  C   UNL A   1      35.228  35.427  32.203  1.00  0.00     0.014 A 
ATOM     39  C   UNL A   1      34.053  33.348  32.614  1.00  0.00     0.014 A 
ATOM     40  C   UNL A   1      36.425  34.822  32.567  1.00  0.00     0.010 A 
ATOM     41  C   UNL A   1      35.244  32.766  33.057  1.00  0.00     0.010 A 
ATOM     42  C   UNL A   1      36.449  33.482  32.989  1.00  0.00    -0.014 A 
BRANCH  42  43
ATOM     43  C   UNL A   1      37.747  32.853  33.348  1.00  0.00     0.031 A 
ATOM     44  C   UNL A   1      38.380  33.105  34.690  1.00  0.00     0.074 A 
ATOM     45  C   UNL A   1      38.322  31.995  32.483  1.00  0.00     0.049 A 
ATOM     46  N   UNL A   1      39.482  32.601  35.184  1.00  0.00    -0.248 NA
ATOM     47  C   UNL A   1      37.692  34.039  35.596  1.00  0.00     0.031 C 
ATOM     48  C   UNL A   1      37.784  31.648  31.167  1.00  0.00     0.029 A 
ATOM     49  N   UNL A   1      39.457  31.231  32.592  1.00  0.00    -0.354 N 
ATOM     50  C   UNL A   1      39.624  33.160  36.449  1.00  0.00     0.074 A 
ATOM     51  C   UNL A   1      38.516  34.070  36.635  1.00  0.00     0.031 C 
ATOM     52  C   UNL A   1      38.548  30.692  30.621  1.00  0.00     0.029 A 
ATOM     53  C   UNL A   1      39.670  30.409  31.511  1.00  0.00     0.049 A 
ATOM     54  H   UNL A   1      40.060  31.269  33.369  1.00  0.00     0.167 HD
ATOM     55  C   UNL A   1      40.584  32.925  37.376  1.00  0.00     0.031 A 
ATOM     56  C   UNL A   1      40.656  29.526  31.255  1.00  0.00     0.031 A 
ATOM     57  C   UNL A   1      41.686  32.018  37.184  1.00  0.00     0.049 A 
ATOM     58  C   UNL A   1      41.744  29.329  32.267  1.00  0.00     0.074 A 
ATOM     59  C   UNL A   1      42.707  31.713  38.066  1.00  0.00     0.029 A 
ATOM     60  N   UNL A   1      41.912  31.270  36.037  1.00  0.00    -0.354 N 
ATOM     61  N   UNL A   1      41.865  29.873  33.454  1.00  0.00    -0.248 NA
ATOM     62  C   UNL A   1      42.831  28.408  31.911  1.00  0.00     0.031 C 
ATOM     63  C   UNL A   1      43.583  30.830  37.431  1.00  0.00     0.029 A 
ATOM     64  C   UNL A   1      43.071  30.526  36.179  1.00  0.00     0.049 A 
ATOM     65  H   UNL A   1      41.334  31.269  35.240  1.00  0.00     0.167 HD
ATOM     66  C   UNL A   1      43.039  29.359  33.990  1.00  0.00     0.074 A 
ATOM     67  C   UNL A   1      43.582  28.444  33.006  1.00  0.00     0.031 C 
ATOM     68  C   UNL A   1      43.612  29.628  35.188  1.00  0.00     0.031 A 
BRANCH  55  69
ATOM     69  C   UNL A   1      40.498  33.663  38.687  1.00  0.00    -0.014 A 
ATOM     70  C   UNL A   1      39.707  33.148  39.731  1.00  0.00     0.010 A 
ATOM     71  C   UNL A   1      41.127  34.910  38.859  1.00  0.00     0.010 A 
ATOM     72  C   UNL A   1      39.538  33.867  40.917  1.00  0.00     0.020 A 
ATOM     73  C   UNL A   1      40.983  35.620  40.055  1.00  0.00     0.020 A 
ATOM     74  C   UNL A   1      40.175  35.101  41.070  1.00  0.00     0.054 A 
BRANCH  74  75
ATOM     75  S   UNL A   1      39.962  36.016  42.624  1.00  0.00     0.124 S 
ATOM     76  O   UNL A   1      41.323  36.052  43.148  1.00  0.00    -0.237 OA
ATOM     77  O   UNL A   1      39.422  37.296  42.170  1.00  0.00    -0.237 OA
ATOM     78  O   UNL A   1      39.021  35.188  43.376  1.00  0.00    -0.744 OA
ENDBRANCH  74  75
ENDBRANCH  55  69
BRANCH  56  79
ATOM     79  C   UNL A   1      40.610  28.757  29.982  1.00  0.00    -0.014 A 
ATOM     80  C   UNL A   1      39.796  27.613  29.872  1.00  0.00     0.010 A 
ATOM     81  C   UNL A   1      41.484  29.079  28.929  1.00  0.00     0.010 A 
ATOM     82  C   UNL A   1      39.917  26.760  28.772  1.00  0.00     0.020 A 
ATOM     83  C   UNL A   1      41.583  28.244  27.811  1.00  0.00     0.020 A 
ATOM     84  C   UNL A   1      40.828  27.070  27.760  1.00  0.00     0.054 A 
BRANCH  84  85
ATOM     85  S   UNL A   1      41.047  25.895  26.395  1.00  0.00     0.124 S 
ATOM     86  O   UNL A   1      39.769  25.188  26.405  1.00  0.00    -0.237 OA
ATOM     87  O   UNL A   1      41.272  26.775  25.250  1.00  0.00    -0.237 OA
ATOM     88  O   UNL A   1      42.203  25.103  26.807  1.00  0.00    -0.744 OA
ENDBRANCH  84  85
ENDBRANCH  56  79
BRANCH  68  89
ATOM     89  C   UNL A   1      44.911  28.942  35.523  1.00  0.00    -0.014 A 
ATOM     90  C   UNL A   1      44.897  27.727  36.232  1.00  0.00     0.010 A 
ATOM     91  C   UNL A   1      46.141  29.570  35.261  1.00  0.00     0.010 A 
ATOM     92  C   UNL A   1      46.086  27.171  36.709  1.00  0.00     0.020 A 
ATOM     93  C   UNL A   1      47.337  29.001  35.713  1.00  0.00     0.020 A 
ATOM     94  C   UNL A   1      47.297  27.820  36.458  1.00  0.00     0.054 A 
BRANCH  94  95
ATOM     95  S   UNL A   1      48.826  27.108  37.126  1.00  0.00     0.124 S 
ATOM     96  O   UNL A   1      49.177  26.124  36.107  1.00  0.00    -0.237 OA
ATOM     97  O   UNL A   1      49.710  28.269  37.211  1.00  0.00    -0.237 OA
ATOM     98  O   UNL A   1      48.412  26.556  38.414  1.00  0.00    -0.744 OA
ENDBRANCH  94  95
ENDBRANCH  68  89
ENDBRANCH  42  43
ENDBRANCH  34  37
ENDBRANCH  32  33
ENDBRANCH  31  32
ENDBRANCH   1  31
TORSDOF 18
ENDMDL
MODEL 3
REMARK VINA RESULT:     -11.4      5.787      9.859
REMARK SMILES Cn1c(=O)c(=O)n(C)c2cc(S(=O)(=O)N3CCC[C@H]3C(=O)NCCCCCCNC(=O)c3ccc(-c4c5nc(c(-c6ccc(S(=O)(=O)[O-])cc6)c6ccc([nH]6)c(-c6ccc(S(=O)(=O)[O-])cc6)c6nc(c(-c7ccc(S(=O)(=O)[O-])cc7)c7ccc4[nH]7)C=C6)C=C5)cc3)ccc21
REMARK SMILES IDX 26 1 25 2 24 3 23 4 22 5 20 6 21 7 19 9 15 10 16 11 17 12
REMARK SMILES IDX 18 13 12 14 13 15 14 16 11 17 1 18 2 19 3 20 94 21 4 22 5 23
REMARK SMILES IDX 9 24 93 25 6 26 7 27 10 28 92 29 8 30 27 31 28 32 29 33
REMARK SMILES IDX 30 34 31 36 32 37 33 38 91 39 34 40 90 41 35 42 36 43 37 44
REMARK SMILES IDX 84 45 38 46 89 47 83 48 85 49 39 50 88 51 82 52 81 53 40 55
REMARK SMILES IDX 70 56 51 57 69 58 52 59 55 60 68 61 86 62 53 63 54 64 67 66
REMARK SMILES IDX 87 67 56 68 41 69 42 70 50 71 43 72 49 73 44 74 45 75 46 76
REMARK SMILES IDX 47 77 48 78 71 79 72 80 80 81 73 82 79 83 74 84 75 85 76 86
REMARK SMILES IDX 77 87 78 88 57 89 58 90 66 91 59 92 65 93 60 94 61 95 62 96
REMARK SMILES IDX 63 97 64 98
REMARK H PARENT 22 8 29 35 85 54 55 65
REMARK Flexibility Score: inf
ROOT
ATOM      1  C   UNL A   1      35.396  32.148  28.135  1.00  0.00     0.002 C 
ENDROOT
BRANCH   1   2
ATOM      2  C   UNL A   1      35.474  30.637  28.391  1.00  0.00     0.002 C 
BRANCH   2   3
ATOM      3  C   UNL A   1      34.996  29.760  27.231  1.00  0.00     0.021 C 
BRANCH   3   4
ATOM      4  C   UNL A   1      33.653  29.079  27.495  1.00  0.00     0.116 C 
BRANCH   4   5
ATOM      5  N   UNL A   1      32.583  29.684  26.710  1.00  0.00    -0.355 N 
ATOM      6  C   UNL A   1      32.072  29.279  25.495  1.00  0.00     0.238 C 
ATOM      7  O   UNL A   1      31.212  29.967  24.948  1.00  0.00    -0.273 OA
ATOM      8  H   UNL A   1      32.171  30.488  27.100  1.00  0.00     0.163 HD
BRANCH   6   9
ATOM      9  C   UNL A   1      32.649  28.007  24.893  1.00  0.00     0.162 C 
ATOM     10  N   UNL A   1      31.698  27.026  24.329  1.00  0.00    -0.185 NA
ATOM     11  C   UNL A   1      31.848  26.978  22.869  1.00  0.00     0.103 C 
ATOM     12  C   UNL A   1      33.302  27.333  22.643  1.00  0.00     0.019 C 
ATOM     13  C   UNL A   1      33.600  28.347  23.734  1.00  0.00     0.032 C 
BRANCH  10  14
ATOM     14  S   UNL A   1      31.353  25.625  25.196  1.00  0.00     0.243 S 
ATOM     15  O   UNL A   1      30.353  24.898  24.449  1.00  0.00    -0.207 OA
ATOM     16  O   UNL A   1      31.140  25.998  26.582  1.00  0.00    -0.207 OA
BRANCH  14  17
ATOM     17  C   UNL A   1      32.827  24.595  25.200  1.00  0.00     0.084 A 
ATOM     18  C   UNL A   1      37.513  22.563  25.648  1.00  0.00     0.154 C 
ATOM     19  N   UNL A   1      36.197  22.017  25.336  1.00  0.00    -0.305 N 
ATOM     20  C   UNL A   1      36.105  20.658  25.053  1.00  0.00     0.316 A 
ATOM     21  C   UNL A   1      35.056  22.860  25.307  1.00  0.00     0.068 A 
ATOM     22  O   UNL A   1      37.073  19.903  25.014  1.00  0.00    -0.263 OA
ATOM     23  C   UNL A   1      34.712  20.079  24.773  1.00  0.00     0.316 A 
ATOM     24  C   UNL A   1      33.791  22.355  24.956  1.00  0.00     0.069 A 
ATOM     25  C   UNL A   1      35.175  24.215  25.631  1.00  0.00     0.030 A 
ATOM     26  O   UNL A   1      34.603  18.867  24.605  1.00  0.00    -0.263 OA
ATOM     27  N   UNL A   1      33.634  20.964  24.714  1.00  0.00    -0.305 N 
ATOM     28  C   UNL A   1      32.690  23.237  24.881  1.00  0.00     0.050 A 
ATOM     29  C   UNL A   1      34.073  25.066  25.592  1.00  0.00     0.024 A 
ATOM     30  C   UNL A   1      32.316  20.405  24.455  1.00  0.00     0.154 C 
ENDBRANCH  14  17
ENDBRANCH  10  14
ENDBRANCH   6   9
ENDBRANCH   4   5
ENDBRANCH   3   4
ENDBRANCH   2   3
ENDBRANCH   1   2
BRANCH   1  31
ATOM     31  C   UNL A   1      33.986  32.742  28.144  1.00  0.00     0.021 C 
BRANCH  31  32
ATOM     32  C   UNL A   1      33.936  34.266  28.105  1.00  0.00     0.116 C 
BRANCH  32  33
ATOM     33  N   UNL A   1      33.272  34.827  29.273  1.00  0.00    -0.352 N 
ATOM     34  C   UNL A   1      33.569  34.652  30.604  1.00  0.00     0.251 C 
ATOM     35  H   UNL A   1      32.505  35.413  29.084  1.00  0.00     0.163 HD
ATOM     36  O   UNL A   1      32.799  35.057  31.469  1.00  0.00    -0.269 OA
BRANCH  34  37
ATOM     37  C   UNL A   1      34.810  33.944  30.981  1.00  0.00     0.039 A 
ATOM     38  C   UNL A   1      34.746  32.698  31.608  1.00  0.00     0.014 A 
ATOM     39  C   UNL A   1      36.046  34.551  30.742  1.00  0.00     0.014 A 
ATOM     40  C   UNL A   1      35.900  32.139  32.144  1.00  0.00     0.010 A 
ATOM     41  C   UNL A   1      37.215  33.945  31.210  1.00  0.00     0.010 A 
ATOM     42  C   UNL A   1      37.147  32.760  31.958  1.00  0.00    -0.014 A 
BRANCH  42  43
ATOM     43  C   UNL A   1      38.362  32.153  32.564  1.00  0.00     0.031 A 
ATOM     44  C   UNL A   1      39.267  31.268  31.750  1.00  0.00     0.074 A 
ATOM     45  C   UNL A   1      38.684  32.459  33.835  1.00  0.00     0.049 A 
ATOM     46  N   UNL A   1      40.390  30.697  32.105  1.00  0.00    -0.248 NA
ATOM     47  C   UNL A   1      38.867  30.988  30.362  1.00  0.00     0.031 C 
ATOM     48  C   UNL A   1      37.900  33.331  34.711  1.00  0.00     0.029 A 
ATOM     49  N   UNL A   1      39.768  32.107  34.599  1.00  0.00    -0.354 N 
ATOM     50  C   UNL A   1      40.825  29.985  30.993  1.00  0.00     0.074 A 
ATOM     51  C   UNL A   1      39.828  30.166  29.961  1.00  0.00     0.031 C 
ATOM     52  C   UNL A   1      38.560  33.502  35.864  1.00  0.00     0.029 A 
ATOM     53  C   UNL A   1      39.777  32.695  35.842  1.00  0.00     0.049 A 
ATOM     54  H   UNL A   1      40.471  31.492  34.288  1.00  0.00     0.167 HD
ATOM     55  C   UNL A   1      41.959  29.259  30.842  1.00  0.00     0.031 A 
ATOM     56  C   UNL A   1      40.660  32.600  36.857  1.00  0.00     0.031 A 
ATOM     57  C   UNL A   1      42.947  29.084  31.875  1.00  0.00     0.049 A 
ATOM     58  C   UNL A   1      41.876  31.739  36.692  1.00  0.00     0.074 A 
ATOM     59  C   UNL A   1      44.129  28.366  31.814  1.00  0.00     0.029 A 
ATOM     60  N   UNL A   1      42.873  29.626  33.150  1.00  0.00    -0.354 N 
ATOM     61  N   UNL A   1      42.265  31.068  35.634  1.00  0.00    -0.248 NA
ATOM     62  C   UNL A   1      42.770  31.614  37.850  1.00  0.00     0.031 C 
ATOM     63  C   UNL A   1      44.738  28.424  33.069  1.00  0.00     0.029 A 
ATOM     64  C   UNL A   1      43.975  29.237  33.892  1.00  0.00     0.049 A 
ATOM     65  H   UNL A   1      42.145  30.202  33.477  1.00  0.00     0.167 HD
ATOM     66  C   UNL A   1      43.452  30.443  35.997  1.00  0.00     0.074 A 
ATOM     67  C   UNL A   1      43.728  30.832  37.366  1.00  0.00     0.031 C 
ATOM     68  C   UNL A   1      44.235  29.618  35.260  1.00  0.00     0.031 A 
BRANCH  55  69
ATOM     69  C   UNL A   1      42.198  28.589  29.513  1.00  0.00    -0.014 A 
ATOM     70  C   UNL A   1      42.689  29.339  28.428  1.00  0.00     0.010 A 
ATOM     71  C   UNL A   1      41.858  27.239  29.312  1.00  0.00     0.010 A 
ATOM     72  C   UNL A   1      42.825  28.757  27.165  1.00  0.00     0.020 A 
ATOM     73  C   UNL A   1      42.018  26.646  28.056  1.00  0.00     0.020 A 
ATOM     74  C   UNL A   1      42.485  27.414  26.986  1.00  0.00     0.054 A 
BRANCH  74  75
ATOM     75  S   UNL A   1      42.685  26.666  25.344  1.00  0.00     0.124 S 
ATOM     76  O   UNL A   1      42.742  27.837  24.477  1.00  0.00    -0.237 OA
ATOM     77  O   UNL A   1      43.933  25.918  25.483  1.00  0.00    -0.237 OA
ATOM     78  O   UNL A   1      41.488  25.838  25.203  1.00  0.00    -0.744 OA
ENDBRANCH  74  75
ENDBRANCH  55  69
BRANCH  56  79
ATOM     79  C   UNL A   1      40.405  33.380  38.098  1.00  0.00    -0.014 A 
ATOM     80  C   UNL A   1      39.590  32.849  39.117  1.00  0.00     0.010 A 
ATOM     81  C   UNL A   1      40.854  34.708  38.203  1.00  0.00     0.010 A 
ATOM     82  C   UNL A   1      39.163  33.655  40.175  1.00  0.00     0.020 A 
ATOM     83  C   UNL A   1      40.454  35.508  39.278  1.00  0.00     0.020 A 
ATOM     84  C   UNL A   1      39.578  34.987  40.234  1.00  0.00     0.054 A 
BRANCH  84  85
ATOM     85  S   UNL A   1      38.924  36.045  41.555  1.00  0.00     0.124 S 
ATOM     86  O   UNL A   1      38.812  37.332  40.875  1.00  0.00    -0.237 OA
ATOM     87  O   UNL A   1      37.659  35.395  41.887  1.00  0.00    -0.237 OA
ATOM     88  O   UNL A   1      39.951  35.973  42.591  1.00  0.00    -0.744 OA
ENDBRANCH  84  85
ENDBRANCH  56  79
BRANCH  68  89
ATOM     89  C   UNL A   1      45.473  29.052  35.904  1.00  0.00    -0.014 A 
ATOM     90  C   UNL A   1      46.706  29.711  35.745  1.00  0.00     0.010 A 
ATOM     91  C   UNL A   1      45.441  27.800  36.543  1.00  0.00     0.010 A 
ATOM     92  C   UNL A   1      47.891  29.111  36.177  1.00  0.00     0.020 A 
ATOM     93  C   UNL A   1      46.622  27.209  37.001  1.00  0.00     0.020 A 
ATOM     94  C   UNL A   1      47.842  27.857  36.790  1.00  0.00     0.054 A 
BRANCH  94  95
ATOM     95  S   UNL A   1      49.395  27.071  37.302  1.00  0.00     0.124 S 
ATOM     96  O   UNL A   1      49.325  27.172  38.756  1.00  0.00    -0.237 OA
ATOM     97  O   UNL A   1      49.267  25.721  36.757  1.00  0.00    -0.237 OA
ATOM     98  O   UNL A   1      50.421  27.895  36.665  1.00  0.00    -0.744 OA
ENDBRANCH  94  95
ENDBRANCH  68  89
ENDBRANCH  42  43
ENDBRANCH  34  37
ENDBRANCH  32  33
ENDBRANCH  31  32
ENDBRANCH   1  31
TORSDOF 18
ENDMDL
