MODEL 1
REMARK VINA RESULT:     -13.1      0.000      0.000
REMARK SMILES Cc1ccc(S(=O)(=O)N(CC(=O)NCCCCCCNC(=O)c2ccc(-c3c4nc(c(-c5ccc(S(=O)(=O)[O-])cc5)c5ccc([nH]5)c(-c5ccc(S(=O)(=O)[O-])cc5)c5nc(c(-c6ccc(S(=O)(=O)[O-])cc6)c6ccc3[nH]6)C=C5)C=C4)cc2)c2cc(Cl)cc(Cl)c2)cc1
REMARK SMILES IDX 16 1 15 2 14 3 13 4 11 5 12 6 10 8 9 9 6 10 7 11 8 12 5 13
REMARK SMILES IDX 1 14 2 15 3 16 92 17 4 18 91 19 83 20 84 21 90 22 85 23
REMARK SMILES IDX 88 24 86 25 87 26 89 27 17 28 18 29 19 30 20 31 21 32 22 34
REMARK SMILES IDX 23 35 24 36 82 37 25 38 81 39 26 40 27 41 28 42 75 43 29 44
REMARK SMILES IDX 80 45 74 46 76 47 30 48 79 49 73 50 72 51 31 53 61 54 42 55
REMARK SMILES IDX 60 56 43 57 46 58 59 59 77 60 44 61 45 62 58 64 78 65 47 66
REMARK SMILES IDX 32 67 33 68 41 69 34 70 40 71 35 72 36 73 37 74 38 75 39 76
REMARK SMILES IDX 62 77 63 78 71 79 64 80 70 81 65 82 66 83 67 84 68 85 69 86
REMARK SMILES IDX 48 87 49 88 57 89 50 90 56 91 51 92 52 93 53 94 54 95 55 96
REMARK H PARENT 13 7 20 33 76 52 46 63
REMARK Flexibility Score: inf
ROOT
ATOM      1  C   UNL A   1      35.310  23.153  23.985  1.00  0.00     0.002 C 
ENDROOT
BRANCH   1   2
ATOM      2  C   UNL A   1      34.194  22.135  23.715  1.00  0.00     0.021 C 
BRANCH   2   3
ATOM      3  C   UNL A   1      32.844  22.713  23.297  1.00  0.00     0.116 C 
BRANCH   3   4
ATOM      4  N   UNL A   1      32.891  23.571  22.127  1.00  0.00    -0.355 N 
ATOM      5  C   UNL A   1      32.997  24.922  21.995  1.00  0.00     0.240 C 
ATOM      6  O   UNL A   1      33.246  25.349  20.859  1.00  0.00    -0.273 OA
ATOM      7  H   UNL A   1      32.836  23.086  21.272  1.00  0.00     0.163 HD
BRANCH   5   8
ATOM      8  C   UNL A   1      32.862  25.912  23.142  1.00  0.00     0.235 C 
BRANCH   8   9
ATOM      9  N   UNL A   1      31.691  25.753  24.053  1.00  0.00    -0.257 N 
BRANCH   9  10
ATOM     10  S   UNL A   1      32.064  25.915  25.739  1.00  0.00     0.264 S 
ATOM     11  O   UNL A   1      33.246  25.110  25.984  1.00  0.00    -0.201 OA
ATOM     12  O   UNL A   1      30.841  25.668  26.478  1.00  0.00    -0.201 OA
BRANCH  10  13
ATOM     13  C   UNL A   1      32.535  27.605  26.127  1.00  0.00     0.088 A 
ATOM     14  C   UNL A   1      33.777  31.430  27.714  1.00  0.00     0.044 C 
ATOM     15  C   UNL A   1      33.355  30.125  27.109  1.00  0.00    -0.051 A 
ATOM     16  C   UNL A   1      34.296  29.118  26.866  1.00  0.00     0.005 A 
ATOM     17  C   UNL A   1      32.010  29.869  26.836  1.00  0.00     0.005 A 
ATOM     18  C   UNL A   1      33.892  27.871  26.371  1.00  0.00     0.022 A 
ATOM     19  C   UNL A   1      31.601  28.615  26.370  1.00  0.00     0.022 A 
ENDBRANCH  10  13
ENDBRANCH   9  10
BRANCH   9  20
ATOM     20  C   UNL A   1      30.548  26.560  23.566  1.00  0.00     0.055 A 
ATOM     21  C   UNL A   1      30.833  27.725  22.832  1.00  0.00     0.047 A 
ATOM     22  C   UNL A   1      29.221  26.353  23.969  1.00  0.00     0.047 A 
ATOM     23  C   UNL A   1      29.835  28.658  22.543  1.00  0.00     0.044 A 
ATOM     24  C   UNL A   1      28.223  27.277  23.643  1.00  0.00     0.044 A 
ATOM     25  Cl  UNL A   1      30.248  30.127  21.748  1.00  0.00    -0.084 Cl
ATOM     26  C   UNL A   1      28.524  28.439  22.944  1.00  0.00     0.041 A 
ATOM     27  Cl  UNL A   1      26.605  27.005  24.169  1.00  0.00    -0.084 Cl
ENDBRANCH   9  20
ENDBRANCH   8   9
ENDBRANCH   5   8
ENDBRANCH   3   4
ENDBRANCH   2   3
ENDBRANCH   1   2
BRANCH   1  28
ATOM     28  C   UNL A   1      36.756  22.651  23.859  1.00  0.00     0.002 C 
BRANCH  28  29
ATOM     29  C   UNL A   1      37.413  22.131  25.138  1.00  0.00     0.021 C 
BRANCH  29  30
ATOM     30  C   UNL A   1      37.921  23.226  26.071  1.00  0.00     0.116 C 
BRANCH  30  31
ATOM     31  N   UNL A   1      39.142  22.850  26.777  1.00  0.00    -0.352 N 
ATOM     32  C   UNL A   1      40.000  23.666  27.495  1.00  0.00     0.251 C 
ATOM     33  H   UNL A   1      39.386  21.897  26.737  1.00  0.00     0.163 HD
ATOM     34  O   UNL A   1      41.054  23.261  27.949  1.00  0.00    -0.269 OA
BRANCH  32  35
ATOM     35  C   UNL A   1      39.545  25.048  27.753  1.00  0.00     0.039 A 
ATOM     36  C   UNL A   1      39.998  26.053  26.892  1.00  0.00     0.014 A 
ATOM     37  C   UNL A   1      38.936  25.353  28.965  1.00  0.00     0.014 A 
ATOM     38  C   UNL A   1      40.011  27.374  27.336  1.00  0.00     0.010 A 
ATOM     39  C   UNL A   1      39.038  26.646  29.439  1.00  0.00     0.010 A 
ATOM     40  C   UNL A   1      39.621  27.647  28.646  1.00  0.00    -0.014 A 
BRANCH  40  41
ATOM     41  C   UNL A   1      39.863  28.919  29.318  1.00  0.00     0.031 A 
ATOM     42  C   UNL A   1      38.881  30.023  29.200  1.00  0.00     0.074 A 
ATOM     43  C   UNL A   1      40.916  29.061  30.154  1.00  0.00     0.049 A 
ATOM     44  N   UNL A   1      39.134  31.262  29.467  1.00  0.00    -0.248 NA
ATOM     45  C   UNL A   1      37.528  29.813  28.696  1.00  0.00     0.031 C 
ATOM     46  C   UNL A   1      41.080  30.090  31.179  1.00  0.00     0.029 A 
ATOM     47  N   UNL A   1      42.164  28.438  30.104  1.00  0.00    -0.354 N 
ATOM     48  C   UNL A   1      37.930  31.928  29.502  1.00  0.00     0.074 A 
ATOM     49  C   UNL A   1      36.985  31.016  28.901  1.00  0.00     0.031 C 
ATOM     50  C   UNL A   1      42.388  30.238  31.433  1.00  0.00     0.029 A 
ATOM     51  C   UNL A   1      43.105  29.415  30.474  1.00  0.00     0.049 A 
ATOM     52  H   UNL A   1      42.350  27.503  29.858  1.00  0.00     0.167 HD
ATOM     53  C   UNL A   1      37.832  33.109  30.178  1.00  0.00     0.031 A 
ATOM     54  C   UNL A   1      44.134  29.843  29.686  1.00  0.00     0.031 A 
ATOM     55  C   UNL A   1      39.139  33.590  30.630  1.00  0.00     0.049 A 
ATOM     56  C   UNL A   1      44.144  31.340  29.465  1.00  0.00     0.074 A 
ATOM     57  C   UNL A   1      39.768  33.621  31.864  1.00  0.00     0.029 A 
ATOM     58  N   UNL A   1      40.109  33.909  29.687  1.00  0.00    -0.354 N 
ATOM     59  N   UNL A   1      43.142  32.124  29.746  1.00  0.00    -0.248 NA
ATOM     60  C   UNL A   1      45.255  32.064  28.855  1.00  0.00     0.031 C 
ATOM     61  C   UNL A   1      41.142  33.912  31.651  1.00  0.00     0.029 A 
ATOM     62  C   UNL A   1      41.340  34.076  30.292  1.00  0.00     0.049 A 
ATOM     63  H   UNL A   1      39.942  34.001  28.722  1.00  0.00     0.167 HD
ATOM     64  C   UNL A   1      43.427  33.408  29.354  1.00  0.00     0.074 A 
ATOM     65  C   UNL A   1      44.775  33.320  28.823  1.00  0.00     0.031 C 
ATOM     66  C   UNL A   1      42.511  34.413  29.488  1.00  0.00     0.031 A 
BRANCH  53  67
ATOM     67  C   UNL A   1      36.519  33.682  30.682  1.00  0.00    -0.014 A 
ATOM     68  C   UNL A   1      35.486  33.975  29.765  1.00  0.00     0.010 A 
ATOM     69  C   UNL A   1      36.258  34.030  32.021  1.00  0.00     0.010 A 
ATOM     70  C   UNL A   1      34.322  34.667  30.142  1.00  0.00     0.020 A 
ATOM     71  C   UNL A   1      35.116  34.746  32.409  1.00  0.00     0.020 A 
ATOM     72  C   UNL A   1      34.158  35.076  31.461  1.00  0.00     0.054 A 
BRANCH  72  73
ATOM     73  S   UNL A   1      32.699  36.044  31.923  1.00  0.00     0.124 S 
ATOM     74  O   UNL A   1      31.792  35.020  32.436  1.00  0.00    -0.237 OA
ATOM     75  O   UNL A   1      33.237  36.967  32.918  1.00  0.00    -0.237 OA
ATOM     76  O   UNL A   1      32.281  36.663  30.666  1.00  0.00    -0.744 OA
ENDBRANCH  72  73
ENDBRANCH  53  67
BRANCH  54  77
ATOM     77  C   UNL A   1      44.616  28.835  28.704  1.00  0.00    -0.014 A 
ATOM     78  C   UNL A   1      43.966  28.791  27.453  1.00  0.00     0.010 A 
ATOM     79  C   UNL A   1      45.909  28.296  28.826  1.00  0.00     0.010 A 
ATOM     80  C   UNL A   1      44.662  28.389  26.312  1.00  0.00     0.020 A 
ATOM     81  C   UNL A   1      46.605  27.886  27.680  1.00  0.00     0.020 A 
ATOM     82  C   UNL A   1      45.997  28.005  26.427  1.00  0.00     0.054 A 
BRANCH  82  83
ATOM     83  S   UNL A   1      46.978  27.884  24.900  1.00  0.00     0.124 S 
ATOM     84  O   UNL A   1      46.648  29.128  24.215  1.00  0.00    -0.237 OA
ATOM     85  O   UNL A   1      48.338  27.796  25.431  1.00  0.00    -0.237 OA
ATOM     86  O   UNL A   1      46.475  26.665  24.275  1.00  0.00    -0.744 OA
ENDBRANCH  82  83
ENDBRANCH  54  77
BRANCH  66  87
ATOM     87  C   UNL A   1      42.612  35.824  28.942  1.00  0.00    -0.014 A 
ATOM     88  C   UNL A   1      41.896  36.314  27.839  1.00  0.00     0.010 A 
ATOM     89  C   UNL A   1      43.407  36.766  29.645  1.00  0.00     0.010 A 
ATOM     90  C   UNL A   1      42.004  37.654  27.431  1.00  0.00     0.020 A 
ATOM     91  C   UNL A   1      43.488  38.112  29.275  1.00  0.00     0.020 A 
ATOM     92  C   UNL A   1      42.801  38.545  28.151  1.00  0.00     0.054 A 
BRANCH  92  93
ATOM     93  S   UNL A   1      42.874  40.285  27.658  1.00  0.00     0.124 S 
ATOM     94  O   UNL A   1      41.483  40.557  27.305  1.00  0.00    -0.237 OA
ATOM     95  O   UNL A   1      43.353  40.949  28.869  1.00  0.00    -0.237 OA
ATOM     96  O   UNL A   1      43.817  40.287  26.543  1.00  0.00    -0.744 OA
ENDBRANCH  92  93
ENDBRANCH  66  87
ENDBRANCH  40  41
ENDBRANCH  32  35
ENDBRANCH  30  31
ENDBRANCH  29  30
ENDBRANCH  28  29
ENDBRANCH   1  28
TORSDOF 20
ENDMDL
MODEL 2
REMARK VINA RESULT:     -12.3      1.489      1.948
REMARK SMILES Cc1ccc(S(=O)(=O)N(CC(=O)NCCCCCCNC(=O)c2ccc(-c3c4nc(c(-c5ccc(S(=O)(=O)[O-])cc5)c5ccc([nH]5)c(-c5ccc(S(=O)(=O)[O-])cc5)c5nc(c(-c6ccc(S(=O)(=O)[O-])cc6)c6ccc3[nH]6)C=C5)C=C4)cc2)c2cc(Cl)cc(Cl)c2)cc1
REMARK SMILES IDX 16 1 15 2 14 3 13 4 11 5 12 6 10 8 9 9 6 10 7 11 8 12 5 13
REMARK SMILES IDX 1 14 2 15 3 16 92 17 4 18 91 19 83 20 84 21 90 22 85 23
REMARK SMILES IDX 88 24 86 25 87 26 89 27 17 28 18 29 19 30 20 31 21 32 22 34
REMARK SMILES IDX 23 35 24 36 82 37 25 38 81 39 26 40 27 41 28 42 75 43 29 44
REMARK SMILES IDX 80 45 74 46 76 47 30 48 79 49 73 50 72 51 31 53 61 54 42 55
REMARK SMILES IDX 60 56 43 57 46 58 59 59 77 60 44 61 45 62 58 64 78 65 47 66
REMARK SMILES IDX 32 67 33 68 41 69 34 70 40 71 35 72 36 73 37 74 38 75 39 76
REMARK SMILES IDX 62 77 63 78 71 79 64 80 70 81 65 82 66 83 67 84 68 85 69 86
REMARK SMILES IDX 48 87 49 88 57 89 50 90 56 91 51 92 52 93 53 94 54 95 55 96
REMARK H PARENT 13 7 20 33 76 52 46 63
REMARK Flexibility Score: inf
ROOT
ATOM      1  C   UNL A   1      34.156  21.800  25.111  1.00  0.00     0.002 C 
ENDROOT
BRANCH   1   2
ATOM      2  C   UNL A   1      34.128  22.433  23.714  1.00  0.00     0.021 C 
BRANCH   2   3
ATOM      3  C   UNL A   1      32.762  22.900  23.215  1.00  0.00     0.116 C 
BRANCH   3   4
ATOM      4  N   UNL A   1      32.810  23.779  22.060  1.00  0.00    -0.355 N 
ATOM      5  C   UNL A   1      32.887  25.133  21.952  1.00  0.00     0.240 C 
ATOM      6  O   UNL A   1      33.146  25.586  20.828  1.00  0.00    -0.273 OA
ATOM      7  H   UNL A   1      32.783  23.307  21.196  1.00  0.00     0.163 HD
BRANCH   5   8
ATOM      8  C   UNL A   1      32.707  26.101  23.112  1.00  0.00     0.235 C 
BRANCH   8   9
ATOM      9  N   UNL A   1      31.522  25.902  23.997  1.00  0.00    -0.257 N 
BRANCH   9  10
ATOM     10  S   UNL A   1      31.863  26.014  25.693  1.00  0.00     0.264 S 
ATOM     11  O   UNL A   1      32.943  25.085  25.964  1.00  0.00    -0.201 OA
ATOM     12  O   UNL A   1      30.600  25.899  26.396  1.00  0.00    -0.201 OA
BRANCH  10  13
ATOM     13  C   UNL A   1      32.505  27.642  26.106  1.00  0.00     0.088 A 
ATOM     14  C   UNL A   1      34.104  31.304  27.756  1.00  0.00     0.044 C 
ATOM     15  C   UNL A   1      33.562  30.054  27.129  1.00  0.00    -0.051 A 
ATOM     16  C   UNL A   1      34.394  28.950  26.913  1.00  0.00     0.005 A 
ATOM     17  C   UNL A   1      32.208  29.949  26.808  1.00  0.00     0.005 A 
ATOM     18  C   UNL A   1      33.873  27.755  26.398  1.00  0.00     0.022 A 
ATOM     19  C   UNL A   1      31.679  28.748  26.322  1.00  0.00     0.022 A 
ENDBRANCH  10  13
ENDBRANCH   9  10
BRANCH   9  20
ATOM     20  C   UNL A   1      30.379  26.711  23.514  1.00  0.00     0.055 A 
ATOM     21  C   UNL A   1      30.663  27.864  22.763  1.00  0.00     0.047 A 
ATOM     22  C   UNL A   1      29.056  26.518  23.936  1.00  0.00     0.047 A 
ATOM     23  C   UNL A   1      29.668  28.801  22.475  1.00  0.00     0.044 A 
ATOM     24  C   UNL A   1      28.061  27.447  23.612  1.00  0.00     0.044 A 
ATOM     25  Cl  UNL A   1      30.081  30.258  21.655  1.00  0.00    -0.084 Cl
ATOM     26  C   UNL A   1      28.361  28.597  22.895  1.00  0.00     0.041 A 
ATOM     27  Cl  UNL A   1      26.448  27.193  24.162  1.00  0.00    -0.084 Cl
ENDBRANCH   9  20
ENDBRANCH   8   9
ENDBRANCH   5   8
ENDBRANCH   3   4
ENDBRANCH   2   3
ENDBRANCH   1   2
BRANCH   1  28
ATOM     28  C   UNL A   1      35.508  21.779  25.839  1.00  0.00     0.002 C 
BRANCH  28  29
ATOM     29  C   UNL A   1      36.743  21.506  24.981  1.00  0.00     0.021 C 
BRANCH  29  30
ATOM     30  C   UNL A   1      37.848  22.549  25.125  1.00  0.00     0.116 C 
BRANCH  30  31
ATOM     31  N   UNL A   1      39.046  22.021  25.770  1.00  0.00    -0.352 N 
ATOM     32  C   UNL A   1      40.021  22.719  26.463  1.00  0.00     0.251 C 
ATOM     33  H   UNL A   1      39.178  21.047  25.705  1.00  0.00     0.163 HD
ATOM     34  O   UNL A   1      41.041  22.187  26.864  1.00  0.00    -0.269 OA
BRANCH  32  35
ATOM     35  C   UNL A   1      39.740  24.138  26.762  1.00  0.00     0.039 A 
ATOM     36  C   UNL A   1      40.513  25.106  26.111  1.00  0.00     0.014 A 
ATOM     37  C   UNL A   1      38.942  24.463  27.854  1.00  0.00     0.014 A 
ATOM     38  C   UNL A   1      40.634  26.373  26.677  1.00  0.00     0.010 A 
ATOM     39  C   UNL A   1      39.139  25.685  28.464  1.00  0.00     0.010 A 
ATOM     40  C   UNL A   1      40.023  26.623  27.906  1.00  0.00    -0.014 A 
BRANCH  40  41
ATOM     41  C   UNL A   1      40.310  27.788  28.735  1.00  0.00     0.031 A 
ATOM     42  C   UNL A   1      39.373  28.936  28.756  1.00  0.00     0.074 A 
ATOM     43  C   UNL A   1      41.361  27.780  29.585  1.00  0.00     0.049 A 
ATOM     44  N   UNL A   1      39.673  30.120  29.179  1.00  0.00    -0.248 NA
ATOM     45  C   UNL A   1      38.017  28.847  28.225  1.00  0.00     0.031 C 
ATOM     46  C   UNL A   1      41.557  28.663  30.733  1.00  0.00     0.029 A 
ATOM     47  N   UNL A   1      42.584  27.119  29.459  1.00  0.00    -0.354 N 
ATOM     48  C   UNL A   1      38.496  30.824  29.295  1.00  0.00     0.074 A 
ATOM     49  C   UNL A   1      37.520  30.035  28.580  1.00  0.00     0.031 C 
ATOM     50  C   UNL A   1      42.868  28.725  31.008  1.00  0.00     0.029 A 
ATOM     51  C   UNL A   1      43.559  28.002  29.953  1.00  0.00     0.049 A 
ATOM     52  H   UNL A   1      42.735  26.215  29.096  1.00  0.00     0.167 HD
ATOM     53  C   UNL A   1      38.439  31.913  30.115  1.00  0.00     0.031 A 
ATOM     54  C   UNL A   1      44.611  28.485  29.229  1.00  0.00     0.031 A 
ATOM     55  C   UNL A   1      39.760  32.279  30.629  1.00  0.00     0.049 A 
ATOM     56  C   UNL A   1      44.681  29.996  29.201  1.00  0.00     0.074 A 
ATOM     57  C   UNL A   1      40.381  32.128  31.859  1.00  0.00     0.029 A 
ATOM     58  N   UNL A   1      40.750  32.676  29.737  1.00  0.00    -0.354 N 
ATOM     59  N   UNL A   1      43.709  30.778  29.577  1.00  0.00    -0.248 NA
ATOM     60  C   UNL A   1      45.826  30.747  28.692  1.00  0.00     0.031 C 
ATOM     61  C   UNL A   1      41.766  32.388  31.689  1.00  0.00     0.029 A 
ATOM     62  C   UNL A   1      41.982  32.716  30.362  1.00  0.00     0.049 A 
ATOM     63  H   UNL A   1      40.594  32.897  28.791  1.00  0.00     0.167 HD
ATOM     64  C   UNL A   1      44.048  32.088  29.353  1.00  0.00     0.074 A 
ATOM     65  C   UNL A   1      45.395  32.015  28.818  1.00  0.00     0.031 C 
ATOM     66  C   UNL A   1      43.171  33.105  29.610  1.00  0.00     0.031 A 
BRANCH  53  67
ATOM     67  C   UNL A   1      37.145  32.469  30.685  1.00  0.00    -0.014 A 
ATOM     68  C   UNL A   1      36.393  33.398  29.933  1.00  0.00     0.010 A 
ATOM     69  C   UNL A   1      36.652  32.189  31.973  1.00  0.00     0.010 A 
ATOM     70  C   UNL A   1      35.289  34.080  30.472  1.00  0.00     0.020 A 
ATOM     71  C   UNL A   1      35.570  32.881  32.536  1.00  0.00     0.020 A 
ATOM     72  C   UNL A   1      34.902  33.839  31.786  1.00  0.00     0.054 A 
BRANCH  72  73
ATOM     73  S   UNL A   1      33.534  34.784  32.504  1.00  0.00     0.124 S 
ATOM     74  O   UNL A   1      32.862  35.314  31.321  1.00  0.00    -0.237 OA
ATOM     75  O   UNL A   1      32.800  33.761  33.243  1.00  0.00    -0.237 OA
ATOM     76  O   UNL A   1      34.203  35.786  33.333  1.00  0.00    -0.744 OA
ENDBRANCH  72  73
ENDBRANCH  53  67
BRANCH  54  77
ATOM     77  C   UNL A   1      45.061  27.591  28.128  1.00  0.00    -0.014 A 
ATOM     78  C   UNL A   1      46.064  26.648  28.432  1.00  0.00     0.010 A 
ATOM     79  C   UNL A   1      44.232  27.378  27.013  1.00  0.00     0.010 A 
ATOM     80  C   UNL A   1      46.117  25.431  27.751  1.00  0.00     0.020 A 
ATOM     81  C   UNL A   1      44.290  26.158  26.325  1.00  0.00     0.020 A 
ATOM     82  C   UNL A   1      45.184  25.170  26.748  1.00  0.00     0.054 A 
BRANCH  82  83
ATOM     83  S   UNL A   1      45.018  23.453  26.171  1.00  0.00     0.124 S 
ATOM     84  O   UNL A   1      46.376  22.942  26.314  1.00  0.00    -0.237 OA
ATOM     85  O   UNL A   1      44.038  22.920  27.117  1.00  0.00    -0.237 OA
ATOM     86  O   UNL A   1      44.541  23.605  24.800  1.00  0.00    -0.744 OA
ENDBRANCH  82  83
ENDBRANCH  54  77
BRANCH  66  87
ATOM     87  C   UNL A   1      43.332  34.568  29.248  1.00  0.00    -0.014 A 
ATOM     88  C   UNL A   1      42.771  35.185  28.121  1.00  0.00     0.010 A 
ATOM     89  C   UNL A   1      44.012  35.419  30.159  1.00  0.00     0.010 A 
ATOM     90  C   UNL A   1      42.920  36.564  27.888  1.00  0.00     0.020 A 
ATOM     91  C   UNL A   1      44.129  36.798  29.961  1.00  0.00     0.020 A 
ATOM     92  C   UNL A   1      43.600  37.361  28.808  1.00  0.00     0.054 A 
BRANCH  92  93
ATOM     93  S   UNL A   1      43.723  39.146  28.533  1.00  0.00     0.124 S 
ATOM     94  O   UNL A   1      45.028  39.451  29.115  1.00  0.00    -0.237 OA
ATOM     95  O   UNL A   1      43.645  39.260  27.078  1.00  0.00    -0.237 OA
ATOM     96  O   UNL A   1      42.573  39.685  29.254  1.00  0.00    -0.744 OA
ENDBRANCH  92  93
ENDBRANCH  66  87
ENDBRANCH  40  41
ENDBRANCH  32  35
ENDBRANCH  30  31
ENDBRANCH  29  30
ENDBRANCH  28  29
ENDBRANCH   1  28
TORSDOF 20
ENDMDL
MODEL 3
REMARK VINA RESULT:     -12.1      2.346      3.159
REMARK SMILES Cc1ccc(S(=O)(=O)N(CC(=O)NCCCCCCNC(=O)c2ccc(-c3c4nc(c(-c5ccc(S(=O)(=O)[O-])cc5)c5ccc([nH]5)c(-c5ccc(S(=O)(=O)[O-])cc5)c5nc(c(-c6ccc(S(=O)(=O)[O-])cc6)c6ccc3[nH]6)C=C5)C=C4)cc2)c2cc(Cl)cc(Cl)c2)cc1
REMARK SMILES IDX 16 1 15 2 14 3 13 4 11 5 12 6 10 8 9 9 6 10 7 11 8 12 5 13
REMARK SMILES IDX 1 14 2 15 3 16 92 17 4 18 91 19 83 20 84 21 90 22 85 23
REMARK SMILES IDX 88 24 86 25 87 26 89 27 17 28 18 29 19 30 20 31 21 32 22 34
REMARK SMILES IDX 23 35 24 36 82 37 25 38 81 39 26 40 27 41 28 42 75 43 29 44
REMARK SMILES IDX 80 45 74 46 76 47 30 48 79 49 73 50 72 51 31 53 61 54 42 55
REMARK SMILES IDX 60 56 43 57 46 58 59 59 77 60 44 61 45 62 58 64 78 65 47 66
REMARK SMILES IDX 32 67 33 68 41 69 34 70 40 71 35 72 36 73 37 74 38 75 39 76
REMARK SMILES IDX 62 77 63 78 71 79 64 80 70 81 65 82 66 83 67 84 68 85 69 86
REMARK SMILES IDX 48 87 49 88 57 89 50 90 56 91 51 92 52 93 53 94 54 95 55 96
REMARK H PARENT 13 7 20 33 76 52 46 63
REMARK Flexibility Score: inf
ROOT
ATOM      1  C   UNL A   1      35.268  23.033  22.912  1.00  0.00     0.002 C 
ENDROOT
BRANCH   1   2
ATOM      2  C   UNL A   1      33.848  22.501  23.144  1.00  0.00     0.021 C 
BRANCH   2   3
ATOM      3  C   UNL A   1      32.709  23.363  22.601  1.00  0.00     0.116 C 
BRANCH   3   4
ATOM      4  N   UNL A   1      33.129  24.638  22.048  1.00  0.00    -0.355 N 
ATOM      5  C   UNL A   1      32.865  25.920  22.422  1.00  0.00     0.240 C 
ATOM      6  O   UNL A   1      33.555  26.804  21.894  1.00  0.00    -0.273 OA
ATOM      7  H   UNL A   1      33.711  24.561  21.258  1.00  0.00     0.163 HD
BRANCH   5   8
ATOM      8  C   UNL A   1      31.818  26.319  23.450  1.00  0.00     0.235 C 
BRANCH   8   9
ATOM      9  N   UNL A   1      32.262  26.452  24.869  1.00  0.00    -0.257 N 
BRANCH   9  10
ATOM     10  S   UNL A   1      31.473  27.717  25.755  1.00  0.00     0.264 S 
ATOM     11  O   UNL A   1      30.946  27.113  26.964  1.00  0.00    -0.201 OA
ATOM     12  O   UNL A   1      30.592  28.406  24.832  1.00  0.00    -0.201 OA
BRANCH  10  13
ATOM     13  C   UNL A   1      32.664  28.947  26.303  1.00  0.00     0.088 A 
ATOM     14  C   UNL A   1      35.463  31.602  28.255  1.00  0.00     0.044 C 
ATOM     15  C   UNL A   1      34.513  30.698  27.525  1.00  0.00    -0.051 A 
ATOM     16  C   UNL A   1      34.877  29.382  27.221  1.00  0.00     0.005 A 
ATOM     17  C   UNL A   1      33.230  31.136  27.193  1.00  0.00     0.005 A 
ATOM     18  C   UNL A   1      33.964  28.515  26.607  1.00  0.00     0.022 A 
ATOM     19  C   UNL A   1      32.307  30.263  26.608  1.00  0.00     0.022 A 
ENDBRANCH  10  13
ENDBRANCH   9  10
BRANCH   9  20
ATOM     20  C   UNL A   1      32.289  25.124  25.525  1.00  0.00     0.055 A 
ATOM     21  C   UNL A   1      31.057  24.501  25.794  1.00  0.00     0.047 A 
ATOM     22  C   UNL A   1      33.442  24.555  26.084  1.00  0.00     0.047 A 
ATOM     23  C   UNL A   1      30.983  23.373  26.614  1.00  0.00     0.044 A 
ATOM     24  C   UNL A   1      33.359  23.404  26.875  1.00  0.00     0.044 A 
ATOM     25  Cl  UNL A   1      29.445  22.711  27.014  1.00  0.00    -0.084 Cl
ATOM     26  C   UNL A   1      32.133  22.816  27.157  1.00  0.00     0.041 A 
ATOM     27  Cl  UNL A   1      34.791  22.739  27.563  1.00  0.00    -0.084 Cl
ENDBRANCH   9  20
ENDBRANCH   8   9
ENDBRANCH   5   8
ENDBRANCH   3   4
ENDBRANCH   2   3
ENDBRANCH   1   2
BRANCH   1  28
ATOM     28  C   UNL A   1      36.126  23.294  24.157  1.00  0.00     0.002 C 
BRANCH  28  29
ATOM     29  C   UNL A   1      37.344  22.389  24.351  1.00  0.00     0.021 C 
BRANCH  29  30
ATOM     30  C   UNL A   1      37.781  22.231  25.805  1.00  0.00     0.116 C 
BRANCH  30  31
ATOM     31  N   UNL A   1      39.165  21.787  25.935  1.00  0.00    -0.352 N 
ATOM     32  C   UNL A   1      40.286  22.552  26.213  1.00  0.00     0.251 C 
ATOM     33  H   UNL A   1      39.322  20.823  25.810  1.00  0.00     0.163 HD
ATOM     34  O   UNL A   1      41.412  22.089  26.186  1.00  0.00    -0.269 OA
BRANCH  32  35
ATOM     35  C   UNL A   1      40.053  23.953  26.617  1.00  0.00     0.039 A 
ATOM     36  C   UNL A   1      40.660  24.960  25.859  1.00  0.00     0.014 A 
ATOM     37  C   UNL A   1      39.494  24.222  27.862  1.00  0.00     0.014 A 
ATOM     38  C   UNL A   1      40.878  26.209  26.436  1.00  0.00     0.010 A 
ATOM     39  C   UNL A   1      39.796  25.428  28.465  1.00  0.00     0.010 A 
ATOM     40  C   UNL A   1      40.531  26.403  27.773  1.00  0.00    -0.014 A 
BRANCH  40  41
ATOM     41  C   UNL A   1      40.967  27.545  28.568  1.00  0.00     0.031 A 
ATOM     42  C   UNL A   1      40.043  28.677  28.815  1.00  0.00     0.074 A 
ATOM     43  C   UNL A   1      42.166  27.525  29.192  1.00  0.00     0.049 A 
ATOM     44  N   UNL A   1      40.411  29.851  29.212  1.00  0.00    -0.248 NA
ATOM     45  C   UNL A   1      38.609  28.584  28.562  1.00  0.00     0.031 C 
ATOM     46  C   UNL A   1      42.580  28.373  30.309  1.00  0.00     0.029 A 
ATOM     47  N   UNL A   1      43.346  26.887  28.803  1.00  0.00    -0.354 N 
ATOM     48  C   UNL A   1      39.274  30.533  29.583  1.00  0.00     0.074 A 
ATOM     49  C   UNL A   1      38.183  29.752  29.050  1.00  0.00     0.031 C 
ATOM     50  C   UNL A   1      43.918  28.446  30.319  1.00  0.00     0.029 A 
ATOM     51  C   UNL A   1      44.392  27.769  29.124  1.00  0.00     0.049 A 
ATOM     52  H   UNL A   1      43.429  25.999  28.386  1.00  0.00     0.167 HD
ATOM     53  C   UNL A   1      39.373  31.593  30.436  1.00  0.00     0.031 A 
ATOM     54  C   UNL A   1      45.274  28.292  28.223  1.00  0.00     0.031 A 
ATOM     55  C   UNL A   1      40.767  31.963  30.690  1.00  0.00     0.049 A 
ATOM     56  C   UNL A   1      45.325  29.804  28.234  1.00  0.00     0.074 A 
ATOM     57  C   UNL A   1      41.620  31.781  31.766  1.00  0.00     0.029 A 
ATOM     58  N   UNL A   1      41.555  32.404  29.634  1.00  0.00    -0.354 N 
ATOM     59  N   UNL A   1      44.440  30.558  28.823  1.00  0.00    -0.248 NA
ATOM     60  C   UNL A   1      46.338  30.589  27.534  1.00  0.00     0.031 C 
ATOM     61  C   UNL A   1      42.942  32.068  31.333  1.00  0.00     0.029 A 
ATOM     62  C   UNL A   1      42.886  32.442  30.002  1.00  0.00     0.049 A 
ATOM     63  H   UNL A   1      41.213  32.653  28.745  1.00  0.00     0.167 HD
ATOM     64  C   UNL A   1      44.715  31.880  28.582  1.00  0.00     0.074 A 
ATOM     65  C   UNL A   1      45.931  31.845  27.788  1.00  0.00     0.031 C 
ATOM     66  C   UNL A   1      43.899  32.874  29.044  1.00  0.00     0.031 A 
BRANCH  53  67
ATOM     67  C   UNL A   1      38.214  32.111  31.271  1.00  0.00    -0.014 A 
ATOM     68  C   UNL A   1      37.493  33.245  30.839  1.00  0.00     0.010 A 
ATOM     69  C   UNL A   1      37.828  31.586  32.519  1.00  0.00     0.010 A 
ATOM     70  C   UNL A   1      36.532  33.876  31.647  1.00  0.00     0.020 A 
ATOM     71  C   UNL A   1      36.893  32.219  33.350  1.00  0.00     0.020 A 
ATOM     72  C   UNL A   1      36.259  33.375  32.915  1.00  0.00     0.054 A 
BRANCH  72  73
ATOM     73  S   UNL A   1      35.085  34.241  33.987  1.00  0.00     0.124 S 
ATOM     74  O   UNL A   1      35.489  33.800  35.319  1.00  0.00    -0.237 OA
ATOM     75  O   UNL A   1      35.352  35.643  33.677  1.00  0.00    -0.237 OA
ATOM     76  O   UNL A   1      33.781  33.748  33.544  1.00  0.00    -0.744 OA
ENDBRANCH  72  73
ENDBRANCH  53  67
BRANCH  54  77
ATOM     77  C   UNL A   1      45.504  27.442  27.024  1.00  0.00    -0.014 A 
ATOM     78  C   UNL A   1      46.472  26.422  27.132  1.00  0.00     0.010 A 
ATOM     79  C   UNL A   1      44.515  27.348  26.029  1.00  0.00     0.010 A 
ATOM     80  C   UNL A   1      46.345  25.248  26.388  1.00  0.00     0.020 A 
ATOM     81  C   UNL A   1      44.392  26.171  25.277  1.00  0.00     0.020 A 
ATOM     82  C   UNL A   1      45.266  25.107  25.516  1.00  0.00     0.054 A 
BRANCH  82  83
ATOM     83  S   UNL A   1      44.902  23.442  24.880  1.00  0.00     0.124 S 
ATOM     84  O   UNL A   1      45.887  23.290  23.816  1.00  0.00    -0.237 OA
ATOM     85  O   UNL A   1      45.124  22.619  26.068  1.00  0.00    -0.237 OA
ATOM     86  O   UNL A   1      43.513  23.546  24.446  1.00  0.00    -0.744 OA
ENDBRANCH  82  83
ENDBRANCH  54  77
BRANCH  66  87
ATOM     87  C   UNL A   1      43.972  34.350  28.709  1.00  0.00    -0.014 A 
ATOM     88  C   UNL A   1      43.768  34.898  27.433  1.00  0.00     0.010 A 
ATOM     89  C   UNL A   1      44.158  35.276  29.769  1.00  0.00     0.010 A 
ATOM     90  C   UNL A   1      43.796  36.287  27.217  1.00  0.00     0.020 A 
ATOM     91  C   UNL A   1      44.144  36.660  29.574  1.00  0.00     0.020 A 
ATOM     92  C   UNL A   1      43.986  37.159  28.289  1.00  0.00     0.054 A 
BRANCH  92  93
ATOM     93  S   UNL A   1      43.948  38.948  28.010  1.00  0.00     0.124 S 
ATOM     94  O   UNL A   1      42.664  39.317  28.599  1.00  0.00    -0.237 OA
ATOM     95  O   UNL A   1      45.128  39.418  28.734  1.00  0.00    -0.237 OA
ATOM     96  O   UNL A   1      44.030  39.070  26.557  1.00  0.00    -0.744 OA
ENDBRANCH  92  93
ENDBRANCH  66  87
ENDBRANCH  40  41
ENDBRANCH  32  35
ENDBRANCH  30  31
ENDBRANCH  29  30
ENDBRANCH  28  29
ENDBRANCH   1  28
TORSDOF 20
ENDMDL
