MODEL 1
REMARK VINA RESULT:     -10.8      0.000      0.000
REMARK SMILES COc1cccc([C@H]2C=C(C(=O)NCCCCCCNC(=O)c3ccc(-c4c5nc(c(-c6ccc(S(=O)(=O)[O-])cc6)c6ccc([nH]6)c(-c6ccc(S(=O)(=O)[O-])cc6)c6nc(c(-c7ccc(S(=O)(=O)[O-])cc7)c7ccc4[nH]7)C=C6)C=C5)cc3)Nc3nnnn32)c1OC
REMARK SMILES IDX 17 1 16 2 15 3 14 4 13 5 11 6 12 7 10 9 8 10 9 11 88 12
REMARK SMILES IDX 84 13 87 14 83 15 85 16 86 17 7 19 3 20 4 21 89 22 5 23 6 24
REMARK SMILES IDX 2 25 1 26 90 27 91 28 18 29 19 30 20 31 21 32 22 34 23 35
REMARK SMILES IDX 24 36 82 37 25 38 81 39 26 40 27 41 28 42 75 43 29 44 80 45
REMARK SMILES IDX 74 46 76 47 30 48 79 49 73 50 72 51 31 53 61 54 42 55 60 56
REMARK SMILES IDX 43 57 46 58 59 59 77 60 44 61 45 62 58 64 78 65 47 66 32 67
REMARK SMILES IDX 33 68 41 69 34 70 40 71 35 72 36 73 37 74 38 75 39 76 62 77
REMARK SMILES IDX 63 78 71 79 64 80 70 81 65 82 66 83 67 84 68 85 69 86 48 87
REMARK SMILES IDX 49 88 57 89 50 90 56 91 51 92 52 93 53 94 54 95 55 96
REMARK H PARENT 13 8 83 18 20 33 76 52 46 63
REMARK Flexibility Score: inf
ROOT
ATOM      1  C   UNL A   1      35.511  21.660  24.693  1.00  0.00     0.002 C 
ENDROOT
BRANCH   1   2
ATOM      2  C   UNL A   1      34.062  21.214  24.896  1.00  0.00     0.002 C 
BRANCH   2   3
ATOM      3  C   UNL A   1      33.653  20.886  26.330  1.00  0.00     0.021 C 
BRANCH   3   4
ATOM      4  C   UNL A   1      33.577  22.061  27.293  1.00  0.00     0.116 C 
BRANCH   4   5
ATOM      5  N   UNL A   1      32.236  22.573  27.498  1.00  0.00    -0.351 N 
ATOM      6  C   UNL A   1      31.527  23.532  26.839  1.00  0.00     0.267 C 
ATOM      7  O   UNL A   1      30.400  23.820  27.251  1.00  0.00    -0.268 OA
ATOM      8  H   UNL A   1      31.753  22.155  28.247  1.00  0.00     0.163 HD
BRANCH   6   9
ATOM      9  C   UNL A   1      32.094  24.321  25.684  1.00  0.00     0.105 C 
ATOM     10  C   UNL A   1      33.334  26.186  24.585  1.00  0.00     0.172 C 
ATOM     11  C   UNL A   1      32.973  25.337  25.798  1.00  0.00     0.037 C 
ATOM     12  N   UNL A   1      33.222  25.362  23.388  1.00  0.00    -0.200 N 
ATOM     13  C   UNL A   1      32.420  24.255  23.306  1.00  0.00     0.248 A 
ATOM     14  N   UNL A   1      33.973  25.483  22.282  1.00  0.00    -0.043 NA
ATOM     15  N   UNL A   1      31.754  23.858  24.411  1.00  0.00    -0.319 N 
ATOM     16  N   UNL A   1      32.550  23.755  22.100  1.00  0.00    -0.090 NA
ATOM     17  N   UNL A   1      33.523  24.523  21.478  1.00  0.00    -0.022 NA
ATOM     18  H   UNL A   1      31.006  23.224  24.317  1.00  0.00     0.170 HD
BRANCH  10  19
ATOM     19  C   UNL A   1      32.506  27.493  24.570  1.00  0.00     0.027 A 
ATOM     20  C   UNL A   1      31.907  29.731  25.362  1.00  0.00     0.161 A 
ATOM     21  C   UNL A   1      30.743  29.708  24.591  1.00  0.00     0.050 A 
ATOM     22  C   UNL A   1      32.820  28.660  25.313  1.00  0.00     0.166 A 
ATOM     23  C   UNL A   1      30.469  28.614  23.780  1.00  0.00     0.004 A 
ATOM     24  C   UNL A   1      31.318  27.506  23.798  1.00  0.00     0.010 A 
BRANCH  20  25
ATOM     25  O   UNL A   1      32.017  30.745  26.278  1.00  0.00    -0.493 OA
ATOM     26  C   UNL A   1      31.028  31.756  26.126  1.00  0.00     0.278 C 
ENDBRANCH  20  25
BRANCH  22  27
ATOM     27  O   UNL A   1      34.086  28.726  25.821  1.00  0.00    -0.492 OA
ATOM     28  C   UNL A   1      34.267  28.946  27.211  1.00  0.00     0.278 C 
ENDBRANCH  22  27
ENDBRANCH  10  19
ENDBRANCH   6   9
ENDBRANCH   4   5
ENDBRANCH   3   4
ENDBRANCH   2   3
ENDBRANCH   1   2
BRANCH   1  29
ATOM     29  C   UNL A   1      35.739  23.166  24.538  1.00  0.00     0.021 C 
BRANCH  29  30
ATOM     30  C   UNL A   1      36.908  23.742  25.328  1.00  0.00     0.116 C 
BRANCH  30  31
ATOM     31  N   UNL A   1      37.931  22.752  25.612  1.00  0.00    -0.352 N 
ATOM     32  C   UNL A   1      39.156  22.914  26.207  1.00  0.00     0.251 C 
ATOM     33  H   UNL A   1      37.716  21.831  25.338  1.00  0.00     0.163 HD
ATOM     34  O   UNL A   1      39.963  21.984  26.206  1.00  0.00    -0.269 OA
BRANCH  32  35
ATOM     35  C   UNL A   1      39.517  24.207  26.828  1.00  0.00     0.039 A 
ATOM     36  C   UNL A   1      39.138  24.450  28.150  1.00  0.00     0.014 A 
ATOM     37  C   UNL A   1      40.222  25.179  26.111  1.00  0.00     0.014 A 
ATOM     38  C   UNL A   1      39.513  25.644  28.770  1.00  0.00     0.010 A 
ATOM     39  C   UNL A   1      40.659  26.335  26.754  1.00  0.00     0.010 A 
ATOM     40  C   UNL A   1      40.307  26.582  28.089  1.00  0.00    -0.014 A 
BRANCH  40  41
ATOM     41  C   UNL A   1      40.777  27.823  28.759  1.00  0.00     0.031 A 
ATOM     42  C   UNL A   1      42.175  27.907  29.311  1.00  0.00     0.074 A 
ATOM     43  C   UNL A   1      39.925  28.856  28.920  1.00  0.00     0.049 A 
ATOM     44  N   UNL A   1      42.745  28.884  29.968  1.00  0.00    -0.248 NA
ATOM     45  C   UNL A   1      43.039  26.730  29.118  1.00  0.00     0.031 C 
ATOM     46  C   UNL A   1      38.533  28.887  28.462  1.00  0.00     0.029 A 
ATOM     47  N   UNL A   1      40.103  30.081  29.516  1.00  0.00    -0.354 N 
ATOM     48  C   UNL A   1      44.024  28.439  30.277  1.00  0.00     0.074 A 
ATOM     49  C   UNL A   1      44.130  27.083  29.784  1.00  0.00     0.031 C 
ATOM     50  C   UNL A   1      37.995  30.078  28.768  1.00  0.00     0.029 A 
ATOM     51  C   UNL A   1      38.984  30.880  29.483  1.00  0.00     0.049 A 
ATOM     52  H   UNL A   1      40.951  30.360  29.929  1.00  0.00     0.167 HD
ATOM     53  C   UNL A   1      45.028  29.103  30.900  1.00  0.00     0.031 A 
ATOM     54  C   UNL A   1      38.771  32.115  29.978  1.00  0.00     0.031 A 
ATOM     55  C   UNL A   1      44.921  30.454  31.384  1.00  0.00     0.049 A 
ATOM     56  C   UNL A   1      39.894  32.823  30.687  1.00  0.00     0.074 A 
ATOM     57  C   UNL A   1      45.897  31.232  31.982  1.00  0.00     0.029 A 
ATOM     58  N   UNL A   1      43.771  31.227  31.331  1.00  0.00    -0.354 N 
ATOM     59  N   UNL A   1      41.117  32.406  30.913  1.00  0.00    -0.248 NA
ATOM     60  C   UNL A   1      39.611  34.171  31.196  1.00  0.00     0.031 C 
ATOM     61  C   UNL A   1      45.320  32.453  32.346  1.00  0.00     0.029 A 
ATOM     62  C   UNL A   1      44.004  32.463  31.911  1.00  0.00     0.049 A 
ATOM     63  H   UNL A   1      42.915  30.941  30.938  1.00  0.00     0.167 HD
ATOM     64  C   UNL A   1      41.759  33.455  31.563  1.00  0.00     0.074 A 
ATOM     65  C   UNL A   1      40.794  34.528  31.679  1.00  0.00     0.031 C 
ATOM     66  C   UNL A   1      43.034  33.523  32.021  1.00  0.00     0.031 A 
BRANCH  53  67
ATOM     67  C   UNL A   1      46.332  28.374  31.099  1.00  0.00    -0.014 A 
ATOM     68  C   UNL A   1      46.564  27.597  32.250  1.00  0.00     0.010 A 
ATOM     69  C   UNL A   1      47.322  28.426  30.101  1.00  0.00     0.010 A 
ATOM     70  C   UNL A   1      47.776  26.920  32.415  1.00  0.00     0.020 A 
ATOM     71  C   UNL A   1      48.522  27.723  30.248  1.00  0.00     0.020 A 
ATOM     72  C   UNL A   1      48.748  26.989  31.412  1.00  0.00     0.054 A 
BRANCH  72  73
ATOM     73  S   UNL A   1      50.298  26.078  31.644  1.00  0.00     0.124 S 
ATOM     74  O   UNL A   1      51.280  27.159  31.679  1.00  0.00    -0.237 OA
ATOM     75  O   UNL A   1      50.078  25.388  32.912  1.00  0.00    -0.237 OA
ATOM     76  O   UNL A   1      50.370  25.211  30.470  1.00  0.00    -0.744 OA
ENDBRANCH  72  73
ENDBRANCH  53  67
BRANCH  54  77
ATOM     77  C   UNL A   1      37.440  32.763  29.816  1.00  0.00    -0.014 A 
ATOM     78  C   UNL A   1      36.443  32.608  30.796  1.00  0.00     0.010 A 
ATOM     79  C   UNL A   1      37.162  33.545  28.680  1.00  0.00     0.010 A 
ATOM     80  C   UNL A   1      35.190  33.203  30.633  1.00  0.00     0.020 A 
ATOM     81  C   UNL A   1      35.922  34.168  28.527  1.00  0.00     0.020 A 
ATOM     82  C   UNL A   1      34.937  33.982  29.500  1.00  0.00     0.054 A 
BRANCH  82  83
ATOM     83  S   UNL A   1      33.318  34.784  29.331  1.00  0.00     0.124 S 
ATOM     84  O   UNL A   1      32.893  34.905  30.723  1.00  0.00    -0.237 OA
ATOM     85  O   UNL A   1      33.655  36.035  28.659  1.00  0.00    -0.237 OA
ATOM     86  O   UNL A   1      32.553  33.837  28.522  1.00  0.00    -0.744 OA
ENDBRANCH  82  83
ENDBRANCH  54  77
BRANCH  66  87
ATOM     87  C   UNL A   1      43.477  34.815  32.656  1.00  0.00    -0.014 A 
ATOM     88  C   UNL A   1      43.442  34.995  34.051  1.00  0.00     0.010 A 
ATOM     89  C   UNL A   1      43.989  35.845  31.846  1.00  0.00     0.010 A 
ATOM     90  C   UNL A   1      43.881  36.195  34.619  1.00  0.00     0.020 A 
ATOM     91  C   UNL A   1      44.459  37.032  32.412  1.00  0.00     0.020 A 
ATOM     92  C   UNL A   1      44.389  37.205  33.795  1.00  0.00     0.054 A 
BRANCH  92  93
ATOM     93  S   UNL A   1      44.995  38.732  34.562  1.00  0.00     0.124 S 
ATOM     94  O   UNL A   1      45.068  39.638  33.419  1.00  0.00    -0.237 OA
ATOM     95  O   UNL A   1      43.952  39.035  35.539  1.00  0.00    -0.237 OA
ATOM     96  O   UNL A   1      46.283  38.346  35.134  1.00  0.00    -0.744 OA
ENDBRANCH  92  93
ENDBRANCH  66  87
ENDBRANCH  40  41
ENDBRANCH  32  35
ENDBRANCH  30  31
ENDBRANCH  29  30
ENDBRANCH   1  29
TORSDOF 19
ENDMDL
MODEL 2
REMARK VINA RESULT:     -10.4      4.056      9.976
REMARK SMILES COc1cccc([C@H]2C=C(C(=O)NCCCCCCNC(=O)c3ccc(-c4c5nc(c(-c6ccc(S(=O)(=O)[O-])cc6)c6ccc([nH]6)c(-c6ccc(S(=O)(=O)[O-])cc6)c6nc(c(-c7ccc(S(=O)(=O)[O-])cc7)c7ccc4[nH]7)C=C6)C=C5)cc3)Nc3nnnn32)c1OC
REMARK SMILES IDX 17 1 16 2 15 3 14 4 13 5 11 6 12 7 10 9 8 10 9 11 88 12
REMARK SMILES IDX 84 13 87 14 83 15 85 16 86 17 7 19 3 20 4 21 89 22 5 23 6 24
REMARK SMILES IDX 2 25 1 26 90 27 91 28 18 29 19 30 20 31 21 32 22 34 23 35
REMARK SMILES IDX 24 36 82 37 25 38 81 39 26 40 27 41 28 42 75 43 29 44 80 45
REMARK SMILES IDX 74 46 76 47 30 48 79 49 73 50 72 51 31 53 61 54 42 55 60 56
REMARK SMILES IDX 43 57 46 58 59 59 77 60 44 61 45 62 58 64 78 65 47 66 32 67
REMARK SMILES IDX 33 68 41 69 34 70 40 71 35 72 36 73 37 74 38 75 39 76 62 77
REMARK SMILES IDX 63 78 71 79 64 80 70 81 65 82 66 83 67 84 68 85 69 86 48 87
REMARK SMILES IDX 49 88 57 89 50 90 56 91 51 92 52 93 53 94 54 95 55 96
REMARK H PARENT 13 8 83 18 20 33 76 52 46 63
REMARK Flexibility Score: inf
ROOT
ATOM      1  C   UNL A   1      34.888  29.636  27.302  1.00  0.00     0.002 C 
ENDROOT
BRANCH   1   2
ATOM      2  C   UNL A   1      33.713  28.986  26.570  1.00  0.00     0.002 C 
BRANCH   2   3
ATOM      3  C   UNL A   1      34.055  28.210  25.302  1.00  0.00     0.021 C 
BRANCH   3   4
ATOM      4  C   UNL A   1      33.395  28.693  24.019  1.00  0.00     0.116 C 
BRANCH   4   5
ATOM      5  N   UNL A   1      33.642  27.843  22.870  1.00  0.00    -0.351 N 
ATOM      6  C   UNL A   1      33.359  26.530  22.642  1.00  0.00     0.267 C 
ATOM      7  O   UNL A   1      33.724  26.024  21.578  1.00  0.00    -0.268 OA
ATOM      8  H   UNL A   1      34.094  28.296  22.122  1.00  0.00     0.163 HD
BRANCH   6   9
ATOM      9  C   UNL A   1      32.701  25.644  23.672  1.00  0.00     0.105 C 
ATOM     10  C   UNL A   1      32.565  23.790  25.336  1.00  0.00     0.172 C 
ATOM     11  C   UNL A   1      33.348  24.768  24.467  1.00  0.00     0.037 C 
ATOM     12  N   UNL A   1      31.292  24.401  25.696  1.00  0.00    -0.200 N 
ATOM     13  C   UNL A   1      30.687  25.380  24.954  1.00  0.00     0.248 A 
ATOM     14  N   UNL A   1      30.625  24.199  26.844  1.00  0.00    -0.043 NA
ATOM     15  N   UNL A   1      31.335  25.862  23.872  1.00  0.00    -0.319 N 
ATOM     16  N   UNL A   1      29.564  25.700  25.552  1.00  0.00    -0.090 NA
ATOM     17  N   UNL A   1      29.542  24.964  26.727  1.00  0.00    -0.022 NA
ATOM     18  H   UNL A   1      30.832  26.381  23.204  1.00  0.00     0.170 HD
BRANCH  10  19
ATOM     19  C   UNL A   1      32.467  22.408  24.646  1.00  0.00     0.027 A 
ATOM     20  C   UNL A   1      32.866  19.999  24.473  1.00  0.00     0.161 A 
ATOM     21  C   UNL A   1      32.434  20.008  23.145  1.00  0.00     0.050 A 
ATOM     22  C   UNL A   1      32.831  21.175  25.246  1.00  0.00     0.166 A 
ATOM     23  C   UNL A   1      31.980  21.190  22.571  1.00  0.00     0.004 A 
ATOM     24  C   UNL A   1      32.033  22.380  23.298  1.00  0.00     0.010 A 
BRANCH  20  25
ATOM     25  O   UNL A   1      33.477  18.853  24.911  1.00  0.00    -0.493 OA
ATOM     26  C   UNL A   1      32.589  17.947  25.553  1.00  0.00     0.278 C 
ENDBRANCH  20  25
BRANCH  22  27
ATOM     27  O   UNL A   1      32.981  21.189  26.603  1.00  0.00    -0.492 OA
ATOM     28  C   UNL A   1      34.243  21.516  27.161  1.00  0.00     0.278 C 
ENDBRANCH  22  27
ENDBRANCH  10  19
ENDBRANCH   6   9
ENDBRANCH   4   5
ENDBRANCH   3   4
ENDBRANCH   2   3
ENDBRANCH   1   2
BRANCH   1  29
ATOM     29  C   UNL A   1      34.640  31.035  27.871  1.00  0.00     0.021 C 
BRANCH  29  30
ATOM     30  C   UNL A   1      35.748  31.595  28.756  1.00  0.00     0.116 C 
BRANCH  30  31
ATOM     31  N   UNL A   1      35.624  31.173  30.139  1.00  0.00    -0.352 N 
ATOM     32  C   UNL A   1      36.509  30.468  30.915  1.00  0.00     0.251 C 
ATOM     33  H   UNL A   1      34.785  31.427  30.585  1.00  0.00     0.163 HD
ATOM     34  O   UNL A   1      36.156  30.050  32.017  1.00  0.00    -0.269 OA
BRANCH  32  35
ATOM     35  C   UNL A   1      37.876  30.190  30.421  1.00  0.00     0.039 A 
ATOM     36  C   UNL A   1      38.894  29.959  31.347  1.00  0.00     0.014 A 
ATOM     37  C   UNL A   1      38.155  30.164  29.051  1.00  0.00     0.014 A 
ATOM     38  C   UNL A   1      40.180  29.644  30.900  1.00  0.00     0.010 A 
ATOM     39  C   UNL A   1      39.418  29.777  28.607  1.00  0.00     0.010 A 
ATOM     40  C   UNL A   1      40.445  29.516  29.527  1.00  0.00    -0.014 A 
BRANCH  40  41
ATOM     41  C   UNL A   1      41.788  29.111  29.037  1.00  0.00     0.031 A 
ATOM     42  C   UNL A   1      42.902  30.120  28.949  1.00  0.00     0.074 A 
ATOM     43  C   UNL A   1      41.991  27.845  28.619  1.00  0.00     0.049 A 
ATOM     44  N   UNL A   1      44.122  29.965  28.503  1.00  0.00    -0.248 NA
ATOM     45  C   UNL A   1      42.599  31.489  29.402  1.00  0.00     0.031 C 
ATOM     46  C   UNL A   1      40.983  26.780  28.620  1.00  0.00     0.029 A 
ATOM     47  N   UNL A   1      43.112  27.238  28.108  1.00  0.00    -0.354 N 
ATOM     48  C   UNL A   1      44.726  31.212  28.608  1.00  0.00     0.074 A 
ATOM     49  C   UNL A   1      43.724  32.126  29.110  1.00  0.00     0.031 C 
ATOM     50  C   UNL A   1      41.539  25.648  28.161  1.00  0.00     0.029 A 
ATOM     51  C   UNL A   1      42.926  25.912  27.791  1.00  0.00     0.049 A 
ATOM     52  H   UNL A   1      43.967  27.707  27.981  1.00  0.00     0.167 HD
ATOM     53  C   UNL A   1      46.006  31.562  28.330  1.00  0.00     0.031 A 
ATOM     54  C   UNL A   1      43.772  25.011  27.253  1.00  0.00     0.031 A 
ATOM     55  C   UNL A   1      47.002  30.648  27.837  1.00  0.00     0.049 A 
ATOM     56  C   UNL A   1      45.181  25.431  26.931  1.00  0.00     0.074 A 
ATOM     57  C   UNL A   1      48.338  30.895  27.573  1.00  0.00     0.029 A 
ATOM     58  N   UNL A   1      46.773  29.316  27.528  1.00  0.00    -0.354 N 
ATOM     59  N   UNL A   1      45.750  26.601  27.097  1.00  0.00    -0.248 NA
ATOM     60  C   UNL A   1      46.063  24.405  26.359  1.00  0.00     0.031 C 
ATOM     61  C   UNL A   1      48.902  29.728  27.047  1.00  0.00     0.029 A 
ATOM     62  C   UNL A   1      47.936  28.735  27.050  1.00  0.00     0.049 A 
ATOM     63  H   UNL A   1      45.912  28.851  27.634  1.00  0.00     0.167 HD
ATOM     64  C   UNL A   1      47.068  26.442  26.680  1.00  0.00     0.074 A 
ATOM     65  C   UNL A   1      47.212  25.061  26.269  1.00  0.00     0.031 C 
ATOM     66  C   UNL A   1      48.067  27.358  26.643  1.00  0.00     0.031 A 
BRANCH  53  67
ATOM     67  C   UNL A   1      46.400  33.001  28.547  1.00  0.00    -0.014 A 
ATOM     68  C   UNL A   1      47.134  33.392  29.683  1.00  0.00     0.010 A 
ATOM     69  C   UNL A   1      46.077  33.969  27.578  1.00  0.00     0.010 A 
ATOM     70  C   UNL A   1      47.499  34.728  29.863  1.00  0.00     0.020 A 
ATOM     71  C   UNL A   1      46.469  35.301  27.740  1.00  0.00     0.020 A 
ATOM     72  C   UNL A   1      47.163  35.675  28.891  1.00  0.00     0.054 A 
BRANCH  72  73
ATOM     73  S   UNL A   1      47.676  37.396  29.142  1.00  0.00     0.124 S 
ATOM     74  O   UNL A   1      47.120  38.051  27.959  1.00  0.00    -0.237 OA
ATOM     75  O   UNL A   1      47.036  37.739  30.409  1.00  0.00    -0.237 OA
ATOM     76  O   UNL A   1      49.134  37.322  29.182  1.00  0.00    -0.744 OA
ENDBRANCH  72  73
ENDBRANCH  53  67
BRANCH  54  77
ATOM     77  C   UNL A   1      43.310  23.620  26.992  1.00  0.00    -0.014 A 
ATOM     78  C   UNL A   1      43.222  22.684  28.039  1.00  0.00     0.010 A 
ATOM     79  C   UNL A   1      42.951  23.221  25.691  1.00  0.00     0.010 A 
ATOM     80  C   UNL A   1      42.804  21.375  27.787  1.00  0.00     0.020 A 
ATOM     81  C   UNL A   1      42.502  21.922  25.440  1.00  0.00     0.020 A 
ATOM     82  C   UNL A   1      42.444  21.002  26.489  1.00  0.00     0.054 A 
BRANCH  82  83
ATOM     83  S   UNL A   1      41.861  19.309  26.194  1.00  0.00     0.124 S 
ATOM     84  O   UNL A   1      40.444  19.522  25.914  1.00  0.00    -0.237 OA
ATOM     85  O   UNL A   1      42.677  18.889  25.058  1.00  0.00    -0.237 OA
ATOM     86  O   UNL A   1      42.156  18.624  27.451  1.00  0.00    -0.744 OA
ENDBRANCH  82  83
ENDBRANCH  54  77
BRANCH  66  87
ATOM     87  C   UNL A   1      49.421  26.891  26.177  1.00  0.00    -0.014 A 
ATOM     88  C   UNL A   1      49.881  27.158  24.875  1.00  0.00     0.010 A 
ATOM     89  C   UNL A   1      50.270  26.223  27.078  1.00  0.00     0.010 A 
ATOM     90  C   UNL A   1      51.151  26.735  24.474  1.00  0.00     0.020 A 
ATOM     91  C   UNL A   1      51.553  25.828  26.691  1.00  0.00     0.020 A 
ATOM     92  C   UNL A   1      51.980  26.074  25.386  1.00  0.00     0.054 A 
BRANCH  92  93
ATOM     93  S   UNL A   1      53.641  25.578  24.854  1.00  0.00     0.124 S 
ATOM     94  O   UNL A   1      53.611  25.898  23.429  1.00  0.00    -0.237 OA
ATOM     95  O   UNL A   1      54.505  26.426  25.671  1.00  0.00    -0.237 OA
ATOM     96  O   UNL A   1      53.696  24.153  25.171  1.00  0.00    -0.744 OA
ENDBRANCH  92  93
ENDBRANCH  66  87
ENDBRANCH  40  41
ENDBRANCH  32  35
ENDBRANCH  30  31
ENDBRANCH  29  30
ENDBRANCH   1  29
TORSDOF 19
ENDMDL
MODEL 3
REMARK VINA RESULT:     -10.3      2.016      8.064
REMARK SMILES COc1cccc([C@H]2C=C(C(=O)NCCCCCCNC(=O)c3ccc(-c4c5nc(c(-c6ccc(S(=O)(=O)[O-])cc6)c6ccc([nH]6)c(-c6ccc(S(=O)(=O)[O-])cc6)c6nc(c(-c7ccc(S(=O)(=O)[O-])cc7)c7ccc4[nH]7)C=C6)C=C5)cc3)Nc3nnnn32)c1OC
REMARK SMILES IDX 17 1 16 2 15 3 14 4 13 5 11 6 12 7 10 9 8 10 9 11 88 12
REMARK SMILES IDX 84 13 87 14 83 15 85 16 86 17 7 19 3 20 4 21 89 22 5 23 6 24
REMARK SMILES IDX 2 25 1 26 90 27 91 28 18 29 19 30 20 31 21 32 22 34 23 35
REMARK SMILES IDX 24 36 82 37 25 38 81 39 26 40 27 41 28 42 75 43 29 44 80 45
REMARK SMILES IDX 74 46 76 47 30 48 79 49 73 50 72 51 31 53 61 54 42 55 60 56
REMARK SMILES IDX 43 57 46 58 59 59 77 60 44 61 45 62 58 64 78 65 47 66 32 67
REMARK SMILES IDX 33 68 41 69 34 70 40 71 35 72 36 73 37 74 38 75 39 76 62 77
REMARK SMILES IDX 63 78 71 79 64 80 70 81 65 82 66 83 67 84 68 85 69 86 48 87
REMARK SMILES IDX 49 88 57 89 50 90 56 91 51 92 52 93 53 94 54 95 55 96
REMARK H PARENT 13 8 83 18 20 33 76 52 46 63
REMARK Flexibility Score: inf
ROOT
ATOM      1  C   UNL A   1      35.459  21.416  24.684  1.00  0.00     0.002 C 
ENDROOT
BRANCH   1   2
ATOM      2  C   UNL A   1      34.029  21.059  25.092  1.00  0.00     0.002 C 
BRANCH   2   3
ATOM      3  C   UNL A   1      33.805  20.765  26.573  1.00  0.00     0.021 C 
BRANCH   3   4
ATOM      4  C   UNL A   1      33.698  21.973  27.490  1.00  0.00     0.116 C 
BRANCH   4   5
ATOM      5  N   UNL A   1      32.346  22.465  27.668  1.00  0.00    -0.351 N 
ATOM      6  C   UNL A   1      31.603  23.345  26.939  1.00  0.00     0.267 C 
ATOM      7  O   UNL A   1      30.473  23.636  27.339  1.00  0.00    -0.268 OA
ATOM      8  H   UNL A   1      31.882  22.099  28.455  1.00  0.00     0.163 HD
BRANCH   6   9
ATOM      9  C   UNL A   1      32.137  24.048  25.715  1.00  0.00     0.105 C 
ATOM     10  C   UNL A   1      33.290  25.860  24.444  1.00  0.00     0.172 C 
ATOM     11  C   UNL A   1      32.965  25.112  25.732  1.00  0.00     0.037 C 
ATOM     12  N   UNL A   1      33.223  24.922  23.330  1.00  0.00    -0.200 N 
ATOM     13  C   UNL A   1      32.475  23.774  23.353  1.00  0.00     0.248 A 
ATOM     14  N   UNL A   1      33.972  24.975  22.218  1.00  0.00    -0.043 NA
ATOM     15  N   UNL A   1      31.825  23.451  24.491  1.00  0.00    -0.319 N 
ATOM     16  N   UNL A   1      32.635  23.170  22.200  1.00  0.00    -0.090 NA
ATOM     17  N   UNL A   1      33.572  23.922  21.508  1.00  0.00    -0.022 NA
ATOM     18  H   UNL A   1      31.109  22.776  24.458  1.00  0.00     0.170 HD
BRANCH  10  19
ATOM     19  C   UNL A   1      32.399  27.118  24.307  1.00  0.00     0.027 A 
ATOM     20  C   UNL A   1      31.768  29.434  24.787  1.00  0.00     0.161 A 
ATOM     21  C   UNL A   1      30.537  29.245  24.157  1.00  0.00     0.050 A 
ATOM     22  C   UNL A   1      32.725  28.401  24.816  1.00  0.00     0.166 A 
ATOM     23  C   UNL A   1      30.241  28.023  23.564  1.00  0.00     0.004 A 
ATOM     24  C   UNL A   1      31.142  26.963  23.672  1.00  0.00     0.010 A 
BRANCH  20  25
ATOM     25  O   UNL A   1      31.916  30.588  25.511  1.00  0.00    -0.493 OA
ATOM     26  C   UNL A   1      31.636  30.429  26.896  1.00  0.00     0.278 C 
ENDBRANCH  20  25
BRANCH  22  27
ATOM     27  O   UNL A   1      34.029  28.593  25.171  1.00  0.00    -0.492 OA
ATOM     28  C   UNL A   1      34.401  28.492  26.537  1.00  0.00     0.278 C 
ENDBRANCH  22  27
ENDBRANCH  10  19
ENDBRANCH   6   9
ENDBRANCH   4   5
ENDBRANCH   3   4
ENDBRANCH   2   3
ENDBRANCH   1   2
BRANCH   1  29
ATOM     29  C   UNL A   1      35.866  22.881  24.857  1.00  0.00     0.021 C 
BRANCH  29  30
ATOM     30  C   UNL A   1      36.939  23.150  25.906  1.00  0.00     0.116 C 
BRANCH  30  31
ATOM     31  N   UNL A   1      37.915  22.079  25.993  1.00  0.00    -0.352 N 
ATOM     32  C   UNL A   1      39.245  22.139  26.322  1.00  0.00     0.251 C 
ATOM     33  H   UNL A   1      37.574  21.179  25.784  1.00  0.00     0.163 HD
ATOM     34  O   UNL A   1      39.957  21.146  26.172  1.00  0.00    -0.269 OA
BRANCH  32  35
ATOM     35  C   UNL A   1      39.829  23.399  26.834  1.00  0.00     0.039 A 
ATOM     36  C   UNL A   1      40.585  23.364  28.007  1.00  0.00     0.014 A 
ATOM     37  C   UNL A   1      39.628  24.610  26.165  1.00  0.00     0.014 A 
ATOM     38  C   UNL A   1      41.187  24.533  28.478  1.00  0.00     0.010 A 
ATOM     39  C   UNL A   1      40.289  25.758  26.594  1.00  0.00     0.010 A 
ATOM     40  C   UNL A   1      41.074  25.734  27.757  1.00  0.00    -0.014 A 
BRANCH  40  41
ATOM     41  C   UNL A   1      41.768  26.969  28.205  1.00  0.00     0.031 A 
ATOM     42  C   UNL A   1      40.978  28.137  28.733  1.00  0.00     0.074 A 
ATOM     43  C   UNL A   1      43.108  27.060  28.087  1.00  0.00     0.049 A 
ATOM     44  N   UNL A   1      41.402  29.311  29.123  1.00  0.00    -0.248 NA
ATOM     45  C   UNL A   1      39.516  27.972  28.811  1.00  0.00     0.031 C 
ATOM     46  C   UNL A   1      43.986  26.012  27.559  1.00  0.00     0.029 A 
ATOM     47  N   UNL A   1      43.969  28.084  28.399  1.00  0.00    -0.354 N 
ATOM     48  C   UNL A   1      40.266  30.027  29.479  1.00  0.00     0.074 A 
ATOM     49  C   UNL A   1      39.129  29.176  29.209  1.00  0.00     0.031 C 
ATOM     50  C   UNL A   1      45.259  26.435  27.611  1.00  0.00     0.029 A 
ATOM     51  C   UNL A   1      45.287  27.799  28.131  1.00  0.00     0.049 A 
ATOM     52  H   UNL A   1      43.670  28.941  28.778  1.00  0.00     0.167 HD
ATOM     53  C   UNL A   1      40.177  31.274  30.002  1.00  0.00     0.031 A 
ATOM     54  C   UNL A   1      46.396  28.551  28.278  1.00  0.00     0.031 A 
ATOM     55  C   UNL A   1      41.312  32.116  30.276  1.00  0.00     0.049 A 
ATOM     56  C   UNL A   1      46.268  29.942  28.838  1.00  0.00     0.074 A 
ATOM     57  C   UNL A   1      41.328  33.374  30.852  1.00  0.00     0.029 A 
ATOM     58  N   UNL A   1      42.629  31.790  29.989  1.00  0.00    -0.354 N 
ATOM     59  N   UNL A   1      45.188  30.576  29.228  1.00  0.00    -0.248 NA
ATOM     60  C   UNL A   1      47.510  30.712  28.989  1.00  0.00     0.031 C 
ATOM     61  C   UNL A   1      42.649  33.834  30.858  1.00  0.00     0.029 A 
ATOM     62  C   UNL A   1      43.463  32.834  30.351  1.00  0.00     0.049 A 
ATOM     63  H   UNL A   1      42.927  30.941  29.589  1.00  0.00     0.167 HD
ATOM     64  C   UNL A   1      45.626  31.810  29.701  1.00  0.00     0.074 A 
ATOM     65  C   UNL A   1      47.067  31.824  29.561  1.00  0.00     0.031 C 
ATOM     66  C   UNL A   1      44.898  32.837  30.206  1.00  0.00     0.031 A 
BRANCH  53  67
ATOM     67  C   UNL A   1      38.801  31.808  30.308  1.00  0.00    -0.014 A 
ATOM     68  C   UNL A   1      38.185  31.567  31.550  1.00  0.00     0.010 A 
ATOM     69  C   UNL A   1      38.133  32.603  29.359  1.00  0.00     0.010 A 
ATOM     70  C   UNL A   1      36.912  32.078  31.821  1.00  0.00     0.020 A 
ATOM     71  C   UNL A   1      36.873  33.143  29.638  1.00  0.00     0.020 A 
ATOM     72  C   UNL A   1      36.264  32.861  30.862  1.00  0.00     0.054 A 
BRANCH  72  73
ATOM     73  S   UNL A   1      34.625  33.532  31.253  1.00  0.00     0.124 S 
ATOM     74  O   UNL A   1      34.958  34.856  31.774  1.00  0.00    -0.237 OA
ATOM     75  O   UNL A   1      33.956  33.518  29.955  1.00  0.00    -0.237 OA
ATOM     76  O   UNL A   1      34.092  32.593  32.237  1.00  0.00    -0.744 OA
ENDBRANCH  72  73
ENDBRANCH  53  67
BRANCH  54  77
ATOM     77  C   UNL A   1      47.725  28.001  27.893  1.00  0.00    -0.014 A 
ATOM     78  C   UNL A   1      48.214  28.157  26.583  1.00  0.00     0.010 A 
ATOM     79  C   UNL A   1      48.515  27.319  28.838  1.00  0.00     0.010 A 
ATOM     80  C   UNL A   1      49.454  27.624  26.221  1.00  0.00     0.020 A 
ATOM     81  C   UNL A   1      49.769  26.813  28.488  1.00  0.00     0.020 A 
ATOM     82  C   UNL A   1      50.226  26.957  27.177  1.00  0.00     0.054 A 
BRANCH  82  83
ATOM     83  S   UNL A   1      51.853  26.314  26.696  1.00  0.00     0.124 S 
ATOM     84  O   UNL A   1      52.657  26.611  27.877  1.00  0.00    -0.237 OA
ATOM     85  O   UNL A   1      51.574  24.902  26.455  1.00  0.00    -0.237 OA
ATOM     86  O   UNL A   1      52.184  27.089  25.501  1.00  0.00    -0.744 OA
ENDBRANCH  82  83
ENDBRANCH  54  77
BRANCH  66  87
ATOM     87  C   UNL A   1      45.648  34.052  30.684  1.00  0.00    -0.014 A 
ATOM     88  C   UNL A   1      45.891  35.145  29.833  1.00  0.00     0.010 A 
ATOM     89  C   UNL A   1      46.068  34.122  32.025  1.00  0.00     0.010 A 
ATOM     90  C   UNL A   1      46.570  36.271  30.308  1.00  0.00     0.020 A 
ATOM     91  C   UNL A   1      46.717  35.260  32.512  1.00  0.00     0.020 A 
ATOM     92  C   UNL A   1      46.976  36.322  31.645  1.00  0.00     0.054 A 
BRANCH  92  93
ATOM     93  S   UNL A   1      47.812  37.815  32.246  1.00  0.00     0.124 S 
ATOM     94  O   UNL A   1      46.847  38.859  31.912  1.00  0.00    -0.237 OA
ATOM     95  O   UNL A   1      47.973  37.540  33.671  1.00  0.00    -0.237 OA
ATOM     96  O   UNL A   1      49.056  37.848  31.479  1.00  0.00    -0.744 OA
ENDBRANCH  92  93
ENDBRANCH  66  87
ENDBRANCH  40  41
ENDBRANCH  32  35
ENDBRANCH  30  31
ENDBRANCH  29  30
ENDBRANCH   1  29
TORSDOF 19
ENDMDL
