MODEL 1
REMARK VINA RESULT:     -11.9      0.000      0.000
REMARK SMILES O=C(NCCCCCCNC(=O)c1ccc(-c2ccn(C(F)F)c(=O)c2)cc1O)c1ccc(-c2c3nc(c(-c4ccc(S(=O)(=O)[O-])cc4)c4ccc([nH]4)c(-c4ccc(S(=O)(=O)[O-])cc4)c4nc(c(-c5ccc(S(=O)(=O)[O-])cc5)c5ccc2[nH]5)C=C4)C=C3)cc1
REMARK SMILES IDX 6 1 5 2 4 3 3 4 1 5 2 6 30 8 31 9 89 10 32 11 88 12 33 13
REMARK SMILES IDX 34 14 35 15 82 16 36 17 87 18 81 19 83 20 37 21 86 22 80 23
REMARK SMILES IDX 79 24 38 26 68 27 49 28 67 29 50 30 53 31 66 32 84 33 51 34
REMARK SMILES IDX 52 35 65 37 85 38 54 39 39 40 40 41 48 42 41 43 47 44 42 45
REMARK SMILES IDX 43 46 44 47 45 48 46 49 69 50 70 51 78 52 71 53 77 54 72 55
REMARK SMILES IDX 73 56 74 57 75 58 76 59 55 60 56 61 64 62 57 63 63 64 58 65
REMARK SMILES IDX 59 66 60 67 61 68 62 69 7 70 8 71 9 72 10 73 11 74 12 76
REMARK SMILES IDX 13 77 14 78 28 79 15 80 27 81 16 82 29 83 17 85 18 86 26 87
REMARK SMILES IDX 19 88 24 89 20 90 25 91 21 92 22 93 23 94
REMARK H PARENT 3 7 83 25 53 36 10 75 29 84
REMARK Flexibility Score: inf
ROOT
ATOM      1  C   UNL A   1      37.885  21.996  25.363  1.00  0.00     0.002 C 
ENDROOT
BRANCH   1   2
ATOM      2  C   UNL A   1      38.124  23.346  26.042  1.00  0.00     0.021 C 
BRANCH   2   3
ATOM      3  C   UNL A   1      39.350  23.405  26.944  1.00  0.00     0.116 C 
BRANCH   3   4
ATOM      4  N   UNL A   1      40.530  23.868  26.240  1.00  0.00    -0.352 N 
ATOM      5  O   UNL A   1      42.061  25.332  25.495  1.00  0.00    -0.269 OA
ATOM      6  C   UNL A   1      41.191  25.066  26.324  1.00  0.00     0.251 C 
ATOM      7  H   UNL A   1      40.915  23.224  25.602  1.00  0.00     0.163 HD
BRANCH   6   8
ATOM      8  C   UNL A   1      40.869  26.039  27.393  1.00  0.00     0.039 A 
ATOM      9  C   UNL A   1      41.603  27.227  27.461  1.00  0.00     0.014 A 
ATOM     10  C   UNL A   1      39.905  25.766  28.367  1.00  0.00     0.014 A 
ATOM     11  C   UNL A   1      41.370  28.132  28.500  1.00  0.00     0.010 A 
ATOM     12  C   UNL A   1      39.603  26.713  29.343  1.00  0.00     0.010 A 
ATOM     13  C   UNL A   1      40.369  27.882  29.452  1.00  0.00    -0.014 A 
BRANCH  13  14
ATOM     14  C   UNL A   1      40.192  28.774  30.628  1.00  0.00     0.031 A 
ATOM     15  C   UNL A   1      41.120  28.634  31.810  1.00  0.00     0.074 A 
ATOM     16  C   UNL A   1      39.224  29.711  30.634  1.00  0.00     0.049 A 
ATOM     17  N   UNL A   1      41.148  29.326  32.920  1.00  0.00    -0.248 NA
ATOM     18  C   UNL A   1      42.137  27.568  31.751  1.00  0.00     0.031 C 
ATOM     19  C   UNL A   1      38.259  29.936  29.557  1.00  0.00     0.029 A 
ATOM     20  N   UNL A   1      38.904  30.666  31.569  1.00  0.00    -0.354 N 
ATOM     21  C   UNL A   1      42.168  28.773  33.685  1.00  0.00     0.074 A 
ATOM     22  C   UNL A   1      42.693  27.647  32.951  1.00  0.00     0.031 C 
ATOM     23  C   UNL A   1      37.498  30.999  29.863  1.00  0.00     0.029 A 
ATOM     24  C   UNL A   1      37.889  31.509  31.176  1.00  0.00     0.049 A 
ATOM     25  H   UNL A   1      39.358  30.742  32.439  1.00  0.00     0.167 HD
ATOM     26  C   UNL A   1      42.655  29.191  34.876  1.00  0.00     0.031 A 
ATOM     27  C   UNL A   1      37.349  32.582  31.790  1.00  0.00     0.031 A 
ATOM     28  C   UNL A   1      42.165  30.345  35.579  1.00  0.00     0.049 A 
ATOM     29  C   UNL A   1      37.904  33.023  33.119  1.00  0.00     0.074 A 
ATOM     30  C   UNL A   1      42.628  30.877  36.770  1.00  0.00     0.029 A 
ATOM     31  N   UNL A   1      41.127  31.156  35.152  1.00  0.00    -0.354 N 
ATOM     32  N   UNL A   1      38.897  32.511  33.806  1.00  0.00    -0.248 NA
ATOM     33  C   UNL A   1      37.285  34.198  33.747  1.00  0.00     0.031 C 
ATOM     34  C   UNL A   1      41.823  31.969  37.098  1.00  0.00     0.029 A 
ATOM     35  C   UNL A   1      40.919  32.173  36.066  1.00  0.00     0.049 A 
ATOM     36  H   UNL A   1      40.612  31.027  34.321  1.00  0.00     0.167 HD
ATOM     37  C   UNL A   1      39.051  33.329  34.921  1.00  0.00     0.074 A 
ATOM     38  C   UNL A   1      38.053  34.372  34.815  1.00  0.00     0.031 C 
ATOM     39  C   UNL A   1      39.942  33.225  35.937  1.00  0.00     0.031 A 
BRANCH  26  40
ATOM     40  C   UNL A   1      43.801  28.432  35.495  1.00  0.00    -0.014 A 
ATOM     41  C   UNL A   1      45.110  28.640  35.021  1.00  0.00     0.010 A 
ATOM     42  C   UNL A   1      43.568  27.411  36.434  1.00  0.00     0.010 A 
ATOM     43  C   UNL A   1      46.154  27.807  35.433  1.00  0.00     0.020 A 
ATOM     44  C   UNL A   1      44.616  26.598  36.875  1.00  0.00     0.020 A 
ATOM     45  C   UNL A   1      45.896  26.782  36.346  1.00  0.00     0.054 A 
BRANCH  45  46
ATOM     46  S   UNL A   1      47.249  25.667  36.812  1.00  0.00     0.124 S 
ATOM     47  O   UNL A   1      47.644  25.109  35.522  1.00  0.00    -0.237 OA
ATOM     48  O   UNL A   1      48.210  26.576  37.430  1.00  0.00    -0.237 OA
ATOM     49  O   UNL A   1      46.615  24.725  37.732  1.00  0.00    -0.744 OA
ENDBRANCH  45  46
ENDBRANCH  26  40
BRANCH  27  50
ATOM     50  C   UNL A   1      36.273  33.358  31.107  1.00  0.00    -0.014 A 
ATOM     51  C   UNL A   1      36.473  33.886  29.817  1.00  0.00     0.010 A 
ATOM     52  C   UNL A   1      35.059  33.622  31.767  1.00  0.00     0.010 A 
ATOM     53  C   UNL A   1      35.503  34.699  29.224  1.00  0.00     0.020 A 
ATOM     54  C   UNL A   1      34.072  34.406  31.163  1.00  0.00     0.020 A 
ATOM     55  C   UNL A   1      34.312  34.963  29.905  1.00  0.00     0.054 A 
BRANCH  55  56
ATOM     56  S   UNL A   1      33.088  36.052  29.128  1.00  0.00     0.124 S 
ATOM     57  O   UNL A   1      32.301  35.105  28.342  1.00  0.00    -0.237 OA
ATOM     58  O   UNL A   1      32.404  36.635  30.278  1.00  0.00    -0.237 OA
ATOM     59  O   UNL A   1      33.901  36.984  28.351  1.00  0.00    -0.744 OA
ENDBRANCH  55  56
ENDBRANCH  27  50
BRANCH  39  60
ATOM     60  C   UNL A   1      39.939  34.280  37.013  1.00  0.00    -0.014 A 
ATOM     61  C   UNL A   1      39.075  34.135  38.117  1.00  0.00     0.010 A 
ATOM     62  C   UNL A   1      40.664  35.476  36.868  1.00  0.00     0.010 A 
ATOM     63  C   UNL A   1      38.905  35.176  39.031  1.00  0.00     0.020 A 
ATOM     64  C   UNL A   1      40.524  36.507  37.801  1.00  0.00     0.020 A 
ATOM     65  C   UNL A   1      39.625  36.361  38.861  1.00  0.00     0.054 A 
BRANCH  65  66
ATOM     66  S   UNL A   1      39.365  37.715  40.039  1.00  0.00     0.124 S 
ATOM     67  O   UNL A   1      39.201  37.000  41.300  1.00  0.00    -0.237 OA
ATOM     68  O   UNL A   1      40.595  38.493  39.911  1.00  0.00    -0.237 OA
ATOM     69  O   UNL A   1      38.163  38.379  39.537  1.00  0.00    -0.744 OA
ENDBRANCH  65  66
ENDBRANCH  39  60
ENDBRANCH  13  14
ENDBRANCH   6   8
ENDBRANCH   3   4
ENDBRANCH   2   3
ENDBRANCH   1   2
BRANCH   1  70
ATOM     70  C   UNL A   1      36.418  21.608  25.168  1.00  0.00     0.002 C 
BRANCH  70  71
ATOM     71  C   UNL A   1      35.409  22.401  26.005  1.00  0.00     0.021 C 
BRANCH  71  72
ATOM     72  C   UNL A   1      34.197  21.603  26.474  1.00  0.00     0.116 C 
BRANCH  72  73
ATOM     73  N   UNL A   1      33.733  20.667  25.466  1.00  0.00    -0.352 N 
ATOM     74  C   UNL A   1      32.811  20.875  24.474  1.00  0.00     0.255 C 
ATOM     75  H   UNL A   1      34.133  19.767  25.500  1.00  0.00     0.163 HD
ATOM     76  O   UNL A   1      32.455  19.948  23.745  1.00  0.00    -0.269 OA
BRANCH  74  77
ATOM     77  C   UNL A   1      32.179  22.200  24.324  1.00  0.00     0.081 A 
ATOM     78  C   UNL A   1      32.653  23.029  23.301  1.00  0.00     0.018 A 
ATOM     79  C   UNL A   1      31.143  22.638  25.156  1.00  0.00     0.128 A 
ATOM     80  C   UNL A   1      32.060  24.274  23.078  1.00  0.00     0.010 A 
ATOM     81  C   UNL A   1      30.544  23.875  24.928  1.00  0.00     0.055 A 
ATOM     82  C   UNL A   1      30.993  24.699  23.883  1.00  0.00    -0.014 A 
BRANCH  79  83
ATOM     83  O   UNL A   1      30.702  21.858  26.188  1.00  0.00    -0.507 OA
ATOM     84  H   UNL A   1      31.299  21.584  26.856  1.00  0.00     0.293 HD
ENDBRANCH  79  83
BRANCH  82  85
ATOM     85  C   UNL A   1      30.331  25.998  23.668  1.00  0.00    -0.011 A 
ATOM     86  C   UNL A   1      28.919  26.200  23.932  1.00  0.00     0.027 A 
ATOM     87  C   UNL A   1      31.046  27.008  23.142  1.00  0.00     0.080 A 
ATOM     88  C   UNL A   1      28.324  27.352  23.612  1.00  0.00     0.095 A 
ATOM     89  C   UNL A   1      30.403  28.311  22.812  1.00  0.00     0.255 A 
ATOM     90  N   UNL A   1      29.041  28.391  23.050  1.00  0.00    -0.258 N 
ATOM     91  O   UNL A   1      31.103  29.209  22.350  1.00  0.00    -0.269 OA
BRANCH  90  92
ATOM     92  C   UNL A   1      28.382  29.614  22.673  1.00  0.00     0.451 C 
ATOM     93  F   UNL A   1      27.969  29.574  21.383  1.00  0.00    -0.185 F 
ATOM     94  F   UNL A   1      27.300  29.843  23.456  1.00  0.00    -0.185 F 
ENDBRANCH  90  92
ENDBRANCH  82  85
ENDBRANCH  74  77
ENDBRANCH  72  73
ENDBRANCH  71  72
ENDBRANCH  70  71
ENDBRANCH   1  70
TORSDOF 19
ENDMDL
MODEL 2
REMARK VINA RESULT:     -11.8      0.799      8.086
REMARK SMILES O=C(NCCCCCCNC(=O)c1ccc(-c2ccn(C(F)F)c(=O)c2)cc1O)c1ccc(-c2c3nc(c(-c4ccc(S(=O)(=O)[O-])cc4)c4ccc([nH]4)c(-c4ccc(S(=O)(=O)[O-])cc4)c4nc(c(-c5ccc(S(=O)(=O)[O-])cc5)c5ccc2[nH]5)C=C4)C=C3)cc1
REMARK SMILES IDX 6 1 5 2 4 3 3 4 1 5 2 6 30 8 31 9 89 10 32 11 88 12 33 13
REMARK SMILES IDX 34 14 35 15 82 16 36 17 87 18 81 19 83 20 37 21 86 22 80 23
REMARK SMILES IDX 79 24 38 26 68 27 49 28 67 29 50 30 53 31 66 32 84 33 51 34
REMARK SMILES IDX 52 35 65 37 85 38 54 39 39 40 40 41 48 42 41 43 47 44 42 45
REMARK SMILES IDX 43 46 44 47 45 48 46 49 69 50 70 51 78 52 71 53 77 54 72 55
REMARK SMILES IDX 73 56 74 57 75 58 76 59 55 60 56 61 64 62 57 63 63 64 58 65
REMARK SMILES IDX 59 66 60 67 61 68 62 69 7 70 8 71 9 72 10 73 11 74 12 76
REMARK SMILES IDX 13 77 14 78 28 79 15 80 27 81 16 82 29 83 17 85 18 86 26 87
REMARK SMILES IDX 19 88 24 89 20 90 25 91 21 92 22 93 23 94
REMARK H PARENT 3 7 83 25 53 36 10 75 29 84
REMARK Flexibility Score: inf
ROOT
ATOM      1  C   UNL A   1      37.786  22.615  25.452  1.00  0.00     0.002 C 
ENDROOT
BRANCH   1   2
ATOM      2  C   UNL A   1      38.059  23.589  26.600  1.00  0.00     0.021 C 
BRANCH   2   3
ATOM      3  C   UNL A   1      39.517  23.685  27.029  1.00  0.00     0.116 C 
BRANCH   3   4
ATOM      4  N   UNL A   1      40.344  24.333  26.029  1.00  0.00    -0.352 N 
ATOM      5  O   UNL A   1      41.422  26.010  24.997  1.00  0.00    -0.269 OA
ATOM      6  C   UNL A   1      40.916  25.579  26.032  1.00  0.00     0.251 C 
ATOM      7  H   UNL A   1      40.522  23.795  25.223  1.00  0.00     0.163 HD
BRANCH   6   8
ATOM      8  C   UNL A   1      40.928  26.407  27.260  1.00  0.00     0.039 A 
ATOM      9  C   UNL A   1      39.931  26.200  28.218  1.00  0.00     0.014 A 
ATOM     10  C   UNL A   1      41.864  27.429  27.446  1.00  0.00     0.014 A 
ATOM     11  C   UNL A   1      39.875  27.013  29.353  1.00  0.00     0.010 A 
ATOM     12  C   UNL A   1      41.868  28.171  28.625  1.00  0.00     0.010 A 
ATOM     13  C   UNL A   1      40.843  28.008  29.566  1.00  0.00    -0.014 A 
BRANCH  13  14
ATOM     14  C   UNL A   1      40.725  28.957  30.704  1.00  0.00     0.031 A 
ATOM     15  C   UNL A   1      39.634  29.999  30.691  1.00  0.00     0.074 A 
ATOM     16  C   UNL A   1      41.576  28.879  31.747  1.00  0.00     0.049 A 
ATOM     17  N   UNL A   1      39.348  30.902  31.593  1.00  0.00    -0.248 NA
ATOM     18  C   UNL A   1      38.759  30.049  29.506  1.00  0.00     0.031 C 
ATOM     19  C   UNL A   1      42.677  27.923  31.869  1.00  0.00     0.029 A 
ATOM     20  N   UNL A   1      41.633  29.601  32.915  1.00  0.00    -0.354 N 
ATOM     21  C   UNL A   1      38.279  31.626  31.079  1.00  0.00     0.074 A 
ATOM     22  C   UNL A   1      38.005  31.108  29.760  1.00  0.00     0.031 C 
ATOM     23  C   UNL A   1      43.260  28.076  33.069  1.00  0.00     0.029 A 
ATOM     24  C   UNL A   1      42.605  29.167  33.788  1.00  0.00     0.049 A 
ATOM     25  H   UNL A   1      41.034  30.358  33.110  1.00  0.00     0.167 HD
ATOM     26  C   UNL A   1      37.560  32.608  31.669  1.00  0.00     0.031 A 
ATOM     27  C   UNL A   1      42.920  29.583  35.032  1.00  0.00     0.031 A 
ATOM     28  C   UNL A   1      37.801  33.083  33.004  1.00  0.00     0.049 A 
ATOM     29  C   UNL A   1      42.107  30.683  35.665  1.00  0.00     0.074 A 
ATOM     30  C   UNL A   1      37.093  34.041  33.708  1.00  0.00     0.029 A 
ATOM     31  N   UNL A   1      38.805  32.627  33.842  1.00  0.00    -0.354 N 
ATOM     32  N   UNL A   1      41.073  31.326  35.177  1.00  0.00    -0.248 NA
ATOM     33  C   UNL A   1      42.486  31.099  37.022  1.00  0.00     0.031 C 
ATOM     34  C   UNL A   1      37.713  34.214  34.947  1.00  0.00     0.029 A 
ATOM     35  C   UNL A   1      38.749  33.300  35.050  1.00  0.00     0.049 A 
ATOM     36  H   UNL A   1      39.462  31.929  33.613  1.00  0.00     0.167 HD
ATOM     37  C   UNL A   1      40.650  32.188  36.185  1.00  0.00     0.074 A 
ATOM     38  C   UNL A   1      41.537  31.981  37.310  1.00  0.00     0.031 C 
ATOM     39  C   UNL A   1      39.618  33.066  36.177  1.00  0.00     0.031 A 
BRANCH  26  40
ATOM     40  C   UNL A   1      36.412  33.220  30.907  1.00  0.00    -0.014 A 
ATOM     41  C   UNL A   1      36.672  34.003  29.767  1.00  0.00     0.010 A 
ATOM     42  C   UNL A   1      35.097  33.147  31.402  1.00  0.00     0.010 A 
ATOM     43  C   UNL A   1      35.651  34.743  29.167  1.00  0.00     0.020 A 
ATOM     44  C   UNL A   1      34.065  33.860  30.783  1.00  0.00     0.020 A 
ATOM     45  C   UNL A   1      34.357  34.679  29.690  1.00  0.00     0.054 A 
BRANCH  45  46
ATOM     46  S   UNL A   1      33.061  35.704  28.942  1.00  0.00     0.124 S 
ATOM     47  O   UNL A   1      32.300  36.137  30.110  1.00  0.00    -0.237 OA
ATOM     48  O   UNL A   1      33.830  36.745  28.266  1.00  0.00    -0.237 OA
ATOM     49  O   UNL A   1      32.364  34.779  28.050  1.00  0.00    -0.744 OA
ENDBRANCH  45  46
ENDBRANCH  26  40
BRANCH  27  50
ATOM     50  C   UNL A   1      44.007  28.894  35.787  1.00  0.00    -0.014 A 
ATOM     51  C   UNL A   1      45.343  29.324  35.679  1.00  0.00     0.010 A 
ATOM     52  C   UNL A   1      43.718  27.766  36.576  1.00  0.00     0.010 A 
ATOM     53  C   UNL A   1      46.370  28.612  36.305  1.00  0.00     0.020 A 
ATOM     54  C   UNL A   1      44.739  27.072  37.232  1.00  0.00     0.020 A 
ATOM     55  C   UNL A   1      46.063  27.483  37.070  1.00  0.00     0.054 A 
BRANCH  55  56
ATOM     56  S   UNL A   1      47.419  26.558  37.840  1.00  0.00     0.124 S 
ATOM     57  O   UNL A   1      46.694  25.569  38.632  1.00  0.00    -0.237 OA
ATOM     58  O   UNL A   1      48.142  26.033  36.685  1.00  0.00    -0.237 OA
ATOM     59  O   UNL A   1      48.134  27.573  38.610  1.00  0.00    -0.744 OA
ENDBRANCH  55  56
ENDBRANCH  27  50
BRANCH  39  60
ATOM     60  C   UNL A   1      39.330  33.857  37.427  1.00  0.00    -0.014 A 
ATOM     61  C   UNL A   1      39.894  35.140  37.574  1.00  0.00     0.010 A 
ATOM     62  C   UNL A   1      38.641  33.286  38.511  1.00  0.00     0.010 A 
ATOM     63  C   UNL A   1      39.808  35.820  38.790  1.00  0.00     0.020 A 
ATOM     64  C   UNL A   1      38.523  33.980  39.719  1.00  0.00     0.020 A 
ATOM     65  C   UNL A   1      39.131  35.231  39.859  1.00  0.00     0.054 A 
BRANCH  65  66
ATOM     66  S   UNL A   1      39.061  36.114  41.441  1.00  0.00     0.124 S 
ATOM     67  O   UNL A   1      40.298  35.689  42.087  1.00  0.00    -0.237 OA
ATOM     68  O   UNL A   1      39.015  37.514  41.026  1.00  0.00    -0.237 OA
ATOM     69  O   UNL A   1      37.832  35.616  42.056  1.00  0.00    -0.744 OA
ENDBRANCH  65  66
ENDBRANCH  39  60
ENDBRANCH  13  14
ENDBRANCH   6   8
ENDBRANCH   3   4
ENDBRANCH   2   3
ENDBRANCH   1   2
BRANCH   1  70
ATOM     70  C   UNL A   1      36.312  22.293  25.199  1.00  0.00     0.002 C 
BRANCH  70  71
ATOM     71  C   UNL A   1      35.307  23.153  25.970  1.00  0.00     0.021 C 
BRANCH  71  72
ATOM     72  C   UNL A   1      34.453  22.394  26.979  1.00  0.00     0.116 C 
BRANCH  72  73
ATOM     73  N   UNL A   1      33.748  21.279  26.372  1.00  0.00    -0.352 N 
ATOM     74  C   UNL A   1      32.620  21.309  25.594  1.00  0.00     0.255 C 
ATOM     75  H   UNL A   1      34.130  20.387  26.541  1.00  0.00     0.163 HD
ATOM     76  O   UNL A   1      32.087  20.263  25.223  1.00  0.00    -0.269 OA
BRANCH  74  77
ATOM     77  C   UNL A   1      31.992  22.602  25.261  1.00  0.00     0.081 A 
ATOM     78  C   UNL A   1      32.223  23.121  23.981  1.00  0.00     0.018 A 
ATOM     79  C   UNL A   1      31.191  23.305  26.166  1.00  0.00     0.128 A 
ATOM     80  C   UNL A   1      31.614  24.316  23.591  1.00  0.00     0.010 A 
ATOM     81  C   UNL A   1      30.575  24.491  25.774  1.00  0.00     0.055 A 
ATOM     82  C   UNL A   1      30.775  25.002  24.482  1.00  0.00    -0.014 A 
BRANCH  79  83
ATOM     83  O   UNL A   1      30.995  22.833  27.434  1.00  0.00    -0.507 OA
ATOM     84  H   UNL A   1      31.392  22.027  27.700  1.00  0.00     0.293 HD
ENDBRANCH  79  83
BRANCH  82  85
ATOM     85  C   UNL A   1      30.102  26.256  24.100  1.00  0.00    -0.011 A 
ATOM     86  C   UNL A   1      28.657  26.371  24.038  1.00  0.00     0.027 A 
ATOM     87  C   UNL A   1      30.855  27.307  23.729  1.00  0.00     0.080 A 
ATOM     88  C   UNL A   1      28.081  27.482  23.572  1.00  0.00     0.095 A 
ATOM     89  C   UNL A   1      30.226  28.565  23.240  1.00  0.00     0.255 A 
ATOM     90  N   UNL A   1      28.843  28.561  23.165  1.00  0.00    -0.258 N 
ATOM     91  O   UNL A   1      30.956  29.503  22.929  1.00  0.00    -0.269 OA
BRANCH  90  92
ATOM     92  C   UNL A   1      28.213  29.739  22.629  1.00  0.00     0.451 C 
ATOM     93  F   UNL A   1      27.949  29.597  21.307  1.00  0.00    -0.185 F 
ATOM     94  F   UNL A   1      27.047  30.000  23.268  1.00  0.00    -0.185 F 
ENDBRANCH  90  92
ENDBRANCH  82  85
ENDBRANCH  74  77
ENDBRANCH  72  73
ENDBRANCH  71  72
ENDBRANCH  70  71
ENDBRANCH   1  70
TORSDOF 19
ENDMDL
MODEL 3
REMARK VINA RESULT:     -11.3      3.024      5.132
REMARK SMILES O=C(NCCCCCCNC(=O)c1ccc(-c2ccn(C(F)F)c(=O)c2)cc1O)c1ccc(-c2c3nc(c(-c4ccc(S(=O)(=O)[O-])cc4)c4ccc([nH]4)c(-c4ccc(S(=O)(=O)[O-])cc4)c4nc(c(-c5ccc(S(=O)(=O)[O-])cc5)c5ccc2[nH]5)C=C4)C=C3)cc1
REMARK SMILES IDX 6 1 5 2 4 3 3 4 1 5 2 6 30 8 31 9 89 10 32 11 88 12 33 13
REMARK SMILES IDX 34 14 35 15 82 16 36 17 87 18 81 19 83 20 37 21 86 22 80 23
REMARK SMILES IDX 79 24 38 26 68 27 49 28 67 29 50 30 53 31 66 32 84 33 51 34
REMARK SMILES IDX 52 35 65 37 85 38 54 39 39 40 40 41 48 42 41 43 47 44 42 45
REMARK SMILES IDX 43 46 44 47 45 48 46 49 69 50 70 51 78 52 71 53 77 54 72 55
REMARK SMILES IDX 73 56 74 57 75 58 76 59 55 60 56 61 64 62 57 63 63 64 58 65
REMARK SMILES IDX 59 66 60 67 61 68 62 69 7 70 8 71 9 72 10 73 11 74 12 76
REMARK SMILES IDX 13 77 14 78 28 79 15 80 27 81 16 82 29 83 17 85 18 86 26 87
REMARK SMILES IDX 19 88 24 89 20 90 25 91 21 92 22 93 23 94
REMARK H PARENT 3 7 83 25 53 36 10 75 29 84
REMARK Flexibility Score: inf
ROOT
ATOM      1  C   UNL A   1      45.190  24.897  25.130  1.00  0.00     0.002 C 
ENDROOT
BRANCH   1   2
ATOM      2  C   UNL A   1      45.210  25.076  26.649  1.00  0.00     0.021 C 
BRANCH   2   3
ATOM      3  C   UNL A   1      43.898  25.556  27.257  1.00  0.00     0.116 C 
BRANCH   3   4
ATOM      4  N   UNL A   1      42.918  25.906  26.247  1.00  0.00    -0.352 N 
ATOM      5  O   UNL A   1      40.962  26.630  25.417  1.00  0.00    -0.269 OA
ATOM      6  C   UNL A   1      41.748  26.611  26.363  1.00  0.00     0.251 C 
ATOM      7  H   UNL A   1      43.123  25.587  25.339  1.00  0.00     0.163 HD
BRANCH   6   8
ATOM      8  C   UNL A   1      41.420  27.342  27.609  1.00  0.00     0.039 A 
ATOM      9  C   UNL A   1      41.926  28.635  27.780  1.00  0.00     0.014 A 
ATOM     10  C   UNL A   1      40.683  26.747  28.637  1.00  0.00     0.014 A 
ATOM     11  C   UNL A   1      41.692  29.322  28.973  1.00  0.00     0.010 A 
ATOM     12  C   UNL A   1      40.366  27.470  29.784  1.00  0.00     0.010 A 
ATOM     13  C   UNL A   1      40.911  28.745  29.988  1.00  0.00    -0.014 A 
BRANCH  13  14
ATOM     14  C   UNL A   1      40.757  29.412  31.307  1.00  0.00     0.031 A 
ATOM     15  C   UNL A   1      41.815  29.218  32.365  1.00  0.00     0.074 A 
ATOM     16  C   UNL A   1      39.690  30.198  31.552  1.00  0.00     0.049 A 
ATOM     17  N   UNL A   1      41.879  29.728  33.568  1.00  0.00    -0.248 NA
ATOM     18  C   UNL A   1      42.939  28.321  32.042  1.00  0.00     0.031 C 
ATOM     19  C   UNL A   1      38.596  30.455  30.614  1.00  0.00     0.029 A 
ATOM     20  N   UNL A   1      39.360  30.946  32.657  1.00  0.00    -0.354 N 
ATOM     21  C   UNL A   1      43.034  29.206  34.139  1.00  0.00     0.074 A 
ATOM     22  C   UNL A   1      43.607  28.288  33.186  1.00  0.00     0.031 C 
ATOM     23  C   UNL A   1      37.751  31.346  31.158  1.00  0.00     0.029 A 
ATOM     24  C   UNL A   1      38.216  31.695  32.499  1.00  0.00     0.049 A 
ATOM     25  H   UNL A   1      39.893  30.947  33.486  1.00  0.00     0.167 HD
ATOM     26  C   UNL A   1      43.591  29.497  35.337  1.00  0.00     0.031 A 
ATOM     27  C   UNL A   1      37.620  32.578  33.327  1.00  0.00     0.031 A 
ATOM     28  C   UNL A   1      43.046  30.452  36.262  1.00  0.00     0.049 A 
ATOM     29  C   UNL A   1      38.258  32.880  34.659  1.00  0.00     0.074 A 
ATOM     30  C   UNL A   1      43.566  30.852  37.480  1.00  0.00     0.029 A 
ATOM     31  N   UNL A   1      41.878  31.172  36.067  1.00  0.00    -0.354 N 
ATOM     32  N   UNL A   1      39.372  32.406  35.163  1.00  0.00    -0.248 NA
ATOM     33  C   UNL A   1      37.574  33.850  35.524  1.00  0.00     0.031 C 
ATOM     34  C   UNL A   1      42.676  31.762  38.053  1.00  0.00     0.029 A 
ATOM     35  C   UNL A   1      41.650  31.998  37.152  1.00  0.00     0.049 A 
ATOM     36  H   UNL A   1      41.297  31.105  35.274  1.00  0.00     0.167 HD
ATOM     37  C   UNL A   1      39.546  33.056  36.381  1.00  0.00     0.074 A 
ATOM     38  C   UNL A   1      38.425  33.958  36.536  1.00  0.00     0.031 C 
ATOM     39  C   UNL A   1      40.546  32.917  37.285  1.00  0.00     0.031 A 
BRANCH  26  40
ATOM     40  C   UNL A   1      44.879  28.813  35.720  1.00  0.00    -0.014 A 
ATOM     41  C   UNL A   1      44.843  27.662  36.529  1.00  0.00     0.010 A 
ATOM     42  C   UNL A   1      46.123  29.391  35.406  1.00  0.00     0.010 A 
ATOM     43  C   UNL A   1      46.021  27.133  37.061  1.00  0.00     0.020 A 
ATOM     44  C   UNL A   1      47.307  28.843  35.909  1.00  0.00     0.020 A 
ATOM     45  C   UNL A   1      47.244  27.737  36.760  1.00  0.00     0.054 A 
BRANCH  45  46
ATOM     46  S   UNL A   1      48.754  27.080  37.520  1.00  0.00     0.124 S 
ATOM     47  O   UNL A   1      48.228  26.367  38.680  1.00  0.00    -0.237 OA
ATOM     48  O   UNL A   1      49.305  26.242  36.458  1.00  0.00    -0.237 OA
ATOM     49  O   UNL A   1      49.534  28.278  37.824  1.00  0.00    -0.744 OA
ENDBRANCH  45  46
ENDBRANCH  26  40
BRANCH  27  50
ATOM     50  C   UNL A   1      36.393  33.298  32.878  1.00  0.00    -0.014 A 
ATOM     51  C   UNL A   1      36.481  34.575  32.292  1.00  0.00     0.010 A 
ATOM     52  C   UNL A   1      35.122  32.733  33.085  1.00  0.00     0.010 A 
ATOM     53  C   UNL A   1      35.324  35.289  31.969  1.00  0.00     0.020 A 
ATOM     54  C   UNL A   1      33.963  33.430  32.731  1.00  0.00     0.020 A 
ATOM     55  C   UNL A   1      34.070  34.716  32.200  1.00  0.00     0.054 A 
BRANCH  55  56
ATOM     56  S   UNL A   1      32.586  35.680  31.805  1.00  0.00     0.124 S 
ATOM     57  O   UNL A   1      32.395  35.369  30.391  1.00  0.00    -0.237 OA
ATOM     58  O   UNL A   1      31.591  35.118  32.713  1.00  0.00    -0.237 OA
ATOM     59  O   UNL A   1      32.983  37.056  32.094  1.00  0.00    -0.744 OA
ENDBRANCH  55  56
ENDBRANCH  27  50
BRANCH  39  60
ATOM     60  C   UNL A   1      40.533  33.784  38.518  1.00  0.00    -0.014 A 
ATOM     61  C   UNL A   1      39.806  33.360  39.648  1.00  0.00     0.010 A 
ATOM     62  C   UNL A   1      41.100  35.070  38.515  1.00  0.00     0.010 A 
ATOM     63  C   UNL A   1      39.613  34.217  40.733  1.00  0.00     0.020 A 
ATOM     64  C   UNL A   1      40.939  35.917  39.615  1.00  0.00     0.020 A 
ATOM     65  C   UNL A   1      40.173  35.495  40.705  1.00  0.00     0.054 A 
BRANCH  65  66
ATOM     66  S   UNL A   1      39.883  36.606  42.108  1.00  0.00     0.124 S 
ATOM     67  O   UNL A   1      39.413  37.821  41.448  1.00  0.00    -0.237 OA
ATOM     68  O   UNL A   1      38.880  35.885  42.887  1.00  0.00    -0.237 OA
ATOM     69  O   UNL A   1      41.196  36.708  42.741  1.00  0.00    -0.744 OA
ENDBRANCH  65  66
ENDBRANCH  39  60
ENDBRANCH  13  14
ENDBRANCH   6   8
ENDBRANCH   3   4
ENDBRANCH   2   3
ENDBRANCH   1   2
BRANCH   1  70
ATOM     70  C   UNL A   1      45.111  23.449  24.640  1.00  0.00     0.002 C 
BRANCH  70  71
ATOM     71  C   UNL A   1      43.710  22.831  24.629  1.00  0.00     0.021 C 
BRANCH  71  72
ATOM     72  C   UNL A   1      43.568  21.547  25.439  1.00  0.00     0.116 C 
BRANCH  72  73
ATOM     73  N   UNL A   1      43.585  21.795  26.869  1.00  0.00    -0.352 N 
ATOM     74  C   UNL A   1      42.526  22.066  27.697  1.00  0.00     0.255 C 
ATOM     75  H   UNL A   1      44.470  21.766  27.299  1.00  0.00     0.163 HD
ATOM     76  O   UNL A   1      42.712  22.343  28.882  1.00  0.00    -0.269 OA
BRANCH  74  77
ATOM     77  C   UNL A   1      41.157  22.102  27.149  1.00  0.00     0.081 A 
ATOM     78  C   UNL A   1      40.527  23.349  27.067  1.00  0.00     0.018 A 
ATOM     79  C   UNL A   1      40.488  20.951  26.718  1.00  0.00     0.128 A 
ATOM     80  C   UNL A   1      39.250  23.453  26.510  1.00  0.00     0.010 A 
ATOM     81  C   UNL A   1      39.219  21.055  26.153  1.00  0.00     0.055 A 
ATOM     82  C   UNL A   1      38.593  22.307  26.038  1.00  0.00    -0.014 A 
BRANCH  79  83
ATOM     83  O   UNL A   1      41.073  19.722  26.835  1.00  0.00    -0.507 OA
ATOM     84  H   UNL A   1      41.591  19.381  26.133  1.00  0.00     0.293 HD
ENDBRANCH  79  83
BRANCH  82  85
ATOM     85  C   UNL A   1      37.253  22.379  25.429  1.00  0.00    -0.011 A 
ATOM     86  C   UNL A   1      36.662  23.635  25.007  1.00  0.00     0.027 A 
ATOM     87  C   UNL A   1      36.528  21.251  25.328  1.00  0.00     0.080 A 
ATOM     88  C   UNL A   1      35.399  23.681  24.573  1.00  0.00     0.095 A 
ATOM     89  C   UNL A   1      35.131  21.283  24.812  1.00  0.00     0.255 A 
ATOM     90  N   UNL A   1      34.634  22.533  24.486  1.00  0.00    -0.258 N 
ATOM     91  O   UNL A   1      34.515  20.223  24.722  1.00  0.00    -0.269 OA
BRANCH  90  92
ATOM     92  C   UNL A   1      33.263  22.601  24.052  1.00  0.00     0.451 C 
ATOM     93  F   UNL A   1      33.050  21.817  22.968  1.00  0.00    -0.185 F 
ATOM     94  F   UNL A   1      32.423  22.199  25.036  1.00  0.00    -0.185 F 
ENDBRANCH  90  92
ENDBRANCH  82  85
ENDBRANCH  74  77
ENDBRANCH  72  73
ENDBRANCH  71  72
ENDBRANCH  70  71
ENDBRANCH   1  70
TORSDOF 19
ENDMDL
