MODEL 1
REMARK VINA RESULT:     -11.7      0.000      0.000
REMARK SMILES Cc1nn(C)c(C)c1C[C@@H](C)C(=O)N[C@@H](C(=O)NCCCCCCNC(=O)c1ccc(-c2c3nc(c(-c4ccc(S(=O)(=O)[O-])cc4)c4ccc([nH]4)c(-c4ccc(S(=O)(=O)[O-])cc4)c4nc(c(-c5ccc(S(=O)(=O)[O-])cc5)c5ccc2[nH]5)C=C4)C=C3)cc1)c1ccccc1Cl
REMARK SMILES IDX 21 1 20 2 19 3 18 4 16 5 17 6 15 8 14 9 12 10 13 11 10 13
REMARK SMILES IDX 11 14 9 15 8 16 1 17 2 18 3 19 4 20 6 21 5 22 7 23 88 24
REMARK SMILES IDX 89 25 93 26 90 27 92 28 94 29 91 30 22 31 23 32 24 33 25 34
REMARK SMILES IDX 26 35 27 37 28 38 29 39 87 40 30 41 86 42 31 43 32 44 33 45
REMARK SMILES IDX 80 46 34 47 85 48 79 49 81 50 35 51 84 52 78 53 77 54 36 56
REMARK SMILES IDX 66 57 47 58 65 59 48 60 51 61 64 62 82 63 49 64 50 65 63 67
REMARK SMILES IDX 83 68 52 69 37 70 38 71 46 72 39 73 45 74 40 75 41 76 42 77
REMARK SMILES IDX 43 78 44 79 67 80 68 81 76 82 69 83 75 84 70 85 71 86 72 87
REMARK SMILES IDX 73 88 74 89 53 90 54 91 62 92 55 93 61 94 56 95 57 96 58 97
REMARK SMILES IDX 59 98 60 99
REMARK H PARENT 18 7 14 12 25 36 81 55 51 66
REMARK Flexibility Score: inf
ROOT
ATOM      1  C   UNL A   1      37.440  21.832  24.638  1.00  0.00     0.002 C 
ENDROOT
BRANCH   1   2
ATOM      2  C   UNL A   1      36.314  22.485  23.841  1.00  0.00     0.021 C 
BRANCH   2   3
ATOM      3  C   UNL A   1      35.385  23.375  24.652  1.00  0.00     0.116 C 
BRANCH   3   4
ATOM      4  N   UNL A   1      35.120  22.892  25.989  1.00  0.00    -0.354 N 
ATOM      5  C   UNL A   1      34.041  22.220  26.495  1.00  0.00     0.247 C 
ATOM      6  O   UNL A   1      34.235  21.637  27.569  1.00  0.00    -0.272 OA
ATOM      7  H   UNL A   1      35.832  23.077  26.642  1.00  0.00     0.163 HD
BRANCH   5   8
ATOM      8  C   UNL A   1      32.696  22.030  25.697  1.00  0.00     0.203 C 
BRANCH   8   9
ATOM      9  N   UNL A   1      31.463  22.204  26.468  1.00  0.00    -0.340 N 
ATOM     10  C   UNL A   1      30.621  23.252  26.666  1.00  0.00     0.224 C 
ATOM     11  O   UNL A   1      29.714  23.085  27.487  1.00  0.00    -0.275 OA
ATOM     12  H   UNL A   1      31.186  21.389  26.946  1.00  0.00     0.164 HD
BRANCH  10  13
ATOM     13  C   UNL A   1      30.741  24.589  25.930  1.00  0.00     0.080 C 
ATOM     14  C   UNL A   1      30.438  24.364  24.456  1.00  0.00     0.018 C 
BRANCH  13  15
ATOM     15  C   UNL A   1      32.026  25.351  26.296  1.00  0.00     0.052 C 
BRANCH  15  16
ATOM     16  C   UNL A   1      32.273  26.682  25.662  1.00  0.00    -0.003 A 
ATOM     17  C   UNL A   1      31.617  28.327  27.621  1.00  0.00     0.069 C 
ATOM     18  C   UNL A   1      32.074  27.967  26.252  1.00  0.00     0.063 A 
ATOM     19  N   UNL A   1      32.443  28.950  25.427  1.00  0.00    -0.178 NA
ATOM     20  N   UNL A   1      32.902  28.323  24.338  1.00  0.00    -0.272 N 
ATOM     21  C   UNL A   1      32.930  26.959  24.468  1.00  0.00     0.038 A 
ATOM     22  C   UNL A   1      33.360  29.129  23.231  1.00  0.00     0.174 C 
ATOM     23  C   UNL A   1      33.595  26.075  23.479  1.00  0.00     0.066 C 
ENDBRANCH  15  16
ENDBRANCH  13  15
ENDBRANCH  10  13
ENDBRANCH   8   9
BRANCH   8  24
ATOM     24  C   UNL A   1      32.666  20.686  24.973  1.00  0.00     0.002 A 
ATOM     25  C   UNL A   1      32.803  19.503  25.730  1.00  0.00     0.008 A 
ATOM     26  C   UNL A   1      32.482  20.563  23.586  1.00  0.00     0.046 A 
ATOM     27  C   UNL A   1      32.773  18.247  25.123  1.00  0.00     0.000 A 
ATOM     28  C   UNL A   1      32.444  19.301  22.981  1.00  0.00     0.021 A 
ATOM     29  Cl  UNL A   1      32.307  21.941  22.555  1.00  0.00    -0.084 Cl
ATOM     30  C   UNL A   1      32.593  18.146  23.748  1.00  0.00     0.002 A 
ENDBRANCH   8  24
ENDBRANCH   5   8
ENDBRANCH   3   4
ENDBRANCH   2   3
ENDBRANCH   1   2
BRANCH   1  31
ATOM     31  C   UNL A   1      37.253  20.346  24.964  1.00  0.00     0.002 C 
BRANCH  31  32
ATOM     32  C   UNL A   1      38.532  19.508  25.064  1.00  0.00     0.021 C 
BRANCH  32  33
ATOM     33  C   UNL A   1      39.579  20.009  26.056  1.00  0.00     0.116 C 
BRANCH  33  34
ATOM     34  N   UNL A   1      40.755  19.161  26.100  1.00  0.00    -0.352 N 
ATOM     35  C   UNL A   1      42.076  19.490  26.237  1.00  0.00     0.251 C 
ATOM     36  H   UNL A   1      40.574  18.196  26.019  1.00  0.00     0.163 HD
ATOM     37  O   UNL A   1      42.929  18.610  26.092  1.00  0.00    -0.269 OA
BRANCH  35  38
ATOM     38  C   UNL A   1      42.496  20.877  26.538  1.00  0.00     0.039 A 
ATOM     39  C   UNL A   1      42.944  21.680  25.484  1.00  0.00     0.014 A 
ATOM     40  C   UNL A   1      42.515  21.374  27.845  1.00  0.00     0.014 A 
ATOM     41  C   UNL A   1      43.387  22.980  25.735  1.00  0.00     0.010 A 
ATOM     42  C   UNL A   1      42.889  22.697  28.085  1.00  0.00     0.010 A 
ATOM     43  C   UNL A   1      43.352  23.506  27.037  1.00  0.00    -0.014 A 
BRANCH  43  44
ATOM     44  C   UNL A   1      43.846  24.880  27.312  1.00  0.00     0.031 A 
ATOM     45  C   UNL A   1      45.290  25.230  27.061  1.00  0.00     0.074 A 
ATOM     46  C   UNL A   1      43.002  25.810  27.798  1.00  0.00     0.049 A 
ATOM     47  N   UNL A   1      45.901  26.378  27.217  1.00  0.00    -0.248 NA
ATOM     48  C   UNL A   1      46.168  24.146  26.591  1.00  0.00     0.031 C 
ATOM     49  C   UNL A   1      41.589  25.587  28.117  1.00  0.00     0.029 A 
ATOM     50  N   UNL A   1      43.206  27.132  28.101  1.00  0.00    -0.354 N 
ATOM     51  C   UNL A   1      47.230  26.150  26.877  1.00  0.00     0.074 A 
ATOM     52  C   UNL A   1      47.348  24.743  26.563  1.00  0.00     0.031 C 
ATOM     53  C   UNL A   1      41.045  26.744  28.529  1.00  0.00     0.029 A 
ATOM     54  C   UNL A   1      42.074  27.781  28.535  1.00  0.00     0.049 A 
ATOM     55  H   UNL A   1      44.081  27.575  28.016  1.00  0.00     0.167 HD
ATOM     56  C   UNL A   1      48.256  27.033  26.806  1.00  0.00     0.031 A 
ATOM     57  C   UNL A   1      41.881  29.067  28.884  1.00  0.00     0.031 A 
ATOM     58  C   UNL A   1      48.134  28.433  27.113  1.00  0.00     0.049 A 
ATOM     59  C   UNL A   1      43.033  30.031  28.797  1.00  0.00     0.074 A 
ATOM     60  C   UNL A   1      49.103  29.419  27.041  1.00  0.00     0.029 A 
ATOM     61  N   UNL A   1      46.969  29.049  27.547  1.00  0.00    -0.354 N 
ATOM     62  N   UNL A   1      44.271  29.806  28.424  1.00  0.00    -0.248 NA
ATOM     63  C   UNL A   1      42.754  31.427  29.159  1.00  0.00     0.031 C 
ATOM     64  C   UNL A   1      48.533  30.624  27.469  1.00  0.00     0.029 A 
ATOM     65  C   UNL A   1      47.196  30.399  27.755  1.00  0.00     0.049 A 
ATOM     66  H   UNL A   1      46.109  28.593  27.686  1.00  0.00     0.167 HD
ATOM     67  C   UNL A   1      44.910  31.041  28.472  1.00  0.00     0.074 A 
ATOM     68  C   UNL A   1      43.918  32.007  28.900  1.00  0.00     0.031 C 
ATOM     69  C   UNL A   1      46.199  31.348  28.181  1.00  0.00     0.031 A 
BRANCH  56  70
ATOM     70  C   UNL A   1      49.600  26.498  26.383  1.00  0.00    -0.014 A 
ATOM     71  C   UNL A   1      50.383  25.728  27.264  1.00  0.00     0.010 A 
ATOM     72  C   UNL A   1      50.082  26.754  25.088  1.00  0.00     0.010 A 
ATOM     73  C   UNL A   1      51.647  25.275  26.877  1.00  0.00     0.020 A 
ATOM     74  C   UNL A   1      51.334  26.277  24.686  1.00  0.00     0.020 A 
ATOM     75  C   UNL A   1      52.119  25.560  25.593  1.00  0.00     0.054 A 
BRANCH  75  76
ATOM     76  S   UNL A   1      53.762  24.961  25.116  1.00  0.00     0.124 S 
ATOM     77  O   UNL A   1      53.603  23.514  25.241  1.00  0.00    -0.237 OA
ATOM     78  O   UNL A   1      53.905  25.459  23.751  1.00  0.00    -0.237 OA
ATOM     79  O   UNL A   1      54.654  25.576  26.096  1.00  0.00    -0.744 OA
ENDBRANCH  75  76
ENDBRANCH  56  70
BRANCH  57  80
ATOM     80  C   UNL A   1      40.529  29.529  29.301  1.00  0.00    -0.014 A 
ATOM     81  C   UNL A   1      39.533  29.771  28.338  1.00  0.00     0.010 A 
ATOM     82  C   UNL A   1      40.225  29.719  30.661  1.00  0.00     0.010 A 
ATOM     83  C   UNL A   1      38.264  30.214  28.725  1.00  0.00     0.020 A 
ATOM     84  C   UNL A   1      38.950  30.136  31.054  1.00  0.00     0.020 A 
ATOM     85  C   UNL A   1      37.980  30.393  30.082  1.00  0.00     0.054 A 
BRANCH  85  86
ATOM     86  S   UNL A   1      36.314  30.922  30.563  1.00  0.00     0.124 S 
ATOM     87  O   UNL A   1      35.559  30.706  29.334  1.00  0.00    -0.237 OA
ATOM     88  O   UNL A   1      36.001  30.018  31.666  1.00  0.00    -0.237 OA
ATOM     89  O   UNL A   1      36.498  32.320  30.948  1.00  0.00    -0.744 OA
ENDBRANCH  85  86
ENDBRANCH  57  80
BRANCH  69  90
ATOM     90  C   UNL A   1      46.596  32.798  28.269  1.00  0.00    -0.014 A 
ATOM     91  C   UNL A   1      46.475  33.661  27.166  1.00  0.00     0.010 A 
ATOM     92  C   UNL A   1      47.076  33.307  29.490  1.00  0.00     0.010 A 
ATOM     93  C   UNL A   1      46.873  34.997  27.269  1.00  0.00     0.020 A 
ATOM     94  C   UNL A   1      47.448  34.649  29.604  1.00  0.00     0.020 A 
ATOM     95  C   UNL A   1      47.363  35.481  28.486  1.00  0.00     0.054 A 
BRANCH  95  96
ATOM     96  S   UNL A   1      47.857  37.222  28.602  1.00  0.00     0.124 S 
ATOM     97  O   UNL A   1      46.870  37.756  29.536  1.00  0.00    -0.237 OA
ATOM     98  O   UNL A   1      49.223  37.135  29.112  1.00  0.00    -0.237 OA
ATOM     99  O   UNL A   1      47.743  37.706  27.228  1.00  0.00    -0.744 OA
ENDBRANCH  95  96
ENDBRANCH  69  90
ENDBRANCH  43  44
ENDBRANCH  35  38
ENDBRANCH  33  34
ENDBRANCH  32  33
ENDBRANCH  31  32
ENDBRANCH   1  31
TORSDOF 21
ENDMDL
MODEL 2
REMARK VINA RESULT:     -11.6      5.984      8.744
REMARK SMILES Cc1nn(C)c(C)c1C[C@@H](C)C(=O)N[C@@H](C(=O)NCCCCCCNC(=O)c1ccc(-c2c3nc(c(-c4ccc(S(=O)(=O)[O-])cc4)c4ccc([nH]4)c(-c4ccc(S(=O)(=O)[O-])cc4)c4nc(c(-c5ccc(S(=O)(=O)[O-])cc5)c5ccc2[nH]5)C=C4)C=C3)cc1)c1ccccc1Cl
REMARK SMILES IDX 21 1 20 2 19 3 18 4 16 5 17 6 15 8 14 9 12 10 13 11 10 13
REMARK SMILES IDX 11 14 9 15 8 16 1 17 2 18 3 19 4 20 6 21 5 22 7 23 88 24
REMARK SMILES IDX 89 25 93 26 90 27 92 28 94 29 91 30 22 31 23 32 24 33 25 34
REMARK SMILES IDX 26 35 27 37 28 38 29 39 87 40 30 41 86 42 31 43 32 44 33 45
REMARK SMILES IDX 80 46 34 47 85 48 79 49 81 50 35 51 84 52 78 53 77 54 36 56
REMARK SMILES IDX 66 57 47 58 65 59 48 60 51 61 64 62 82 63 49 64 50 65 63 67
REMARK SMILES IDX 83 68 52 69 37 70 38 71 46 72 39 73 45 74 40 75 41 76 42 77
REMARK SMILES IDX 43 78 44 79 67 80 68 81 76 82 69 83 75 84 70 85 71 86 72 87
REMARK SMILES IDX 73 88 74 89 53 90 54 91 62 92 55 93 61 94 56 95 57 96 58 97
REMARK SMILES IDX 59 98 60 99
REMARK H PARENT 18 7 14 12 25 36 81 55 51 66
REMARK Flexibility Score: inf
ROOT
ATOM      1  C   UNL A   1      36.706  23.019  25.757  1.00  0.00     0.002 C 
ENDROOT
BRANCH   1   2
ATOM      2  C   UNL A   1      35.860  23.837  24.784  1.00  0.00     0.021 C 
BRANCH   2   3
ATOM      3  C   UNL A   1      34.803  24.717  25.434  1.00  0.00     0.116 C 
BRANCH   3   4
ATOM      4  N   UNL A   1      34.355  25.814  24.606  1.00  0.00    -0.354 N 
ATOM      5  C   UNL A   1      33.727  26.983  24.940  1.00  0.00     0.247 C 
ATOM      6  O   UNL A   1      33.777  27.876  24.084  1.00  0.00    -0.272 OA
ATOM      7  H   UNL A   1      34.532  25.703  23.645  1.00  0.00     0.163 HD
BRANCH   5   8
ATOM      8  C   UNL A   1      33.139  27.262  26.374  1.00  0.00     0.203 C 
BRANCH   8   9
ATOM      9  N   UNL A   1      31.878  26.589  26.693  1.00  0.00    -0.340 N 
ATOM     10  C   UNL A   1      30.826  26.168  25.943  1.00  0.00     0.224 C 
ATOM     11  O   UNL A   1      29.850  25.728  26.560  1.00  0.00    -0.275 OA
ATOM     12  H   UNL A   1      31.770  26.402  27.653  1.00  0.00     0.164 HD
BRANCH  10  13
ATOM     13  C   UNL A   1      30.802  26.207  24.413  1.00  0.00     0.080 C 
ATOM     14  C   UNL A   1      30.083  27.472  23.968  1.00  0.00     0.018 C 
BRANCH  13  15
ATOM     15  C   UNL A   1      30.361  24.869  23.796  1.00  0.00     0.052 C 
BRANCH  15  16
ATOM     16  C   UNL A   1      31.366  23.767  23.689  1.00  0.00    -0.003 A 
ATOM     17  C   UNL A   1      32.842  24.597  21.662  1.00  0.00     0.069 C 
ATOM     18  C   UNL A   1      32.430  23.661  22.742  1.00  0.00     0.063 A 
ATOM     19  N   UNL A   1      33.175  22.574  22.959  1.00  0.00    -0.178 NA
ATOM     20  N   UNL A   1      32.632  22.002  24.040  1.00  0.00    -0.272 N 
ATOM     21  C   UNL A   1      31.613  22.736  24.588  1.00  0.00     0.038 A 
ATOM     22  C   UNL A   1      33.209  20.768  24.519  1.00  0.00     0.174 C 
ATOM     23  C   UNL A   1      31.010  22.408  25.904  1.00  0.00     0.066 C 
ENDBRANCH  15  16
ENDBRANCH  13  15
ENDBRANCH  10  13
ENDBRANCH   8   9
BRANCH   8  24
ATOM     24  C   UNL A   1      33.003  28.761  26.636  1.00  0.00     0.002 A 
ATOM     25  C   UNL A   1      31.777  29.393  26.344  1.00  0.00     0.008 A 
ATOM     26  C   UNL A   1      34.036  29.543  27.180  1.00  0.00     0.046 A 
ATOM     27  C   UNL A   1      31.593  30.757  26.572  1.00  0.00     0.000 A 
ATOM     28  C   UNL A   1      33.844  30.910  27.416  1.00  0.00     0.021 A 
ATOM     29  Cl  UNL A   1      35.584  28.880  27.574  1.00  0.00    -0.084 Cl
ATOM     30  C   UNL A   1      32.627  31.516  27.109  1.00  0.00     0.002 A 
ENDBRANCH   8  24
ENDBRANCH   5   8
ENDBRANCH   3   4
ENDBRANCH   2   3
ENDBRANCH   1   2
BRANCH   1  31
ATOM     31  C   UNL A   1      38.010  23.676  26.223  1.00  0.00     0.002 C 
BRANCH  31  32
ATOM     32  C   UNL A   1      39.186  22.731  26.493  1.00  0.00     0.021 C 
BRANCH  32  33
ATOM     33  C   UNL A   1      40.453  23.385  27.038  1.00  0.00     0.116 C 
BRANCH  33  34
ATOM     34  N   UNL A   1      41.149  24.170  26.036  1.00  0.00    -0.352 N 
ATOM     35  C   UNL A   1      41.423  25.510  25.999  1.00  0.00     0.251 C 
ATOM     36  H   UNL A   1      41.477  23.657  25.262  1.00  0.00     0.163 HD
ATOM     37  O   UNL A   1      41.897  25.994  24.968  1.00  0.00    -0.269 OA
BRANCH  35  38
ATOM     38  C   UNL A   1      41.149  26.384  27.161  1.00  0.00     0.039 A 
ATOM     39  C   UNL A   1      41.945  27.520  27.341  1.00  0.00     0.014 A 
ATOM     40  C   UNL A   1      40.167  26.069  28.105  1.00  0.00     0.014 A 
ATOM     41  C   UNL A   1      41.743  28.347  28.449  1.00  0.00     0.010 A 
ATOM     42  C   UNL A   1      39.917  26.935  29.170  1.00  0.00     0.010 A 
ATOM     43  C   UNL A   1      40.719  28.069  29.368  1.00  0.00    -0.014 A 
BRANCH  43  44
ATOM     44  C   UNL A   1      40.517  28.932  30.561  1.00  0.00     0.031 A 
ATOM     45  C   UNL A   1      41.398  28.768  31.771  1.00  0.00     0.074 A 
ATOM     46  C   UNL A   1      39.535  29.854  30.561  1.00  0.00     0.049 A 
ATOM     47  N   UNL A   1      41.391  29.441  32.895  1.00  0.00    -0.248 NA
ATOM     48  C   UNL A   1      42.406  27.697  31.723  1.00  0.00     0.031 C 
ATOM     49  C   UNL A   1      38.592  30.088  29.465  1.00  0.00     0.029 A 
ATOM     50  N   UNL A   1      39.173  30.774  31.512  1.00  0.00    -0.354 N 
ATOM     51  C   UNL A   1      42.381  28.868  33.686  1.00  0.00     0.074 A 
ATOM     52  C   UNL A   1      42.928  27.758  32.938  1.00  0.00     0.031 C 
ATOM     53  C   UNL A   1      37.788  31.114  29.789  1.00  0.00     0.029 A 
ATOM     54  C   UNL A   1      38.136  31.589  31.124  1.00  0.00     0.049 A 
ATOM     55  H   UNL A   1      39.614  30.844  32.389  1.00  0.00     0.167 HD
ATOM     56  C   UNL A   1      42.817  29.245  34.913  1.00  0.00     0.031 A 
ATOM     57  C   UNL A   1      37.541  32.613  31.766  1.00  0.00     0.031 A 
ATOM     58  C   UNL A   1      42.277  30.354  35.653  1.00  0.00     0.049 A 
ATOM     59  C   UNL A   1      38.041  33.016  33.127  1.00  0.00     0.074 A 
ATOM     60  C   UNL A   1      42.668  30.840  36.888  1.00  0.00     0.029 A 
ATOM     61  N   UNL A   1      41.228  31.155  35.224  1.00  0.00    -0.354 N 
ATOM     62  N   UNL A   1      39.013  32.494  33.837  1.00  0.00    -0.248 NA
ATOM     63  C   UNL A   1      37.375  34.161  33.762  1.00  0.00     0.031 C 
ATOM     64  C   UNL A   1      41.830  31.911  37.223  1.00  0.00     0.029 A 
ATOM     65  C   UNL A   1      40.953  32.125  36.172  1.00  0.00     0.049 A 
ATOM     66  H   UNL A   1      40.750  31.048  34.370  1.00  0.00     0.167 HD
ATOM     67  C   UNL A   1      39.099  33.270  34.988  1.00  0.00     0.074 A 
ATOM     68  C   UNL A   1      38.088  34.302  34.872  1.00  0.00     0.031 C 
ATOM     69  C   UNL A   1      39.943  33.145  36.042  1.00  0.00     0.031 A 
BRANCH  56  70
ATOM     70  C   UNL A   1      43.933  28.440  35.527  1.00  0.00    -0.014 A 
ATOM     71  C   UNL A   1      43.660  27.387  36.422  1.00  0.00     0.010 A 
ATOM     72  C   UNL A   1      45.270  28.727  35.200  1.00  0.00     0.010 A 
ATOM     73  C   UNL A   1      44.704  26.677  37.019  1.00  0.00     0.020 A 
ATOM     74  C   UNL A   1      46.317  27.999  35.773  1.00  0.00     0.020 A 
ATOM     75  C   UNL A   1      46.027  26.992  36.698  1.00  0.00     0.054 A 
BRANCH  75  76
ATOM     76  S   UNL A   1      47.363  26.055  37.489  1.00  0.00     0.124 S 
ATOM     77  O   UNL A   1      47.088  26.278  38.907  1.00  0.00    -0.237 OA
ATOM     78  O   UNL A   1      47.129  24.694  37.012  1.00  0.00    -0.237 OA
ATOM     79  O   UNL A   1      48.579  26.688  36.983  1.00  0.00    -0.744 OA
ENDBRANCH  75  76
ENDBRANCH  56  70
BRANCH  57  80
ATOM     80  C   UNL A   1      36.438  33.363  31.106  1.00  0.00    -0.014 A 
ATOM     81  C   UNL A   1      36.699  34.172  29.986  1.00  0.00     0.010 A 
ATOM     82  C   UNL A   1      35.118  33.264  31.584  1.00  0.00     0.010 A 
ATOM     83  C   UNL A   1      35.667  34.885  29.368  1.00  0.00     0.020 A 
ATOM     84  C   UNL A   1      34.078  33.954  30.953  1.00  0.00     0.020 A 
ATOM     85  C   UNL A   1      34.362  34.770  29.855  1.00  0.00     0.054 A 
BRANCH  85  86
ATOM     86  S   UNL A   1      33.031  35.666  29.009  1.00  0.00     0.124 S 
ATOM     87  O   UNL A   1      32.429  34.618  28.193  1.00  0.00    -0.237 OA
ATOM     88  O   UNL A   1      32.217  36.148  30.123  1.00  0.00    -0.237 OA
ATOM     89  O   UNL A   1      33.739  36.709  28.269  1.00  0.00    -0.744 OA
ENDBRANCH  85  86
ENDBRANCH  57  80
BRANCH  69  90
ATOM     90  C   UNL A   1      39.841  34.180  37.132  1.00  0.00    -0.014 A 
ATOM     91  C   UNL A   1      40.529  35.403  37.050  1.00  0.00     0.010 A 
ATOM     92  C   UNL A   1      39.017  33.928  38.244  1.00  0.00     0.010 A 
ATOM     93  C   UNL A   1      40.435  36.336  38.086  1.00  0.00     0.020 A 
ATOM     94  C   UNL A   1      38.898  34.871  39.268  1.00  0.00     0.020 A 
ATOM     95  C   UNL A   1      39.623  36.061  39.192  1.00  0.00     0.054 A 
BRANCH  95  96
ATOM     96  S   UNL A   1      39.502  37.293  40.517  1.00  0.00     0.124 S 
ATOM     97  O   UNL A   1      38.650  36.611  41.488  1.00  0.00    -0.237 OA
ATOM     98  O   UNL A   1      40.894  37.473  40.919  1.00  0.00    -0.237 OA
ATOM     99  O   UNL A   1      38.897  38.450  39.860  1.00  0.00    -0.744 OA
ENDBRANCH  95  96
ENDBRANCH  69  90
ENDBRANCH  43  44
ENDBRANCH  35  38
ENDBRANCH  33  34
ENDBRANCH  32  33
ENDBRANCH  31  32
ENDBRANCH   1  31
TORSDOF 21
ENDMDL
MODEL 3
REMARK VINA RESULT:     -11.5      5.686      7.842
REMARK SMILES Cc1nn(C)c(C)c1C[C@@H](C)C(=O)N[C@@H](C(=O)NCCCCCCNC(=O)c1ccc(-c2c3nc(c(-c4ccc(S(=O)(=O)[O-])cc4)c4ccc([nH]4)c(-c4ccc(S(=O)(=O)[O-])cc4)c4nc(c(-c5ccc(S(=O)(=O)[O-])cc5)c5ccc2[nH]5)C=C4)C=C3)cc1)c1ccccc1Cl
REMARK SMILES IDX 21 1 20 2 19 3 18 4 16 5 17 6 15 8 14 9 12 10 13 11 10 13
REMARK SMILES IDX 11 14 9 15 8 16 1 17 2 18 3 19 4 20 6 21 5 22 7 23 88 24
REMARK SMILES IDX 89 25 93 26 90 27 92 28 94 29 91 30 22 31 23 32 24 33 25 34
REMARK SMILES IDX 26 35 27 37 28 38 29 39 87 40 30 41 86 42 31 43 32 44 33 45
REMARK SMILES IDX 80 46 34 47 85 48 79 49 81 50 35 51 84 52 78 53 77 54 36 56
REMARK SMILES IDX 66 57 47 58 65 59 48 60 51 61 64 62 82 63 49 64 50 65 63 67
REMARK SMILES IDX 83 68 52 69 37 70 38 71 46 72 39 73 45 74 40 75 41 76 42 77
REMARK SMILES IDX 43 78 44 79 67 80 68 81 76 82 69 83 75 84 70 85 71 86 72 87
REMARK SMILES IDX 73 88 74 89 53 90 54 91 62 92 55 93 61 94 56 95 57 96 58 97
REMARK SMILES IDX 59 98 60 99
REMARK H PARENT 18 7 14 12 25 36 81 55 51 66
REMARK Flexibility Score: inf
ROOT
ATOM      1  C   UNL A   1      38.174  20.981  24.834  1.00  0.00     0.002 C 
ENDROOT
BRANCH   1   2
ATOM      2  C   UNL A   1      36.712  20.588  25.032  1.00  0.00     0.021 C 
BRANCH   2   3
ATOM      3  C   UNL A   1      35.735  21.752  25.089  1.00  0.00     0.116 C 
BRANCH   3   4
ATOM      4  N   UNL A   1      35.212  22.022  26.410  1.00  0.00    -0.354 N 
ATOM      5  C   UNL A   1      33.925  22.014  26.876  1.00  0.00     0.247 C 
ATOM      6  O   UNL A   1      33.807  21.940  28.106  1.00  0.00    -0.272 OA
ATOM      7  H   UNL A   1      35.891  22.248  27.083  1.00  0.00     0.163 HD
BRANCH   5   8
ATOM      8  C   UNL A   1      32.670  21.913  25.930  1.00  0.00     0.203 C 
BRANCH   8   9
ATOM      9  N   UNL A   1      31.371  22.164  26.560  1.00  0.00    -0.340 N 
ATOM     10  C   UNL A   1      30.607  23.276  26.718  1.00  0.00     0.224 C 
ATOM     11  O   UNL A   1      29.594  23.155  27.416  1.00  0.00    -0.275 OA
ATOM     12  H   UNL A   1      30.967  21.357  26.952  1.00  0.00     0.164 HD
BRANCH  10  13
ATOM     13  C   UNL A   1      30.932  24.630  26.082  1.00  0.00     0.080 C 
ATOM     14  C   UNL A   1      30.593  24.566  24.600  1.00  0.00     0.018 C 
BRANCH  13  15
ATOM     15  C   UNL A   1      32.321  25.152  26.485  1.00  0.00     0.052 C 
BRANCH  15  16
ATOM     16  C   UNL A   1      32.728  26.520  26.038  1.00  0.00    -0.003 A 
ATOM     17  C   UNL A   1      33.850  25.998  23.705  1.00  0.00     0.069 C 
ATOM     18  C   UNL A   1      33.406  26.865  24.829  1.00  0.00     0.063 A 
ATOM     19  N   UNL A   1      33.570  28.185  24.717  1.00  0.00    -0.178 NA
ATOM     20  N   UNL A   1      32.985  28.693  25.808  1.00  0.00    -0.272 N 
ATOM     21  C   UNL A   1      32.363  27.747  26.580  1.00  0.00     0.038 A 
ATOM     22  C   UNL A   1      33.019  30.125  25.994  1.00  0.00     0.174 C 
ATOM     23  C   UNL A   1      31.473  28.100  27.714  1.00  0.00     0.066 C 
ENDBRANCH  15  16
ENDBRANCH  13  15
ENDBRANCH  10  13
ENDBRANCH   8   9
BRANCH   8  24
ATOM     24  C   UNL A   1      32.635  20.575  25.195  1.00  0.00     0.002 A 
ATOM     25  C   UNL A   1      32.794  19.387  25.937  1.00  0.00     0.008 A 
ATOM     26  C   UNL A   1      32.428  20.464  23.809  1.00  0.00     0.046 A 
ATOM     27  C   UNL A   1      32.761  18.136  25.319  1.00  0.00     0.000 A 
ATOM     28  C   UNL A   1      32.387  19.207  23.194  1.00  0.00     0.021 A 
ATOM     29  Cl  UNL A   1      32.225  21.850  22.795  1.00  0.00    -0.084 Cl
ATOM     30  C   UNL A   1      32.557  18.047  23.947  1.00  0.00     0.002 A 
ENDBRANCH   8  24
ENDBRANCH   5   8
ENDBRANCH   3   4
ENDBRANCH   2   3
ENDBRANCH   1   2
BRANCH   1  31
ATOM     31  C   UNL A   1      38.936  21.378  26.104  1.00  0.00     0.002 C 
BRANCH  31  32
ATOM     32  C   UNL A   1      38.954  22.873  26.443  1.00  0.00     0.021 C 
BRANCH  32  33
ATOM     33  C   UNL A   1      40.279  23.419  26.971  1.00  0.00     0.116 C 
BRANCH  33  34
ATOM     34  N   UNL A   1      41.018  24.155  25.962  1.00  0.00    -0.352 N 
ATOM     35  C   UNL A   1      41.431  25.460  25.948  1.00  0.00     0.251 C 
ATOM     36  H   UNL A   1      41.262  23.634  25.163  1.00  0.00     0.163 HD
ATOM     37  O   UNL A   1      41.916  25.921  24.912  1.00  0.00    -0.269 OA
BRANCH  35  38
ATOM     38  C   UNL A   1      41.293  26.324  27.142  1.00  0.00     0.039 A 
ATOM     39  C   UNL A   1      40.239  26.073  28.025  1.00  0.00     0.014 A 
ATOM     40  C   UNL A   1      42.143  27.411  27.368  1.00  0.00     0.014 A 
ATOM     41  C   UNL A   1      40.051  26.892  29.141  1.00  0.00     0.010 A 
ATOM     42  C   UNL A   1      42.000  28.183  28.521  1.00  0.00     0.010 A 
ATOM     43  C   UNL A   1      40.938  27.948  29.406  1.00  0.00    -0.014 A 
BRANCH  43  44
ATOM     44  C   UNL A   1      40.728  28.838  30.578  1.00  0.00     0.031 A 
ATOM     45  C   UNL A   1      41.612  28.713  31.791  1.00  0.00     0.074 A 
ATOM     46  C   UNL A   1      39.736  29.749  30.557  1.00  0.00     0.049 A 
ATOM     47  N   UNL A   1      41.599  29.412  32.898  1.00  0.00    -0.248 NA
ATOM     48  C   UNL A   1      42.631  27.651  31.768  1.00  0.00     0.031 C 
ATOM     49  C   UNL A   1      38.790  29.946  29.456  1.00  0.00     0.029 A 
ATOM     50  N   UNL A   1      39.365  30.688  31.486  1.00  0.00    -0.354 N 
ATOM     51  C   UNL A   1      42.595  28.869  33.702  1.00  0.00     0.074 A 
ATOM     52  C   UNL A   1      43.153  27.747  32.980  1.00  0.00     0.031 C 
ATOM     53  C   UNL A   1      37.975  30.972  29.756  1.00  0.00     0.029 A 
ATOM     54  C   UNL A   1      38.319  31.483  31.079  1.00  0.00     0.049 A 
ATOM     55  H   UNL A   1      39.806  30.784  32.361  1.00  0.00     0.167 HD
ATOM     56  C   UNL A   1      43.028  29.281  34.919  1.00  0.00     0.031 A 
ATOM     57  C   UNL A   1      37.715  32.516  31.696  1.00  0.00     0.031 A 
ATOM     58  C   UNL A   1      42.476  30.402  35.632  1.00  0.00     0.049 A 
ATOM     59  C   UNL A   1      38.211  32.957  33.047  1.00  0.00     0.074 A 
ATOM     60  C   UNL A   1      42.864  30.922  36.855  1.00  0.00     0.029 A 
ATOM     61  N   UNL A   1      41.419  31.181  35.185  1.00  0.00    -0.354 N 
ATOM     62  N   UNL A   1      39.189  32.462  33.768  1.00  0.00    -0.248 NA
ATOM     63  C   UNL A   1      37.533  34.110  33.655  1.00  0.00     0.031 C 
ATOM     64  C   UNL A   1      42.015  31.991  37.165  1.00  0.00     0.029 A 
ATOM     65  C   UNL A   1      41.135  32.171  36.110  1.00  0.00     0.049 A 
ATOM     66  H   UNL A   1      40.942  31.048  34.334  1.00  0.00     0.167 HD
ATOM     67  C   UNL A   1      39.268  33.267  34.900  1.00  0.00     0.074 A 
ATOM     68  C   UNL A   1      38.246  34.285  34.760  1.00  0.00     0.031 C 
ATOM     69  C   UNL A   1      40.114  33.176  35.956  1.00  0.00     0.031 A 
BRANCH  56  70
ATOM     70  C   UNL A   1      44.153  28.502  35.551  1.00  0.00    -0.014 A 
ATOM     71  C   UNL A   1      45.497  28.837  35.298  1.00  0.00     0.010 A 
ATOM     72  C   UNL A   1      43.868  27.432  36.417  1.00  0.00     0.010 A 
ATOM     73  C   UNL A   1      46.532  28.081  35.853  1.00  0.00     0.020 A 
ATOM     74  C   UNL A   1      44.902  26.691  36.998  1.00  0.00     0.020 A 
ATOM     75  C   UNL A   1      46.228  27.007  36.694  1.00  0.00     0.054 A 
BRANCH  75  76
ATOM     76  S   UNL A   1      47.591  26.041  37.400  1.00  0.00     0.124 S 
ATOM     77  O   UNL A   1      47.587  26.490  38.791  1.00  0.00    -0.237 OA
ATOM     78  O   UNL A   1      47.156  24.663  37.185  1.00  0.00    -0.237 OA
ATOM     79  O   UNL A   1      48.753  26.453  36.616  1.00  0.00    -0.744 OA
ENDBRANCH  75  76
ENDBRANCH  56  70
BRANCH  57  80
ATOM     80  C   UNL A   1      36.603  33.238  31.020  1.00  0.00    -0.014 A 
ATOM     81  C   UNL A   1      36.863  34.069  29.916  1.00  0.00     0.010 A 
ATOM     82  C   UNL A   1      35.277  33.090  31.465  1.00  0.00     0.010 A 
ATOM     83  C   UNL A   1      35.823  34.756  29.282  1.00  0.00     0.020 A 
ATOM     84  C   UNL A   1      34.230  33.754  30.818  1.00  0.00     0.020 A 
ATOM     85  C   UNL A   1      34.512  34.593  29.737  1.00  0.00     0.054 A 
BRANCH  85  86
ATOM     86  S   UNL A   1      33.172  35.456  28.871  1.00  0.00     0.124 S 
ATOM     87  O   UNL A   1      32.521  34.365  28.153  1.00  0.00    -0.237 OA
ATOM     88  O   UNL A   1      32.407  36.036  29.971  1.00  0.00    -0.237 OA
ATOM     89  O   UNL A   1      33.876  36.425  28.034  1.00  0.00    -0.744 OA
ENDBRANCH  85  86
ENDBRANCH  57  80
BRANCH  69  90
ATOM     90  C   UNL A   1      40.002  34.236  37.020  1.00  0.00    -0.014 A 
ATOM     91  C   UNL A   1      40.731  35.435  36.943  1.00  0.00     0.010 A 
ATOM     92  C   UNL A   1      39.127  34.033  38.104  1.00  0.00     0.010 A 
ATOM     93  C   UNL A   1      40.625  36.392  37.956  1.00  0.00     0.020 A 
ATOM     94  C   UNL A   1      38.997  35.000  39.103  1.00  0.00     0.020 A 
ATOM     95  C   UNL A   1      39.763  36.165  39.034  1.00  0.00     0.054 A 
BRANCH  95  96
ATOM     96  S   UNL A   1      39.628  37.428  40.328  1.00  0.00     0.124 S 
ATOM     97  O   UNL A   1      38.231  37.836  40.209  1.00  0.00    -0.237 OA
ATOM     98  O   UNL A   1      39.964  36.684  41.540  1.00  0.00    -0.237 OA
ATOM     99  O   UNL A   1      40.609  38.436  39.933  1.00  0.00    -0.744 OA
ENDBRANCH  95  96
ENDBRANCH  69  90
ENDBRANCH  43  44
ENDBRANCH  35  38
ENDBRANCH  33  34
ENDBRANCH  32  33
ENDBRANCH  31  32
ENDBRANCH   1  31
TORSDOF 21
ENDMDL
