MODEL 1
REMARK VINA RESULT:     -10.8      0.000      0.000
REMARK SMILES O=C(NCCCCCCNC(=O)[C@H]1CCCN(C(=O)CCOc2ccc(F)cc2)C1)c1ccc(-c2c3nc(c(-c4ccc(S(=O)(=O)[O-])cc4)c4ccc([nH]4)c(-c4ccc(S(=O)(=O)[O-])cc4)c4nc(c(-c5ccc(S(=O)(=O)[O-])cc5)c5ccc2[nH]5)C=C4)C=C3)cc1
REMARK SMILES IDX 7 1 6 2 5 3 4 4 3 5 1 6 2 7 31 9 32 10 90 11 33 12 89 13
REMARK SMILES IDX 34 14 35 15 36 16 83 17 37 18 88 19 82 20 84 21 38 22 87 23
REMARK SMILES IDX 81 24 80 25 39 27 69 28 50 29 68 30 51 31 54 32 67 33 85 34
REMARK SMILES IDX 52 35 53 36 66 38 86 39 55 40 40 41 41 42 49 43 42 44 48 45
REMARK SMILES IDX 43 46 44 47 45 48 46 49 47 50 70 51 71 52 79 53 72 54 78 55
REMARK SMILES IDX 73 56 74 57 75 58 76 59 77 60 56 61 57 62 65 63 58 64 64 65
REMARK SMILES IDX 59 66 60 67 61 68 62 69 63 70 8 71 9 72 10 73 11 74 12 76
REMARK SMILES IDX 13 77 14 78 30 79 15 80 17 81 16 82 18 83 19 84 20 85 21 86
REMARK SMILES IDX 22 87 23 88 24 89 29 90 25 91 28 92 26 93 27 94
REMARK H PARENT 3 8 84 26 54 37 10 75
REMARK Flexibility Score: inf
ROOT
ATOM      1  C   UNL A   1      31.953  26.893  23.806  1.00  0.00     0.002 C 
ENDROOT
BRANCH   1   2
ATOM      2  C   UNL A   1      33.243  27.368  24.486  1.00  0.00     0.002 C 
BRANCH   2   3
ATOM      3  C   UNL A   1      33.096  27.748  25.960  1.00  0.00     0.021 C 
BRANCH   3   4
ATOM      4  C   UNL A   1      34.304  28.465  26.542  1.00  0.00     0.116 C 
BRANCH   4   5
ATOM      5  N   UNL A   1      33.963  29.779  27.061  1.00  0.00    -0.352 N 
ATOM      6  O   UNL A   1      34.187  31.550  28.448  1.00  0.00    -0.269 OA
ATOM      7  C   UNL A   1      34.679  30.544  27.948  1.00  0.00     0.251 C 
ATOM      8  H   UNL A   1      33.118  30.167  26.738  1.00  0.00     0.163 HD
BRANCH   7   9
ATOM      9  C   UNL A   1      36.052  30.122  28.303  1.00  0.00     0.039 A 
ATOM     10  C   UNL A   1      37.090  30.291  27.383  1.00  0.00     0.014 A 
ATOM     11  C   UNL A   1      36.296  29.537  29.548  1.00  0.00     0.014 A 
ATOM     12  C   UNL A   1      38.347  29.774  27.664  1.00  0.00     0.010 A 
ATOM     13  C   UNL A   1      37.584  29.095  29.863  1.00  0.00     0.010 A 
ATOM     14  C   UNL A   1      38.616  29.201  28.918  1.00  0.00    -0.014 A 
BRANCH  14  15
ATOM     15  C   UNL A   1      40.018  28.833  29.240  1.00  0.00     0.031 A 
ATOM     16  C   UNL A   1      40.602  27.509  28.842  1.00  0.00     0.074 A 
ATOM     17  C   UNL A   1      40.778  29.758  29.860  1.00  0.00     0.049 A 
ATOM     18  N   UNL A   1      41.829  27.079  28.996  1.00  0.00    -0.248 NA
ATOM     19  C   UNL A   1      39.703  26.539  28.196  1.00  0.00     0.031 C 
ATOM     20  C   UNL A   1      40.302  31.071  30.312  1.00  0.00     0.029 A 
ATOM     21  N   UNL A   1      42.109  29.763  30.183  1.00  0.00    -0.354 N 
ATOM     22  C   UNL A   1      41.850  25.789  28.479  1.00  0.00     0.074 A 
ATOM     23  C   UNL A   1      40.507  25.496  28.026  1.00  0.00     0.031 C 
ATOM     24  C   UNL A   1      41.337  31.776  30.789  1.00  0.00     0.029 A 
ATOM     25  C   UNL A   1      42.533  30.946  30.739  1.00  0.00     0.049 A 
ATOM     26  H   UNL A   1      42.703  28.992  30.031  1.00  0.00     0.167 HD
ATOM     27  C   UNL A   1      42.897  24.932  28.391  1.00  0.00     0.031 A 
ATOM     28  C   UNL A   1      43.749  31.323  31.174  1.00  0.00     0.031 A 
ATOM     29  C   UNL A   1      44.229  25.233  28.852  1.00  0.00     0.049 A 
ATOM     30  C   UNL A   1      44.888  30.355  31.058  1.00  0.00     0.074 A 
ATOM     31  C   UNL A   1      45.358  24.432  28.809  1.00  0.00     0.029 A 
ATOM     32  N   UNL A   1      44.615  26.431  29.436  1.00  0.00    -0.354 N 
ATOM     33  N   UNL A   1      44.885  29.142  30.558  1.00  0.00    -0.248 NA
ATOM     34  C   UNL A   1      46.190  30.805  31.561  1.00  0.00     0.031 C 
ATOM     35  C   UNL A   1      46.416  25.132  29.401  1.00  0.00     0.029 A 
ATOM     36  C   UNL A   1      45.959  26.387  29.769  1.00  0.00     0.049 A 
ATOM     37  H   UNL A   1      44.020  27.200  29.592  1.00  0.00     0.167 HD
ATOM     38  C   UNL A   1      46.186  28.680  30.693  1.00  0.00     0.074 A 
ATOM     39  C   UNL A   1      46.955  29.759  31.282  1.00  0.00     0.031 C 
ATOM     40  C   UNL A   1      46.699  27.466  30.373  1.00  0.00     0.031 A 
BRANCH  27  41
ATOM     41  C   UNL A   1      42.646  23.577  27.783  1.00  0.00    -0.014 A 
ATOM     42  C   UNL A   1      42.925  23.328  26.427  1.00  0.00     0.010 A 
ATOM     43  C   UNL A   1      42.191  22.519  28.592  1.00  0.00     0.010 A 
ATOM     44  C   UNL A   1      42.732  22.053  25.887  1.00  0.00     0.020 A 
ATOM     45  C   UNL A   1      42.016  21.237  28.059  1.00  0.00     0.020 A 
ATOM     46  C   UNL A   1      42.277  21.016  26.707  1.00  0.00     0.054 A 
BRANCH  46  47
ATOM     47  S   UNL A   1      42.075  19.362  25.987  1.00  0.00     0.124 S 
ATOM     48  O   UNL A   1      42.914  19.449  24.794  1.00  0.00    -0.237 OA
ATOM     49  O   UNL A   1      42.575  18.488  27.043  1.00  0.00    -0.237 OA
ATOM     50  O   UNL A   1      40.639  19.267  25.732  1.00  0.00    -0.744 OA
ENDBRANCH  46  47
ENDBRANCH  27  41
BRANCH  28  51
ATOM     51  C   UNL A   1      43.930  32.667  31.783  1.00  0.00    -0.014 A 
ATOM     52  C   UNL A   1      44.298  33.772  30.997  1.00  0.00     0.010 A 
ATOM     53  C   UNL A   1      43.708  32.849  33.161  1.00  0.00     0.010 A 
ATOM     54  C   UNL A   1      44.457  35.032  31.582  1.00  0.00     0.020 A 
ATOM     55  C   UNL A   1      43.836  34.111  33.742  1.00  0.00     0.020 A 
ATOM     56  C   UNL A   1      44.226  35.193  32.951  1.00  0.00     0.054 A 
BRANCH  56  57
ATOM     57  S   UNL A   1      44.388  36.843  33.687  1.00  0.00     0.124 S 
ATOM     58  O   UNL A   1      44.229  36.557  35.108  1.00  0.00    -0.237 OA
ATOM     59  O   UNL A   1      45.727  37.250  33.268  1.00  0.00    -0.237 OA
ATOM     60  O   UNL A   1      43.298  37.597  33.071  1.00  0.00    -0.744 OA
ENDBRANCH  56  57
ENDBRANCH  28  51
BRANCH  40  61
ATOM     61  C   UNL A   1      48.160  27.258  30.657  1.00  0.00    -0.014 A 
ATOM     62  C   UNL A   1      49.126  27.477  29.659  1.00  0.00     0.010 A 
ATOM     63  C   UNL A   1      48.571  26.837  31.933  1.00  0.00     0.010 A 
ATOM     64  C   UNL A   1      50.476  27.230  29.918  1.00  0.00     0.020 A 
ATOM     65  C   UNL A   1      49.922  26.613  32.204  1.00  0.00     0.020 A 
ATOM     66  C   UNL A   1      50.864  26.789  31.187  1.00  0.00     0.054 A 
BRANCH  66  67
ATOM     67  S   UNL A   1      52.621  26.475  31.504  1.00  0.00     0.124 S 
ATOM     68  O   UNL A   1      52.630  25.036  31.756  1.00  0.00    -0.237 OA
ATOM     69  O   UNL A   1      53.256  26.900  30.259  1.00  0.00    -0.237 OA
ATOM     70  O   UNL A   1      52.916  27.313  32.664  1.00  0.00    -0.744 OA
ENDBRANCH  66  67
ENDBRANCH  40  61
ENDBRANCH  14  15
ENDBRANCH   7   9
ENDBRANCH   4   5
ENDBRANCH   3   4
ENDBRANCH   2   3
ENDBRANCH   1   2
BRANCH   1  71
ATOM     71  C   UNL A   1      30.662  27.166  24.592  1.00  0.00     0.021 C 
BRANCH  71  72
ATOM     72  C   UNL A   1      29.735  25.955  24.664  1.00  0.00     0.116 C 
BRANCH  72  73
ATOM     73  N   UNL A   1      29.956  25.232  25.898  1.00  0.00    -0.356 N 
ATOM     74  C   UNL A   1      30.550  24.046  26.167  1.00  0.00     0.224 C 
ATOM     75  H   UNL A   1      29.607  25.691  26.695  1.00  0.00     0.163 HD
ATOM     76  O   UNL A   1      30.199  23.526  27.235  1.00  0.00    -0.275 OA
BRANCH  74  77
ATOM     77  C   UNL A   1      31.684  23.413  25.352  1.00  0.00     0.098 C 
ATOM     78  C   UNL A   1      31.224  23.247  23.888  1.00  0.00     0.017 C 
ATOM     79  C   UNL A   1      33.087  24.008  25.366  1.00  0.00     0.132 C 
ATOM     80  C   UNL A   1      32.231  22.449  23.063  1.00  0.00     0.022 C 
ATOM     81  N   UNL A   1      34.027  23.196  24.577  1.00  0.00    -0.342 N 
ATOM     82  C   UNL A   1      33.646  23.006  23.180  1.00  0.00     0.119 C 
BRANCH  81  83
ATOM     83  C   UNL A   1      35.177  22.729  25.198  1.00  0.00     0.226 C 
ATOM     84  O   UNL A   1      35.498  23.101  26.333  1.00  0.00    -0.275 OA
BRANCH  83  85
ATOM     85  C   UNL A   1      36.053  21.696  24.523  1.00  0.00     0.141 C 
BRANCH  85  86
ATOM     86  C   UNL A   1      35.680  20.294  24.994  1.00  0.00     0.239 C 
BRANCH  86  87
ATOM     87  O   UNL A   1      34.327  19.970  24.663  1.00  0.00    -0.493 OA
BRANCH  87  88
ATOM     88  C   UNL A   1      33.873  18.693  24.843  1.00  0.00     0.119 A 
ATOM     89  C   UNL A   1      32.723  18.302  25.532  1.00  0.00     0.049 A 
ATOM     90  C   UNL A   1      34.663  17.712  24.228  1.00  0.00     0.049 A 
ATOM     91  C   UNL A   1      32.350  16.954  25.572  1.00  0.00     0.043 A 
ATOM     92  C   UNL A   1      34.287  16.368  24.257  1.00  0.00     0.043 A 
ATOM     93  C   UNL A   1      33.128  16.001  24.926  1.00  0.00     0.123 A 
ATOM     94  F   UNL A   1      32.746  14.717  24.933  1.00  0.00    -0.207 F 
ENDBRANCH  87  88
ENDBRANCH  86  87
ENDBRANCH  85  86
ENDBRANCH  83  85
ENDBRANCH  81  83
ENDBRANCH  74  77
ENDBRANCH  72  73
ENDBRANCH  71  72
ENDBRANCH   1  71
TORSDOF 21
ENDMDL
MODEL 2
REMARK VINA RESULT:     -10.7      0.548      8.019
REMARK SMILES O=C(NCCCCCCNC(=O)[C@H]1CCCN(C(=O)CCOc2ccc(F)cc2)C1)c1ccc(-c2c3nc(c(-c4ccc(S(=O)(=O)[O-])cc4)c4ccc([nH]4)c(-c4ccc(S(=O)(=O)[O-])cc4)c4nc(c(-c5ccc(S(=O)(=O)[O-])cc5)c5ccc2[nH]5)C=C4)C=C3)cc1
REMARK SMILES IDX 7 1 6 2 5 3 4 4 3 5 1 6 2 7 31 9 32 10 90 11 33 12 89 13
REMARK SMILES IDX 34 14 35 15 36 16 83 17 37 18 88 19 82 20 84 21 38 22 87 23
REMARK SMILES IDX 81 24 80 25 39 27 69 28 50 29 68 30 51 31 54 32 67 33 85 34
REMARK SMILES IDX 52 35 53 36 66 38 86 39 55 40 40 41 41 42 49 43 42 44 48 45
REMARK SMILES IDX 43 46 44 47 45 48 46 49 47 50 70 51 71 52 79 53 72 54 78 55
REMARK SMILES IDX 73 56 74 57 75 58 76 59 77 60 56 61 57 62 65 63 58 64 64 65
REMARK SMILES IDX 59 66 60 67 61 68 62 69 63 70 8 71 9 72 10 73 11 74 12 76
REMARK SMILES IDX 13 77 14 78 30 79 15 80 17 81 16 82 18 83 19 84 20 85 21 86
REMARK SMILES IDX 22 87 23 88 24 89 29 90 25 91 28 92 26 93 27 94
REMARK H PARENT 3 8 84 26 54 37 10 75
REMARK Flexibility Score: inf
ROOT
ATOM      1  C   UNL A   1      31.697  27.033  24.113  1.00  0.00     0.002 C 
ENDROOT
BRANCH   1   2
ATOM      2  C   UNL A   1      33.074  27.198  24.768  1.00  0.00     0.002 C 
BRANCH   2   3
ATOM      3  C   UNL A   1      33.046  27.637  26.232  1.00  0.00     0.021 C 
BRANCH   3   4
ATOM      4  C   UNL A   1      34.265  28.436  26.667  1.00  0.00     0.116 C 
BRANCH   4   5
ATOM      5  N   UNL A   1      33.909  29.765  27.137  1.00  0.00    -0.352 N 
ATOM      6  O   UNL A   1      34.131  31.600  28.438  1.00  0.00    -0.269 OA
ATOM      7  C   UNL A   1      34.632  30.582  27.969  1.00  0.00     0.251 C 
ATOM      8  H   UNL A   1      33.046  30.120  26.822  1.00  0.00     0.163 HD
BRANCH   7   9
ATOM      9  C   UNL A   1      36.022  30.206  28.303  1.00  0.00     0.039 A 
ATOM     10  C   UNL A   1      37.034  30.373  27.354  1.00  0.00     0.014 A 
ATOM     11  C   UNL A   1      36.311  29.666  29.559  1.00  0.00     0.014 A 
ATOM     12  C   UNL A   1      38.310  29.895  27.619  1.00  0.00     0.010 A 
ATOM     13  C   UNL A   1      37.617  29.265  29.855  1.00  0.00     0.010 A 
ATOM     14  C   UNL A   1      38.624  29.367  28.883  1.00  0.00    -0.014 A 
BRANCH  14  15
ATOM     15  C   UNL A   1      40.041  29.044  29.181  1.00  0.00     0.031 A 
ATOM     16  C   UNL A   1      40.932  29.998  29.925  1.00  0.00     0.074 A 
ATOM     17  C   UNL A   1      40.496  27.830  28.811  1.00  0.00     0.049 A 
ATOM     18  N   UNL A   1      42.169  29.822  30.316  1.00  0.00    -0.248 NA
ATOM     19  C   UNL A   1      40.375  31.314  30.271  1.00  0.00     0.031 C 
ATOM     20  C   UNL A   1      39.718  26.835  28.062  1.00  0.00     0.029 A 
ATOM     21  N   UNL A   1      41.694  27.208  29.038  1.00  0.00    -0.354 N 
ATOM     22  C   UNL A   1      42.545  31.004  30.942  1.00  0.00     0.074 A 
ATOM     23  C   UNL A   1      41.410  31.901  30.860  1.00  0.00     0.031 C 
ATOM     24  C   UNL A   1      40.433  25.707  27.954  1.00  0.00     0.029 A 
ATOM     25  C   UNL A   1      41.739  25.918  28.563  1.00  0.00     0.049 A 
ATOM     26  H   UNL A   1      42.449  27.642  29.497  1.00  0.00     0.167 HD
ATOM     27  C   UNL A   1      43.726  31.309  31.531  1.00  0.00     0.031 A 
ATOM     28  C   UNL A   1      42.727  25.006  28.601  1.00  0.00     0.031 A 
ATOM     29  C   UNL A   1      44.852  30.410  31.600  1.00  0.00     0.049 A 
ATOM     30  C   UNL A   1      44.020  25.371  29.265  1.00  0.00     0.074 A 
ATOM     31  C   UNL A   1      46.093  30.625  32.174  1.00  0.00     0.029 A 
ATOM     32  N   UNL A   1      44.870  29.123  31.083  1.00  0.00    -0.354 N 
ATOM     33  N   UNL A   1      44.349  26.494  29.857  1.00  0.00    -0.248 NA
ATOM     34  C   UNL A   1      45.073  24.349  29.267  1.00  0.00     0.031 C 
ATOM     35  C   UNL A   1      46.875  29.482  31.970  1.00  0.00     0.029 A 
ATOM     36  C   UNL A   1      46.105  28.536  31.313  1.00  0.00     0.049 A 
ATOM     37  H   UNL A   1      44.117  28.689  30.619  1.00  0.00     0.167 HD
ATOM     38  C   UNL A   1      45.653  26.316  30.298  1.00  0.00     0.074 A 
ATOM     39  C   UNL A   1      46.035  24.964  29.941  1.00  0.00     0.031 C 
ATOM     40  C   UNL A   1      46.469  27.196  30.929  1.00  0.00     0.031 A 
BRANCH  27  41
ATOM     41  C   UNL A   1      43.875  32.679  32.141  1.00  0.00    -0.014 A 
ATOM     42  C   UNL A   1      44.290  33.775  31.365  1.00  0.00     0.010 A 
ATOM     43  C   UNL A   1      43.531  32.887  33.490  1.00  0.00     0.010 A 
ATOM     44  C   UNL A   1      44.380  35.051  31.932  1.00  0.00     0.020 A 
ATOM     45  C   UNL A   1      43.599  34.165  34.054  1.00  0.00     0.020 A 
ATOM     46  C   UNL A   1      44.035  35.237  33.274  1.00  0.00     0.054 A 
BRANCH  46  47
ATOM     47  S   UNL A   1      44.122  36.910  33.971  1.00  0.00     0.124 S 
ATOM     48  O   UNL A   1      45.052  37.568  33.058  1.00  0.00    -0.237 OA
ATOM     49  O   UNL A   1      42.737  37.365  33.890  1.00  0.00    -0.237 OA
ATOM     50  O   UNL A   1      44.626  36.696  35.326  1.00  0.00    -0.744 OA
ENDBRANCH  46  47
ENDBRANCH  27  41
BRANCH  28  51
ATOM     51  C   UNL A   1      42.528  23.677  27.965  1.00  0.00    -0.014 A 
ATOM     52  C   UNL A   1      42.700  23.506  26.581  1.00  0.00     0.010 A 
ATOM     53  C   UNL A   1      42.187  22.564  28.757  1.00  0.00     0.010 A 
ATOM     54  C   UNL A   1      42.518  22.248  25.998  1.00  0.00     0.020 A 
ATOM     55  C   UNL A   1      42.034  21.301  28.183  1.00  0.00     0.020 A 
ATOM     56  C   UNL A   1      42.185  21.154  26.803  1.00  0.00     0.054 A 
BRANCH  56  57
ATOM     57  S   UNL A   1      42.000  19.519  26.040  1.00  0.00     0.124 S 
ATOM     58  O   UNL A   1      42.834  19.647  24.849  1.00  0.00    -0.237 OA
ATOM     59  O   UNL A   1      42.509  18.622  27.075  1.00  0.00    -0.237 OA
ATOM     60  O   UNL A   1      40.563  19.420  25.794  1.00  0.00    -0.744 OA
ENDBRANCH  56  57
ENDBRANCH  28  51
BRANCH  40  61
ATOM     61  C   UNL A   1      47.849  26.707  31.268  1.00  0.00    -0.014 A 
ATOM     62  C   UNL A   1      48.896  26.800  30.334  1.00  0.00     0.010 A 
ATOM     63  C   UNL A   1      48.101  26.148  32.533  1.00  0.00     0.010 A 
ATOM     64  C   UNL A   1      50.161  26.294  30.641  1.00  0.00     0.020 A 
ATOM     65  C   UNL A   1      49.371  25.664  32.853  1.00  0.00     0.020 A 
ATOM     66  C   UNL A   1      50.388  25.720  31.896  1.00  0.00     0.054 A 
BRANCH  66  67
ATOM     67  S   UNL A   1      52.038  25.071  32.276  1.00  0.00     0.124 S 
ATOM     68  O   UNL A   1      51.804  23.630  32.266  1.00  0.00    -0.237 OA
ATOM     69  O   UNL A   1      52.849  25.584  31.175  1.00  0.00    -0.237 OA
ATOM     70  O   UNL A   1      52.340  25.646  33.585  1.00  0.00    -0.744 OA
ENDBRANCH  66  67
ENDBRANCH  40  61
ENDBRANCH  14  15
ENDBRANCH   7   9
ENDBRANCH   4   5
ENDBRANCH   3   4
ENDBRANCH   2   3
ENDBRANCH   1   2
BRANCH   1  71
ATOM     71  C   UNL A   1      30.502  27.119  25.073  1.00  0.00     0.021 C 
BRANCH  71  72
ATOM     72  C   UNL A   1      29.590  25.897  25.008  1.00  0.00     0.116 C 
BRANCH  72  73
ATOM     73  N   UNL A   1      29.810  25.050  26.160  1.00  0.00    -0.356 N 
ATOM     74  C   UNL A   1      30.426  23.853  26.309  1.00  0.00     0.224 C 
ATOM     75  H   UNL A   1      29.441  25.414  26.997  1.00  0.00     0.163 HD
ATOM     76  O   UNL A   1      30.072  23.215  27.310  1.00  0.00    -0.275 OA
BRANCH  74  77
ATOM     77  C   UNL A   1      31.583  23.335  25.448  1.00  0.00     0.098 C 
ATOM     78  C   UNL A   1      31.135  23.288  23.971  1.00  0.00     0.017 C 
ATOM     79  C   UNL A   1      32.966  23.971  25.526  1.00  0.00     0.132 C 
ATOM     80  C   UNL A   1      32.171  22.602  23.085  1.00  0.00     0.022 C 
ATOM     81  N   UNL A   1      33.935  23.265  24.673  1.00  0.00    -0.342 N 
ATOM     82  C   UNL A   1      33.566  23.191  23.261  1.00  0.00     0.119 C 
BRANCH  81  83
ATOM     83  C   UNL A   1      35.097  22.780  25.257  1.00  0.00     0.226 C 
ATOM     84  O   UNL A   1      35.399  23.054  26.425  1.00  0.00    -0.275 OA
BRANCH  83  85
ATOM     85  C   UNL A   1      36.011  21.845  24.496  1.00  0.00     0.141 C 
BRANCH  85  86
ATOM     86  C   UNL A   1      35.787  20.403  24.942  1.00  0.00     0.239 C 
BRANCH  86  87
ATOM     87  O   UNL A   1      34.413  20.024  24.828  1.00  0.00    -0.493 OA
BRANCH  87  88
ATOM     88  C   UNL A   1      34.080  18.701  24.750  1.00  0.00     0.119 A 
ATOM     89  C   UNL A   1      34.898  17.654  24.320  1.00  0.00     0.049 A 
ATOM     90  C   UNL A   1      32.780  18.412  25.188  1.00  0.00     0.049 A 
ATOM     91  C   UNL A   1      34.435  16.334  24.363  1.00  0.00     0.043 A 
ATOM     92  C   UNL A   1      32.319  17.094  25.242  1.00  0.00     0.043 A 
ATOM     93  C   UNL A   1      33.155  16.065  24.834  1.00  0.00     0.123 A 
ATOM     94  F   UNL A   1      32.731  14.797  24.910  1.00  0.00    -0.207 F 
ENDBRANCH  87  88
ENDBRANCH  86  87
ENDBRANCH  85  86
ENDBRANCH  83  85
ENDBRANCH  81  83
ENDBRANCH  74  77
ENDBRANCH  72  73
ENDBRANCH  71  72
ENDBRANCH   1  71
TORSDOF 21
ENDMDL
MODEL 3
REMARK VINA RESULT:      -9.7      3.919      8.766
REMARK SMILES O=C(NCCCCCCNC(=O)[C@H]1CCCN(C(=O)CCOc2ccc(F)cc2)C1)c1ccc(-c2c3nc(c(-c4ccc(S(=O)(=O)[O-])cc4)c4ccc([nH]4)c(-c4ccc(S(=O)(=O)[O-])cc4)c4nc(c(-c5ccc(S(=O)(=O)[O-])cc5)c5ccc2[nH]5)C=C4)C=C3)cc1
REMARK SMILES IDX 7 1 6 2 5 3 4 4 3 5 1 6 2 7 31 9 32 10 90 11 33 12 89 13
REMARK SMILES IDX 34 14 35 15 36 16 83 17 37 18 88 19 82 20 84 21 38 22 87 23
REMARK SMILES IDX 81 24 80 25 39 27 69 28 50 29 68 30 51 31 54 32 67 33 85 34
REMARK SMILES IDX 52 35 53 36 66 38 86 39 55 40 40 41 41 42 49 43 42 44 48 45
REMARK SMILES IDX 43 46 44 47 45 48 46 49 47 50 70 51 71 52 79 53 72 54 78 55
REMARK SMILES IDX 73 56 74 57 75 58 76 59 77 60 56 61 57 62 65 63 58 64 64 65
REMARK SMILES IDX 59 66 60 67 61 68 62 69 63 70 8 71 9 72 10 73 11 74 12 76
REMARK SMILES IDX 13 77 14 78 30 79 15 80 17 81 16 82 18 83 19 84 20 85 21 86
REMARK SMILES IDX 22 87 23 88 24 89 29 90 25 91 28 92 26 93 27 94
REMARK H PARENT 3 8 84 26 54 37 10 75
REMARK Flexibility Score: inf
ROOT
ATOM      1  C   UNL A   1      36.610  22.758  25.654  1.00  0.00     0.002 C 
ENDROOT
BRANCH   1   2
ATOM      2  C   UNL A   1      38.141  22.765  25.755  1.00  0.00     0.002 C 
BRANCH   2   3
ATOM      3  C   UNL A   1      38.814  21.422  25.473  1.00  0.00     0.021 C 
BRANCH   3   4
ATOM      4  C   UNL A   1      39.675  20.905  26.615  1.00  0.00     0.116 C 
BRANCH   4   5
ATOM      5  N   UNL A   1      40.689  19.970  26.156  1.00  0.00    -0.352 N 
ATOM      6  O   UNL A   1      42.707  19.392  25.317  1.00  0.00    -0.269 OA
ATOM      7  C   UNL A   1      42.007  20.231  25.877  1.00  0.00     0.251 C 
ATOM      8  H   UNL A   1      40.395  19.039  26.030  1.00  0.00     0.163 HD
BRANCH   7   9
ATOM      9  C   UNL A   1      42.565  21.549  26.249  1.00  0.00     0.039 A 
ATOM     10  C   UNL A   1      42.657  22.560  25.289  1.00  0.00     0.014 A 
ATOM     11  C   UNL A   1      43.016  21.767  27.553  1.00  0.00     0.014 A 
ATOM     12  C   UNL A   1      43.301  23.748  25.603  1.00  0.00     0.010 A 
ATOM     13  C   UNL A   1      43.587  22.998  27.891  1.00  0.00     0.010 A 
ATOM     14  C   UNL A   1      43.744  23.993  26.914  1.00  0.00    -0.014 A 
BRANCH  14  15
ATOM     15  C   UNL A   1      44.256  25.346  27.246  1.00  0.00     0.031 A 
ATOM     16  C   UNL A   1      45.652  25.773  26.895  1.00  0.00     0.074 A 
ATOM     17  C   UNL A   1      43.401  26.211  27.828  1.00  0.00     0.049 A 
ATOM     18  N   UNL A   1      46.212  26.944  27.061  1.00  0.00    -0.248 NA
ATOM     19  C   UNL A   1      46.536  24.766  26.288  1.00  0.00     0.031 C 
ATOM     20  C   UNL A   1      42.027  25.890  28.232  1.00  0.00     0.029 A 
ATOM     21  N   UNL A   1      43.537  27.535  28.148  1.00  0.00    -0.354 N 
ATOM     22  C   UNL A   1      47.515  26.816  26.593  1.00  0.00     0.074 A 
ATOM     23  C   UNL A   1      47.669  25.445  26.155  1.00  0.00     0.031 C 
ATOM     24  C   UNL A   1      41.428  27.001  28.680  1.00  0.00     0.029 A 
ATOM     25  C   UNL A   1      42.389  28.095  28.658  1.00  0.00     0.049 A 
ATOM     26  H   UNL A   1      44.374  28.037  28.023  1.00  0.00     0.167 HD
ATOM     27  C   UNL A   1      48.487  27.758  26.534  1.00  0.00     0.031 A 
ATOM     28  C   UNL A   1      42.138  29.349  29.076  1.00  0.00     0.031 A 
ATOM     29  C   UNL A   1      48.324  29.119  26.980  1.00  0.00     0.049 A 
ATOM     30  C   UNL A   1      43.232  30.370  28.992  1.00  0.00     0.074 A 
ATOM     31  C   UNL A   1      49.249  30.149  26.963  1.00  0.00     0.029 A 
ATOM     32  N   UNL A   1      47.156  29.642  27.518  1.00  0.00    -0.354 N 
ATOM     33  N   UNL A   1      44.454  30.226  28.538  1.00  0.00    -0.248 NA
ATOM     34  C   UNL A   1      42.915  31.718  29.475  1.00  0.00     0.031 C 
ATOM     35  C   UNL A   1      48.653  31.284  27.526  1.00  0.00     0.029 A 
ATOM     36  C   UNL A   1      47.341  30.975  27.848  1.00  0.00     0.049 A 
ATOM     37  H   UNL A   1      46.319  29.139  27.647  1.00  0.00     0.167 HD
ATOM     38  C   UNL A   1      45.057  31.467  28.686  1.00  0.00     0.074 A 
ATOM     39  C   UNL A   1      44.051  32.358  29.233  1.00  0.00     0.031 C 
ATOM     40  C   UNL A   1      46.332  31.836  28.410  1.00  0.00     0.031 A 
BRANCH  27  41
ATOM     41  C   UNL A   1      49.827  27.351  25.977  1.00  0.00    -0.014 A 
ATOM     42  C   UNL A   1      50.747  26.631  26.759  1.00  0.00     0.010 A 
ATOM     43  C   UNL A   1      50.144  27.632  24.635  1.00  0.00     0.010 A 
ATOM     44  C   UNL A   1      51.969  26.219  26.217  1.00  0.00     0.020 A 
ATOM     45  C   UNL A   1      51.355  27.203  24.083  1.00  0.00     0.020 A 
ATOM     46  C   UNL A   1      52.265  26.509  24.881  1.00  0.00     0.054 A 
BRANCH  46  47
ATOM     47  S   UNL A   1      53.840  25.925  24.192  1.00  0.00     0.124 S 
ATOM     48  O   UNL A   1      53.582  25.992  22.756  1.00  0.00    -0.237 OA
ATOM     49  O   UNL A   1      54.796  26.902  24.703  1.00  0.00    -0.237 OA
ATOM     50  O   UNL A   1      53.979  24.577  24.738  1.00  0.00    -0.744 OA
ENDBRANCH  46  47
ENDBRANCH  27  41
BRANCH  28  51
ATOM     51  C   UNL A   1      40.801  29.686  29.633  1.00  0.00    -0.014 A 
ATOM     52  C   UNL A   1      40.569  29.659  31.019  1.00  0.00     0.010 A 
ATOM     53  C   UNL A   1      39.756  30.064  28.770  1.00  0.00     0.010 A 
ATOM     54  C   UNL A   1      39.310  29.987  31.529  1.00  0.00     0.020 A 
ATOM     55  C   UNL A   1      38.506  30.421  29.278  1.00  0.00     0.020 A 
ATOM     56  C   UNL A   1      38.286  30.365  30.655  1.00  0.00     0.054 A 
BRANCH  56  57
ATOM     57  S   UNL A   1      36.672  30.836  31.336  1.00  0.00     0.124 S 
ATOM     58  O   UNL A   1      36.963  32.136  31.931  1.00  0.00    -0.237 OA
ATOM     59  O   UNL A   1      35.819  30.860  30.150  1.00  0.00    -0.237 OA
ATOM     60  O   UNL A   1      36.377  29.762  32.282  1.00  0.00    -0.744 OA
ENDBRANCH  56  57
ENDBRANCH  28  51
BRANCH  40  61
ATOM     61  C   UNL A   1      46.694  33.266  28.697  1.00  0.00    -0.014 A 
ATOM     62  C   UNL A   1      47.205  33.642  29.952  1.00  0.00     0.010 A 
ATOM     63  C   UNL A   1      46.519  34.244  27.703  1.00  0.00     0.010 A 
ATOM     64  C   UNL A   1      47.488  34.982  30.226  1.00  0.00     0.020 A 
ATOM     65  C   UNL A   1      46.825  35.582  27.964  1.00  0.00     0.020 A 
ATOM     66  C   UNL A   1      47.286  35.945  29.232  1.00  0.00     0.054 A 
BRANCH  66  67
ATOM     67  S   UNL A   1      47.661  37.680  29.605  1.00  0.00     0.124 S 
ATOM     68  O   UNL A   1      48.516  38.052  28.482  1.00  0.00    -0.237 OA
ATOM     69  O   UNL A   1      46.339  38.300  29.622  1.00  0.00    -0.237 OA
ATOM     70  O   UNL A   1      48.328  37.615  30.904  1.00  0.00    -0.744 OA
ENDBRANCH  66  67
ENDBRANCH  40  61
ENDBRANCH  14  15
ENDBRANCH   7   9
ENDBRANCH   4   5
ENDBRANCH   3   4
ENDBRANCH   2   3
ENDBRANCH   1   2
BRANCH   1  71
ATOM     71  C   UNL A   1      35.988  21.412  25.257  1.00  0.00     0.021 C 
BRANCH  71  72
ATOM     72  C   UNL A   1      34.975  20.895  26.274  1.00  0.00     0.116 C 
BRANCH  72  73
ATOM     73  N   UNL A   1      33.860  20.271  25.594  1.00  0.00    -0.356 N 
ATOM     74  C   UNL A   1      32.654  20.742  25.197  1.00  0.00     0.224 C 
ATOM     75  H   UNL A   1      34.007  19.323  25.378  1.00  0.00     0.163 HD
ATOM     76  O   UNL A   1      31.790  19.869  25.038  1.00  0.00    -0.275 OA
BRANCH  74  77
ATOM     77  C   UNL A   1      32.350  22.192  24.805  1.00  0.00     0.098 C 
ATOM     78  C   UNL A   1      31.864  22.230  23.341  1.00  0.00     0.017 C 
ATOM     79  C   UNL A   1      31.428  23.058  25.656  1.00  0.00     0.132 C 
ATOM     80  C   UNL A   1      31.725  23.660  22.825  1.00  0.00     0.022 C 
ATOM     81  N   UNL A   1      31.342  24.431  25.134  1.00  0.00    -0.342 N 
ATOM     82  C   UNL A   1      30.884  24.531  23.751  1.00  0.00     0.119 C 
BRANCH  81  83
ATOM     83  C   UNL A   1      31.655  25.481  25.987  1.00  0.00     0.226 C 
ATOM     84  O   UNL A   1      30.798  26.014  26.702  1.00  0.00    -0.275 OA
BRANCH  83  85
ATOM     85  C   UNL A   1      33.080  25.974  26.112  1.00  0.00     0.141 C 
BRANCH  85  86
ATOM     86  C   UNL A   1      33.507  26.696  24.836  1.00  0.00     0.239 C 
BRANCH  86  87
ATOM     87  O   UNL A   1      34.147  27.941  25.126  1.00  0.00    -0.493 OA
BRANCH  87  88
ATOM     88  C   UNL A   1      33.427  28.960  25.684  1.00  0.00     0.119 A 
ATOM     89  C   UNL A   1      33.797  29.748  26.776  1.00  0.00     0.049 A 
ATOM     90  C   UNL A   1      32.210  29.221  25.039  1.00  0.00     0.049 A 
ATOM     91  C   UNL A   1      32.979  30.805  27.192  1.00  0.00     0.043 A 
ATOM     92  C   UNL A   1      31.398  30.282  25.444  1.00  0.00     0.043 A 
ATOM     93  C   UNL A   1      31.794  31.070  26.516  1.00  0.00     0.123 A 
ATOM     94  F   UNL A   1      31.035  32.107  26.892  1.00  0.00    -0.207 F 
ENDBRANCH  87  88
ENDBRANCH  86  87
ENDBRANCH  85  86
ENDBRANCH  83  85
ENDBRANCH  81  83
ENDBRANCH  74  77
ENDBRANCH  72  73
ENDBRANCH  71  72
ENDBRANCH   1  71
TORSDOF 21
ENDMDL
