MODEL 1
REMARK VINA RESULT:     -10.0      0.000      0.000
REMARK SMILES O=C1NC(=O)/C(=C/c2ccc(OCc3cn(-c4ccc(C(=O)NCCCCCCNC(=O)c5ccc(-c6c7nc(c(-c8ccc(S(=O)(=O)[O-])cc8)c8ccc([nH]8)c(-c8ccc(S(=O)(=O)[O-])cc8)c8nc(c(-c9ccc(S(=O)(=O)[O-])cc9)c9ccc6[nH]9)C=C8)C=C7)cc5)cc4)nn3)cc2)S1
REMARK SMILES IDX 25 1 24 2 23 3 21 4 22 5 20 7 17 8 18 9 94 10 19 11 93 12
REMARK SMILES IDX 16 13 14 14 15 15 96 16 95 17 13 18 12 19 11 20 8 21 9 22
REMARK SMILES IDX 98 23 10 24 97 25 7 26 1 27 2 28 3 29 99 30 4 31 6 33 5 34
REMARK SMILES IDX 26 35 27 36 28 37 29 38 30 39 31 40 32 42 33 43 34 44 92 45
REMARK SMILES IDX 35 46 91 47 36 48 37 49 38 50 85 51 39 52 90 53 84 54 86 55
REMARK SMILES IDX 40 56 89 57 83 58 82 59 41 61 71 62 52 63 70 64 53 65 56 66
REMARK SMILES IDX 69 67 87 68 54 69 55 70 68 72 88 73 57 74 42 75 43 76 51 77
REMARK SMILES IDX 44 78 50 79 45 80 46 81 47 82 48 83 49 84 72 85 73 86 81 87
REMARK SMILES IDX 74 88 80 89 75 90 76 91 77 92 78 93 79 94 58 95 59 96 67 97
REMARK SMILES IDX 60 98 66 99 61 100 62 101 63 102 64 103 65 104
REMARK H PARENT 23 6 3 32 30 41 86 60 56 71
REMARK Flexibility Score: inf
ROOT
ATOM      1  C   UNL A   1      45.449  31.168  27.974  1.00  0.00     0.021 C 
ENDROOT
BRANCH   1   2
ATOM      2  C   UNL A   1      44.989  29.943  27.183  1.00  0.00     0.116 C 
BRANCH   2   3
ATOM      3  N   UNL A   1      46.121  29.087  26.896  1.00  0.00    -0.352 N 
ATOM      4  C   UNL A   1      46.238  27.747  26.640  1.00  0.00     0.251 C 
ATOM      5  O   UNL A   1      47.374  27.313  26.440  1.00  0.00    -0.269 OA
ATOM      6  H   UNL A   1      46.981  29.565  26.882  1.00  0.00     0.163 HD
BRANCH   4   7
ATOM      7  C   UNL A   1      45.069  26.833  26.488  1.00  0.00     0.039 A 
ATOM      8  C   UNL A   1      43.065  24.867  26.399  1.00  0.00     0.066 A 
ATOM      9  C   UNL A   1      43.508  25.360  27.632  1.00  0.00     0.029 A 
ATOM     10  C   UNL A   1      43.549  25.421  25.213  1.00  0.00     0.029 A 
ATOM     11  C   UNL A   1      44.527  26.312  27.671  1.00  0.00     0.016 A 
ATOM     12  C   UNL A   1      44.497  26.449  25.270  1.00  0.00     0.016 A 
BRANCH   8  13
ATOM     13  N   UNL A   1      42.127  23.814  26.374  1.00  0.00    -0.220 N 
ATOM     14  C   UNL A   1      40.333  22.572  26.383  1.00  0.00     0.120 A 
ATOM     15  C   UNL A   1      40.757  23.878  26.509  1.00  0.00     0.144 A 
ATOM     16  N   UNL A   1      41.421  21.784  26.122  1.00  0.00    -0.131 NA
ATOM     17  N   UNL A   1      42.497  22.548  26.086  1.00  0.00    -0.062 NA
BRANCH  14  18
ATOM     18  C   UNL A   1      38.964  21.976  26.373  1.00  0.00     0.289 C 
BRANCH  18  19
ATOM     19  O   UNL A   1      38.525  21.434  25.118  1.00  0.00    -0.487 OA
BRANCH  19  20
ATOM     20  C   UNL A   1      37.233  21.646  24.724  1.00  0.00     0.119 A 
ATOM     21  C   UNL A   1      34.626  22.469  24.059  1.00  0.00    -0.024 A 
ATOM     22  C   UNL A   1      35.729  23.213  23.633  1.00  0.00     0.012 A 
ATOM     23  C   UNL A   1      34.842  21.265  24.732  1.00  0.00     0.012 A 
ATOM     24  C   UNL A   1      37.024  22.803  23.971  1.00  0.00     0.047 A 
ATOM     25  C   UNL A   1      36.138  20.842  25.036  1.00  0.00     0.047 A 
BRANCH  21  26
ATOM     26  C   UNL A   1      33.263  22.942  23.801  1.00  0.00     0.029 C 
ATOM     27  O   UNL A   1      30.090  23.005  27.700  1.00  0.00    -0.261 OA
ATOM     28  C   UNL A   1      30.703  23.183  26.665  1.00  0.00     0.290 C 
ATOM     29  N   UNL A   1      30.156  23.587  25.487  1.00  0.00    -0.282 N 
ATOM     30  S   UNL A   1      32.401  22.823  26.429  1.00  0.00    -0.022 SA
ATOM     31  C   UNL A   1      30.927  23.519  24.367  1.00  0.00     0.265 C 
ATOM     32  H   UNL A   1      29.231  23.918  25.445  1.00  0.00     0.174 HD
ATOM     33  C   UNL A   1      32.306  23.094  24.726  1.00  0.00     0.083 C 
ATOM     34  O   UNL A   1      30.522  23.711  23.229  1.00  0.00    -0.268 OA
ENDBRANCH  21  26
ENDBRANCH  19  20
ENDBRANCH  18  19
ENDBRANCH  14  18
ENDBRANCH   8  13
ENDBRANCH   4   7
ENDBRANCH   2   3
ENDBRANCH   1   2
BRANCH   1  35
ATOM     35  C   UNL A   1      46.740  31.785  27.418  1.00  0.00     0.002 C 
BRANCH  35  36
ATOM     36  C   UNL A   1      46.539  32.935  26.416  1.00  0.00     0.002 C 
BRANCH  36  37
ATOM     37  C   UNL A   1      47.676  33.967  26.330  1.00  0.00     0.021 C 
BRANCH  37  38
ATOM     38  C   UNL A   1      47.945  34.677  27.646  1.00  0.00     0.116 C 
BRANCH  38  39
ATOM     39  N   UNL A   1      47.258  35.974  27.717  1.00  0.00    -0.352 N 
ATOM     40  C   UNL A   1      45.952  36.263  28.066  1.00  0.00     0.251 C 
ATOM     41  H   UNL A   1      47.811  36.754  27.480  1.00  0.00     0.163 HD
ATOM     42  O   UNL A   1      45.432  37.316  27.719  1.00  0.00    -0.269 OA
BRANCH  40  43
ATOM     43  C   UNL A   1      45.207  35.290  28.881  1.00  0.00     0.039 A 
ATOM     44  C   UNL A   1      45.492  35.039  30.228  1.00  0.00     0.014 A 
ATOM     45  C   UNL A   1      44.176  34.615  28.243  1.00  0.00     0.014 A 
ATOM     46  C   UNL A   1      44.697  34.122  30.913  1.00  0.00     0.010 A 
ATOM     47  C   UNL A   1      43.237  33.967  28.979  1.00  0.00     0.010 A 
ATOM     48  C   UNL A   1      43.576  33.589  30.266  1.00  0.00    -0.014 A 
BRANCH  48  49
ATOM     49  C   UNL A   1      42.674  32.630  30.873  1.00  0.00     0.031 A 
ATOM     50  C   UNL A   1      43.210  31.252  30.922  1.00  0.00     0.074 A 
ATOM     51  C   UNL A   1      41.628  33.036  31.629  1.00  0.00     0.049 A 
ATOM     52  N   UNL A   1      42.862  30.248  30.191  1.00  0.00    -0.248 NA
ATOM     53  C   UNL A   1      44.413  31.008  31.740  1.00  0.00     0.031 C 
ATOM     54  C   UNL A   1      41.250  34.406  32.009  1.00  0.00     0.029 A 
ATOM     55  N   UNL A   1      40.767  32.287  32.359  1.00  0.00    -0.354 N 
ATOM     56  C   UNL A   1      43.624  29.180  30.648  1.00  0.00     0.074 A 
ATOM     57  C   UNL A   1      44.721  29.762  31.377  1.00  0.00     0.031 C 
ATOM     58  C   UNL A   1      40.427  34.365  33.082  1.00  0.00     0.029 A 
ATOM     59  C   UNL A   1      40.101  32.977  33.365  1.00  0.00     0.049 A 
ATOM     60  H   UNL A   1      40.623  31.328  32.188  1.00  0.00     0.167 HD
ATOM     61  C   UNL A   1      43.134  27.909  30.659  1.00  0.00     0.031 A 
ATOM     62  C   UNL A   1      39.403  32.428  34.395  1.00  0.00     0.031 A 
ATOM     63  C   UNL A   1      41.873  27.828  29.957  1.00  0.00     0.049 A 
ATOM     64  C   UNL A   1      39.117  31.017  34.009  1.00  0.00     0.074 A 
ATOM     65  C   UNL A   1      41.454  28.158  28.683  1.00  0.00     0.029 A 
ATOM     66  N   UNL A   1      40.733  27.781  30.731  1.00  0.00    -0.354 N 
ATOM     67  N   UNL A   1      38.350  30.691  33.003  1.00  0.00    -0.248 NA
ATOM     68  C   UNL A   1      40.081  29.998  34.405  1.00  0.00     0.031 C 
ATOM     69  C   UNL A   1      40.187  28.783  28.870  1.00  0.00     0.029 A 
ATOM     70  C   UNL A   1      39.856  28.705  30.226  1.00  0.00     0.049 A 
ATOM     71  H   UNL A   1      40.579  27.192  31.505  1.00  0.00     0.167 HD
ATOM     72  C   UNL A   1      39.011  29.645  32.370  1.00  0.00     0.074 A 
ATOM     73  C   UNL A   1      40.028  29.207  33.328  1.00  0.00     0.031 C 
ATOM     74  C   UNL A   1      38.888  29.429  31.025  1.00  0.00     0.031 A 
BRANCH  61  75
ATOM     75  C   UNL A   1      43.550  26.846  31.647  1.00  0.00    -0.014 A 
ATOM     76  C   UNL A   1      43.170  27.000  32.995  1.00  0.00     0.010 A 
ATOM     77  C   UNL A   1      44.504  25.848  31.364  1.00  0.00     0.010 A 
ATOM     78  C   UNL A   1      43.774  26.251  34.012  1.00  0.00     0.020 A 
ATOM     79  C   UNL A   1      45.078  25.062  32.364  1.00  0.00     0.020 A 
ATOM     80  C   UNL A   1      44.737  25.295  33.687  1.00  0.00     0.054 A 
BRANCH  80  81
ATOM     81  S   UNL A   1      45.587  24.405  35.010  1.00  0.00     0.124 S 
ATOM     82  O   UNL A   1      44.470  23.969  35.842  1.00  0.00    -0.237 OA
ATOM     83  O   UNL A   1      46.282  23.352  34.276  1.00  0.00    -0.237 OA
ATOM     84  O   UNL A   1      46.453  25.421  35.604  1.00  0.00    -0.744 OA
ENDBRANCH  80  81
ENDBRANCH  61  75
BRANCH  62  85
ATOM     85  C   UNL A   1      39.293  32.930  35.793  1.00  0.00    -0.014 A 
ATOM     86  C   UNL A   1      38.051  33.004  36.453  1.00  0.00     0.010 A 
ATOM     87  C   UNL A   1      40.453  33.090  36.582  1.00  0.00     0.010 A 
ATOM     88  C   UNL A   1      37.976  33.170  37.851  1.00  0.00     0.020 A 
ATOM     89  C   UNL A   1      40.386  33.262  37.970  1.00  0.00     0.020 A 
ATOM     90  C   UNL A   1      39.148  33.274  38.603  1.00  0.00     0.054 A 
BRANCH  90  91
ATOM     91  S   UNL A   1      39.059  33.294  40.421  1.00  0.00     0.124 S 
ATOM     92  O   UNL A   1      40.440  33.573  40.798  1.00  0.00    -0.237 OA
ATOM     93  O   UNL A   1      38.102  34.366  40.681  1.00  0.00    -0.237 OA
ATOM     94  O   UNL A   1      38.581  31.951  40.752  1.00  0.00    -0.744 OA
ENDBRANCH  90  91
ENDBRANCH  62  85
BRANCH  74  95
ATOM     95  C   UNL A   1      37.811  30.162  30.255  1.00  0.00    -0.014 A 
ATOM     96  C   UNL A   1      36.568  29.604  29.895  1.00  0.00     0.010 A 
ATOM     97  C   UNL A   1      38.010  31.538  30.036  1.00  0.00     0.010 A 
ATOM     98  C   UNL A   1      35.570  30.396  29.302  1.00  0.00     0.020 A 
ATOM     99  C   UNL A   1      37.015  32.334  29.468  1.00  0.00     0.020 A 
ATOM    100  C   UNL A   1      35.804  31.757  29.089  1.00  0.00     0.054 A 
BRANCH 100 101
ATOM    101  S   UNL A   1      34.510  32.785  28.339  1.00  0.00     0.124 S 
ATOM    102  O   UNL A   1      35.282  33.724  27.529  1.00  0.00    -0.237 OA
ATOM    103  O   UNL A   1      33.714  31.815  27.593  1.00  0.00    -0.237 OA
ATOM    104  O   UNL A   1      33.827  33.380  29.489  1.00  0.00    -0.744 OA
ENDBRANCH 100 101
ENDBRANCH  74  95
ENDBRANCH  48  49
ENDBRANCH  40  43
ENDBRANCH  38  39
ENDBRANCH  37  38
ENDBRANCH  36  37
ENDBRANCH  35  36
ENDBRANCH   1  35
TORSDOF 21
ENDMDL
MODEL 2
REMARK VINA RESULT:      -9.6      4.020     10.600
REMARK SMILES O=C1NC(=O)/C(=C/c2ccc(OCc3cn(-c4ccc(C(=O)NCCCCCCNC(=O)c5ccc(-c6c7nc(c(-c8ccc(S(=O)(=O)[O-])cc8)c8ccc([nH]8)c(-c8ccc(S(=O)(=O)[O-])cc8)c8nc(c(-c9ccc(S(=O)(=O)[O-])cc9)c9ccc6[nH]9)C=C8)C=C7)cc5)cc4)nn3)cc2)S1
REMARK SMILES IDX 25 1 24 2 23 3 21 4 22 5 20 7 17 8 18 9 94 10 19 11 93 12
REMARK SMILES IDX 16 13 14 14 15 15 96 16 95 17 13 18 12 19 11 20 8 21 9 22
REMARK SMILES IDX 98 23 10 24 97 25 7 26 1 27 2 28 3 29 99 30 4 31 6 33 5 34
REMARK SMILES IDX 26 35 27 36 28 37 29 38 30 39 31 40 32 42 33 43 34 44 92 45
REMARK SMILES IDX 35 46 91 47 36 48 37 49 38 50 85 51 39 52 90 53 84 54 86 55
REMARK SMILES IDX 40 56 89 57 83 58 82 59 41 61 71 62 52 63 70 64 53 65 56 66
REMARK SMILES IDX 69 67 87 68 54 69 55 70 68 72 88 73 57 74 42 75 43 76 51 77
REMARK SMILES IDX 44 78 50 79 45 80 46 81 47 82 48 83 49 84 72 85 73 86 81 87
REMARK SMILES IDX 74 88 80 89 75 90 76 91 77 92 78 93 79 94 58 95 59 96 67 97
REMARK SMILES IDX 60 98 66 99 61 100 62 101 63 102 64 103 65 104
REMARK H PARENT 23 6 3 32 30 41 86 60 56 71
REMARK Flexibility Score: inf
ROOT
ATOM      1  C   UNL A   1      40.029  28.278  29.588  1.00  0.00     0.021 C 
ENDROOT
BRANCH   1   2
ATOM      2  C   UNL A   1      39.237  29.267  28.732  1.00  0.00     0.116 C 
BRANCH   2   3
ATOM      3  N   UNL A   1      38.938  30.456  29.501  1.00  0.00    -0.352 N 
ATOM      4  C   UNL A   1      37.843  31.277  29.564  1.00  0.00     0.251 C 
ATOM      5  O   UNL A   1      37.909  32.237  30.332  1.00  0.00    -0.269 OA
ATOM      6  H   UNL A   1      39.670  30.732  30.098  1.00  0.00     0.163 HD
BRANCH   4   7
ATOM      7  C   UNL A   1      36.566  31.001  28.844  1.00  0.00     0.039 A 
ATOM      8  C   UNL A   1      34.371  30.308  27.236  1.00  0.00     0.066 A 
ATOM      9  C   UNL A   1      35.190  29.307  27.771  1.00  0.00     0.029 A 
ATOM     10  C   UNL A   1      34.587  31.643  27.580  1.00  0.00     0.029 A 
ATOM     11  C   UNL A   1      36.298  29.659  28.541  1.00  0.00     0.016 A 
ATOM     12  C   UNL A   1      35.642  31.970  28.438  1.00  0.00     0.016 A 
BRANCH   8  13
ATOM     13  N   UNL A   1      33.330  29.949  26.354  1.00  0.00    -0.220 N 
ATOM     14  C   UNL A   1      32.034  28.998  24.877  1.00  0.00     0.120 A 
ATOM     15  C   UNL A   1      33.280  28.901  25.461  1.00  0.00     0.144 A 
ATOM     16  N   UNL A   1      31.360  30.037  25.461  1.00  0.00    -0.131 NA
ATOM     17  N   UNL A   1      32.139  30.585  26.375  1.00  0.00    -0.062 NA
BRANCH  14  18
ATOM     18  C   UNL A   1      31.343  28.131  23.878  1.00  0.00     0.289 C 
BRANCH  18  19
ATOM     19  O   UNL A   1      30.245  27.351  24.377  1.00  0.00    -0.487 OA
BRANCH  19  20
ATOM     20  C   UNL A   1      30.392  25.995  24.475  1.00  0.00     0.119 A 
ATOM     21  C   UNL A   1      31.025  23.289  24.918  1.00  0.00    -0.024 A 
ATOM     22  C   UNL A   1      30.880  24.164  25.999  1.00  0.00     0.012 A 
ATOM     23  C   UNL A   1      30.756  23.755  23.630  1.00  0.00     0.012 A 
ATOM     24  C   UNL A   1      30.571  25.510  25.774  1.00  0.00     0.047 A 
ATOM     25  C   UNL A   1      30.412  25.092  23.415  1.00  0.00     0.047 A 
BRANCH  21  26
ATOM     26  C   UNL A   1      31.449  21.904  25.134  1.00  0.00     0.029 C 
ATOM     27  O   UNL A   1      36.377  20.952  24.848  1.00  0.00    -0.261 OA
ATOM     28  C   UNL A   1      35.183  20.971  25.075  1.00  0.00     0.290 C 
ATOM     29  N   UNL A   1      34.411  19.878  25.317  1.00  0.00    -0.282 N 
ATOM     30  S   UNL A   1      34.169  22.398  25.003  1.00  0.00    -0.022 SA
ATOM     31  C   UNL A   1      33.059  20.038  25.326  1.00  0.00     0.265 C 
ATOM     32  H   UNL A   1      34.818  18.997  25.480  1.00  0.00     0.174 HD
ATOM     33  C   UNL A   1      32.719  21.476  25.165  1.00  0.00     0.083 C 
ATOM     34  O   UNL A   1      32.249  19.123  25.386  1.00  0.00    -0.268 OA
ENDBRANCH  21  26
ENDBRANCH  19  20
ENDBRANCH  18  19
ENDBRANCH  14  18
ENDBRANCH   8  13
ENDBRANCH   4   7
ENDBRANCH   2   3
ENDBRANCH   1   2
BRANCH   1  35
ATOM     35  C   UNL A   1      39.536  26.833  29.440  1.00  0.00     0.002 C 
BRANCH  35  36
ATOM     36  C   UNL A   1      39.876  26.157  28.100  1.00  0.00     0.002 C 
BRANCH  36  37
ATOM     37  C   UNL A   1      39.337  24.730  27.902  1.00  0.00     0.021 C 
BRANCH  37  38
ATOM     38  C   UNL A   1      39.420  24.249  26.463  1.00  0.00     0.116 C 
BRANCH  38  39
ATOM     39  N   UNL A   1      40.051  22.926  26.366  1.00  0.00    -0.352 N 
ATOM     40  C   UNL A   1      41.360  22.592  26.069  1.00  0.00     0.251 C 
ATOM     41  H   UNL A   1      39.453  22.163  26.539  1.00  0.00     0.163 HD
ATOM     42  O   UNL A   1      41.640  21.472  25.659  1.00  0.00    -0.269 OA
BRANCH  40  43
ATOM     43  C   UNL A   1      42.410  23.601  26.273  1.00  0.00     0.039 A 
ATOM     44  C   UNL A   1      42.624  24.673  25.399  1.00  0.00     0.014 A 
ATOM     45  C   UNL A   1      43.200  23.448  27.403  1.00  0.00     0.014 A 
ATOM     46  C   UNL A   1      43.626  25.592  25.710  1.00  0.00     0.010 A 
ATOM     47  C   UNL A   1      43.951  24.488  27.848  1.00  0.00     0.010 A 
ATOM     48  C   UNL A   1      44.285  25.475  26.939  1.00  0.00    -0.014 A 
BRANCH  48  49
ATOM     49  C   UNL A   1      45.341  26.369  27.376  1.00  0.00     0.031 A 
ATOM     50  C   UNL A   1      46.634  26.145  26.695  1.00  0.00     0.074 A 
ATOM     51  C   UNL A   1      45.058  27.503  28.057  1.00  0.00     0.049 A 
ATOM     52  N   UNL A   1      47.692  25.590  27.182  1.00  0.00    -0.248 NA
ATOM     53  C   UNL A   1      46.700  26.382  25.241  1.00  0.00     0.031 C 
ATOM     54  C   UNL A   1      43.742  28.053  28.417  1.00  0.00     0.029 A 
ATOM     55  N   UNL A   1      45.897  28.498  28.433  1.00  0.00    -0.354 N 
ATOM     56  C   UNL A   1      48.640  25.653  26.169  1.00  0.00     0.074 A 
ATOM     57  C   UNL A   1      47.902  25.881  24.953  1.00  0.00     0.031 C 
ATOM     58  C   UNL A   1      43.867  29.368  28.707  1.00  0.00     0.029 A 
ATOM     59  C   UNL A   1      45.278  29.713  28.704  1.00  0.00     0.049 A 
ATOM     60  H   UNL A   1      46.870  28.370  28.509  1.00  0.00     0.167 HD
ATOM     61  C   UNL A   1      49.964  25.823  26.442  1.00  0.00     0.031 A 
ATOM     62  C   UNL A   1      45.891  30.920  28.834  1.00  0.00     0.031 A 
ATOM     63  C   UNL A   1      50.225  25.704  27.858  1.00  0.00     0.049 A 
ATOM     64  C   UNL A   1      47.336  30.640  29.070  1.00  0.00     0.074 A 
ATOM     65  C   UNL A   1      49.983  24.729  28.807  1.00  0.00     0.029 A 
ATOM     66  N   UNL A   1      50.405  26.878  28.557  1.00  0.00    -0.354 N 
ATOM     67  N   UNL A   1      47.783  30.031  30.136  1.00  0.00    -0.248 NA
ATOM     68  C   UNL A   1      48.210  30.565  27.906  1.00  0.00     0.031 C 
ATOM     69  C   UNL A   1      49.525  25.446  29.951  1.00  0.00     0.029 A 
ATOM     70  C   UNL A   1      49.616  26.814  29.677  1.00  0.00     0.049 A 
ATOM     71  H   UNL A   1      50.991  27.626  28.299  1.00  0.00     0.167 HD
ATOM     72  C   UNL A   1      48.747  29.146  29.669  1.00  0.00     0.074 A 
ATOM     73  C   UNL A   1      49.025  29.581  28.299  1.00  0.00     0.031 C 
ATOM     74  C   UNL A   1      49.007  27.966  30.310  1.00  0.00     0.031 A 
BRANCH  61  75
ATOM     75  C   UNL A   1      50.940  26.513  25.520  1.00  0.00    -0.014 A 
ATOM     76  C   UNL A   1      50.588  27.771  24.993  1.00  0.00     0.010 A 
ATOM     77  C   UNL A   1      52.060  25.875  24.950  1.00  0.00     0.010 A 
ATOM     78  C   UNL A   1      51.271  28.320  23.901  1.00  0.00     0.020 A 
ATOM     79  C   UNL A   1      52.779  26.435  23.893  1.00  0.00     0.020 A 
ATOM     80  C   UNL A   1      52.355  27.638  23.350  1.00  0.00     0.054 A 
BRANCH  80  81
ATOM     81  S   UNL A   1      53.167  28.300  21.878  1.00  0.00     0.124 S 
ATOM     82  O   UNL A   1      54.242  27.336  21.671  1.00  0.00    -0.237 OA
ATOM     83  O   UNL A   1      52.089  28.272  20.893  1.00  0.00    -0.237 OA
ATOM     84  O   UNL A   1      53.592  29.635  22.294  1.00  0.00    -0.744 OA
ENDBRANCH  80  81
ENDBRANCH  61  75
BRANCH  62  85
ATOM     85  C   UNL A   1      45.376  32.254  28.419  1.00  0.00    -0.014 A 
ATOM     86  C   UNL A   1      44.868  32.477  27.124  1.00  0.00     0.010 A 
ATOM     87  C   UNL A   1      45.138  33.255  29.386  1.00  0.00     0.010 A 
ATOM     88  C   UNL A   1      44.100  33.623  26.829  1.00  0.00     0.020 A 
ATOM     89  C   UNL A   1      44.383  34.399  29.099  1.00  0.00     0.020 A 
ATOM     90  C   UNL A   1      43.843  34.565  27.827  1.00  0.00     0.054 A 
BRANCH  90  91
ATOM     91  S   UNL A   1      42.697  35.941  27.502  1.00  0.00     0.124 S 
ATOM     92  O   UNL A   1      43.377  37.068  28.130  1.00  0.00    -0.237 OA
ATOM     93  O   UNL A   1      42.640  35.967  26.042  1.00  0.00    -0.237 OA
ATOM     94  O   UNL A   1      41.460  35.514  28.157  1.00  0.00    -0.744 OA
ENDBRANCH  90  91
ENDBRANCH  62  85
BRANCH  74  95
ATOM     95  C   UNL A   1      48.440  27.737  31.694  1.00  0.00    -0.014 A 
ATOM     96  C   UNL A   1      49.078  28.119  32.891  1.00  0.00     0.010 A 
ATOM     97  C   UNL A   1      47.118  27.260  31.769  1.00  0.00     0.010 A 
ATOM     98  C   UNL A   1      48.421  27.995  34.127  1.00  0.00     0.020 A 
ATOM     99  C   UNL A   1      46.452  27.155  32.990  1.00  0.00     0.020 A 
ATOM    100  C   UNL A   1      47.110  27.508  34.166  1.00  0.00     0.054 A 
BRANCH 100 101
ATOM    101  S   UNL A   1      46.254  27.363  35.760  1.00  0.00     0.124 S 
ATOM    102  O   UNL A   1      46.094  25.918  35.902  1.00  0.00    -0.237 OA
ATOM    103  O   UNL A   1      47.189  27.989  36.691  1.00  0.00    -0.237 OA
ATOM    104  O   UNL A   1      45.009  28.103  35.555  1.00  0.00    -0.744 OA
ENDBRANCH 100 101
ENDBRANCH  74  95
ENDBRANCH  48  49
ENDBRANCH  40  43
ENDBRANCH  38  39
ENDBRANCH  37  38
ENDBRANCH  36  37
ENDBRANCH  35  36
ENDBRANCH   1  35
TORSDOF 21
ENDMDL
MODEL 3
REMARK VINA RESULT:      -9.4      4.312     10.647
REMARK SMILES O=C1NC(=O)/C(=C/c2ccc(OCc3cn(-c4ccc(C(=O)NCCCCCCNC(=O)c5ccc(-c6c7nc(c(-c8ccc(S(=O)(=O)[O-])cc8)c8ccc([nH]8)c(-c8ccc(S(=O)(=O)[O-])cc8)c8nc(c(-c9ccc(S(=O)(=O)[O-])cc9)c9ccc6[nH]9)C=C8)C=C7)cc5)cc4)nn3)cc2)S1
REMARK SMILES IDX 25 1 24 2 23 3 21 4 22 5 20 7 17 8 18 9 94 10 19 11 93 12
REMARK SMILES IDX 16 13 14 14 15 15 96 16 95 17 13 18 12 19 11 20 8 21 9 22
REMARK SMILES IDX 98 23 10 24 97 25 7 26 1 27 2 28 3 29 99 30 4 31 6 33 5 34
REMARK SMILES IDX 26 35 27 36 28 37 29 38 30 39 31 40 32 42 33 43 34 44 92 45
REMARK SMILES IDX 35 46 91 47 36 48 37 49 38 50 85 51 39 52 90 53 84 54 86 55
REMARK SMILES IDX 40 56 89 57 83 58 82 59 41 61 71 62 52 63 70 64 53 65 56 66
REMARK SMILES IDX 69 67 87 68 54 69 55 70 68 72 88 73 57 74 42 75 43 76 51 77
REMARK SMILES IDX 44 78 50 79 45 80 46 81 47 82 48 83 49 84 72 85 73 86 81 87
REMARK SMILES IDX 74 88 80 89 75 90 76 91 77 92 78 93 79 94 58 95 59 96 67 97
REMARK SMILES IDX 60 98 66 99 61 100 62 101 63 102 64 103 65 104
REMARK H PARENT 23 6 3 32 30 41 86 60 56 71
REMARK Flexibility Score: inf
ROOT
ATOM      1  C   UNL A   1      40.489  28.563  28.189  1.00  0.00     0.021 C 
ENDROOT
BRANCH   1   2
ATOM      2  C   UNL A   1      39.224  29.312  27.768  1.00  0.00     0.116 C 
BRANCH   2   3
ATOM      3  N   UNL A   1      38.886  30.307  28.763  1.00  0.00    -0.352 N 
ATOM      4  C   UNL A   1      37.722  30.957  29.078  1.00  0.00     0.251 C 
ATOM      5  O   UNL A   1      37.770  31.776  29.996  1.00  0.00    -0.269 OA
ATOM      6  H   UNL A   1      39.648  30.572  29.328  1.00  0.00     0.163 HD
BRANCH   4   7
ATOM      7  C   UNL A   1      36.408  30.641  28.446  1.00  0.00     0.039 A 
ATOM      8  C   UNL A   1      34.132  29.923  26.966  1.00  0.00     0.066 A 
ATOM      9  C   UNL A   1      35.080  28.951  27.307  1.00  0.00     0.029 A 
ATOM     10  C   UNL A   1      34.268  31.227  27.443  1.00  0.00     0.029 A 
ATOM     11  C   UNL A   1      36.225  29.320  28.013  1.00  0.00     0.016 A 
ATOM     12  C   UNL A   1      35.371  31.557  28.237  1.00  0.00     0.016 A 
BRANCH   8  13
ATOM     13  N   UNL A   1      33.043  29.565  26.144  1.00  0.00    -0.220 N 
ATOM     14  C   UNL A   1      31.553  28.534  24.927  1.00  0.00     0.120 A 
ATOM     15  C   UNL A   1      32.715  28.324  25.641  1.00  0.00     0.144 A 
ATOM     16  N   UNL A   1      31.188  29.846  25.064  1.00  0.00    -0.131 NA
ATOM     17  N   UNL A   1      32.077  30.454  25.828  1.00  0.00    -0.062 NA
BRANCH  14  18
ATOM     18  C   UNL A   1      30.660  27.585  24.197  1.00  0.00     0.289 C 
BRANCH  18  19
ATOM     19  O   UNL A   1      30.009  26.591  25.003  1.00  0.00    -0.487 OA
BRANCH  19  20
ATOM     20  C   UNL A   1      30.390  25.284  24.872  1.00  0.00     0.119 A 
ATOM     21  C   UNL A   1      31.460  22.682  24.892  1.00  0.00    -0.024 A 
ATOM     22  C   UNL A   1      31.062  23.289  26.087  1.00  0.00     0.012 A 
ATOM     23  C   UNL A   1      31.228  23.347  23.686  1.00  0.00     0.012 A 
ATOM     24  C   UNL A   1      30.536  24.586  26.073  1.00  0.00     0.047 A 
ATOM     25  C   UNL A   1      30.668  24.627  23.676  1.00  0.00     0.047 A 
BRANCH  21  26
ATOM     26  C   UNL A   1      32.107  21.368  24.904  1.00  0.00     0.029 C 
ATOM     27  O   UNL A   1      37.134  21.297  24.857  1.00  0.00    -0.261 OA
ATOM     28  C   UNL A   1      35.945  21.080  24.988  1.00  0.00     0.290 C 
ATOM     29  N   UNL A   1      35.364  19.851  24.979  1.00  0.00    -0.282 N 
ATOM     30  S   UNL A   1      34.703  22.313  25.077  1.00  0.00    -0.022 SA
ATOM     31  C   UNL A   1      34.005  19.785  24.907  1.00  0.00     0.265 C 
ATOM     32  H   UNL A   1      35.909  19.033  25.023  1.00  0.00     0.174 HD
ATOM     33  C   UNL A   1      33.429  21.154  24.964  1.00  0.00     0.083 C 
ATOM     34  O   UNL A   1      33.365  18.755  24.746  1.00  0.00    -0.268 OA
ENDBRANCH  21  26
ENDBRANCH  19  20
ENDBRANCH  18  19
ENDBRANCH  14  18
ENDBRANCH   8  13
ENDBRANCH   4   7
ENDBRANCH   2   3
ENDBRANCH   1   2
BRANCH   1  35
ATOM     35  C   UNL A   1      40.227  27.086  28.512  1.00  0.00     0.002 C 
BRANCH  35  36
ATOM     36  C   UNL A   1      39.169  26.398  27.631  1.00  0.00     0.002 C 
BRANCH  36  37
ATOM     37  C   UNL A   1      38.903  24.912  27.924  1.00  0.00     0.021 C 
BRANCH  37  38
ATOM     38  C   UNL A   1      38.411  24.139  26.711  1.00  0.00     0.116 C 
BRANCH  38  39
ATOM     39  N   UNL A   1      38.931  22.765  26.693  1.00  0.00    -0.352 N 
ATOM     40  C   UNL A   1      40.223  22.312  26.501  1.00  0.00     0.251 C 
ATOM     41  H   UNL A   1      38.259  22.061  26.841  1.00  0.00     0.163 HD
ATOM     42  O   UNL A   1      40.434  21.161  26.141  1.00  0.00    -0.269 OA
BRANCH  40  43
ATOM     43  C   UNL A   1      41.341  23.235  26.756  1.00  0.00     0.039 A 
ATOM     44  C   UNL A   1      41.809  24.153  25.809  1.00  0.00     0.014 A 
ATOM     45  C   UNL A   1      41.925  23.162  28.012  1.00  0.00     0.014 A 
ATOM     46  C   UNL A   1      42.850  25.006  26.171  1.00  0.00     0.010 A 
ATOM     47  C   UNL A   1      42.714  24.177  28.450  1.00  0.00     0.010 A 
ATOM     48  C   UNL A   1      43.296  24.995  27.498  1.00  0.00    -0.014 A 
BRANCH  48  49
ATOM     49  C   UNL A   1      44.368  25.835  27.996  1.00  0.00     0.031 A 
ATOM     50  C   UNL A   1      44.501  25.825  29.469  1.00  0.00     0.074 A 
ATOM     51  C   UNL A   1      45.349  26.275  27.175  1.00  0.00     0.049 A 
ATOM     52  N   UNL A   1      44.165  26.758  30.293  1.00  0.00    -0.248 NA
ATOM     53  C   UNL A   1      44.864  24.553  30.121  1.00  0.00     0.031 C 
ATOM     54  C   UNL A   1      45.553  25.977  25.748  1.00  0.00     0.029 A 
ATOM     55  N   UNL A   1      46.476  26.958  27.489  1.00  0.00    -0.354 N 
ATOM     56  C   UNL A   1      44.524  26.286  31.549  1.00  0.00     0.074 A 
ATOM     57  C   UNL A   1      44.676  24.861  31.406  1.00  0.00     0.031 C 
ATOM     58  C   UNL A   1      46.834  26.249  25.410  1.00  0.00     0.029 A 
ATOM     59  C   UNL A   1      47.491  26.877  26.543  1.00  0.00     0.049 A 
ATOM     60  H   UNL A   1      46.567  27.473  28.323  1.00  0.00     0.167 HD
ATOM     61  C   UNL A   1      44.970  27.126  32.526  1.00  0.00     0.031 A 
ATOM     62  C   UNL A   1      48.792  27.233  26.723  1.00  0.00     0.031 A 
ATOM     63  C   UNL A   1      44.799  28.509  32.143  1.00  0.00     0.049 A 
ATOM     64  C   UNL A   1      48.831  28.110  27.927  1.00  0.00     0.074 A 
ATOM     65  C   UNL A   1      43.722  29.275  31.742  1.00  0.00     0.029 A 
ATOM     66  N   UNL A   1      45.923  29.174  31.702  1.00  0.00    -0.354 N 
ATOM     67  N   UNL A   1      48.256  29.281  27.979  1.00  0.00    -0.248 NA
ATOM     68  C   UNL A   1      49.052  27.474  29.220  1.00  0.00     0.031 C 
ATOM     69  C   UNL A   1      44.220  30.061  30.662  1.00  0.00     0.029 A 
ATOM     70  C   UNL A   1      45.590  29.813  30.535  1.00  0.00     0.049 A 
ATOM     71  H   UNL A   1      46.804  29.186  32.142  1.00  0.00     0.167 HD
ATOM     72  C   UNL A   1      47.655  29.334  29.231  1.00  0.00     0.074 A 
ATOM     73  C   UNL A   1      48.252  28.227  29.982  1.00  0.00     0.031 C 
ATOM     74  C   UNL A   1      46.518  30.061  29.450  1.00  0.00     0.031 A 
BRANCH  61  75
ATOM     75  C   UNL A   1      45.937  26.727  33.614  1.00  0.00    -0.014 A 
ATOM     76  C   UNL A   1      47.280  26.488  33.262  1.00  0.00     0.010 A 
ATOM     77  C   UNL A   1      45.537  26.330  34.906  1.00  0.00     0.010 A 
ATOM     78  C   UNL A   1      48.151  25.815  34.127  1.00  0.00     0.020 A 
ATOM     79  C   UNL A   1      46.410  25.702  35.795  1.00  0.00     0.020 A 
ATOM     80  C   UNL A   1      47.702  25.413  35.384  1.00  0.00     0.054 A 
BRANCH  80  81
ATOM     81  S   UNL A   1      48.798  24.455  36.454  1.00  0.00     0.124 S 
ATOM     82  O   UNL A   1      47.962  24.253  37.633  1.00  0.00    -0.237 OA
ATOM     83  O   UNL A   1      49.055  23.266  35.646  1.00  0.00    -0.237 OA
ATOM     84  O   UNL A   1      49.948  25.336  36.644  1.00  0.00    -0.744 OA
ENDBRANCH  80  81
ENDBRANCH  61  75
BRANCH  62  85
ATOM     85  C   UNL A   1      50.003  26.585  26.146  1.00  0.00    -0.014 A 
ATOM     86  C   UNL A   1      50.647  27.107  25.008  1.00  0.00     0.010 A 
ATOM     87  C   UNL A   1      50.690  25.591  26.877  1.00  0.00     0.010 A 
ATOM     88  C   UNL A   1      51.948  26.698  24.654  1.00  0.00     0.020 A 
ATOM     89  C   UNL A   1      51.980  25.174  26.527  1.00  0.00     0.020 A 
ATOM     90  C   UNL A   1      52.616  25.749  25.431  1.00  0.00     0.054 A 
BRANCH  90  91
ATOM     91  S   UNL A   1      54.361  25.363  25.090  1.00  0.00     0.124 S 
ATOM     92  O   UNL A   1      54.343  23.908  24.982  1.00  0.00    -0.237 OA
ATOM     93  O   UNL A   1      54.609  26.088  23.846  1.00  0.00    -0.237 OA
ATOM     94  O   UNL A   1      55.062  25.893  26.260  1.00  0.00    -0.744 OA
ENDBRANCH  90  91
ENDBRANCH  62  85
BRANCH  74  95
ATOM     95  C   UNL A   1      46.054  31.043  28.396  1.00  0.00    -0.014 A 
ATOM     96  C   UNL A   1      45.057  30.772  27.437  1.00  0.00     0.010 A 
ATOM     97  C   UNL A   1      46.540  32.360  28.496  1.00  0.00     0.010 A 
ATOM     98  C   UNL A   1      44.588  31.785  26.583  1.00  0.00     0.020 A 
ATOM     99  C   UNL A   1      46.062  33.375  27.666  1.00  0.00     0.020 A 
ATOM    100  C   UNL A   1      45.099  33.081  26.703  1.00  0.00     0.054 A 
BRANCH 100 101
ATOM    101  S   UNL A   1      44.482  34.393  25.612  1.00  0.00     0.124 S 
ATOM    102  O   UNL A   1      44.779  35.603  26.375  1.00  0.00    -0.237 OA
ATOM    103  O   UNL A   1      45.270  34.205  24.397  1.00  0.00    -0.237 OA
ATOM    104  O   UNL A   1      43.058  34.089  25.471  1.00  0.00    -0.744 OA
ENDBRANCH 100 101
ENDBRANCH  74  95
ENDBRANCH  48  49
ENDBRANCH  40  43
ENDBRANCH  38  39
ENDBRANCH  37  38
ENDBRANCH  36  37
ENDBRANCH  35  36
ENDBRANCH   1  35
TORSDOF 21
ENDMDL
