MODEL 1
REMARK VINA RESULT:     -12.4      0.000      0.000
REMARK SMILES COc1ccc2c(c1)c(Cc1nc(-c3ccc(C(=O)NCCCCCCNC(=O)c4ccc(-c5c6nc(c(-c7ccc(S(=O)(=O)[O-])cc7)c7ccc([nH]7)c(-c7ccc(S(=O)(=O)[O-])cc7)c7nc(c(-c8ccc(S(=O)(=O)[O-])cc8)c8ccc5[nH]8)C=C7)C=C6)cc4)cc3)cs1)c(C)n2C(=O)c1ccc(Cl)cc1
REMARK SMILES IDX 22 1 21 2 20 3 18 4 19 5 17 7 14 8 15 9 91 10 16 11 90 12
REMARK SMILES IDX 13 13 11 14 12 15 93 16 92 17 10 18 9 19 3 20 4 21 8 22 5 23
REMARK SMILES IDX 7 24 6 25 96 26 94 27 95 28 2 29 1 30 97 31 98 32 99 33
REMARK SMILES IDX 100 34 105 35 101 36 104 37 102 38 103 39 23 40 24 41 25 42
REMARK SMILES IDX 26 43 27 44 28 45 29 47 30 48 31 49 89 50 32 51 88 52 33 53
REMARK SMILES IDX 34 54 35 55 82 56 36 57 87 58 81 59 83 60 37 61 86 62 80 63
REMARK SMILES IDX 79 64 38 66 68 67 49 68 67 69 50 70 53 71 66 72 84 73 51 74
REMARK SMILES IDX 52 75 65 77 85 78 54 79 39 80 40 81 48 82 41 83 47 84 42 85
REMARK SMILES IDX 43 86 44 87 45 88 46 89 69 90 70 91 78 92 71 93 77 94 72 95
REMARK SMILES IDX 73 96 74 97 75 98 76 99 55 100 56 101 64 102 57 103 63 104
REMARK SMILES IDX 58 105 59 106 60 107 61 108 62 109
REMARK H PARENT 20 6 27 46 83 65 53 76
REMARK Flexibility Score: inf
ROOT
ATOM      1  C   UNL A   1      34.226  35.272  32.820  1.00  0.00     0.021 C 
ENDROOT
BRANCH   1   2
ATOM      2  C   UNL A   1      32.917  35.587  32.104  1.00  0.00     0.116 C 
BRANCH   2   3
ATOM      3  N   UNL A   1      33.044  36.602  31.072  1.00  0.00    -0.352 N 
ATOM      4  C   UNL A   1      33.312  36.502  29.727  1.00  0.00     0.251 C 
ATOM      5  O   UNL A   1      33.428  37.535  29.068  1.00  0.00    -0.269 OA
ATOM      6  H   UNL A   1      32.916  37.524  31.393  1.00  0.00     0.163 HD
BRANCH   4   7
ATOM      7  C   UNL A   1      33.551  35.193  29.059  1.00  0.00     0.039 A 
ATOM      8  C   UNL A   1      34.002  32.572  28.121  1.00  0.00     0.001 A 
ATOM      9  C   UNL A   1      34.987  33.236  28.860  1.00  0.00     0.011 A 
ATOM     10  C   UNL A   1      32.851  33.284  27.750  1.00  0.00     0.011 A 
ATOM     11  C   UNL A   1      34.758  34.533  29.332  1.00  0.00     0.014 A 
ATOM     12  C   UNL A   1      32.645  34.596  28.185  1.00  0.00     0.014 A 
BRANCH   8  13
ATOM     13  C   UNL A   1      34.134  31.178  27.717  1.00  0.00     0.081 A 
ATOM     14  C   UNL A   1      33.334  29.159  27.247  1.00  0.00     0.098 A 
ATOM     15  N   UNL A   1      33.024  30.362  27.678  1.00  0.00    -0.241 NA
ATOM     16  S   UNL A   1      35.010  28.901  26.982  1.00  0.00    -0.126 S 
ATOM     17  C   UNL A   1      35.319  30.535  27.418  1.00  0.00     0.095 A 
BRANCH  14  18
ATOM     18  C   UNL A   1      32.324  28.068  27.041  1.00  0.00     0.105 C 
BRANCH  18  19
ATOM     19  C   UNL A   1      32.309  27.542  25.626  1.00  0.00    -0.012 A 
ATOM     20  C   UNL A   1      30.109  29.563  23.230  1.00  0.00     0.119 A 
ATOM     21  C   UNL A   1      30.235  28.705  22.154  1.00  0.00     0.048 A 
ATOM     22  C   UNL A   1      30.759  29.252  24.423  1.00  0.00     0.057 A 
ATOM     23  C   UNL A   1      31.017  27.546  22.251  1.00  0.00     0.031 A 
ATOM     24  C   UNL A   1      31.579  28.105  24.541  1.00  0.00     0.008 A 
ATOM     25  C   UNL A   1      31.742  27.271  23.433  1.00  0.00     0.057 A 
ATOM     26  N   UNL A   1      32.663  26.261  23.779  1.00  0.00    -0.280 N 
ATOM     27  C   UNL A   1      32.960  26.413  25.146  1.00  0.00     0.028 A 
ATOM     28  C   UNL A   1      33.844  25.517  25.956  1.00  0.00     0.065 C 
BRANCH  20  29
ATOM     29  O   UNL A   1      29.407  30.736  23.244  1.00  0.00    -0.497 OA
ATOM     30  C   UNL A   1      28.807  31.124  22.012  1.00  0.00     0.278 C 
ENDBRANCH  20  29
BRANCH  26  31
ATOM     31  C   UNL A   1      33.176  25.263  22.898  1.00  0.00     0.262 C 
ATOM     32  O   UNL A   1      33.235  25.500  21.686  1.00  0.00    -0.268 OA
BRANCH  31  33
ATOM     33  C   UNL A   1      33.696  23.947  23.300  1.00  0.00     0.040 A 
ATOM     34  C   UNL A   1      32.837  22.859  23.500  1.00  0.00     0.015 A 
ATOM     35  C   UNL A   1      35.075  23.818  23.507  1.00  0.00     0.015 A 
ATOM     36  C   UNL A   1      33.359  21.661  23.996  1.00  0.00     0.021 A 
ATOM     37  C   UNL A   1      35.589  22.616  23.993  1.00  0.00     0.021 A 
ATOM     38  C   UNL A   1      34.727  21.550  24.253  1.00  0.00     0.041 A 
ATOM     39  Cl  UNL A   1      35.357  20.092  24.913  1.00  0.00    -0.084 Cl
ENDBRANCH  31  33
ENDBRANCH  26  31
ENDBRANCH  18  19
ENDBRANCH  14  18
ENDBRANCH   8  13
ENDBRANCH   4   7
ENDBRANCH   2   3
ENDBRANCH   1   2
BRANCH   1  40
ATOM     40  C   UNL A   1      34.667  33.808  32.820  1.00  0.00     0.002 C 
BRANCH  40  41
ATOM     41  C   UNL A   1      36.173  33.553  32.732  1.00  0.00     0.002 C 
BRANCH  41  42
ATOM     42  C   UNL A   1      37.083  34.784  32.811  1.00  0.00     0.021 C 
BRANCH  42  43
ATOM     43  C   UNL A   1      38.528  34.573  32.356  1.00  0.00     0.116 C 
BRANCH  43  44
ATOM     44  N   UNL A   1      38.755  33.355  31.608  1.00  0.00    -0.352 N 
ATOM     45  C   UNL A   1      39.730  32.918  30.754  1.00  0.00     0.251 C 
ATOM     46  H   UNL A   1      38.044  32.688  31.744  1.00  0.00     0.163 HD
ATOM     47  O   UNL A   1      39.681  31.723  30.447  1.00  0.00    -0.269 OA
BRANCH  45  48
ATOM     48  C   UNL A   1      40.777  33.777  30.133  1.00  0.00     0.039 A 
ATOM     49  C   UNL A   1      42.097  33.885  30.561  1.00  0.00     0.014 A 
ATOM     50  C   UNL A   1      40.351  34.596  29.068  1.00  0.00     0.014 A 
ATOM     51  C   UNL A   1      42.933  34.860  30.030  1.00  0.00     0.010 A 
ATOM     52  C   UNL A   1      41.192  35.558  28.513  1.00  0.00     0.010 A 
ATOM     53  C   UNL A   1      42.469  35.726  29.034  1.00  0.00    -0.014 A 
BRANCH  53  54
ATOM     54  C   UNL A   1      43.394  36.747  28.553  1.00  0.00     0.031 A 
ATOM     55  C   UNL A   1      44.753  36.265  28.173  1.00  0.00     0.074 A 
ATOM     56  C   UNL A   1      43.081  38.049  28.402  1.00  0.00     0.049 A 
ATOM     57  N   UNL A   1      45.882  36.551  28.732  1.00  0.00    -0.248 NA
ATOM     58  C   UNL A   1      44.849  35.268  27.099  1.00  0.00     0.031 C 
ATOM     59  C   UNL A   1      41.767  38.692  28.451  1.00  0.00     0.029 A 
ATOM     60  N   UNL A   1      43.914  39.075  28.069  1.00  0.00    -0.354 N 
ATOM     61  C   UNL A   1      46.864  35.889  27.997  1.00  0.00     0.074 A 
ATOM     62  C   UNL A   1      46.162  35.033  27.072  1.00  0.00     0.031 C 
ATOM     63  C   UNL A   1      41.863  39.935  27.923  1.00  0.00     0.029 A 
ATOM     64  C   UNL A   1      43.261  40.224  27.651  1.00  0.00     0.049 A 
ATOM     65  H   UNL A   1      44.894  39.006  28.121  1.00  0.00     0.167 HD
ATOM     66  C   UNL A   1      48.190  36.189  28.106  1.00  0.00     0.031 A 
ATOM     67  C   UNL A   1      43.831  41.297  27.047  1.00  0.00     0.031 A 
ATOM     68  C   UNL A   1      48.475  36.958  29.286  1.00  0.00     0.049 A 
ATOM     69  C   UNL A   1      45.272  41.292  27.410  1.00  0.00     0.074 A 
ATOM     70  C   UNL A   1      48.337  36.730  30.641  1.00  0.00     0.029 A 
ATOM     71  N   UNL A   1      48.651  38.315  29.150  1.00  0.00    -0.354 N 
ATOM     72  N   UNL A   1      45.714  41.503  28.618  1.00  0.00    -0.248 NA
ATOM     73  C   UNL A   1      46.206  40.636  26.507  1.00  0.00     0.031 C 
ATOM     74  C   UNL A   1      47.925  37.982  31.180  1.00  0.00     0.029 A 
ATOM     75  C   UNL A   1      47.902  38.908  30.134  1.00  0.00     0.049 A 
ATOM     76  H   UNL A   1      49.206  38.772  28.477  1.00  0.00     0.167 HD
ATOM     77  C   UNL A   1      46.795  40.644  28.755  1.00  0.00     0.074 A 
ATOM     78  C   UNL A   1      47.104  40.206  27.396  1.00  0.00     0.031 C 
ATOM     79  C   UNL A   1      47.172  40.151  29.972  1.00  0.00     0.031 A 
BRANCH  66  80
ATOM     80  C   UNL A   1      49.201  36.007  27.004  1.00  0.00    -0.014 A 
ATOM     81  C   UNL A   1      49.690  37.078  26.232  1.00  0.00     0.010 A 
ATOM     82  C   UNL A   1      49.872  34.771  26.878  1.00  0.00     0.010 A 
ATOM     83  C   UNL A   1      50.781  36.934  25.371  1.00  0.00     0.020 A 
ATOM     84  C   UNL A   1      50.997  34.628  26.052  1.00  0.00     0.020 A 
ATOM     85  C   UNL A   1      51.440  35.712  25.300  1.00  0.00     0.054 A 
BRANCH  85  86
ATOM     86  S   UNL A   1      52.930  35.604  24.277  1.00  0.00     0.124 S 
ATOM     87  O   UNL A   1      52.633  34.447  23.437  1.00  0.00    -0.237 OA
ATOM     88  O   UNL A   1      52.935  36.895  23.595  1.00  0.00    -0.237 OA
ATOM     89  O   UNL A   1      54.001  35.412  25.251  1.00  0.00    -0.744 OA
ENDBRANCH  85  86
ENDBRANCH  66  80
BRANCH  67  90
ATOM     90  C   UNL A   1      43.323  41.986  25.830  1.00  0.00    -0.014 A 
ATOM     91  C   UNL A   1      42.213  41.466  25.133  1.00  0.00     0.010 A 
ATOM     92  C   UNL A   1      44.112  42.954  25.178  1.00  0.00     0.010 A 
ATOM     93  C   UNL A   1      41.953  41.822  23.807  1.00  0.00     0.020 A 
ATOM     94  C   UNL A   1      43.861  43.312  23.843  1.00  0.00     0.020 A 
ATOM     95  C   UNL A   1      42.806  42.709  23.155  1.00  0.00     0.054 A 
BRANCH  95  96
ATOM     96  S   UNL A   1      42.573  42.967  21.373  1.00  0.00     0.124 S 
ATOM     97  O   UNL A   1      41.141  43.253  21.295  1.00  0.00    -0.237 OA
ATOM     98  O   UNL A   1      43.452  44.103  21.101  1.00  0.00    -0.237 OA
ATOM     99  O   UNL A   1      42.991  41.702  20.780  1.00  0.00    -0.744 OA
ENDBRANCH  95  96
ENDBRANCH  67  90
BRANCH  79 100
ATOM    100  C   UNL A   1      46.568  40.725  31.238  1.00  0.00    -0.014 A 
ATOM    101  C   UNL A   1      45.173  40.613  31.400  1.00  0.00     0.010 A 
ATOM    102  C   UNL A   1      47.278  41.552  32.129  1.00  0.00     0.010 A 
ATOM    103  C   UNL A   1      44.500  41.344  32.381  1.00  0.00     0.020 A 
ATOM    104  C   UNL A   1      46.612  42.267  33.138  1.00  0.00     0.020 A 
ATOM    105  C   UNL A   1      45.220  42.181  33.235  1.00  0.00     0.054 A 
BRANCH 105 106
ATOM    106  S   UNL A   1      44.297  43.180  34.433  1.00  0.00     0.124 S 
ATOM    107  O   UNL A   1      43.304  43.840  33.586  1.00  0.00    -0.237 OA
ATOM    108  O   UNL A   1      43.762  42.174  35.348  1.00  0.00    -0.237 OA
ATOM    109  O   UNL A   1      45.305  44.065  35.011  1.00  0.00    -0.744 OA
ENDBRANCH 105 106
ENDBRANCH  79 100
ENDBRANCH  53  54
ENDBRANCH  45  48
ENDBRANCH  43  44
ENDBRANCH  42  43
ENDBRANCH  41  42
ENDBRANCH  40  41
ENDBRANCH   1  40
TORSDOF 22
ENDMDL
MODEL 2
REMARK VINA RESULT:     -11.6      5.771     10.295
REMARK SMILES COc1ccc2c(c1)c(Cc1nc(-c3ccc(C(=O)NCCCCCCNC(=O)c4ccc(-c5c6nc(c(-c7ccc(S(=O)(=O)[O-])cc7)c7ccc([nH]7)c(-c7ccc(S(=O)(=O)[O-])cc7)c7nc(c(-c8ccc(S(=O)(=O)[O-])cc8)c8ccc5[nH]8)C=C7)C=C6)cc4)cc3)cs1)c(C)n2C(=O)c1ccc(Cl)cc1
REMARK SMILES IDX 22 1 21 2 20 3 18 4 19 5 17 7 14 8 15 9 91 10 16 11 90 12
REMARK SMILES IDX 13 13 11 14 12 15 93 16 92 17 10 18 9 19 3 20 4 21 8 22 5 23
REMARK SMILES IDX 7 24 6 25 96 26 94 27 95 28 2 29 1 30 97 31 98 32 99 33
REMARK SMILES IDX 100 34 105 35 101 36 104 37 102 38 103 39 23 40 24 41 25 42
REMARK SMILES IDX 26 43 27 44 28 45 29 47 30 48 31 49 89 50 32 51 88 52 33 53
REMARK SMILES IDX 34 54 35 55 82 56 36 57 87 58 81 59 83 60 37 61 86 62 80 63
REMARK SMILES IDX 79 64 38 66 68 67 49 68 67 69 50 70 53 71 66 72 84 73 51 74
REMARK SMILES IDX 52 75 65 77 85 78 54 79 39 80 40 81 48 82 41 83 47 84 42 85
REMARK SMILES IDX 43 86 44 87 45 88 46 89 69 90 70 91 78 92 71 93 77 94 72 95
REMARK SMILES IDX 73 96 74 97 75 98 76 99 55 100 56 101 64 102 57 103 63 104
REMARK SMILES IDX 58 105 59 106 60 107 61 108 62 109
REMARK H PARENT 20 6 27 46 83 65 53 76
REMARK Flexibility Score: inf
ROOT
ATOM      1  C   UNL A   1      43.679  26.773  31.318  1.00  0.00     0.021 C 
ENDROOT
BRANCH   1   2
ATOM      2  C   UNL A   1      42.353  27.483  31.063  1.00  0.00     0.116 C 
BRANCH   2   3
ATOM      3  N   UNL A   1      42.350  28.303  29.864  1.00  0.00    -0.352 N 
ATOM      4  C   UNL A   1      41.892  28.050  28.592  1.00  0.00     0.251 C 
ATOM      5  O   UNL A   1      42.062  28.904  27.722  1.00  0.00    -0.269 OA
ATOM      6  H   UNL A   1      42.747  29.196  29.983  1.00  0.00     0.163 HD
BRANCH   4   7
ATOM      7  C   UNL A   1      41.275  26.750  28.213  1.00  0.00     0.039 A 
ATOM      8  C   UNL A   1      39.977  24.456  27.210  1.00  0.00     0.001 A 
ATOM      9  C   UNL A   1      39.229  25.538  27.684  1.00  0.00     0.011 A 
ATOM     10  C   UNL A   1      41.371  24.486  27.367  1.00  0.00     0.011 A 
ATOM     11  C   UNL A   1      39.875  26.679  28.174  1.00  0.00     0.014 A 
ATOM     12  C   UNL A   1      42.011  25.609  27.898  1.00  0.00     0.014 A 
BRANCH   8  13
ATOM     13  C   UNL A   1      39.361  23.299  26.572  1.00  0.00     0.081 A 
ATOM     14  C   UNL A   1      37.940  22.323  25.171  1.00  0.00     0.098 A 
ATOM     15  N   UNL A   1      38.331  23.473  25.673  1.00  0.00    -0.241 NA
ATOM     16  S   UNL A   1      38.707  20.945  25.849  1.00  0.00    -0.126 S 
ATOM     17  C   UNL A   1      39.667  21.978  26.833  1.00  0.00     0.095 A 
BRANCH  14  18
ATOM     18  C   UNL A   1      36.874  22.198  24.122  1.00  0.00     0.105 C 
BRANCH  18  19
ATOM     19  C   UNL A   1      35.493  22.022  24.707  1.00  0.00    -0.012 A 
ATOM     20  C   UNL A   1      34.227  18.408  24.676  1.00  0.00     0.119 A 
ATOM     21  C   UNL A   1      32.949  18.695  25.115  1.00  0.00     0.048 A 
ATOM     22  C   UNL A   1      35.135  19.453  24.508  1.00  0.00     0.057 A 
ATOM     23  C   UNL A   1      32.570  20.014  25.403  1.00  0.00     0.031 A 
ATOM     24  C   UNL A   1      34.791  20.789  24.819  1.00  0.00     0.008 A 
ATOM     25  C   UNL A   1      33.513  21.063  25.311  1.00  0.00     0.057 A 
ATOM     26  N   UNL A   1      33.451  22.437  25.622  1.00  0.00    -0.280 N 
ATOM     27  C   UNL A   1      34.658  23.020  25.196  1.00  0.00     0.028 A 
ATOM     28  C   UNL A   1      35.002  24.476  25.265  1.00  0.00     0.065 C 
BRANCH  20  29
ATOM     29  O   UNL A   1      34.721  17.164  24.399  1.00  0.00    -0.497 OA
ATOM     30  C   UNL A   1      34.398  16.138  25.333  1.00  0.00     0.278 C 
ENDBRANCH  20  29
BRANCH  26  31
ATOM     31  C   UNL A   1      32.351  23.103  26.240  1.00  0.00     0.262 C 
ATOM     32  O   UNL A   1      32.148  22.942  27.449  1.00  0.00    -0.268 OA
BRANCH  31  33
ATOM     33  C   UNL A   1      31.420  24.026  25.572  1.00  0.00     0.040 A 
ATOM     34  C   UNL A   1      31.166  23.930  24.198  1.00  0.00     0.015 A 
ATOM     35  C   UNL A   1      30.814  25.025  26.344  1.00  0.00     0.015 A 
ATOM     36  C   UNL A   1      30.369  24.899  23.583  1.00  0.00     0.021 A 
ATOM     37  C   UNL A   1      30.013  25.983  25.724  1.00  0.00     0.021 A 
ATOM     38  C   UNL A   1      29.809  25.927  24.345  1.00  0.00     0.041 A 
ATOM     39  Cl  UNL A   1      28.872  27.147  23.576  1.00  0.00    -0.084 Cl
ENDBRANCH  31  33
ENDBRANCH  26  31
ENDBRANCH  18  19
ENDBRANCH  14  18
ENDBRANCH   8  13
ENDBRANCH   4   7
ENDBRANCH   2   3
ENDBRANCH   1   2
BRANCH   1  40
ATOM     40  C   UNL A   1      44.465  27.220  32.550  1.00  0.00     0.002 C 
BRANCH  40  41
ATOM     41  C   UNL A   1      45.377  26.173  33.191  1.00  0.00     0.002 C 
BRANCH  41  42
ATOM     42  C   UNL A   1      45.006  24.705  32.956  1.00  0.00     0.021 C 
BRANCH  42  43
ATOM     43  C   UNL A   1      43.884  24.153  33.837  1.00  0.00     0.116 C 
BRANCH  43  44
ATOM     44  N   UNL A   1      44.061  24.380  35.255  1.00  0.00    -0.352 N 
ATOM     45  C   UNL A   1      43.570  25.289  36.153  1.00  0.00     0.251 C 
ATOM     46  H   UNL A   1      44.675  23.733  35.669  1.00  0.00     0.163 HD
ATOM     47  O   UNL A   1      43.805  25.052  37.341  1.00  0.00    -0.269 OA
BRANCH  45  48
ATOM     48  C   UNL A   1      42.852  26.545  35.799  1.00  0.00     0.039 A 
ATOM     49  C   UNL A   1      41.810  26.653  34.882  1.00  0.00     0.014 A 
ATOM     50  C   UNL A   1      43.336  27.724  36.402  1.00  0.00     0.014 A 
ATOM     51  C   UNL A   1      41.345  27.902  34.487  1.00  0.00     0.010 A 
ATOM     52  C   UNL A   1      42.855  28.978  36.029  1.00  0.00     0.010 A 
ATOM     53  C   UNL A   1      41.896  29.067  35.029  1.00  0.00    -0.014 A 
BRANCH  53  54
ATOM     54  C   UNL A   1      41.381  30.342  34.536  1.00  0.00     0.031 A 
ATOM     55  C   UNL A   1      42.390  31.263  33.940  1.00  0.00     0.074 A 
ATOM     56  C   UNL A   1      40.081  30.697  34.556  1.00  0.00     0.049 A 
ATOM     57  N   UNL A   1      42.764  32.421  34.376  1.00  0.00    -0.248 NA
ATOM     58  C   UNL A   1      43.141  30.790  32.770  1.00  0.00     0.031 C 
ATOM     59  C   UNL A   1      38.905  29.873  34.836  1.00  0.00     0.029 A 
ATOM     60  N   UNL A   1      39.540  31.903  34.223  1.00  0.00    -0.354 N 
ATOM     61  C   UNL A   1      43.697  32.904  33.460  1.00  0.00     0.074 A 
ATOM     62  C   UNL A   1      43.966  31.816  32.552  1.00  0.00     0.031 C 
ATOM     63  C   UNL A   1      37.795  30.531  34.426  1.00  0.00     0.029 A 
ATOM     64  C   UNL A   1      38.171  31.871  34.007  1.00  0.00     0.049 A 
ATOM     65  H   UNL A   1      40.075  32.725  34.142  1.00  0.00     0.167 HD
ATOM     66  C   UNL A   1      44.085  34.210  33.428  1.00  0.00     0.031 A 
ATOM     67  C   UNL A   1      37.424  32.854  33.445  1.00  0.00     0.031 A 
ATOM     68  C   UNL A   1      43.730  34.910  34.632  1.00  0.00     0.049 A 
ATOM     69  C   UNL A   1      38.170  34.127  33.618  1.00  0.00     0.074 A 
ATOM     70  C   UNL A   1      44.063  34.764  35.964  1.00  0.00     0.029 A 
ATOM     71  N   UNL A   1      42.618  35.719  34.610  1.00  0.00    -0.354 N 
ATOM     72  N   UNL A   1      38.377  34.691  34.775  1.00  0.00    -0.248 NA
ATOM     73  C   UNL A   1      39.049  34.562  32.543  1.00  0.00     0.031 C 
ATOM     74  C   UNL A   1      42.863  35.053  36.673  1.00  0.00     0.029 A 
ATOM     75  C   UNL A   1      41.893  35.420  35.735  1.00  0.00     0.049 A 
ATOM     76  H   UNL A   1      42.387  36.382  33.920  1.00  0.00     0.167 HD
ATOM     77  C   UNL A   1      39.657  35.220  34.687  1.00  0.00     0.074 A 
ATOM     78  C   UNL A   1      39.982  35.188  33.263  1.00  0.00     0.031 C 
ATOM     79  C   UNL A   1      40.445  35.383  35.791  1.00  0.00     0.031 A 
BRANCH  66  80
ATOM     80  C   UNL A   1      44.561  34.931  32.193  1.00  0.00    -0.014 A 
ATOM     81  C   UNL A   1      43.731  35.171  31.081  1.00  0.00     0.010 A 
ATOM     82  C   UNL A   1      45.801  35.605  32.221  1.00  0.00     0.010 A 
ATOM     83  C   UNL A   1      44.111  36.026  30.044  1.00  0.00     0.020 A 
ATOM     84  C   UNL A   1      46.173  36.501  31.208  1.00  0.00     0.020 A 
ATOM     85  C   UNL A   1      45.324  36.701  30.122  1.00  0.00     0.054 A 
BRANCH  85  86
ATOM     86  S   UNL A   1      45.718  37.902  28.826  1.00  0.00     0.124 S 
ATOM     87  O   UNL A   1      47.177  37.842  28.796  1.00  0.00    -0.237 OA
ATOM     88  O   UNL A   1      45.039  37.339  27.662  1.00  0.00    -0.237 OA
ATOM     89  O   UNL A   1      45.153  39.150  29.331  1.00  0.00    -0.744 OA
ENDBRANCH  85  86
ENDBRANCH  66  80
BRANCH  67  90
ATOM     90  C   UNL A   1      36.404  32.672  32.377  1.00  0.00    -0.014 A 
ATOM     91  C   UNL A   1      36.625  31.746  31.336  1.00  0.00     0.010 A 
ATOM     92  C   UNL A   1      35.378  33.622  32.202  1.00  0.00     0.010 A 
ATOM     93  C   UNL A   1      35.920  31.822  30.132  1.00  0.00     0.020 A 
ATOM     94  C   UNL A   1      34.670  33.708  30.992  1.00  0.00     0.020 A 
ATOM     95  C   UNL A   1      34.978  32.832  29.950  1.00  0.00     0.054 A 
BRANCH  95  96
ATOM     96  S   UNL A   1      34.255  33.038  28.298  1.00  0.00     0.124 S 
ATOM     97  O   UNL A   1      33.875  31.668  27.962  1.00  0.00    -0.237 OA
ATOM     98  O   UNL A   1      33.141  33.950  28.554  1.00  0.00    -0.237 OA
ATOM     99  O   UNL A   1      35.345  33.598  27.508  1.00  0.00    -0.744 OA
ENDBRANCH  95  96
ENDBRANCH  67  90
BRANCH  79 100
ATOM    100  C   UNL A   1      39.847  35.219  37.175  1.00  0.00    -0.014 A 
ATOM    101  C   UNL A   1      39.684  36.382  37.952  1.00  0.00     0.010 A 
ATOM    102  C   UNL A   1      39.671  33.970  37.800  1.00  0.00     0.010 A 
ATOM    103  C   UNL A   1      39.408  36.304  39.319  1.00  0.00     0.020 A 
ATOM    104  C   UNL A   1      39.363  33.884  39.168  1.00  0.00     0.020 A 
ATOM    105  C   UNL A   1      39.266  35.054  39.924  1.00  0.00     0.054 A 
BRANCH 105 106
ATOM    106  S   UNL A   1      38.999  34.997  41.717  1.00  0.00     0.124 S 
ATOM    107  O   UNL A   1      39.921  36.025  42.199  1.00  0.00    -0.237 OA
ATOM    108  O   UNL A   1      37.581  35.326  41.843  1.00  0.00    -0.237 OA
ATOM    109  O   UNL A   1      39.350  33.628  42.085  1.00  0.00    -0.744 OA
ENDBRANCH 105 106
ENDBRANCH  79 100
ENDBRANCH  53  54
ENDBRANCH  45  48
ENDBRANCH  43  44
ENDBRANCH  42  43
ENDBRANCH  41  42
ENDBRANCH  40  41
ENDBRANCH   1  40
TORSDOF 22
ENDMDL
MODEL 3
REMARK VINA RESULT:     -11.6      5.058     10.564
REMARK SMILES COc1ccc2c(c1)c(Cc1nc(-c3ccc(C(=O)NCCCCCCNC(=O)c4ccc(-c5c6nc(c(-c7ccc(S(=O)(=O)[O-])cc7)c7ccc([nH]7)c(-c7ccc(S(=O)(=O)[O-])cc7)c7nc(c(-c8ccc(S(=O)(=O)[O-])cc8)c8ccc5[nH]8)C=C7)C=C6)cc4)cc3)cs1)c(C)n2C(=O)c1ccc(Cl)cc1
REMARK SMILES IDX 22 1 21 2 20 3 18 4 19 5 17 7 14 8 15 9 91 10 16 11 90 12
REMARK SMILES IDX 13 13 11 14 12 15 93 16 92 17 10 18 9 19 3 20 4 21 8 22 5 23
REMARK SMILES IDX 7 24 6 25 96 26 94 27 95 28 2 29 1 30 97 31 98 32 99 33
REMARK SMILES IDX 100 34 105 35 101 36 104 37 102 38 103 39 23 40 24 41 25 42
REMARK SMILES IDX 26 43 27 44 28 45 29 47 30 48 31 49 89 50 32 51 88 52 33 53
REMARK SMILES IDX 34 54 35 55 82 56 36 57 87 58 81 59 83 60 37 61 86 62 80 63
REMARK SMILES IDX 79 64 38 66 68 67 49 68 67 69 50 70 53 71 66 72 84 73 51 74
REMARK SMILES IDX 52 75 65 77 85 78 54 79 39 80 40 81 48 82 41 83 47 84 42 85
REMARK SMILES IDX 43 86 44 87 45 88 46 89 69 90 70 91 78 92 71 93 77 94 72 95
REMARK SMILES IDX 73 96 74 97 75 98 76 99 55 100 56 101 64 102 57 103 63 104
REMARK SMILES IDX 58 105 59 106 60 107 61 108 62 109
REMARK H PARENT 20 6 27 46 83 65 53 76
REMARK Flexibility Score: inf
ROOT
ATOM      1  C   UNL A   1      40.464  22.540  27.728  1.00  0.00     0.021 C 
ENDROOT
BRANCH   1   2
ATOM      2  C   UNL A   1      39.795  22.244  26.389  1.00  0.00     0.116 C 
BRANCH   2   3
ATOM      3  N   UNL A   1      39.691  20.826  26.088  1.00  0.00    -0.352 N 
ATOM      4  C   UNL A   1      38.714  20.103  25.445  1.00  0.00     0.251 C 
ATOM      5  O   UNL A   1      38.836  18.881  25.368  1.00  0.00    -0.269 OA
ATOM      6  H   UNL A   1      40.454  20.288  26.401  1.00  0.00     0.163 HD
BRANCH   4   7
ATOM      7  C   UNL A   1      37.476  20.737  24.915  1.00  0.00     0.039 A 
ATOM      8  C   UNL A   1      35.012  21.934  24.245  1.00  0.00     0.001 A 
ATOM      9  C   UNL A   1      35.054  20.606  24.683  1.00  0.00     0.011 A 
ATOM     10  C   UNL A   1      36.224  22.605  24.024  1.00  0.00     0.011 A 
ATOM     11  C   UNL A   1      36.277  20.016  25.021  1.00  0.00     0.014 A 
ATOM     12  C   UNL A   1      37.447  21.998  24.322  1.00  0.00     0.014 A 
BRANCH   8  13
ATOM     13  C   UNL A   1      33.758  22.638  24.003  1.00  0.00     0.081 A 
ATOM     14  C   UNL A   1      32.548  24.348  23.265  1.00  0.00     0.098 A 
ATOM     15  N   UNL A   1      33.770  23.899  23.449  1.00  0.00    -0.241 NA
ATOM     16  S   UNL A   1      31.308  23.325  23.869  1.00  0.00    -0.126 S 
ATOM     17  C   UNL A   1      32.501  22.182  24.348  1.00  0.00     0.095 A 
BRANCH  14  18
ATOM     18  C   UNL A   1      32.240  25.670  22.624  1.00  0.00     0.105 C 
BRANCH  18  19
ATOM     19  C   UNL A   1      31.979  26.764  23.632  1.00  0.00    -0.012 A 
ATOM     20  C   UNL A   1      29.711  29.569  22.346  1.00  0.00     0.119 A 
ATOM     21  C   UNL A   1      29.855  30.392  23.446  1.00  0.00     0.048 A 
ATOM     22  C   UNL A   1      30.385  28.348  22.321  1.00  0.00     0.057 A 
ATOM     23  C   UNL A   1      30.652  30.003  24.532  1.00  0.00     0.031 A 
ATOM     24  C   UNL A   1      31.172  27.916  23.414  1.00  0.00     0.008 A 
ATOM     25  C   UNL A   1      31.270  28.731  24.544  1.00  0.00     0.057 A 
ATOM     26  N   UNL A   1      32.030  28.045  25.512  1.00  0.00    -0.280 N 
ATOM     27  C   UNL A   1      32.501  26.860  24.916  1.00  0.00     0.028 A 
ATOM     28  C   UNL A   1      33.407  25.855  25.557  1.00  0.00     0.065 C 
BRANCH  20  29
ATOM     29  O   UNL A   1      28.936  29.822  21.249  1.00  0.00    -0.497 OA
ATOM     30  C   UNL A   1      27.772  30.612  21.472  1.00  0.00     0.278 C 
ENDBRANCH  20  29
BRANCH  26  31
ATOM     31  C   UNL A   1      32.283  28.490  26.844  1.00  0.00     0.262 C 
ATOM     32  O   UNL A   1      31.572  28.073  27.765  1.00  0.00    -0.268 OA
BRANCH  31  33
ATOM     33  C   UNL A   1      33.363  29.399  27.256  1.00  0.00     0.040 A 
ATOM     34  C   UNL A   1      33.141  30.776  27.389  1.00  0.00     0.015 A 
ATOM     35  C   UNL A   1      34.633  28.854  27.484  1.00  0.00     0.015 A 
ATOM     36  C   UNL A   1      34.222  31.617  27.665  1.00  0.00     0.021 A 
ATOM     37  C   UNL A   1      35.704  29.700  27.769  1.00  0.00     0.021 A 
ATOM     38  C   UNL A   1      35.498  31.078  27.840  1.00  0.00     0.041 A 
ATOM     39  Cl  UNL A   1      36.835  32.121  28.128  1.00  0.00    -0.084 Cl
ENDBRANCH  31  33
ENDBRANCH  26  31
ENDBRANCH  18  19
ENDBRANCH  14  18
ENDBRANCH   8  13
ENDBRANCH   4   7
ENDBRANCH   2   3
ENDBRANCH   1   2
BRANCH   1  40
ATOM     40  C   UNL A   1      41.907  22.063  27.887  1.00  0.00     0.002 C 
BRANCH  40  41
ATOM     41  C   UNL A   1      42.770  22.078  26.624  1.00  0.00     0.002 C 
BRANCH  41  42
ATOM     42  C   UNL A   1      43.982  23.016  26.633  1.00  0.00     0.021 C 
BRANCH  42  43
ATOM     43  C   UNL A   1      43.798  24.347  25.903  1.00  0.00     0.116 C 
BRANCH  43  44
ATOM     44  N   UNL A   1      42.434  24.644  25.520  1.00  0.00    -0.352 N 
ATOM     45  C   UNL A   1      41.587  25.700  25.719  1.00  0.00     0.251 C 
ATOM     46  H   UNL A   1      42.021  23.920  24.997  1.00  0.00     0.163 HD
ATOM     47  O   UNL A   1      40.537  25.677  25.070  1.00  0.00    -0.269 OA
BRANCH  45  48
ATOM     48  C   UNL A   1      41.808  26.808  26.689  1.00  0.00     0.039 A 
ATOM     49  C   UNL A   1      42.122  26.656  28.037  1.00  0.00     0.014 A 
ATOM     50  C   UNL A   1      41.604  28.112  26.194  1.00  0.00     0.014 A 
ATOM     51  C   UNL A   1      42.115  27.753  28.891  1.00  0.00     0.010 A 
ATOM     52  C   UNL A   1      41.621  29.219  27.040  1.00  0.00     0.010 A 
ATOM     53  C   UNL A   1      41.823  29.030  28.402  1.00  0.00    -0.014 A 
BRANCH  53  54
ATOM     54  C   UNL A   1      41.799  30.125  29.366  1.00  0.00     0.031 A 
ATOM     55  C   UNL A   1      43.006  31.000  29.386  1.00  0.00     0.074 A 
ATOM     56  C   UNL A   1      40.762  30.400  30.182  1.00  0.00     0.049 A 
ATOM     57  N   UNL A   1      43.861  31.152  30.343  1.00  0.00    -0.248 NA
ATOM     58  C   UNL A   1      43.351  31.718  28.152  1.00  0.00     0.031 C 
ATOM     59  C   UNL A   1      39.401  29.863  30.153  1.00  0.00     0.029 A 
ATOM     60  N   UNL A   1      40.707  31.327  31.180  1.00  0.00    -0.354 N 
ATOM     61  C   UNL A   1      44.784  32.097  29.899  1.00  0.00     0.074 A 
ATOM     62  C   UNL A   1      44.481  32.331  28.509  1.00  0.00     0.031 C 
ATOM     63  C   UNL A   1      38.601  30.642  30.921  1.00  0.00     0.029 A 
ATOM     64  C   UNL A   1      39.422  31.624  31.609  1.00  0.00     0.049 A 
ATOM     65  H   UNL A   1      41.509  31.748  31.562  1.00  0.00     0.167 HD
ATOM     66  C   UNL A   1      45.653  32.726  30.742  1.00  0.00     0.031 A 
ATOM     67  C   UNL A   1      39.062  32.660  32.408  1.00  0.00     0.031 A 
ATOM     68  C   UNL A   1      45.761  32.054  32.007  1.00  0.00     0.049 A 
ATOM     69  C   UNL A   1      40.268  33.061  33.177  1.00  0.00     0.074 A 
ATOM     70  C   UNL A   1      46.176  30.796  32.397  1.00  0.00     0.029 A 
ATOM     71  N   UNL A   1      45.070  32.569  33.078  1.00  0.00    -0.354 N 
ATOM     72  N   UNL A   1      40.828  32.313  34.086  1.00  0.00    -0.248 NA
ATOM     73  C   UNL A   1      41.103  34.126  32.642  1.00  0.00     0.031 C 
ATOM     74  C   UNL A   1      45.290  30.431  33.450  1.00  0.00     0.029 A 
ATOM     75  C   UNL A   1      44.435  31.513  33.680  1.00  0.00     0.049 A 
ATOM     76  H   UNL A   1      45.035  33.513  33.358  1.00  0.00     0.167 HD
ATOM     77  C   UNL A   1      42.190  32.529  33.933  1.00  0.00     0.074 A 
ATOM     78  C   UNL A   1      42.292  33.721  33.094  1.00  0.00     0.031 C 
ATOM     79  C   UNL A   1      43.112  31.578  34.269  1.00  0.00     0.031 A 
BRANCH  66  80
ATOM     80  C   UNL A   1      46.214  34.107  30.517  1.00  0.00    -0.014 A 
ATOM     81  C   UNL A   1      47.596  34.374  30.489  1.00  0.00     0.010 A 
ATOM     82  C   UNL A   1      45.355  35.139  30.081  1.00  0.00     0.010 A 
ATOM     83  C   UNL A   1      48.104  35.604  30.062  1.00  0.00     0.020 A 
ATOM     84  C   UNL A   1      45.857  36.361  29.607  1.00  0.00     0.020 A 
ATOM     85  C   UNL A   1      47.231  36.585  29.607  1.00  0.00     0.054 A 
BRANCH  85  86
ATOM     86  S   UNL A   1      47.936  38.111  28.936  1.00  0.00     0.124 S 
ATOM     87  O   UNL A   1      47.435  39.111  29.875  1.00  0.00    -0.237 OA
ATOM     88  O   UNL A   1      49.371  37.847  29.001  1.00  0.00    -0.237 OA
ATOM     89  O   UNL A   1      47.379  38.184  27.588  1.00  0.00    -0.744 OA
ENDBRANCH  85  86
ENDBRANCH  66  80
BRANCH  67  90
ATOM     90  C   UNL A   1      37.927  33.592  32.170  1.00  0.00    -0.014 A 
ATOM     91  C   UNL A   1      37.360  34.307  33.245  1.00  0.00     0.010 A 
ATOM     92  C   UNL A   1      37.202  33.536  30.964  1.00  0.00     0.010 A 
ATOM     93  C   UNL A   1      36.081  34.864  33.155  1.00  0.00     0.020 A 
ATOM     94  C   UNL A   1      35.914  34.088  30.868  1.00  0.00     0.020 A 
ATOM     95  C   UNL A   1      35.347  34.711  31.982  1.00  0.00     0.054 A 
BRANCH  95  96
ATOM     96  S   UNL A   1      33.611  35.242  31.984  1.00  0.00     0.124 S 
ATOM     97  O   UNL A   1      33.220  35.000  30.597  1.00  0.00    -0.237 OA
ATOM     98  O   UNL A   1      33.009  34.345  32.969  1.00  0.00    -0.237 OA
ATOM     99  O   UNL A   1      33.676  36.644  32.381  1.00  0.00    -0.744 OA
ENDBRANCH  95  96
ENDBRANCH  67  90
BRANCH  79 100
ATOM    100  C   UNL A   1      42.680  30.351  35.048  1.00  0.00    -0.014 A 
ATOM    101  C   UNL A   1      43.405  30.036  36.213  1.00  0.00     0.010 A 
ATOM    102  C   UNL A   1      41.767  29.400  34.552  1.00  0.00     0.010 A 
ATOM    103  C   UNL A   1      43.265  28.793  36.835  1.00  0.00     0.020 A 
ATOM    104  C   UNL A   1      41.600  28.160  35.189  1.00  0.00     0.020 A 
ATOM    105  C   UNL A   1      42.377  27.853  36.310  1.00  0.00     0.054 A 
BRANCH 105 106
ATOM    106  S   UNL A   1      42.296  26.221  37.094  1.00  0.00     0.124 S 
ATOM    107  O   UNL A   1      42.920  25.363  36.087  1.00  0.00    -0.237 OA
ATOM    108  O   UNL A   1      43.073  26.411  38.317  1.00  0.00    -0.237 OA
ATOM    109  O   UNL A   1      40.867  25.996  37.299  1.00  0.00    -0.744 OA
ENDBRANCH 105 106
ENDBRANCH  79 100
ENDBRANCH  53  54
ENDBRANCH  45  48
ENDBRANCH  43  44
ENDBRANCH  42  43
ENDBRANCH  41  42
ENDBRANCH  40  41
ENDBRANCH   1  40
TORSDOF 22
ENDMDL
