MODEL 1
REMARK VINA RESULT:     -11.7      0.000      0.000
REMARK SMILES CC(=O)Nc1cccc(-c2ccc(F)c(C(=O)NCCCCCCNC(=O)c3ccc(-c4c5nc(c(-c6ccc(S(=O)(=O)[O-])cc6)c6ccc([nH]6)c(-c6ccc(S(=O)(=O)[O-])cc6)c6nc(c(-c7ccc(S(=O)(=O)[O-])cc7)c7ccc4[nH]7)C=C6)C=C5)cc3)c2)c1
REMARK SMILES IDX 22 1 21 2 20 3 19 4 18 5 16 6 17 7 15 9 10 10 11 11 88 12
REMARK SMILES IDX 12 13 13 14 14 15 9 16 5 17 6 18 89 19 7 20 8 21 4 22 1 23
REMARK SMILES IDX 2 24 3 25 23 27 24 28 25 29 26 30 27 32 28 33 29 34 87 35
REMARK SMILES IDX 30 36 86 37 31 38 32 39 33 40 80 41 34 42 85 43 79 44 81 45
REMARK SMILES IDX 35 46 84 47 78 48 77 49 36 51 66 52 47 53 65 54 48 55 51 56
REMARK SMILES IDX 64 57 82 58 49 59 50 60 63 62 83 63 52 64 37 65 38 66 46 67
REMARK SMILES IDX 39 68 45 69 40 70 41 71 42 72 43 73 44 74 67 75 68 76 76 77
REMARK SMILES IDX 69 78 75 79 70 80 71 81 72 82 73 83 74 84 53 85 54 86 62 87
REMARK SMILES IDX 55 88 61 89 56 90 57 91 58 92 59 93 60 94
REMARK H PARENT 18 8 4 26 25 31 81 50 51 61
REMARK Flexibility Score: inf
ROOT
ATOM      1  C   UNL A   1      34.793  23.295  25.220  1.00  0.00     0.002 C 
ENDROOT
BRANCH   1   2
ATOM      2  C   UNL A   1      34.711  21.778  25.403  1.00  0.00     0.002 C 
BRANCH   2   3
ATOM      3  C   UNL A   1      33.884  21.278  26.585  1.00  0.00     0.021 C 
BRANCH   3   4
ATOM      4  C   UNL A   1      33.489  22.314  27.631  1.00  0.00     0.116 C 
BRANCH   4   5
ATOM      5  N   UNL A   1      32.058  22.419  27.876  1.00  0.00    -0.352 N 
ATOM      6  C   UNL A   1      31.032  22.997  27.151  1.00  0.00     0.254 C 
ATOM      7  O   UNL A   1      29.890  22.892  27.593  1.00  0.00    -0.269 OA
ATOM      8  H   UNL A   1      31.765  21.998  28.716  1.00  0.00     0.163 HD
BRANCH   6   9
ATOM      9  C   UNL A   1      31.271  23.756  25.892  1.00  0.00     0.076 A 
ATOM     10  C   UNL A   1      31.349  25.893  24.692  1.00  0.00    -0.017 A 
ATOM     11  C   UNL A   1      31.392  25.196  23.479  1.00  0.00     0.012 A 
ATOM     12  C   UNL A   1      31.409  25.145  25.883  1.00  0.00     0.025 A 
ATOM     13  C   UNL A   1      31.420  23.798  23.470  1.00  0.00     0.041 A 
ATOM     14  C   UNL A   1      31.322  23.088  24.669  1.00  0.00     0.135 A 
ATOM     15  F   UNL A   1      31.245  21.752  24.594  1.00  0.00    -0.206 F 
BRANCH  10  16
ATOM     16  C   UNL A   1      31.092  27.346  24.774  1.00  0.00    -0.016 A 
ATOM     17  C   UNL A   1      30.360  29.413  23.679  1.00  0.00     0.041 A 
ATOM     18  C   UNL A   1      31.004  30.157  24.670  1.00  0.00     0.026 A 
ATOM     19  C   UNL A   1      30.414  28.018  23.741  1.00  0.00     0.034 A 
ATOM     20  C   UNL A   1      31.639  29.516  25.733  1.00  0.00     0.003 A 
ATOM     21  C   UNL A   1      31.681  28.122  25.785  1.00  0.00     0.009 A 
BRANCH  17  22
ATOM     22  N   UNL A   1      29.786  30.116  22.609  1.00  0.00    -0.326 N 
ATOM     23  C   UNL A   1      27.403  29.396  22.765  1.00  0.00     0.114 C 
ATOM     24  C   UNL A   1      28.547  30.049  22.039  1.00  0.00     0.221 C 
ATOM     25  O   UNL A   1      28.372  30.575  20.939  1.00  0.00    -0.275 OA
ATOM     26  H   UNL A   1      30.385  30.778  22.194  1.00  0.00     0.169 HD
ENDBRANCH  17  22
ENDBRANCH  10  16
ENDBRANCH   6   9
ENDBRANCH   4   5
ENDBRANCH   3   4
ENDBRANCH   2   3
ENDBRANCH   1   2
BRANCH   1  27
ATOM     27  C   UNL A   1      36.079  23.972  25.699  1.00  0.00     0.021 C 
BRANCH  27  28
ATOM     28  C   UNL A   1      37.331  23.678  24.878  1.00  0.00     0.116 C 
BRANCH  28  29
ATOM     29  N   UNL A   1      38.179  22.670  25.491  1.00  0.00    -0.352 N 
ATOM     30  C   UNL A   1      39.243  22.821  26.347  1.00  0.00     0.251 C 
ATOM     31  H   UNL A   1      37.958  21.738  25.258  1.00  0.00     0.163 HD
ATOM     32  O   UNL A   1      39.942  21.853  26.627  1.00  0.00    -0.269 OA
BRANCH  30  33
ATOM     33  C   UNL A   1      39.558  24.152  26.915  1.00  0.00     0.039 A 
ATOM     34  C   UNL A   1      39.114  24.456  28.204  1.00  0.00     0.014 A 
ATOM     35  C   UNL A   1      40.274  25.101  26.179  1.00  0.00     0.014 A 
ATOM     36  C   UNL A   1      39.437  25.690  28.776  1.00  0.00     0.010 A 
ATOM     37  C   UNL A   1      40.660  26.298  26.778  1.00  0.00     0.010 A 
ATOM     38  C   UNL A   1      40.240  26.609  28.081  1.00  0.00    -0.014 A 
BRANCH  38  39
ATOM     39  C   UNL A   1      40.656  27.892  28.705  1.00  0.00     0.031 A 
ATOM     40  C   UNL A   1      42.031  28.044  29.296  1.00  0.00     0.074 A 
ATOM     41  C   UNL A   1      39.770  28.903  28.800  1.00  0.00     0.049 A 
ATOM     42  N   UNL A   1      42.556  29.073  29.911  1.00  0.00    -0.248 NA
ATOM     43  C   UNL A   1      42.922  26.875  29.212  1.00  0.00     0.031 C 
ATOM     44  C   UNL A   1      38.388  28.862  28.314  1.00  0.00     0.029 A 
ATOM     45  N   UNL A   1      39.893  30.155  29.345  1.00  0.00    -0.354 N 
ATOM     46  C   UNL A   1      43.828  28.671  30.303  1.00  0.00     0.074 A 
ATOM     47  C   UNL A   1      43.973  27.287  29.905  1.00  0.00     0.031 C 
ATOM     48  C   UNL A   1      37.801  30.043  28.563  1.00  0.00     0.029 A 
ATOM     49  C   UNL A   1      38.746  30.908  29.262  1.00  0.00     0.049 A 
ATOM     50  H   UNL A   1      40.725  30.484  29.757  1.00  0.00     0.167 HD
ATOM     51  C   UNL A   1      44.793  29.391  30.926  1.00  0.00     0.031 A 
ATOM     52  C   UNL A   1      38.475  32.152  29.706  1.00  0.00     0.031 A 
ATOM     53  C   UNL A   1      44.640  30.766  31.324  1.00  0.00     0.049 A 
ATOM     54  C   UNL A   1      39.558  32.937  30.391  1.00  0.00     0.074 A 
ATOM     55  C   UNL A   1      45.579  31.607  31.898  1.00  0.00     0.029 A 
ATOM     56  N   UNL A   1      43.467  31.500  31.206  1.00  0.00    -0.354 N 
ATOM     57  N   UNL A   1      40.786  32.571  30.675  1.00  0.00    -0.248 NA
ATOM     58  C   UNL A   1      39.225  34.307  30.802  1.00  0.00     0.031 C 
ATOM     59  C   UNL A   1      44.955  32.824  32.190  1.00  0.00     0.029 A 
ATOM     60  C   UNL A   1      43.648  32.770  31.731  1.00  0.00     0.049 A 
ATOM     61  H   UNL A   1      42.632  31.167  30.808  1.00  0.00     0.167 HD
ATOM     62  C   UNL A   1      41.379  33.673  31.282  1.00  0.00     0.074 A 
ATOM     63  C   UNL A   1      40.380  34.723  31.306  1.00  0.00     0.031 C 
ATOM     64  C   UNL A   1      42.639  33.803  31.769  1.00  0.00     0.031 A 
BRANCH  51  65
ATOM     65  C   UNL A   1      46.088  28.683  31.243  1.00  0.00    -0.014 A 
ATOM     66  C   UNL A   1      47.180  28.712  30.355  1.00  0.00     0.010 A 
ATOM     67  C   UNL A   1      46.214  27.971  32.450  1.00  0.00     0.010 A 
ATOM     68  C   UNL A   1      48.341  27.985  30.632  1.00  0.00     0.020 A 
ATOM     69  C   UNL A   1      47.387  27.271  32.749  1.00  0.00     0.020 A 
ATOM     70  C   UNL A   1      48.432  27.259  31.824  1.00  0.00     0.054 A 
BRANCH  70  71
ATOM     71  S   UNL A   1      49.937  26.301  32.146  1.00  0.00     0.124 S 
ATOM     72  O   UNL A   1      49.777  25.957  33.557  1.00  0.00    -0.237 OA
ATOM     73  O   UNL A   1      49.815  25.186  31.210  1.00  0.00    -0.237 OA
ATOM     74  O   UNL A   1      51.017  27.241  31.854  1.00  0.00    -0.744 OA
ENDBRANCH  70  71
ENDBRANCH  51  65
BRANCH  52  75
ATOM     75  C   UNL A   1      37.117  32.721  29.489  1.00  0.00    -0.014 A 
ATOM     76  C   UNL A   1      36.176  32.749  30.531  1.00  0.00     0.010 A 
ATOM     77  C   UNL A   1      36.786  33.310  28.254  1.00  0.00     0.010 A 
ATOM     78  C   UNL A   1      34.931  33.360  30.346  1.00  0.00     0.020 A 
ATOM     79  C   UNL A   1      35.555  33.947  28.073  1.00  0.00     0.020 A 
ATOM     80  C   UNL A   1      34.634  33.966  29.122  1.00  0.00     0.054 A 
BRANCH  80  81
ATOM     81  S   UNL A   1      33.052  34.837  28.942  1.00  0.00     0.124 S 
ATOM     82  O   UNL A   1      32.352  34.002  27.972  1.00  0.00    -0.237 OA
ATOM     83  O   UNL A   1      32.521  34.807  30.303  1.00  0.00    -0.237 OA
ATOM     84  O   UNL A   1      33.441  36.162  28.463  1.00  0.00    -0.744 OA
ENDBRANCH  80  81
ENDBRANCH  52  75
BRANCH  64  85
ATOM     85  C   UNL A   1      43.022  35.136  32.358  1.00  0.00    -0.014 A 
ATOM     86  C   UNL A   1      43.699  36.105  31.597  1.00  0.00     0.010 A 
ATOM     87  C   UNL A   1      42.648  35.443  33.680  1.00  0.00     0.010 A 
ATOM     88  C   UNL A   1      44.022  37.345  32.157  1.00  0.00     0.020 A 
ATOM     89  C   UNL A   1      42.941  36.692  34.233  1.00  0.00     0.020 A 
ATOM     90  C   UNL A   1      43.639  37.630  33.472  1.00  0.00     0.054 A 
BRANCH  90  91
ATOM     91  S   UNL A   1      44.032  39.262  34.161  1.00  0.00     0.124 S 
ATOM     92  O   UNL A   1      42.866  40.048  33.767  1.00  0.00    -0.237 OA
ATOM     93  O   UNL A   1      44.150  38.985  35.591  1.00  0.00    -0.237 OA
ATOM     94  O   UNL A   1      45.282  39.627  33.498  1.00  0.00    -0.744 OA
ENDBRANCH  90  91
ENDBRANCH  64  85
ENDBRANCH  38  39
ENDBRANCH  30  33
ENDBRANCH  28  29
ENDBRANCH  27  28
ENDBRANCH   1  27
TORSDOF 18
ENDMDL
MODEL 2
REMARK VINA RESULT:     -11.3      3.553      4.525
REMARK SMILES CC(=O)Nc1cccc(-c2ccc(F)c(C(=O)NCCCCCCNC(=O)c3ccc(-c4c5nc(c(-c6ccc(S(=O)(=O)[O-])cc6)c6ccc([nH]6)c(-c6ccc(S(=O)(=O)[O-])cc6)c6nc(c(-c7ccc(S(=O)(=O)[O-])cc7)c7ccc4[nH]7)C=C6)C=C5)cc3)c2)c1
REMARK SMILES IDX 22 1 21 2 20 3 19 4 18 5 16 6 17 7 15 9 10 10 11 11 88 12
REMARK SMILES IDX 12 13 13 14 14 15 9 16 5 17 6 18 89 19 7 20 8 21 4 22 1 23
REMARK SMILES IDX 2 24 3 25 23 27 24 28 25 29 26 30 27 32 28 33 29 34 87 35
REMARK SMILES IDX 30 36 86 37 31 38 32 39 33 40 80 41 34 42 85 43 79 44 81 45
REMARK SMILES IDX 35 46 84 47 78 48 77 49 36 51 66 52 47 53 65 54 48 55 51 56
REMARK SMILES IDX 64 57 82 58 49 59 50 60 63 62 83 63 52 64 37 65 38 66 46 67
REMARK SMILES IDX 39 68 45 69 40 70 41 71 42 72 43 73 44 74 67 75 68 76 76 77
REMARK SMILES IDX 69 78 75 79 70 80 71 81 72 82 73 83 74 84 53 85 54 86 62 87
REMARK SMILES IDX 55 88 61 89 56 90 57 91 58 92 59 93 60 94
REMARK H PARENT 18 8 4 26 25 31 81 50 51 61
REMARK Flexibility Score: inf
ROOT
ATOM      1  C   UNL A   1      40.477  22.046  27.623  1.00  0.00     0.002 C 
ENDROOT
BRANCH   1   2
ATOM      2  C   UNL A   1      39.549  22.401  26.458  1.00  0.00     0.002 C 
BRANCH   2   3
ATOM      3  C   UNL A   1      38.777  23.713  26.579  1.00  0.00     0.021 C 
BRANCH   3   4
ATOM      4  C   UNL A   1      37.411  23.768  25.906  1.00  0.00     0.116 C 
BRANCH   4   5
ATOM      5  N   UNL A   1      37.402  23.358  24.508  1.00  0.00    -0.352 N 
ATOM      6  C   UNL A   1      36.380  23.234  23.585  1.00  0.00     0.254 C 
ATOM      7  O   UNL A   1      36.682  22.902  22.440  1.00  0.00    -0.269 OA
ATOM      8  H   UNL A   1      38.291  23.128  24.154  1.00  0.00     0.163 HD
BRANCH   6   9
ATOM      9  C   UNL A   1      34.951  23.455  23.938  1.00  0.00     0.076 A 
ATOM     10  C   UNL A   1      33.111  24.993  24.455  1.00  0.00    -0.017 A 
ATOM     11  C   UNL A   1      32.354  23.911  24.918  1.00  0.00     0.012 A 
ATOM     12  C   UNL A   1      34.358  24.716  23.862  1.00  0.00     0.025 A 
ATOM     13  C   UNL A   1      32.866  22.612  24.852  1.00  0.00     0.041 A 
ATOM     14  C   UNL A   1      34.170  22.396  24.399  1.00  0.00     0.135 A 
ATOM     15  F   UNL A   1      34.647  21.145  24.458  1.00  0.00    -0.206 F 
BRANCH  10  16
ATOM     16  C   UNL A   1      32.733  26.400  24.697  1.00  0.00    -0.016 A 
ATOM     17  C   UNL A   1      31.913  28.535  23.814  1.00  0.00     0.041 A 
ATOM     18  C   UNL A   1      32.424  29.187  24.938  1.00  0.00     0.026 A 
ATOM     19  C   UNL A   1      32.075  27.151  23.706  1.00  0.00     0.034 A 
ATOM     20  C   UNL A   1      33.035  28.461  25.959  1.00  0.00     0.003 A 
ATOM     21  C   UNL A   1      33.186  27.078  25.841  1.00  0.00     0.009 A 
BRANCH  17  22
ATOM     22  N   UNL A   1      31.358  29.329  22.799  1.00  0.00    -0.326 N 
ATOM     23  C   UNL A   1      28.919  28.947  23.148  1.00  0.00     0.114 C 
ATOM     24  C   UNL A   1      30.080  29.445  22.333  1.00  0.00     0.221 C 
ATOM     25  O   UNL A   1      29.892  30.007  21.254  1.00  0.00    -0.275 OA
ATOM     26  H   UNL A   1      32.009  29.907  22.339  1.00  0.00     0.169 HD
ENDBRANCH  17  22
ENDBRANCH  10  16
ENDBRANCH   6   9
ENDBRANCH   4   5
ENDBRANCH   3   4
ENDBRANCH   2   3
ENDBRANCH   1   2
BRANCH   1  27
ATOM     27  C   UNL A   1      41.945  21.792  27.272  1.00  0.00     0.021 C 
BRANCH  27  28
ATOM     28  C   UNL A   1      42.853  23.019  27.281  1.00  0.00     0.116 C 
BRANCH  28  29
ATOM     29  N   UNL A   1      42.697  23.840  26.093  1.00  0.00    -0.352 N 
ATOM     30  C   UNL A   1      42.281  25.144  25.979  1.00  0.00     0.251 C 
ATOM     31  H   UNL A   1      42.924  23.396  25.244  1.00  0.00     0.163 HD
ATOM     32  O   UNL A   1      42.053  25.616  24.869  1.00  0.00    -0.269 OA
BRANCH  30  33
ATOM     33  C   UNL A   1      42.087  25.974  27.190  1.00  0.00     0.039 A 
ATOM     34  C   UNL A   1      42.973  27.027  27.434  1.00  0.00     0.014 A 
ATOM     35  C   UNL A   1      41.050  25.710  28.088  1.00  0.00     0.014 A 
ATOM     36  C   UNL A   1      42.784  27.848  28.548  1.00  0.00     0.010 A 
ATOM     37  C   UNL A   1      40.817  26.577  29.155  1.00  0.00     0.010 A 
ATOM     38  C   UNL A   1      41.685  27.651  29.400  1.00  0.00    -0.014 A 
BRANCH  38  39
ATOM     39  C   UNL A   1      41.427  28.564  30.544  1.00  0.00     0.031 A 
ATOM     40  C   UNL A   1      42.238  28.457  31.806  1.00  0.00     0.074 A 
ATOM     41  C   UNL A   1      40.413  29.448  30.472  1.00  0.00     0.049 A 
ATOM     42  N   UNL A   1      42.133  29.142  32.917  1.00  0.00    -0.248 NA
ATOM     43  C   UNL A   1      43.287  27.424  31.835  1.00  0.00     0.031 C 
ATOM     44  C   UNL A   1      39.516  29.614  29.325  1.00  0.00     0.029 A 
ATOM     45  N   UNL A   1      39.957  30.367  31.384  1.00  0.00    -0.354 N 
ATOM     46  C   UNL A   1      43.085  28.611  33.781  1.00  0.00     0.074 A 
ATOM     47  C   UNL A   1      43.718  27.513  33.084  1.00  0.00     0.031 C 
ATOM     48  C   UNL A   1      38.635  30.590  29.594  1.00  0.00     0.029 A 
ATOM     49  C   UNL A   1      38.874  31.089  30.944  1.00  0.00     0.049 A 
ATOM     50  H   UNL A   1      40.367  30.495  32.270  1.00  0.00     0.167 HD
ATOM     51  C   UNL A   1      43.410  29.010  35.035  1.00  0.00     0.031 A 
ATOM     52  C   UNL A   1      38.143  32.042  31.557  1.00  0.00     0.031 A 
ATOM     53  C   UNL A   1      42.771  30.101  35.723  1.00  0.00     0.049 A 
ATOM     54  C   UNL A   1      38.521  32.474  32.946  1.00  0.00     0.074 A 
ATOM     55  C   UNL A   1      43.074  30.630  36.967  1.00  0.00     0.029 A 
ATOM     56  N   UNL A   1      41.689  30.821  35.236  1.00  0.00    -0.354 N 
ATOM     57  N   UNL A   1      39.482  32.022  33.716  1.00  0.00    -0.248 NA
ATOM     58  C   UNL A   1      37.727  33.556  33.543  1.00  0.00     0.031 C 
ATOM     59  C   UNL A   1      42.131  31.622  37.260  1.00  0.00     0.029 A 
ATOM     60  C   UNL A   1      41.287  31.764  36.170  1.00  0.00     0.049 A 
ATOM     61  H   UNL A   1      41.270  30.683  34.357  1.00  0.00     0.167 HD
ATOM     62  C   UNL A   1      39.421  32.776  34.883  1.00  0.00     0.074 A 
ATOM     63  C   UNL A   1      38.340  33.725  34.708  1.00  0.00     0.031 C 
ATOM     64  C   UNL A   1      40.195  32.691  35.995  1.00  0.00     0.031 A 
BRANCH  51  65
ATOM     65  C   UNL A   1      44.489  28.232  35.749  1.00  0.00    -0.014 A 
ATOM     66  C   UNL A   1      44.184  27.116  36.550  1.00  0.00     0.010 A 
ATOM     67  C   UNL A   1      45.833  28.628  35.620  1.00  0.00     0.010 A 
ATOM     68  C   UNL A   1      45.188  26.459  37.265  1.00  0.00     0.020 A 
ATOM     69  C   UNL A   1      46.847  27.952  36.305  1.00  0.00     0.020 A 
ATOM     70  C   UNL A   1      46.513  26.888  37.147  1.00  0.00     0.054 A 
BRANCH  70  71
ATOM     71  S   UNL A   1      47.794  26.037  38.108  1.00  0.00     0.124 S 
ATOM     72  O   UNL A   1      47.018  25.010  38.798  1.00  0.00    -0.237 OA
ATOM     73  O   UNL A   1      48.701  25.549  37.072  1.00  0.00    -0.237 OA
ATOM     74  O   UNL A   1      48.339  27.086  38.966  1.00  0.00    -0.744 OA
ENDBRANCH  70  71
ENDBRANCH  51  65
BRANCH  52  75
ATOM     75  C   UNL A   1      36.993  32.653  30.836  1.00  0.00    -0.014 A 
ATOM     76  C   UNL A   1      35.699  32.123  30.969  1.00  0.00     0.010 A 
ATOM     77  C   UNL A   1      37.178  33.820  30.071  1.00  0.00     0.010 A 
ATOM     78  C   UNL A   1      34.610  32.750  30.356  1.00  0.00     0.020 A 
ATOM     79  C   UNL A   1      36.089  34.467  29.480  1.00  0.00     0.020 A 
ATOM     80  C   UNL A   1      34.811  33.925  29.626  1.00  0.00     0.054 A 
BRANCH  80  81
ATOM     81  S   UNL A   1      33.366  34.773  28.925  1.00  0.00     0.124 S 
ATOM     82  O   UNL A   1      32.844  33.772  28.002  1.00  0.00    -0.237 OA
ATOM     83  O   UNL A   1      32.549  35.030  30.109  1.00  0.00    -0.237 OA
ATOM     84  O   UNL A   1      33.936  35.965  28.300  1.00  0.00    -0.744 OA
ENDBRANCH  80  81
ENDBRANCH  52  75
BRANCH  64  85
ATOM     85  C   UNL A   1      39.915  33.664  37.111  1.00  0.00    -0.014 A 
ATOM     86  C   UNL A   1      40.517  34.935  37.143  1.00  0.00     0.010 A 
ATOM     87  C   UNL A   1      38.991  33.320  38.115  1.00  0.00     0.010 A 
ATOM     88  C   UNL A   1      40.223  35.831  38.176  1.00  0.00     0.020 A 
ATOM     89  C   UNL A   1      38.670  34.225  39.131  1.00  0.00     0.020 A 
ATOM     90  C   UNL A   1      39.300  35.469  39.162  1.00  0.00     0.054 A 
BRANCH  90  91
ATOM     91  S   UNL A   1      38.904  36.666  40.467  1.00  0.00     0.124 S 
ATOM     92  O   UNL A   1      38.388  37.795  39.697  1.00  0.00    -0.237 OA
ATOM     93  O   UNL A   1      37.915  35.949  41.269  1.00  0.00    -0.237 OA
ATOM     94  O   UNL A   1      40.185  36.897  41.128  1.00  0.00    -0.744 OA
ENDBRANCH  90  91
ENDBRANCH  64  85
ENDBRANCH  38  39
ENDBRANCH  30  33
ENDBRANCH  28  29
ENDBRANCH  27  28
ENDBRANCH   1  27
TORSDOF 18
ENDMDL
MODEL 3
REMARK VINA RESULT:     -11.3      3.605      4.619
REMARK SMILES CC(=O)Nc1cccc(-c2ccc(F)c(C(=O)NCCCCCCNC(=O)c3ccc(-c4c5nc(c(-c6ccc(S(=O)(=O)[O-])cc6)c6ccc([nH]6)c(-c6ccc(S(=O)(=O)[O-])cc6)c6nc(c(-c7ccc(S(=O)(=O)[O-])cc7)c7ccc4[nH]7)C=C6)C=C5)cc3)c2)c1
REMARK SMILES IDX 22 1 21 2 20 3 19 4 18 5 16 6 17 7 15 9 10 10 11 11 88 12
REMARK SMILES IDX 12 13 13 14 14 15 9 16 5 17 6 18 89 19 7 20 8 21 4 22 1 23
REMARK SMILES IDX 2 24 3 25 23 27 24 28 25 29 26 30 27 32 28 33 29 34 87 35
REMARK SMILES IDX 30 36 86 37 31 38 32 39 33 40 80 41 34 42 85 43 79 44 81 45
REMARK SMILES IDX 35 46 84 47 78 48 77 49 36 51 66 52 47 53 65 54 48 55 51 56
REMARK SMILES IDX 64 57 82 58 49 59 50 60 63 62 83 63 52 64 37 65 38 66 46 67
REMARK SMILES IDX 39 68 45 69 40 70 41 71 42 72 43 73 44 74 67 75 68 76 76 77
REMARK SMILES IDX 69 78 75 79 70 80 71 81 72 82 73 83 74 84 53 85 54 86 62 87
REMARK SMILES IDX 55 88 61 89 56 90 57 91 58 92 59 93 60 94
REMARK H PARENT 18 8 4 26 25 31 81 50 51 61
REMARK Flexibility Score: inf
ROOT
ATOM      1  C   UNL A   1      39.884  22.169  26.493  1.00  0.00     0.002 C 
ENDROOT
BRANCH   1   2
ATOM      2  C   UNL A   1      38.730  23.172  26.430  1.00  0.00     0.002 C 
BRANCH   2   3
ATOM      3  C   UNL A   1      37.648  22.900  25.387  1.00  0.00     0.021 C 
BRANCH   3   4
ATOM      4  C   UNL A   1      36.749  21.694  25.632  1.00  0.00     0.116 C 
BRANCH   4   5
ATOM      5  N   UNL A   1      35.576  21.963  26.452  1.00  0.00    -0.352 N 
ATOM      6  C   UNL A   1      34.360  22.555  26.166  1.00  0.00     0.254 C 
ATOM      7  O   UNL A   1      33.524  22.609  27.066  1.00  0.00    -0.269 OA
ATOM      8  H   UNL A   1      35.666  21.667  27.386  1.00  0.00     0.163 HD
BRANCH   6   9
ATOM      9  C   UNL A   1      34.051  23.146  24.834  1.00  0.00     0.076 A 
ATOM     10  C   UNL A   1      33.567  25.114  23.453  1.00  0.00    -0.017 A 
ATOM     11  C   UNL A   1      33.151  24.268  22.417  1.00  0.00     0.012 A 
ATOM     12  C   UNL A   1      34.123  24.520  24.602  1.00  0.00     0.025 A 
ATOM     13  C   UNL A   1      33.226  22.881  22.567  1.00  0.00     0.041 A 
ATOM     14  C   UNL A   1      33.638  22.329  23.782  1.00  0.00     0.135 A 
ATOM     15  F   UNL A   1      33.588  20.995  23.907  1.00  0.00    -0.206 F 
BRANCH  10  16
ATOM     16  C   UNL A   1      33.310  26.568  23.453  1.00  0.00    -0.016 A 
ATOM     17  C   UNL A   1      33.456  28.724  24.610  1.00  0.00     0.041 A 
ATOM     18  C   UNL A   1      32.469  29.236  23.766  1.00  0.00     0.026 A 
ATOM     19  C   UNL A   1      33.863  27.398  24.446  1.00  0.00     0.034 A 
ATOM     20  C   UNL A   1      31.940  28.451  22.741  1.00  0.00     0.003 A 
ATOM     21  C   UNL A   1      32.360  27.129  22.585  1.00  0.00     0.009 A 
BRANCH  17  22
ATOM     22  N   UNL A   1      33.907  29.547  25.653  1.00  0.00    -0.326 N 
ATOM     23  C   UNL A   1      31.937  29.537  27.181  1.00  0.00     0.114 C 
ATOM     24  C   UNL A   1      33.263  30.084  26.731  1.00  0.00     0.221 C 
ATOM     25  O   UNL A   1      33.810  30.993  27.355  1.00  0.00    -0.275 OA
ATOM     26  H   UNL A   1      34.863  29.779  25.598  1.00  0.00     0.169 HD
ENDBRANCH  17  22
ENDBRANCH  10  16
ENDBRANCH   6   9
ENDBRANCH   4   5
ENDBRANCH   3   4
ENDBRANCH   2   3
ENDBRANCH   1   2
BRANCH   1  27
ATOM     27  C   UNL A   1      40.761  22.216  27.746  1.00  0.00     0.021 C 
BRANCH  27  28
ATOM     28  C   UNL A   1      42.084  22.964  27.605  1.00  0.00     0.116 C 
BRANCH  28  29
ATOM     29  N   UNL A   1      42.139  23.786  26.409  1.00  0.00    -0.352 N 
ATOM     30  C   UNL A   1      41.910  25.132  26.261  1.00  0.00     0.251 C 
ATOM     31  H   UNL A   1      42.375  23.307  25.582  1.00  0.00     0.163 HD
ATOM     32  O   UNL A   1      41.841  25.618  25.136  1.00  0.00    -0.269 OA
BRANCH  30  33
ATOM     33  C   UNL A   1      41.727  25.994  27.451  1.00  0.00     0.039 A 
ATOM     34  C   UNL A   1      42.732  26.907  27.783  1.00  0.00     0.014 A 
ATOM     35  C   UNL A   1      40.582  25.893  28.247  1.00  0.00     0.014 A 
ATOM     36  C   UNL A   1      42.561  27.758  28.877  1.00  0.00     0.010 A 
ATOM     37  C   UNL A   1      40.380  26.795  29.290  1.00  0.00     0.010 A 
ATOM     38  C   UNL A   1      41.370  27.732  29.621  1.00  0.00    -0.014 A 
BRANCH  38  39
ATOM     39  C   UNL A   1      41.142  28.684  30.740  1.00  0.00     0.031 A 
ATOM     40  C   UNL A   1      41.968  28.602  31.994  1.00  0.00     0.074 A 
ATOM     41  C   UNL A   1      40.143  29.584  30.653  1.00  0.00     0.049 A 
ATOM     42  N   UNL A   1      41.888  29.322  33.084  1.00  0.00    -0.248 NA
ATOM     43  C   UNL A   1      42.998  27.552  32.042  1.00  0.00     0.031 C 
ATOM     44  C   UNL A   1      39.234  29.730  29.512  1.00  0.00     0.029 A 
ATOM     45  N   UNL A   1      39.714  30.538  31.541  1.00  0.00    -0.354 N 
ATOM     46  C   UNL A   1      42.841  28.802  33.952  1.00  0.00     0.074 A 
ATOM     47  C   UNL A   1      43.447  27.671  33.282  1.00  0.00     0.031 C 
ATOM     48  C   UNL A   1      38.374  30.729  29.761  1.00  0.00     0.029 A 
ATOM     49  C   UNL A   1      38.638  31.266  31.092  1.00  0.00     0.049 A 
ATOM     50  H   UNL A   1      40.138  30.686  32.418  1.00  0.00     0.167 HD
ATOM     51  C   UNL A   1      43.190  29.234  35.189  1.00  0.00     0.031 A 
ATOM     52  C   UNL A   1      37.932  32.249  31.685  1.00  0.00     0.031 A 
ATOM     53  C   UNL A   1      42.579  30.356  35.852  1.00  0.00     0.049 A 
ATOM     54  C   UNL A   1      38.335  32.717  33.055  1.00  0.00     0.074 A 
ATOM     55  C   UNL A   1      42.906  30.917  37.074  1.00  0.00     0.029 A 
ATOM     56  N   UNL A   1      41.503  31.080  35.355  1.00  0.00    -0.354 N 
ATOM     57  N   UNL A   1      39.298  32.271  33.827  1.00  0.00    -0.248 NA
ATOM     58  C   UNL A   1      37.567  33.830  33.628  1.00  0.00     0.031 C 
ATOM     59  C   UNL A   1      41.984  31.934  37.349  1.00  0.00     0.029 A 
ATOM     60  C   UNL A   1      41.129  32.057  36.265  1.00  0.00     0.049 A 
ATOM     61  H   UNL A   1      41.070  30.922  34.487  1.00  0.00     0.167 HD
ATOM     62  C   UNL A   1      39.265  33.062  34.970  1.00  0.00     0.074 A 
ATOM     63  C   UNL A   1      38.197  34.025  34.779  1.00  0.00     0.031 C 
ATOM     64  C   UNL A   1      40.051  32.998  36.074  1.00  0.00     0.031 A 
BRANCH  51  65
ATOM     65  C   UNL A   1      44.264  28.459  35.914  1.00  0.00    -0.014 A 
ATOM     66  C   UNL A   1      45.630  28.724  35.708  1.00  0.00     0.010 A 
ATOM     67  C   UNL A   1      43.898  27.443  36.817  1.00  0.00     0.010 A 
ATOM     68  C   UNL A   1      46.608  27.942  36.329  1.00  0.00     0.020 A 
ATOM     69  C   UNL A   1      44.873  26.681  37.469  1.00  0.00     0.020 A 
ATOM     70  C   UNL A   1      46.222  26.917  37.198  1.00  0.00     0.054 A 
BRANCH  70  71
ATOM     71  S   UNL A   1      47.509  25.899  37.970  1.00  0.00     0.124 S 
ATOM     72  O   UNL A   1      47.955  25.079  36.846  1.00  0.00    -0.237 OA
ATOM     73  O   UNL A   1      48.467  26.895  38.441  1.00  0.00    -0.237 OA
ATOM     74  O   UNL A   1      46.796  25.177  39.021  1.00  0.00    -0.744 OA
ENDBRANCH  70  71
ENDBRANCH  51  65
BRANCH  52  75
ATOM     75  C   UNL A   1      36.783  32.858  30.959  1.00  0.00    -0.014 A 
ATOM     76  C   UNL A   1      35.461  32.577  31.343  1.00  0.00     0.010 A 
ATOM     77  C   UNL A   1      37.012  33.786  29.926  1.00  0.00     0.010 A 
ATOM     78  C   UNL A   1      34.389  33.216  30.712  1.00  0.00     0.020 A 
ATOM     79  C   UNL A   1      35.945  34.448  29.311  1.00  0.00     0.020 A 
ATOM     80  C   UNL A   1      34.639  34.156  29.708  1.00  0.00     0.054 A 
BRANCH  80  81
ATOM     81  S   UNL A   1      33.235  35.043  28.976  1.00  0.00     0.124 S 
ATOM     82  O   UNL A   1      32.373  35.259  30.133  1.00  0.00    -0.237 OA
ATOM     83  O   UNL A   1      33.871  36.239  28.429  1.00  0.00    -0.237 OA
ATOM     84  O   UNL A   1      32.720  34.109  27.977  1.00  0.00    -0.744 OA
ENDBRANCH  80  81
ENDBRANCH  52  75
BRANCH  64  85
ATOM     85  C   UNL A   1      39.802  34.010  37.163  1.00  0.00    -0.014 A 
ATOM     86  C   UNL A   1      38.945  33.728  38.242  1.00  0.00     0.010 A 
ATOM     87  C   UNL A   1      40.483  35.241  37.135  1.00  0.00     0.010 A 
ATOM     88  C   UNL A   1      38.749  34.673  39.254  1.00  0.00     0.020 A 
ATOM     89  C   UNL A   1      40.314  36.175  38.160  1.00  0.00     0.020 A 
ATOM     90  C   UNL A   1      39.437  35.890  39.207  1.00  0.00     0.054 A 
BRANCH  90  91
ATOM     91  S   UNL A   1      39.198  37.080  40.555  1.00  0.00     0.124 S 
ATOM     92  O   UNL A   1      40.550  37.596  40.749  1.00  0.00    -0.237 OA
ATOM     93  O   UNL A   1      38.241  38.025  39.982  1.00  0.00    -0.237 OA
ATOM     94  O   UNL A   1      38.679  36.265  41.651  1.00  0.00    -0.744 OA
ENDBRANCH  90  91
ENDBRANCH  64  85
ENDBRANCH  38  39
ENDBRANCH  30  33
ENDBRANCH  28  29
ENDBRANCH  27  28
ENDBRANCH   1  27
TORSDOF 18
ENDMDL
