MODEL 1
REMARK VINA RESULT:     -10.3      0.000      0.000
REMARK SMILES CCN(CCC(=O)NCCCCCCNC(=O)c1ccc(-c2c3nc(c(-c4ccc(S(=O)(=O)[O-])cc4)c4ccc([nH]4)c(-c4ccc(S(=O)(=O)[O-])cc4)c4nc(c(-c5ccc(S(=O)(=O)[O-])cc5)c5ccc2[nH]5)C=C4)C=C3)cc1)C(=O)c1cc(Cl)ccc1F
REMARK SMILES IDX 11 1 10 2 9 3 8 4 6 5 7 6 5 8 4 9 3 10 2 11 1 12 78 13 79 14
REMARK SMILES IDX 80 15 81 16 86 17 82 18 85 19 87 20 83 21 84 22 12 23 13 24
REMARK SMILES IDX 14 25 15 26 16 27 17 29 18 30 19 31 77 32 20 33 76 34 21 35
REMARK SMILES IDX 22 36 23 37 70 38 24 39 75 40 69 41 71 42 25 43 74 44 68 45
REMARK SMILES IDX 67 46 26 48 56 49 37 50 55 51 38 52 41 53 54 54 72 55 39 56
REMARK SMILES IDX 40 57 53 59 73 60 42 61 27 62 28 63 36 64 29 65 35 66 30 67
REMARK SMILES IDX 31 68 32 69 33 70 34 71 57 72 58 73 66 74 59 75 65 76 60 77
REMARK SMILES IDX 61 78 62 79 63 80 64 81 43 82 44 83 52 84 45 85 51 86 46 87
REMARK SMILES IDX 47 88 48 89 49 90 50 91
REMARK H PARENT 8 7 15 28 71 47 41 58
REMARK Flexibility Score: inf
ROOT
ATOM      1  C   UNL A   1      31.060  29.079  24.228  1.00  0.00     0.002 C 
ENDROOT
BRANCH   1   2
ATOM      2  C   UNL A   1      30.896  27.578  23.965  1.00  0.00     0.021 C 
BRANCH   2   3
ATOM      3  C   UNL A   1      30.700  27.228  22.496  1.00  0.00     0.116 C 
BRANCH   3   4
ATOM      4  N   UNL A   1      31.941  26.774  21.895  1.00  0.00    -0.356 N 
ATOM      5  C   UNL A   1      32.550  25.559  21.979  1.00  0.00     0.221 C 
ATOM      6  O   UNL A   1      33.633  25.405  21.410  1.00  0.00    -0.275 OA
ATOM      7  H   UNL A   1      32.411  27.442  21.346  1.00  0.00     0.163 HD
BRANCH   5   8
ATOM      8  C   UNL A   1      31.903  24.427  22.740  1.00  0.00     0.121 C 
BRANCH   8   9
ATOM      9  C   UNL A   1      32.883  23.301  23.043  1.00  0.00     0.129 C 
BRANCH   9  10
ATOM     10  N   UNL A   1      33.096  22.983  24.463  1.00  0.00    -0.338 N 
BRANCH  10  11
ATOM     11  C   UNL A   1      32.467  23.938  25.398  1.00  0.00     0.116 C 
ATOM     12  C   UNL A   1      32.333  23.582  26.870  1.00  0.00     0.027 C 
ENDBRANCH  10  11
BRANCH  10  13
ATOM     13  C   UNL A   1      33.614  21.752  24.907  1.00  0.00     0.256 C 
ATOM     14  O   UNL A   1      32.923  20.873  25.421  1.00  0.00    -0.269 OA
BRANCH  13  15
ATOM     15  C   UNL A   1      35.082  21.556  25.051  1.00  0.00     0.077 A 
ATOM     16  C   UNL A   1      35.811  22.695  25.450  1.00  0.00     0.037 A 
ATOM     17  C   UNL A   1      35.772  20.360  24.883  1.00  0.00     0.136 A 
ATOM     18  C   UNL A   1      37.201  22.648  25.563  1.00  0.00     0.042 A 
ATOM     19  C   UNL A   1      37.168  20.324  24.952  1.00  0.00     0.041 A 
ATOM     20  F   UNL A   1      35.137  19.195  24.719  1.00  0.00    -0.206 F 
ATOM     21  Cl  UNL A   1      38.072  24.050  26.045  1.00  0.00    -0.084 Cl
ATOM     22  C   UNL A   1      37.888  21.472  25.280  1.00  0.00     0.023 A 
ENDBRANCH  13  15
ENDBRANCH  10  13
ENDBRANCH   9  10
ENDBRANCH   8   9
ENDBRANCH   5   8
ENDBRANCH   3   4
ENDBRANCH   2   3
ENDBRANCH   1   2
BRANCH   1  23
ATOM     23  C   UNL A   1      31.902  29.426  25.461  1.00  0.00     0.002 C 
BRANCH  23  24
ATOM     24  C   UNL A   1      33.103  28.507  25.711  1.00  0.00     0.021 C 
BRANCH  24  25
ATOM     25  C   UNL A   1      33.744  28.659  27.090  1.00  0.00     0.116 C 
BRANCH  25  26
ATOM     26  N   UNL A   1      33.625  30.019  27.591  1.00  0.00    -0.352 N 
ATOM     27  C   UNL A   1      34.516  30.735  28.354  1.00  0.00     0.251 C 
ATOM     28  H   UNL A   1      32.794  30.489  27.352  1.00  0.00     0.163 HD
ATOM     29  O   UNL A   1      34.169  31.780  28.894  1.00  0.00    -0.269 OA
BRANCH  27  30
ATOM     30  C   UNL A   1      35.893  30.226  28.538  1.00  0.00     0.039 A 
ATOM     31  C   UNL A   1      36.787  30.273  27.466  1.00  0.00     0.014 A 
ATOM     32  C   UNL A   1      36.297  29.704  29.770  1.00  0.00     0.014 A 
ATOM     33  C   UNL A   1      38.112  29.860  27.649  1.00  0.00     0.010 A 
ATOM     34  C   UNL A   1      37.628  29.347  29.966  1.00  0.00     0.010 A 
ATOM     35  C   UNL A   1      38.550  29.425  28.910  1.00  0.00    -0.014 A 
BRANCH  35  36
ATOM     36  C   UNL A   1      39.966  29.048  29.163  1.00  0.00     0.031 A 
ATOM     37  C   UNL A   1      40.943  30.091  29.638  1.00  0.00     0.074 A 
ATOM     38  C   UNL A   1      40.396  27.807  28.862  1.00  0.00     0.049 A 
ATOM     39  N   UNL A   1      42.244  30.010  29.747  1.00  0.00    -0.248 NA
ATOM     40  C   UNL A   1      40.387  31.402  30.009  1.00  0.00     0.031 C 
ATOM     41  C   UNL A   1      39.559  26.712  28.363  1.00  0.00     0.029 A 
ATOM     42  N   UNL A   1      41.658  27.263  28.904  1.00  0.00    -0.354 N 
ATOM     43  C   UNL A   1      42.667  31.269  30.156  1.00  0.00     0.074 A 
ATOM     44  C   UNL A   1      41.487  32.099  30.265  1.00  0.00     0.031 C 
ATOM     45  C   UNL A   1      40.329  25.634  28.141  1.00  0.00     0.029 A 
ATOM     46  C   UNL A   1      41.717  25.969  28.442  1.00  0.00     0.049 A 
ATOM     47  H   UNL A   1      42.445  27.755  29.233  1.00  0.00     0.167 HD
ATOM     48  C   UNL A   1      43.925  31.694  30.422  1.00  0.00     0.031 A 
ATOM     49  C   UNL A   1      42.773  25.152  28.254  1.00  0.00     0.031 A 
ATOM     50  C   UNL A   1      45.092  30.857  30.361  1.00  0.00     0.049 A 
ATOM     51  C   UNL A   1      44.157  25.642  28.582  1.00  0.00     0.074 A 
ATOM     52  C   UNL A   1      46.397  31.179  30.694  1.00  0.00     0.029 A 
ATOM     53  N   UNL A   1      45.099  29.536  29.944  1.00  0.00    -0.354 N 
ATOM     54  N   UNL A   1      44.527  26.818  29.030  1.00  0.00    -0.248 NA
ATOM     55  C   UNL A   1      45.264  24.696  28.384  1.00  0.00     0.031 C 
ATOM     56  C   UNL A   1      47.199  30.062  30.446  1.00  0.00     0.029 A 
ATOM     57  C   UNL A   1      46.387  29.034  29.996  1.00  0.00     0.049 A 
ATOM     58  H   UNL A   1      44.305  29.030  29.654  1.00  0.00     0.167 HD
ATOM     59  C   UNL A   1      45.906  26.742  29.194  1.00  0.00     0.074 A 
ATOM     60  C   UNL A   1      46.304  25.405  28.805  1.00  0.00     0.031 C 
ATOM     61  C   UNL A   1      46.764  27.694  29.629  1.00  0.00     0.031 A 
BRANCH  48  62
ATOM     62  C   UNL A   1      44.116  33.137  30.801  1.00  0.00    -0.014 A 
ATOM     63  C   UNL A   1      44.303  34.126  29.821  1.00  0.00     0.010 A 
ATOM     64  C   UNL A   1      44.023  33.514  32.153  1.00  0.00     0.010 A 
ATOM     65  C   UNL A   1      44.414  35.470  30.190  1.00  0.00     0.020 A 
ATOM     66  C   UNL A   1      44.115  34.859  32.524  1.00  0.00     0.020 A 
ATOM     67  C   UNL A   1      44.321  35.827  31.539  1.00  0.00     0.054 A 
BRANCH  67  68
ATOM     68  S   UNL A   1      44.415  37.583  31.985  1.00  0.00     0.124 S 
ATOM     69  O   UNL A   1      43.972  38.230  30.753  1.00  0.00    -0.237 OA
ATOM     70  O   UNL A   1      43.490  37.680  33.111  1.00  0.00    -0.237 OA
ATOM     71  O   UNL A   1      45.822  37.780  32.322  1.00  0.00    -0.744 OA
ENDBRANCH  67  68
ENDBRANCH  48  62
BRANCH  49  72
ATOM     72  C   UNL A   1      42.573  23.783  27.708  1.00  0.00    -0.014 A 
ATOM     73  C   UNL A   1      42.267  22.711  28.564  1.00  0.00     0.010 A 
ATOM     74  C   UNL A   1      42.712  23.542  26.329  1.00  0.00     0.010 A 
ATOM     75  C   UNL A   1      42.136  21.415  28.056  1.00  0.00     0.020 A 
ATOM     76  C   UNL A   1      42.558  22.252  25.814  1.00  0.00     0.020 A 
ATOM     77  C   UNL A   1      42.288  21.193  26.685  1.00  0.00     0.054 A 
BRANCH  77  78
ATOM     78  S   UNL A   1      42.092  19.510  26.035  1.00  0.00     0.124 S 
ATOM     79  O   UNL A   1      42.941  19.545  24.848  1.00  0.00    -0.237 OA
ATOM     80  O   UNL A   1      42.576  18.682  27.137  1.00  0.00    -0.237 OA
ATOM     81  O   UNL A   1      40.656  19.413  25.779  1.00  0.00    -0.744 OA
ENDBRANCH  77  78
ENDBRANCH  49  72
BRANCH  61  82
ATOM     82  C   UNL A   1      48.215  27.322  29.761  1.00  0.00    -0.014 A 
ATOM     83  C   UNL A   1      49.147  27.679  28.772  1.00  0.00     0.010 A 
ATOM     84  C   UNL A   1      48.660  26.683  30.931  1.00  0.00     0.010 A 
ATOM     85  C   UNL A   1      50.503  27.392  28.949  1.00  0.00     0.020 A 
ATOM     86  C   UNL A   1      50.017  26.412  31.120  1.00  0.00     0.020 A 
ATOM     87  C   UNL A   1      50.930  26.763  30.123  1.00  0.00     0.054 A 
BRANCH  87  88
ATOM     88  S   UNL A   1      52.703  26.466  30.365  1.00  0.00     0.124 S 
ATOM     89  O   UNL A   1      53.190  27.799  30.707  1.00  0.00    -0.237 OA
ATOM     90  O   UNL A   1      52.723  25.492  31.454  1.00  0.00    -0.237 OA
ATOM     91  O   UNL A   1      53.147  25.952  29.071  1.00  0.00    -0.744 OA
ENDBRANCH  87  88
ENDBRANCH  61  82
ENDBRANCH  35  36
ENDBRANCH  27  30
ENDBRANCH  25  26
ENDBRANCH  24  25
ENDBRANCH  23  24
ENDBRANCH   1  23
TORSDOF 21
ENDMDL
MODEL 2
REMARK VINA RESULT:      -9.6      3.399      9.472
REMARK SMILES CCN(CCC(=O)NCCCCCCNC(=O)c1ccc(-c2c3nc(c(-c4ccc(S(=O)(=O)[O-])cc4)c4ccc([nH]4)c(-c4ccc(S(=O)(=O)[O-])cc4)c4nc(c(-c5ccc(S(=O)(=O)[O-])cc5)c5ccc2[nH]5)C=C4)C=C3)cc1)C(=O)c1cc(Cl)ccc1F
REMARK SMILES IDX 11 1 10 2 9 3 8 4 6 5 7 6 5 8 4 9 3 10 2 11 1 12 78 13 79 14
REMARK SMILES IDX 80 15 81 16 86 17 82 18 85 19 87 20 83 21 84 22 12 23 13 24
REMARK SMILES IDX 14 25 15 26 16 27 17 29 18 30 19 31 77 32 20 33 76 34 21 35
REMARK SMILES IDX 22 36 23 37 70 38 24 39 75 40 69 41 71 42 25 43 74 44 68 45
REMARK SMILES IDX 67 46 26 48 56 49 37 50 55 51 38 52 41 53 54 54 72 55 39 56
REMARK SMILES IDX 40 57 53 59 73 60 42 61 27 62 28 63 36 64 29 65 35 66 30 67
REMARK SMILES IDX 31 68 32 69 33 70 34 71 57 72 58 73 66 74 59 75 65 76 60 77
REMARK SMILES IDX 61 78 62 79 63 80 64 81 43 82 44 83 52 84 45 85 51 86 46 87
REMARK SMILES IDX 47 88 48 89 49 90 50 91
REMARK H PARENT 8 7 15 28 71 47 41 58
REMARK Flexibility Score: inf
ROOT
ATOM      1  C   UNL A   1      40.026  22.835  26.977  1.00  0.00     0.002 C 
ENDROOT
BRANCH   1   2
ATOM      2  C   UNL A   1      38.978  22.215  26.048  1.00  0.00     0.021 C 
BRANCH   2   3
ATOM      3  C   UNL A   1      37.831  23.155  25.698  1.00  0.00     0.116 C 
BRANCH   3   4
ATOM      4  N   UNL A   1      37.401  22.970  24.324  1.00  0.00    -0.356 N 
ATOM      5  C   UNL A   1      36.199  23.251  23.748  1.00  0.00     0.221 C 
ATOM      6  O   UNL A   1      36.041  22.973  22.557  1.00  0.00    -0.275 OA
ATOM      7  H   UNL A   1      38.077  22.586  23.721  1.00  0.00     0.163 HD
BRANCH   5   8
ATOM      8  C   UNL A   1      35.097  23.899  24.549  1.00  0.00     0.121 C 
BRANCH   8   9
ATOM      9  C   UNL A   1      33.803  23.096  24.506  1.00  0.00     0.129 C 
BRANCH   9  10
ATOM     10  N   UNL A   1      33.057  23.123  23.238  1.00  0.00    -0.338 N 
BRANCH  10  11
ATOM     11  C   UNL A   1      32.372  21.856  22.912  1.00  0.00     0.116 C 
ATOM     12  C   UNL A   1      32.575  20.635  23.797  1.00  0.00     0.027 C 
ENDBRANCH  10  11
BRANCH  10  13
ATOM     13  C   UNL A   1      32.789  24.308  22.528  1.00  0.00     0.256 C 
ATOM     14  O   UNL A   1      33.382  24.629  21.499  1.00  0.00    -0.269 OA
BRANCH  13  15
ATOM     15  C   UNL A   1      31.972  25.390  23.142  1.00  0.00     0.077 A 
ATOM     16  C   UNL A   1      32.635  26.618  23.335  1.00  0.00     0.037 A 
ATOM     17  C   UNL A   1      30.626  25.310  23.483  1.00  0.00     0.136 A 
ATOM     18  C   UNL A   1      31.989  27.688  23.954  1.00  0.00     0.042 A 
ATOM     19  C   UNL A   1      29.991  26.366  24.145  1.00  0.00     0.041 A 
ATOM     20  F   UNL A   1      29.870  24.262  23.138  1.00  0.00    -0.206 F 
ATOM     21  Cl  UNL A   1      32.819  29.177  24.185  1.00  0.00    -0.084 Cl
ATOM     22  C   UNL A   1      30.676  27.555  24.394  1.00  0.00     0.023 A 
ENDBRANCH  13  15
ENDBRANCH  10  13
ENDBRANCH   9  10
ENDBRANCH   8   9
ENDBRANCH   5   8
ENDBRANCH   3   4
ENDBRANCH   2   3
ENDBRANCH   1   2
BRANCH   1  23
ATOM     23  C   UNL A   1      41.191  21.906  27.339  1.00  0.00     0.002 C 
BRANCH  23  24
ATOM     24  C   UNL A   1      41.221  20.572  26.585  1.00  0.00     0.021 C 
BRANCH  24  25
ATOM     25  C   UNL A   1      42.260  19.576  27.097  1.00  0.00     0.116 C 
BRANCH  25  26
ATOM     26  N   UNL A   1      43.023  18.987  26.008  1.00  0.00    -0.352 N 
ATOM     27  C   UNL A   1      43.814  19.613  25.074  1.00  0.00     0.251 C 
ATOM     28  H   UNL A   1      42.965  18.008  25.929  1.00  0.00     0.163 HD
ATOM     29  O   UNL A   1      44.198  19.007  24.080  1.00  0.00    -0.269 OA
BRANCH  27  30
ATOM     30  C   UNL A   1      44.181  21.034  25.265  1.00  0.00     0.039 A 
ATOM     31  C   UNL A   1      43.781  21.977  24.315  1.00  0.00     0.014 A 
ATOM     32  C   UNL A   1      44.921  21.430  26.383  1.00  0.00     0.014 A 
ATOM     33  C   UNL A   1      44.063  23.332  24.522  1.00  0.00     0.010 A 
ATOM     34  C   UNL A   1      45.150  22.784  26.616  1.00  0.00     0.010 A 
ATOM     35  C   UNL A   1      44.720  23.749  25.691  1.00  0.00    -0.014 A 
BRANCH  35  36
ATOM     36  C   UNL A   1      44.971  25.185  25.982  1.00  0.00     0.031 A 
ATOM     37  C   UNL A   1      46.369  25.735  25.876  1.00  0.00     0.074 A 
ATOM     38  C   UNL A   1      43.973  25.962  26.447  1.00  0.00     0.049 A 
ATOM     39  N   UNL A   1      46.824  26.902  26.252  1.00  0.00    -0.248 NA
ATOM     40  C   UNL A   1      47.390  24.847  25.298  1.00  0.00     0.031 C 
ATOM     41  C   UNL A   1      42.580  25.543  26.628  1.00  0.00     0.029 A 
ATOM     42  N   UNL A   1      43.983  27.265  26.882  1.00  0.00    -0.354 N 
ATOM     43  C   UNL A   1      48.190  26.874  25.999  1.00  0.00     0.074 A 
ATOM     44  C   UNL A   1      48.493  25.570  25.448  1.00  0.00     0.031 C 
ATOM     45  C   UNL A   1      41.875  26.565  27.140  1.00  0.00     0.029 A 
ATOM     46  C   UNL A   1      42.769  27.697  27.362  1.00  0.00     0.049 A 
ATOM     47  H   UNL A   1      44.786  27.836  26.853  1.00  0.00     0.167 HD
ATOM     48  C   UNL A   1      49.110  27.846  26.204  1.00  0.00     0.031 A 
ATOM     49  C   UNL A   1      42.418  28.863  27.941  1.00  0.00     0.031 A 
ATOM     50  C   UNL A   1      48.803  29.158  26.707  1.00  0.00     0.049 A 
ATOM     51  C   UNL A   1      43.455  29.936  28.132  1.00  0.00     0.074 A 
ATOM     52  C   UNL A   1      49.655  30.236  26.868  1.00  0.00     0.029 A 
ATOM     53  N   UNL A   1      47.549  29.571  27.126  1.00  0.00    -0.354 N 
ATOM     54  N   UNL A   1      44.731  29.911  27.826  1.00  0.00    -0.248 NA
ATOM     55  C   UNL A   1      43.007  31.196  28.743  1.00  0.00     0.031 C 
ATOM     56  C   UNL A   1      48.924  31.293  27.417  1.00  0.00     0.029 A 
ATOM     57  C   UNL A   1      47.609  30.883  27.561  1.00  0.00     0.049 A 
ATOM     58  H   UNL A   1      46.736  29.015  27.116  1.00  0.00     0.167 HD
ATOM     59  C   UNL A   1      45.228  31.160  28.181  1.00  0.00     0.074 A 
ATOM     60  C   UNL A   1      44.119  31.920  28.718  1.00  0.00     0.031 C 
ATOM     61  C   UNL A   1      46.491  31.634  28.070  1.00  0.00     0.031 A 
BRANCH  48  62
ATOM     62  C   UNL A   1      50.547  27.535  25.890  1.00  0.00    -0.014 A 
ATOM     63  C   UNL A   1      51.381  26.920  26.838  1.00  0.00     0.010 A 
ATOM     64  C   UNL A   1      51.042  27.788  24.597  1.00  0.00     0.010 A 
ATOM     65  C   UNL A   1      52.695  26.581  26.506  1.00  0.00     0.020 A 
ATOM     66  C   UNL A   1      52.350  27.432  24.255  1.00  0.00     0.020 A 
ATOM     67  C   UNL A   1      53.172  26.840  25.217  1.00  0.00     0.054 A 
BRANCH  67  68
ATOM     68  S   UNL A   1      54.863  26.341  24.794  1.00  0.00     0.124 S 
ATOM     69  O   UNL A   1      54.955  26.745  23.393  1.00  0.00    -0.237 OA
ATOM     70  O   UNL A   1      55.673  27.121  25.726  1.00  0.00    -0.237 OA
ATOM     71  O   UNL A   1      54.868  24.899  25.029  1.00  0.00    -0.744 OA
ENDBRANCH  67  68
ENDBRANCH  48  62
BRANCH  49  72
ATOM     72  C   UNL A   1      41.022  29.079  28.406  1.00  0.00    -0.014 A 
ATOM     73  C   UNL A   1      39.999  29.365  27.485  1.00  0.00     0.010 A 
ATOM     74  C   UNL A   1      40.714  29.023  29.778  1.00  0.00     0.010 A 
ATOM     75  C   UNL A   1      38.699  29.624  27.928  1.00  0.00     0.020 A 
ATOM     76  C   UNL A   1      39.411  29.258  30.223  1.00  0.00     0.020 A 
ATOM     77  C   UNL A   1      38.415  29.574  29.296  1.00  0.00     0.054 A 
BRANCH  77  78
ATOM     78  S   UNL A   1      36.717  29.889  29.857  1.00  0.00     0.124 S 
ATOM     79  O   UNL A   1      36.665  29.123  31.099  1.00  0.00    -0.237 OA
ATOM     80  O   UNL A   1      36.693  31.341  30.006  1.00  0.00    -0.237 OA
ATOM     81  O   UNL A   1      35.900  29.369  28.762  1.00  0.00    -0.744 OA
ENDBRANCH  77  78
ENDBRANCH  49  72
BRANCH  61  82
ATOM     82  C   UNL A   1      46.744  33.056  28.487  1.00  0.00    -0.014 A 
ATOM     83  C   UNL A   1      47.174  33.364  29.788  1.00  0.00     0.010 A 
ATOM     84  C   UNL A   1      46.632  34.086  27.535  1.00  0.00     0.010 A 
ATOM     85  C   UNL A   1      47.479  34.683  30.134  1.00  0.00     0.020 A 
ATOM     86  C   UNL A   1      46.954  35.402  27.872  1.00  0.00     0.020 A 
ATOM     87  C   UNL A   1      47.369  35.694  29.173  1.00  0.00     0.054 A 
BRANCH  87  88
ATOM     88  S   UNL A   1      47.839  37.387  29.622  1.00  0.00     0.124 S 
ATOM     89  O   UNL A   1      46.864  37.708  30.661  1.00  0.00    -0.237 OA
ATOM     90  O   UNL A   1      49.217  37.229  30.081  1.00  0.00    -0.237 OA
ATOM     91  O   UNL A   1      47.688  38.131  28.373  1.00  0.00    -0.744 OA
ENDBRANCH  87  88
ENDBRANCH  61  82
ENDBRANCH  35  36
ENDBRANCH  27  30
ENDBRANCH  25  26
ENDBRANCH  24  25
ENDBRANCH  23  24
ENDBRANCH   1  23
TORSDOF 21
ENDMDL
MODEL 3
REMARK VINA RESULT:      -9.4      5.196      6.579
REMARK SMILES CCN(CCC(=O)NCCCCCCNC(=O)c1ccc(-c2c3nc(c(-c4ccc(S(=O)(=O)[O-])cc4)c4ccc([nH]4)c(-c4ccc(S(=O)(=O)[O-])cc4)c4nc(c(-c5ccc(S(=O)(=O)[O-])cc5)c5ccc2[nH]5)C=C4)C=C3)cc1)C(=O)c1cc(Cl)ccc1F
REMARK SMILES IDX 11 1 10 2 9 3 8 4 6 5 7 6 5 8 4 9 3 10 2 11 1 12 78 13 79 14
REMARK SMILES IDX 80 15 81 16 86 17 82 18 85 19 87 20 83 21 84 22 12 23 13 24
REMARK SMILES IDX 14 25 15 26 16 27 17 29 18 30 19 31 77 32 20 33 76 34 21 35
REMARK SMILES IDX 22 36 23 37 70 38 24 39 75 40 69 41 71 42 25 43 74 44 68 45
REMARK SMILES IDX 67 46 26 48 56 49 37 50 55 51 38 52 41 53 54 54 72 55 39 56
REMARK SMILES IDX 40 57 53 59 73 60 42 61 27 62 28 63 36 64 29 65 35 66 30 67
REMARK SMILES IDX 31 68 32 69 33 70 34 71 57 72 58 73 66 74 59 75 65 76 60 77
REMARK SMILES IDX 61 78 62 79 63 80 64 81 43 82 44 83 52 84 45 85 51 86 46 87
REMARK SMILES IDX 47 88 48 89 49 90 50 91
REMARK H PARENT 8 7 15 28 71 47 41 58
REMARK Flexibility Score: inf
ROOT
ATOM      1  C   UNL A   1      35.552  30.754  28.558  1.00  0.00     0.002 C 
ENDROOT
BRANCH   1   2
ATOM      2  C   UNL A   1      35.573  29.724  27.425  1.00  0.00     0.021 C 
BRANCH   2   3
ATOM      3  C   UNL A   1      34.190  29.249  26.998  1.00  0.00     0.116 C 
BRANCH   3   4
ATOM      4  N   UNL A   1      33.914  29.608  25.618  1.00  0.00    -0.356 N 
ATOM      5  C   UNL A   1      33.553  28.813  24.573  1.00  0.00     0.221 C 
ATOM      6  O   UNL A   1      33.406  29.334  23.465  1.00  0.00    -0.275 OA
ATOM      7  H   UNL A   1      34.001  30.565  25.408  1.00  0.00     0.163 HD
BRANCH   5   8
ATOM      8  C   UNL A   1      33.327  27.335  24.775  1.00  0.00     0.121 C 
BRANCH   8   9
ATOM      9  C   UNL A   1      33.182  26.588  23.455  1.00  0.00     0.129 C 
BRANCH   9  10
ATOM     10  N   UNL A   1      32.795  25.171  23.544  1.00  0.00    -0.338 N 
BRANCH  10  11
ATOM     11  C   UNL A   1      31.335  24.943  23.560  1.00  0.00     0.116 C 
ATOM     12  C   UNL A   1      30.780  23.564  23.244  1.00  0.00     0.027 C 
ENDBRANCH  10  11
BRANCH  10  13
ATOM     13  C   UNL A   1      33.703  24.111  23.362  1.00  0.00     0.256 C 
ATOM     14  O   UNL A   1      33.965  23.626  22.262  1.00  0.00    -0.269 OA
BRANCH  13  15
ATOM     15  C   UNL A   1      34.181  23.316  24.526  1.00  0.00     0.077 A 
ATOM     16  C   UNL A   1      35.231  22.416  24.257  1.00  0.00     0.037 A 
ATOM     17  C   UNL A   1      33.727  23.423  25.836  1.00  0.00     0.136 A 
ATOM     18  C   UNL A   1      35.724  21.576  25.256  1.00  0.00     0.042 A 
ATOM     19  C   UNL A   1      34.188  22.551  26.827  1.00  0.00     0.041 A 
ATOM     20  F   UNL A   1      32.892  24.396  26.218  1.00  0.00    -0.206 F 
ATOM     21  Cl  UNL A   1      37.002  20.480  24.906  1.00  0.00    -0.084 Cl
ATOM     22  C   UNL A   1      35.180  21.615  26.536  1.00  0.00     0.023 A 
ENDBRANCH  13  15
ENDBRANCH  10  13
ENDBRANCH   9  10
ENDBRANCH   8   9
ENDBRANCH   5   8
ENDBRANCH   3   4
ENDBRANCH   2   3
ENDBRANCH   1   2
BRANCH   1  23
ATOM     23  C   UNL A   1      35.557  32.216  28.097  1.00  0.00     0.002 C 
BRANCH  23  24
ATOM     24  C   UNL A   1      34.180  32.885  28.034  1.00  0.00     0.021 C 
BRANCH  24  25
ATOM     25  C   UNL A   1      34.218  34.410  27.947  1.00  0.00     0.116 C 
BRANCH  25  26
ATOM     26  N   UNL A   1      33.318  35.027  28.908  1.00  0.00    -0.352 N 
ATOM     27  C   UNL A   1      33.303  34.902  30.276  1.00  0.00     0.251 C 
ATOM     28  H   UNL A   1      32.626  35.614  28.526  1.00  0.00     0.163 HD
ATOM     29  O   UNL A   1      32.339  35.294  30.925  1.00  0.00    -0.269 OA
BRANCH  27  30
ATOM     30  C   UNL A   1      34.452  34.268  30.963  1.00  0.00     0.039 A 
ATOM     31  C   UNL A   1      34.283  33.021  31.567  1.00  0.00     0.014 A 
ATOM     32  C   UNL A   1      35.692  34.911  31.007  1.00  0.00     0.014 A 
ATOM     33  C   UNL A   1      35.380  32.382  32.156  1.00  0.00     0.010 A 
ATOM     34  C   UNL A   1      36.794  34.250  31.543  1.00  0.00     0.010 A 
ATOM     35  C   UNL A   1      36.651  32.977  32.119  1.00  0.00    -0.014 A 
BRANCH  35  36
ATOM     36  C   UNL A   1      37.853  32.298  32.669  1.00  0.00     0.031 A 
ATOM     37  C   UNL A   1      38.311  32.607  34.070  1.00  0.00     0.074 A 
ATOM     38  C   UNL A   1      38.594  31.496  31.878  1.00  0.00     0.049 A 
ATOM     39  N   UNL A   1      39.421  32.260  34.668  1.00  0.00    -0.248 NA
ATOM     40  C   UNL A   1      37.416  33.435  34.894  1.00  0.00     0.031 C 
ATOM     41  C   UNL A   1      38.280  31.143  30.491  1.00  0.00     0.029 A 
ATOM     42  N   UNL A   1      39.785  30.856  32.119  1.00  0.00    -0.354 N 
ATOM     43  C   UNL A   1      39.381  32.863  35.919  1.00  0.00     0.074 A 
ATOM     44  C   UNL A   1      38.142  33.607  35.991  1.00  0.00     0.031 C 
ATOM     45  C   UNL A   1      39.254  30.354  30.005  1.00  0.00     0.029 A 
ATOM     46  C   UNL A   1      40.281  30.180  31.028  1.00  0.00     0.049 A 
ATOM     47  H   UNL A   1      40.241  30.879  32.992  1.00  0.00     0.167 HD
ATOM     48  C   UNL A   1      40.291  32.800  36.919  1.00  0.00     0.031 A 
ATOM     49  C   UNL A   1      41.442  29.517  30.859  1.00  0.00     0.031 A 
ATOM     50  C   UNL A   1      41.499  32.023  36.867  1.00  0.00     0.049 A 
ATOM     51  C   UNL A   1      42.424  29.441  31.997  1.00  0.00     0.074 A 
ATOM     52  C   UNL A   1      42.440  31.830  37.864  1.00  0.00     0.029 A 
ATOM     53  N   UNL A   1      41.932  31.306  35.763  1.00  0.00    -0.354 N 
ATOM     54  N   UNL A   1      42.335  29.967  33.195  1.00  0.00    -0.248 NA
ATOM     55  C   UNL A   1      43.660  28.681  31.762  1.00  0.00     0.031 C 
ATOM     56  C   UNL A   1      43.461  31.026  37.352  1.00  0.00     0.029 A 
ATOM     57  C   UNL A   1      43.135  30.686  36.050  1.00  0.00     0.049 A 
ATOM     58  H   UNL A   1      41.456  31.248  34.903  1.00  0.00     0.167 HD
ATOM     59  C   UNL A   1      43.490  29.576  33.865  1.00  0.00     0.074 A 
ATOM     60  C   UNL A   1      44.258  28.766  32.943  1.00  0.00     0.031 C 
ATOM     61  C   UNL A   1      43.876  29.862  35.130  1.00  0.00     0.031 A 
BRANCH  48  62
ATOM     62  C   UNL A   1      40.025  33.598  38.166  1.00  0.00    -0.014 A 
ATOM     63  C   UNL A   1      39.327  33.040  39.250  1.00  0.00     0.010 A 
ATOM     64  C   UNL A   1      40.555  34.896  38.282  1.00  0.00     0.010 A 
ATOM     65  C   UNL A   1      39.145  33.775  40.424  1.00  0.00     0.020 A 
ATOM     66  C   UNL A   1      40.392  35.627  39.462  1.00  0.00     0.020 A 
ATOM     67  C   UNL A   1      39.678  35.065  40.522  1.00  0.00     0.054 A 
BRANCH  67  68
ATOM     68  S   UNL A   1      39.474  35.977  42.077  1.00  0.00     0.124 S 
ATOM     69  O   UNL A   1      39.456  37.362  41.612  1.00  0.00    -0.237 OA
ATOM     70  O   UNL A   1      38.203  35.470  42.585  1.00  0.00    -0.237 OA
ATOM     71  O   UNL A   1      40.649  35.597  42.857  1.00  0.00    -0.744 OA
ENDBRANCH  67  68
ENDBRANCH  48  62
BRANCH  49  72
ATOM     72  C   UNL A   1      41.760  28.884  29.552  1.00  0.00    -0.014 A 
ATOM     73  C   UNL A   1      42.397  29.622  28.538  1.00  0.00     0.010 A 
ATOM     74  C   UNL A   1      41.406  27.545  29.306  1.00  0.00     0.010 A 
ATOM     75  C   UNL A   1      42.643  29.043  27.290  1.00  0.00     0.020 A 
ATOM     76  C   UNL A   1      41.673  26.955  28.068  1.00  0.00     0.020 A 
ATOM     77  C   UNL A   1      42.274  27.714  27.061  1.00  0.00     0.054 A 
BRANCH  77  78
ATOM     78  S   UNL A   1      42.622  26.967  25.444  1.00  0.00     0.124 S 
ATOM     79  O   UNL A   1      42.581  28.128  24.561  1.00  0.00    -0.237 OA
ATOM     80  O   UNL A   1      43.939  26.368  25.644  1.00  0.00    -0.237 OA
ATOM     81  O   UNL A   1      41.531  26.008  25.275  1.00  0.00    -0.744 OA
ENDBRANCH  77  78
ENDBRANCH  49  72
BRANCH  61  82
ATOM     82  C   UNL A   1      45.162  29.259  35.622  1.00  0.00    -0.014 A 
ATOM     83  C   UNL A   1      46.376  29.960  35.524  1.00  0.00     0.010 A 
ATOM     84  C   UNL A   1      45.137  28.011  36.269  1.00  0.00     0.010 A 
ATOM     85  C   UNL A   1      47.547  29.416  36.056  1.00  0.00     0.020 A 
ATOM     86  C   UNL A   1      46.302  27.473  36.820  1.00  0.00     0.020 A 
ATOM     87  C   UNL A   1      47.502  28.176  36.704  1.00  0.00     0.054 A 
BRANCH  87  88
ATOM     88  S   UNL A   1      49.020  27.522  37.452  1.00  0.00     0.124 S 
ATOM     89  O   UNL A   1      48.945  26.106  37.104  1.00  0.00    -0.237 OA
ATOM     90  O   UNL A   1      50.068  28.282  36.775  1.00  0.00    -0.237 OA
ATOM     91  O   UNL A   1      48.862  27.825  38.874  1.00  0.00    -0.744 OA
ENDBRANCH  87  88
ENDBRANCH  61  82
ENDBRANCH  35  36
ENDBRANCH  27  30
ENDBRANCH  25  26
ENDBRANCH  24  25
ENDBRANCH  23  24
ENDBRANCH   1  23
TORSDOF 21
ENDMDL
