MODEL 1
REMARK VINA RESULT:     -11.6      0.000      0.000
REMARK SMILES Cc1c(Cl)cccc1-c1cccc(Cl)c1C(=O)NCCCCCCNC(=O)c1ccc(-c2c3nc(c(-c4ccc(S(=O)(=O)[O-])cc4)c4ccc([nH]4)c(-c4ccc(S(=O)(=O)[O-])cc4)c4nc(c(-c5ccc(S(=O)(=O)[O-])cc5)c5ccc2[nH]5)C=C4)C=C3)cc1
REMARK SMILES IDX 22 1 21 2 20 3 19 4 18 5 16 6 17 7 15 9 9 10 10 11 11 12
REMARK SMILES IDX 13 13 12 14 14 15 8 16 1 17 2 18 3 19 4 20 5 21 7 22 6 23
REMARK SMILES IDX 23 24 24 25 25 26 26 27 27 29 28 30 29 31 87 32 30 33 86 34
REMARK SMILES IDX 31 35 32 36 33 37 80 38 34 39 85 40 79 41 81 42 35 43 84 44
REMARK SMILES IDX 78 45 77 46 36 48 66 49 47 50 65 51 48 52 51 53 64 54 82 55
REMARK SMILES IDX 49 56 50 57 63 59 83 60 52 61 37 62 38 63 46 64 39 65 45 66
REMARK SMILES IDX 40 67 41 68 42 69 43 70 44 71 67 72 68 73 76 74 69 75 75 76
REMARK SMILES IDX 70 77 71 78 72 79 73 80 74 81 53 82 54 83 62 84 55 85 61 86
REMARK SMILES IDX 56 87 57 88 58 89 59 90 60 91
REMARK H PARENT 18 8 25 28 81 47 51 58
REMARK Flexibility Score: inf
ROOT
ATOM      1  C   UNL A   1      33.997  28.919  26.378  1.00  0.00     0.002 C 
ENDROOT
BRANCH   1   2
ATOM      2  C   UNL A   1      32.663  29.484  26.877  1.00  0.00     0.002 C 
BRANCH   2   3
ATOM      3  C   UNL A   1      31.682  28.561  27.613  1.00  0.00     0.021 C 
BRANCH   3   4
ATOM      4  C   UNL A   1      31.666  27.083  27.241  1.00  0.00     0.116 C 
BRANCH   4   5
ATOM      5  N   UNL A   1      30.680  26.683  26.269  1.00  0.00    -0.352 N 
ATOM      6  C   UNL A   1      30.823  26.508  24.912  1.00  0.00     0.253 C 
ATOM      7  O   UNL A   1      29.963  25.850  24.324  1.00  0.00    -0.269 OA
ATOM      8  H   UNL A   1      29.778  26.511  26.625  1.00  0.00     0.163 HD
BRANCH   6   9
ATOM      9  C   UNL A   1      31.934  27.091  24.103  1.00  0.00     0.066 A 
ATOM     10  C   UNL A   1      33.130  26.403  23.767  1.00  0.00    -0.004 A 
ATOM     11  C   UNL A   1      34.009  27.001  22.828  1.00  0.00     0.009 A 
ATOM     12  C   UNL A   1      33.736  28.225  22.229  1.00  0.00     0.002 A 
ATOM     13  C   UNL A   1      31.681  28.345  23.494  1.00  0.00     0.054 A 
ATOM     14  C   UNL A   1      32.575  28.900  22.566  1.00  0.00     0.021 A 
ATOM     15  Cl  UNL A   1      30.290  29.318  23.863  1.00  0.00    -0.083 Cl
BRANCH  10  16
ATOM     16  C   UNL A   1      33.582  25.113  24.328  1.00  0.00    -0.013 A 
ATOM     17  C   UNL A   1      32.270  23.711  22.648  1.00  0.00     0.046 C 
ATOM     18  C   UNL A   1      33.206  23.847  23.822  1.00  0.00    -0.025 A 
ATOM     19  C   UNL A   1      33.692  22.691  24.473  1.00  0.00     0.044 A 
ATOM     20  Cl  UNL A   1      33.199  21.103  23.997  1.00  0.00    -0.084 Cl
ATOM     21  C   UNL A   1      34.570  22.778  25.560  1.00  0.00     0.021 A 
ATOM     22  C   UNL A   1      34.481  25.169  25.424  1.00  0.00     0.009 A 
ATOM     23  C   UNL A   1      34.969  24.018  26.036  1.00  0.00     0.002 A 
ENDBRANCH  10  16
ENDBRANCH   6   9
ENDBRANCH   4   5
ENDBRANCH   3   4
ENDBRANCH   2   3
ENDBRANCH   1   2
BRANCH   1  24
ATOM     24  C   UNL A   1      35.212  28.969  27.307  1.00  0.00     0.021 C 
BRANCH  24  25
ATOM     25  C   UNL A   1      35.529  30.286  28.007  1.00  0.00     0.116 C 
BRANCH  25  26
ATOM     26  N   UNL A   1      35.506  30.190  29.450  1.00  0.00    -0.352 N 
ATOM     27  C   UNL A   1      36.490  29.855  30.348  1.00  0.00     0.251 C 
ATOM     28  H   UNL A   1      34.635  30.403  29.859  1.00  0.00     0.163 HD
ATOM     29  O   UNL A   1      36.180  29.756  31.536  1.00  0.00    -0.269 OA
BRANCH  27  30
ATOM     30  C   UNL A   1      37.899  29.593  29.944  1.00  0.00     0.039 A 
ATOM     31  C   UNL A   1      38.227  29.742  28.588  1.00  0.00     0.014 A 
ATOM     32  C   UNL A   1      38.878  29.120  30.824  1.00  0.00     0.014 A 
ATOM     33  C   UNL A   1      39.512  29.436  28.126  1.00  0.00     0.010 A 
ATOM     34  C   UNL A   1      40.183  28.877  30.371  1.00  0.00     0.010 A 
ATOM     35  C   UNL A   1      40.509  29.006  29.012  1.00  0.00    -0.014 A 
BRANCH  35  36
ATOM     36  C   UNL A   1      41.864  28.639  28.509  1.00  0.00     0.031 A 
ATOM     37  C   UNL A   1      42.955  29.678  28.424  1.00  0.00     0.074 A 
ATOM     38  C   UNL A   1      42.124  27.373  28.124  1.00  0.00     0.049 A 
ATOM     39  N   UNL A   1      44.200  29.538  28.040  1.00  0.00    -0.248 NA
ATOM     40  C   UNL A   1      42.598  31.055  28.802  1.00  0.00     0.031 C 
ATOM     41  C   UNL A   1      41.156  26.274  28.115  1.00  0.00     0.029 A 
ATOM     42  N   UNL A   1      43.285  26.795  27.670  1.00  0.00    -0.354 N 
ATOM     43  C   UNL A   1      44.768  30.807  28.115  1.00  0.00     0.074 A 
ATOM     44  C   UNL A   1      43.721  31.710  28.539  1.00  0.00     0.031 C 
ATOM     45  C   UNL A   1      41.769  25.151  27.702  1.00  0.00     0.029 A 
ATOM     46  C   UNL A   1      43.165  25.452  27.398  1.00  0.00     0.049 A 
ATOM     47  H   UNL A   1      44.124  27.296  27.551  1.00  0.00     0.167 HD
ATOM     48  C   UNL A   1      46.046  31.186  27.873  1.00  0.00     0.031 A 
ATOM     49  C   UNL A   1      44.075  24.559  26.962  1.00  0.00     0.031 A 
ATOM     50  C   UNL A   1      47.101  30.290  27.476  1.00  0.00     0.049 A 
ATOM     51  C   UNL A   1      45.497  24.996  26.737  1.00  0.00     0.074 A 
ATOM     52  C   UNL A   1      48.439  30.578  27.260  1.00  0.00     0.029 A 
ATOM     53  N   UNL A   1      46.943  28.934  27.243  1.00  0.00    -0.354 N 
ATOM     54  N   UNL A   1      46.024  26.190  26.873  1.00  0.00    -0.248 NA
ATOM     55  C   UNL A   1      46.454  23.958  26.326  1.00  0.00     0.031 C 
ATOM     56  C   UNL A   1      49.082  29.400  26.861  1.00  0.00     0.029 A 
ATOM     57  C   UNL A   1      48.154  28.372  26.876  1.00  0.00     0.049 A 
ATOM     58  H   UNL A   1      46.094  28.442  27.325  1.00  0.00     0.167 HD
ATOM     59  C   UNL A   1      47.378  26.039  26.592  1.00  0.00     0.074 A 
ATOM     60  C   UNL A   1      47.592  24.638  26.296  1.00  0.00     0.031 C 
ATOM     61  C   UNL A   1      48.358  26.977  26.584  1.00  0.00     0.031 A 
BRANCH  48  62
ATOM     62  C   UNL A   1      46.381  32.647  28.032  1.00  0.00    -0.014 A 
ATOM     63  C   UNL A   1      46.338  33.525  26.934  1.00  0.00     0.010 A 
ATOM     64  C   UNL A   1      46.696  33.158  29.305  1.00  0.00     0.010 A 
ATOM     65  C   UNL A   1      46.642  34.879  27.099  1.00  0.00     0.020 A 
ATOM     66  C   UNL A   1      46.974  34.517  29.478  1.00  0.00     0.020 A 
ATOM     67  C   UNL A   1      46.961  35.366  28.369  1.00  0.00     0.054 A 
BRANCH  67  68
ATOM     68  S   UNL A   1      47.328  37.133  28.561  1.00  0.00     0.124 S 
ATOM     69  O   UNL A   1      48.763  37.115  28.828  1.00  0.00    -0.237 OA
ATOM     70  O   UNL A   1      46.937  37.685  27.266  1.00  0.00    -0.237 OA
ATOM     71  O   UNL A   1      46.490  37.540  29.686  1.00  0.00    -0.744 OA
ENDBRANCH  67  68
ENDBRANCH  48  62
BRANCH  49  72
ATOM     72  C   UNL A   1      43.678  23.143  26.733  1.00  0.00    -0.014 A 
ATOM     73  C   UNL A   1      42.903  22.453  27.683  1.00  0.00     0.010 A 
ATOM     74  C   UNL A   1      44.082  22.474  25.564  1.00  0.00     0.010 A 
ATOM     75  C   UNL A   1      42.564  21.112  27.481  1.00  0.00     0.020 A 
ATOM     76  C   UNL A   1      43.721  21.141  25.346  1.00  0.00     0.020 A 
ATOM     77  C   UNL A   1      42.977  20.464  26.314  1.00  0.00     0.054 A 
BRANCH  77  78
ATOM     78  S   UNL A   1      42.493  18.734  26.050  1.00  0.00     0.124 S 
ATOM     79  O   UNL A   1      42.789  18.136  27.347  1.00  0.00    -0.237 OA
ATOM     80  O   UNL A   1      41.077  18.848  25.712  1.00  0.00    -0.237 OA
ATOM     81  O   UNL A   1      43.355  18.305  24.950  1.00  0.00    -0.744 OA
ENDBRANCH  77  78
ENDBRANCH  49  72
BRANCH  61  82
ATOM     82  C   UNL A   1      49.757  26.509  26.286  1.00  0.00    -0.014 A 
ATOM     83  C   UNL A   1      50.294  26.587  24.990  1.00  0.00     0.010 A 
ATOM     84  C   UNL A   1      50.552  25.996  27.327  1.00  0.00     0.010 A 
ATOM     85  C   UNL A   1      51.584  26.113  24.729  1.00  0.00     0.020 A 
ATOM     86  C   UNL A   1      51.851  25.545  27.076  1.00  0.00     0.020 A 
ATOM     87  C   UNL A   1      52.350  25.586  25.773  1.00  0.00     0.054 A 
BRANCH  87  88
ATOM     88  S   UNL A   1      54.022  24.981  25.417  1.00  0.00     0.124 S 
ATOM     89  O   UNL A   1      53.762  23.612  24.977  1.00  0.00    -0.237 OA
ATOM     90  O   UNL A   1      54.484  25.897  24.376  1.00  0.00    -0.237 OA
ATOM     91  O   UNL A   1      54.714  25.105  26.698  1.00  0.00    -0.744 OA
ENDBRANCH  87  88
ENDBRANCH  61  82
ENDBRANCH  35  36
ENDBRANCH  27  30
ENDBRANCH  25  26
ENDBRANCH  24  25
ENDBRANCH   1  24
TORSDOF 17
ENDMDL
MODEL 2
REMARK VINA RESULT:     -11.4      6.277      8.631
REMARK SMILES Cc1c(Cl)cccc1-c1cccc(Cl)c1C(=O)NCCCCCCNC(=O)c1ccc(-c2c3nc(c(-c4ccc(S(=O)(=O)[O-])cc4)c4ccc([nH]4)c(-c4ccc(S(=O)(=O)[O-])cc4)c4nc(c(-c5ccc(S(=O)(=O)[O-])cc5)c5ccc2[nH]5)C=C4)C=C3)cc1
REMARK SMILES IDX 22 1 21 2 20 3 19 4 18 5 16 6 17 7 15 9 9 10 10 11 11 12
REMARK SMILES IDX 13 13 12 14 14 15 8 16 1 17 2 18 3 19 4 20 5 21 7 22 6 23
REMARK SMILES IDX 23 24 24 25 25 26 26 27 27 29 28 30 29 31 87 32 30 33 86 34
REMARK SMILES IDX 31 35 32 36 33 37 80 38 34 39 85 40 79 41 81 42 35 43 84 44
REMARK SMILES IDX 78 45 77 46 36 48 66 49 47 50 65 51 48 52 51 53 64 54 82 55
REMARK SMILES IDX 49 56 50 57 63 59 83 60 52 61 37 62 38 63 46 64 39 65 45 66
REMARK SMILES IDX 40 67 41 68 42 69 43 70 44 71 67 72 68 73 76 74 69 75 75 76
REMARK SMILES IDX 70 77 71 78 72 79 73 80 74 81 53 82 54 83 62 84 55 85 61 86
REMARK SMILES IDX 56 87 57 88 58 89 59 90 60 91
REMARK H PARENT 18 8 25 28 81 47 51 58
REMARK Flexibility Score: inf
ROOT
ATOM      1  C   UNL A   1      34.663  31.221  27.628  1.00  0.00     0.002 C 
ENDROOT
BRANCH   1   2
ATOM      2  C   UNL A   1      34.809  29.697  27.697  1.00  0.00     0.002 C 
BRANCH   2   3
ATOM      3  C   UNL A   1      34.451  28.850  26.469  1.00  0.00     0.021 C 
BRANCH   3   4
ATOM      4  C   UNL A   1      33.139  29.141  25.750  1.00  0.00     0.116 C 
BRANCH   4   5
ATOM      5  N   UNL A   1      31.990  28.393  26.194  1.00  0.00    -0.352 N 
ATOM      6  C   UNL A   1      31.533  27.171  25.759  1.00  0.00     0.253 C 
ATOM      7  O   UNL A   1      30.745  26.562  26.485  1.00  0.00    -0.269 OA
ATOM      8  H   UNL A   1      31.458  28.815  26.907  1.00  0.00     0.163 HD
BRANCH   6   9
ATOM      9  C   UNL A   1      31.902  26.552  24.451  1.00  0.00     0.066 A 
ATOM     10  C   UNL A   1      31.361  26.942  23.198  1.00  0.00    -0.004 A 
ATOM     11  C   UNL A   1      31.945  26.413  22.018  1.00  0.00     0.009 A 
ATOM     12  C   UNL A   1      33.023  25.536  22.052  1.00  0.00     0.002 A 
ATOM     13  C   UNL A   1      32.990  25.646  24.466  1.00  0.00     0.054 A 
ATOM     14  C   UNL A   1      33.542  25.148  23.276  1.00  0.00     0.021 A 
ATOM     15  Cl  UNL A   1      33.704  25.039  25.929  1.00  0.00    -0.083 Cl
BRANCH  10  16
ATOM     16  C   UNL A   1      30.207  27.840  22.986  1.00  0.00    -0.013 A 
ATOM     17  C   UNL A   1      28.534  26.252  24.077  1.00  0.00     0.046 C 
ATOM     18  C   UNL A   1      28.884  27.549  23.393  1.00  0.00    -0.025 A 
ATOM     19  C   UNL A   1      27.868  28.489  23.103  1.00  0.00     0.044 A 
ATOM     20  Cl  UNL A   1      26.206  28.172  23.460  1.00  0.00    -0.084 Cl
ATOM     21  C   UNL A   1      28.157  29.708  22.478  1.00  0.00     0.021 A 
ATOM     22  C   UNL A   1      30.469  29.088  22.365  1.00  0.00     0.009 A 
ATOM     23  C   UNL A   1      29.459  30.011  22.110  1.00  0.00     0.002 A 
ENDBRANCH  10  16
ENDBRANCH   6   9
ENDBRANCH   4   5
ENDBRANCH   3   4
ENDBRANCH   2   3
ENDBRANCH   1   2
BRANCH   1  24
ATOM     24  C   UNL A   1      33.275  31.838  27.814  1.00  0.00     0.021 C 
BRANCH  24  25
ATOM     25  C   UNL A   1      32.956  33.128  27.067  1.00  0.00     0.116 C 
BRANCH  25  26
ATOM     26  N   UNL A   1      32.649  34.238  27.943  1.00  0.00    -0.352 N 
ATOM     27  C   UNL A   1      33.251  34.666  29.101  1.00  0.00     0.251 C 
ATOM     28  H   UNL A   1      31.877  34.780  27.660  1.00  0.00     0.163 HD
ATOM     29  O   UNL A   1      32.728  35.598  29.715  1.00  0.00    -0.269 OA
BRANCH  27  30
ATOM     30  C   UNL A   1      34.490  34.045  29.648  1.00  0.00     0.039 A 
ATOM     31  C   UNL A   1      34.354  33.165  30.731  1.00  0.00     0.014 A 
ATOM     32  C   UNL A   1      35.775  34.366  29.200  1.00  0.00     0.014 A 
ATOM     33  C   UNL A   1      35.482  32.607  31.344  1.00  0.00     0.010 A 
ATOM     34  C   UNL A   1      36.901  33.757  29.773  1.00  0.00     0.010 A 
ATOM     35  C   UNL A   1      36.770  32.891  30.869  1.00  0.00    -0.014 A 
BRANCH  35  36
ATOM     36  C   UNL A   1      37.970  32.330  31.553  1.00  0.00     0.031 A 
ATOM     37  C   UNL A   1      38.398  32.856  32.901  1.00  0.00     0.074 A 
ATOM     38  C   UNL A   1      38.685  31.346  30.969  1.00  0.00     0.049 A 
ATOM     39  N   UNL A   1      39.396  32.472  33.658  1.00  0.00    -0.248 NA
ATOM     40  C   UNL A   1      37.617  33.969  33.463  1.00  0.00     0.031 C 
ATOM     41  C   UNL A   1      38.412  30.767  29.652  1.00  0.00     0.029 A 
ATOM     42  N   UNL A   1      39.788  30.655  31.412  1.00  0.00    -0.354 N 
ATOM     43  C   UNL A   1      39.371  33.303  34.774  1.00  0.00     0.074 A 
ATOM     44  C   UNL A   1      38.287  34.239  34.575  1.00  0.00     0.031 C 
ATOM     45  C   UNL A   1      39.305  29.794  29.405  1.00  0.00     0.029 A 
ATOM     46  C   UNL A   1      40.226  29.691  30.534  1.00  0.00     0.049 A 
ATOM     47  H   UNL A   1      40.222  30.834  32.277  1.00  0.00     0.167 HD
ATOM     48  C   UNL A   1      40.163  33.280  35.874  1.00  0.00     0.031 A 
ATOM     49  C   UNL A   1      41.246  28.816  30.627  1.00  0.00     0.031 A 
ATOM     50  C   UNL A   1      41.227  32.337  36.094  1.00  0.00     0.049 A 
ATOM     51  C   UNL A   1      42.086  28.785  31.875  1.00  0.00     0.074 A 
ATOM     52  C   UNL A   1      42.047  32.206  37.203  1.00  0.00     0.029 A 
ATOM     53  N   UNL A   1      41.616  31.358  35.194  1.00  0.00    -0.354 N 
ATOM     54  N   UNL A   1      42.005  29.542  32.943  1.00  0.00    -0.248 NA
ATOM     55  C   UNL A   1      43.141  27.762  31.939  1.00  0.00     0.031 C 
ATOM     56  C   UNL A   1      42.955  31.169  36.956  1.00  0.00     0.029 A 
ATOM     57  C   UNL A   1      42.668  30.625  35.715  1.00  0.00     0.049 A 
ATOM     58  H   UNL A   1      41.204  31.206  34.312  1.00  0.00     0.167 HD
ATOM     59  C   UNL A   1      42.977  29.067  33.818  1.00  0.00     0.074 A 
ATOM     60  C   UNL A   1      43.622  27.949  33.161  1.00  0.00     0.031 C 
ATOM     61  C   UNL A   1      43.304  29.514  35.056  1.00  0.00     0.031 A 
BRANCH  48  62
ATOM     62  C   UNL A   1      39.906  34.317  36.938  1.00  0.00    -0.014 A 
ATOM     63  C   UNL A   1      39.088  34.032  38.047  1.00  0.00     0.010 A 
ATOM     64  C   UNL A   1      40.529  35.576  36.854  1.00  0.00     0.010 A 
ATOM     65  C   UNL A   1      38.867  34.999  39.031  1.00  0.00     0.020 A 
ATOM     66  C   UNL A   1      40.330  36.536  37.849  1.00  0.00     0.020 A 
ATOM     67  C   UNL A   1      39.487  36.247  38.924  1.00  0.00     0.054 A 
BRANCH  67  68
ATOM     68  S   UNL A   1      39.203  37.477  40.227  1.00  0.00     0.124 S 
ATOM     69  O   UNL A   1      38.646  36.656  41.299  1.00  0.00    -0.237 OA
ATOM     70  O   UNL A   1      40.543  38.004  40.471  1.00  0.00    -0.237 OA
ATOM     71  O   UNL A   1      38.268  38.419  39.616  1.00  0.00    -0.744 OA
ENDBRANCH  67  68
ENDBRANCH  48  62
BRANCH  49  72
ATOM     72  C   UNL A   1      41.519  27.869  29.512  1.00  0.00    -0.014 A 
ATOM     73  C   UNL A   1      40.756  26.696  29.365  1.00  0.00     0.010 A 
ATOM     74  C   UNL A   1      42.552  28.132  28.595  1.00  0.00     0.010 A 
ATOM     75  C   UNL A   1      41.040  25.791  28.338  1.00  0.00     0.020 A 
ATOM     76  C   UNL A   1      42.821  27.242  27.552  1.00  0.00     0.020 A 
ATOM     77  C   UNL A   1      42.072  26.069  27.439  1.00  0.00     0.054 A 
BRANCH  77  78
ATOM     78  S   UNL A   1      42.401  24.901  26.089  1.00  0.00     0.124 S 
ATOM     79  O   UNL A   1      43.728  24.405  26.434  1.00  0.00    -0.237 OA
ATOM     80  O   UNL A   1      41.309  23.941  26.225  1.00  0.00    -0.237 OA
ATOM     81  O   UNL A   1      42.336  25.739  24.893  1.00  0.00    -0.744 OA
ENDBRANCH  77  78
ENDBRANCH  49  72
BRANCH  61  82
ATOM     82  C   UNL A   1      44.379  28.766  35.797  1.00  0.00    -0.014 A 
ATOM     83  C   UNL A   1      45.740  29.054  35.599  1.00  0.00     0.010 A 
ATOM     84  C   UNL A   1      44.016  27.768  36.720  1.00  0.00     0.010 A 
ATOM     85  C   UNL A   1      46.723  28.321  36.272  1.00  0.00     0.020 A 
ATOM     86  C   UNL A   1      44.995  27.051  37.415  1.00  0.00     0.020 A 
ATOM     87  C   UNL A   1      46.343  27.317  37.169  1.00  0.00     0.054 A 
BRANCH  87  88
ATOM     88  S   UNL A   1      47.632  26.381  38.037  1.00  0.00     0.124 S 
ATOM     89  O   UNL A   1      48.568  27.437  38.417  1.00  0.00    -0.237 OA
ATOM     90  O   UNL A   1      46.898  25.766  39.141  1.00  0.00    -0.237 OA
ATOM     91  O   UNL A   1      48.120  25.448  37.025  1.00  0.00    -0.744 OA
ENDBRANCH  87  88
ENDBRANCH  61  82
ENDBRANCH  35  36
ENDBRANCH  27  30
ENDBRANCH  25  26
ENDBRANCH  24  25
ENDBRANCH   1  24
TORSDOF 17
ENDMDL
MODEL 3
REMARK VINA RESULT:     -11.1      1.563      8.601
REMARK SMILES Cc1c(Cl)cccc1-c1cccc(Cl)c1C(=O)NCCCCCCNC(=O)c1ccc(-c2c3nc(c(-c4ccc(S(=O)(=O)[O-])cc4)c4ccc([nH]4)c(-c4ccc(S(=O)(=O)[O-])cc4)c4nc(c(-c5ccc(S(=O)(=O)[O-])cc5)c5ccc2[nH]5)C=C4)C=C3)cc1
REMARK SMILES IDX 22 1 21 2 20 3 19 4 18 5 16 6 17 7 15 9 9 10 10 11 11 12
REMARK SMILES IDX 13 13 12 14 14 15 8 16 1 17 2 18 3 19 4 20 5 21 7 22 6 23
REMARK SMILES IDX 23 24 24 25 25 26 26 27 27 29 28 30 29 31 87 32 30 33 86 34
REMARK SMILES IDX 31 35 32 36 33 37 80 38 34 39 85 40 79 41 81 42 35 43 84 44
REMARK SMILES IDX 78 45 77 46 36 48 66 49 47 50 65 51 48 52 51 53 64 54 82 55
REMARK SMILES IDX 49 56 50 57 63 59 83 60 52 61 37 62 38 63 46 64 39 65 45 66
REMARK SMILES IDX 40 67 41 68 42 69 43 70 44 71 67 72 68 73 76 74 69 75 75 76
REMARK SMILES IDX 70 77 71 78 72 79 73 80 74 81 53 82 54 83 62 84 55 85 61 86
REMARK SMILES IDX 56 87 57 88 58 89 59 90 60 91
REMARK H PARENT 18 8 25 28 81 47 51 58
REMARK Flexibility Score: inf
ROOT
ATOM      1  C   UNL A   1      35.187  29.414  27.817  1.00  0.00     0.002 C 
ENDROOT
BRANCH   1   2
ATOM      2  C   UNL A   1      34.286  28.690  26.810  1.00  0.00     0.002 C 
BRANCH   2   3
ATOM      3  C   UNL A   1      33.605  29.494  25.694  1.00  0.00     0.021 C 
BRANCH   3   4
ATOM      4  C   UNL A   1      32.084  29.451  25.601  1.00  0.00     0.116 C 
BRANCH   4   5
ATOM      5  N   UNL A   1      31.439  28.336  26.246  1.00  0.00    -0.352 N 
ATOM      6  C   UNL A   1      31.431  27.010  25.880  1.00  0.00     0.253 C 
ATOM      7  O   UNL A   1      31.109  26.181  26.733  1.00  0.00    -0.269 OA
ATOM      8  H   UNL A   1      30.933  28.553  27.063  1.00  0.00     0.163 HD
BRANCH   6   9
ATOM      9  C   UNL A   1      31.754  26.516  24.509  1.00  0.00     0.066 A 
ATOM     10  C   UNL A   1      30.979  26.794  23.352  1.00  0.00    -0.004 A 
ATOM     11  C   UNL A   1      31.507  26.433  22.085  1.00  0.00     0.009 A 
ATOM     12  C   UNL A   1      32.748  25.825  21.943  1.00  0.00     0.002 A 
ATOM     13  C   UNL A   1      33.010  25.882  24.345  1.00  0.00     0.054 A 
ATOM     14  C   UNL A   1      33.497  25.544  23.074  1.00  0.00     0.021 A 
ATOM     15  Cl  UNL A   1      34.028  25.428  25.678  1.00  0.00    -0.083 Cl
BRANCH  10  16
ATOM     16  C   UNL A   1      29.636  27.408  23.328  1.00  0.00    -0.013 A 
ATOM     17  C   UNL A   1      30.446  29.587  22.277  1.00  0.00     0.046 C 
ATOM     18  C   UNL A   1      29.357  28.701  22.826  1.00  0.00    -0.025 A 
ATOM     19  C   UNL A   1      28.027  29.175  22.889  1.00  0.00     0.044 A 
ATOM     20  Cl  UNL A   1      27.610  30.782  22.403  1.00  0.00    -0.084 Cl
ATOM     21  C   UNL A   1      26.989  28.377  23.383  1.00  0.00     0.021 A 
ATOM     22  C   UNL A   1      28.560  26.620  23.813  1.00  0.00     0.009 A 
ATOM     23  C   UNL A   1      27.253  27.096  23.844  1.00  0.00     0.002 A 
ENDBRANCH  10  16
ENDBRANCH   6   9
ENDBRANCH   4   5
ENDBRANCH   3   4
ENDBRANCH   2   3
ENDBRANCH   1   2
BRANCH   1  24
ATOM     24  C   UNL A   1      35.160  30.943  27.863  1.00  0.00     0.021 C 
BRANCH  24  25
ATOM     25  C   UNL A   1      36.007  31.646  28.917  1.00  0.00     0.116 C 
BRANCH  25  26
ATOM     26  N   UNL A   1      35.871  31.074  30.239  1.00  0.00    -0.352 N 
ATOM     27  C   UNL A   1      36.757  30.361  31.009  1.00  0.00     0.251 C 
ATOM     28  H   UNL A   1      34.993  31.223  30.660  1.00  0.00     0.163 HD
ATOM     29  O   UNL A   1      36.355  29.900  32.078  1.00  0.00    -0.269 OA
BRANCH  27  30
ATOM     30  C   UNL A   1      38.168  30.111  30.600  1.00  0.00     0.039 A 
ATOM     31  C   UNL A   1      38.472  30.188  29.233  1.00  0.00     0.014 A 
ATOM     32  C   UNL A   1      39.170  29.715  31.490  1.00  0.00     0.014 A 
ATOM     33  C   UNL A   1      39.758  29.888  28.769  1.00  0.00     0.010 A 
ATOM     34  C   UNL A   1      40.475  29.478  31.033  1.00  0.00     0.010 A 
ATOM     35  C   UNL A   1      40.778  29.535  29.664  1.00  0.00    -0.014 A 
BRANCH  35  36
ATOM     36  C   UNL A   1      42.135  29.173  29.162  1.00  0.00     0.031 A 
ATOM     37  C   UNL A   1      42.408  27.790  28.625  1.00  0.00     0.074 A 
ATOM     38  C   UNL A   1      43.131  30.082  29.186  1.00  0.00     0.049 A 
ATOM     39  N   UNL A   1      43.515  27.303  28.121  1.00  0.00    -0.248 NA
ATOM     40  C   UNL A   1      41.301  26.821  28.678  1.00  0.00     0.031 C 
ATOM     41  C   UNL A   1      43.023  31.444  29.712  1.00  0.00     0.029 A 
ATOM     42  N   UNL A   1      44.432  29.997  28.752  1.00  0.00    -0.354 N 
ATOM     43  C   UNL A   1      43.243  25.973  27.813  1.00  0.00     0.074 A 
ATOM     44  C   UNL A   1      41.880  25.718  28.226  1.00  0.00     0.031 C 
ATOM     45  C   UNL A   1      44.199  32.075  29.547  1.00  0.00     0.029 A 
ATOM     46  C   UNL A   1      45.149  31.159  28.923  1.00  0.00     0.049 A 
ATOM     47  H   UNL A   1      44.814  29.182  28.355  1.00  0.00     0.167 HD
ATOM     48  C   UNL A   1      44.043  25.052  27.222  1.00  0.00     0.031 A 
ATOM     49  C   UNL A   1      46.424  31.459  28.606  1.00  0.00     0.031 A 
ATOM     50  C   UNL A   1      45.391  25.304  26.783  1.00  0.00     0.049 A 
ATOM     51  C   UNL A   1      47.280  30.432  27.917  1.00  0.00     0.074 A 
ATOM     52  C   UNL A   1      46.257  24.445  26.127  1.00  0.00     0.029 A 
ATOM     53  N   UNL A   1      46.066  26.502  26.947  1.00  0.00    -0.354 N 
ATOM     54  N   UNL A   1      46.981  29.200  27.581  1.00  0.00    -0.248 NA
ATOM     55  C   UNL A   1      48.640  30.846  27.540  1.00  0.00     0.031 C 
ATOM     56  C   UNL A   1      47.470  25.115  25.927  1.00  0.00     0.029 A 
ATOM     57  C   UNL A   1      47.340  26.405  26.415  1.00  0.00     0.049 A 
ATOM     58  H   UNL A   1      45.694  27.306  27.379  1.00  0.00     0.167 HD
ATOM     59  C   UNL A   1      48.103  28.703  26.926  1.00  0.00     0.074 A 
ATOM     60  C   UNL A   1      49.081  29.771  26.900  1.00  0.00     0.031 C 
ATOM     61  C   UNL A   1      48.306  27.473  26.392  1.00  0.00     0.031 A 
BRANCH  48  62
ATOM     62  C   UNL A   1      43.477  23.671  27.011  1.00  0.00    -0.014 A 
ATOM     63  C   UNL A   1      43.345  22.770  28.083  1.00  0.00     0.010 A 
ATOM     64  C   UNL A   1      43.026  23.287  25.735  1.00  0.00     0.010 A 
ATOM     65  C   UNL A   1      42.809  21.496  27.875  1.00  0.00     0.020 A 
ATOM     66  C   UNL A   1      42.466  22.023  25.529  1.00  0.00     0.020 A 
ATOM     67  C   UNL A   1      42.377  21.129  26.598  1.00  0.00     0.054 A 
BRANCH  67  68
ATOM     68  S   UNL A   1      41.662  19.478  26.360  1.00  0.00     0.124 S 
ATOM     69  O   UNL A   1      40.250  19.789  26.154  1.00  0.00    -0.237 OA
ATOM     70  O   UNL A   1      42.374  18.986  25.183  1.00  0.00    -0.237 OA
ATOM     71  O   UNL A   1      41.972  18.783  27.607  1.00  0.00    -0.744 OA
ENDBRANCH  67  68
ENDBRANCH  48  62
BRANCH  49  72
ATOM     72  C   UNL A   1      46.969  32.809  28.914  1.00  0.00    -0.014 A 
ATOM     73  C   UNL A   1      47.608  33.062  30.141  1.00  0.00     0.010 A 
ATOM     74  C   UNL A   1      46.843  33.854  27.981  1.00  0.00     0.010 A 
ATOM     75  C   UNL A   1      48.086  34.341  30.441  1.00  0.00     0.020 A 
ATOM     76  C   UNL A   1      47.343  35.128  28.267  1.00  0.00     0.020 A 
ATOM     77  C   UNL A   1      47.948  35.367  29.503  1.00  0.00     0.054 A 
BRANCH  77  78
ATOM     78  S   UNL A   1      48.609  37.011  29.893  1.00  0.00     0.124 S 
ATOM     79  O   UNL A   1      49.859  37.021  29.142  1.00  0.00    -0.237 OA
ATOM     80  O   UNL A   1      47.563  37.901  29.396  1.00  0.00    -0.237 OA
ATOM     81  O   UNL A   1      48.751  36.983  31.348  1.00  0.00    -0.744 OA
ENDBRANCH  77  78
ENDBRANCH  49  72
BRANCH  61  82
ATOM     82  C   UNL A   1      49.618  27.231  25.697  1.00  0.00    -0.014 A 
ATOM     83  C   UNL A   1      50.714  26.671  26.375  1.00  0.00     0.010 A 
ATOM     84  C   UNL A   1      49.749  27.556  24.334  1.00  0.00     0.010 A 
ATOM     85  C   UNL A   1      51.935  26.489  25.718  1.00  0.00     0.020 A 
ATOM     86  C   UNL A   1      50.960  27.352  23.666  1.00  0.00     0.020 A 
ATOM     87  C   UNL A   1      52.053  26.841  24.370  1.00  0.00     0.054 A 
BRANCH  87  88
ATOM     88  S   UNL A   1      53.642  26.592  23.532  1.00  0.00     0.124 S 
ATOM     89  O   UNL A   1      54.264  25.563  24.362  1.00  0.00    -0.237 OA
ATOM     90  O   UNL A   1      53.241  26.161  22.195  1.00  0.00    -0.237 OA
ATOM     91  O   UNL A   1      54.273  27.908  23.592  1.00  0.00    -0.744 OA
ENDBRANCH  87  88
ENDBRANCH  61  82
ENDBRANCH  35  36
ENDBRANCH  27  30
ENDBRANCH  25  26
ENDBRANCH  24  25
ENDBRANCH   1  24
TORSDOF 17
ENDMDL
