MODEL 1
REMARK VINA RESULT:     -10.1      0.000      0.000
REMARK SMILES C[C@@H]1[C@H](C(=O)NCCCCCCNC(=O)c2ccc(-c3c4nc(c(-c5ccc(S(=O)(=O)[O-])cc5)c5ccc([nH]5)c(-c5ccc(S(=O)(=O)[O-])cc5)c5nc(c(-c6ccc(S(=O)(=O)[O-])cc6)c6ccc3[nH]6)C=C5)C=C4)cc2)CC[N@@H+]1[C@@H](C)c1cccc(C(F)(F)F)c1
REMARK SMILES IDX 9 1 8 2 7 3 6 4 4 5 5 6 3 8 1 9 2 10 78 11 76 12 77 13 79 15
REMARK SMILES IDX 80 16 81 17 82 18 90 19 83 20 85 21 84 22 86 23 87 24 88 25
REMARK SMILES IDX 89 26 10 27 11 28 12 29 13 30 14 31 15 33 16 34 17 35 75 36
REMARK SMILES IDX 18 37 74 38 19 39 20 40 21 41 68 42 22 43 73 44 67 45 69 46
REMARK SMILES IDX 23 47 72 48 66 49 65 50 24 52 54 53 35 54 53 55 36 56 39 57
REMARK SMILES IDX 52 58 70 59 37 60 38 61 51 63 71 64 40 65 25 66 26 67 34 68
REMARK SMILES IDX 27 69 33 70 28 71 29 72 30 73 31 74 32 75 55 76 56 77 64 78
REMARK SMILES IDX 57 79 63 80 58 81 59 82 60 83 61 84 62 85 41 86 42 87 50 88
REMARK SMILES IDX 43 89 49 90 44 91 45 92 46 93 47 94 48 95
REMARK H PARENT 6 7 78 14 13 32 69 51 39 62
REMARK Flexibility Score: inf
ROOT
ATOM      1  C   UNL A   1      31.818  29.271  24.298  1.00  0.00     0.002 C 
ENDROOT
BRANCH   1   2
ATOM      2  C   UNL A   1      30.901  28.047  24.269  1.00  0.00     0.021 C 
BRANCH   2   3
ATOM      3  C   UNL A   1      30.900  27.279  22.947  1.00  0.00     0.116 C 
BRANCH   3   4
ATOM      4  N   UNL A   1      30.397  25.934  23.118  1.00  0.00    -0.356 N 
ATOM      5  C   UNL A   1      31.048  24.748  23.223  1.00  0.00     0.229 C 
ATOM      6  O   UNL A   1      30.345  23.733  23.271  1.00  0.00    -0.275 OA
ATOM      7  H   UNL A   1      29.416  25.868  23.168  1.00  0.00     0.163 HD
BRANCH   5   8
ATOM      8  C   UNL A   1      32.567  24.616  23.300  1.00  0.00     0.142 C 
ATOM      9  C   UNL A   1      32.359  24.191  25.882  1.00  0.00     0.076 C 
ATOM     10  C   UNL A   1      33.250  24.359  24.659  1.00  0.00     0.194 C 
ATOM     11  N   UNL A   1      34.284  23.357  24.390  1.00  0.00    -0.326 N 
ATOM     12  C   UNL A   1      33.188  23.632  22.315  1.00  0.00     0.081 C 
ATOM     13  C   UNL A   1      34.499  23.219  22.960  1.00  0.00     0.264 C 
ATOM     14  H   UNL A   1      35.097  23.774  24.845  1.00  0.00     0.348 HD
BRANCH  11  15
ATOM     15  C   UNL A   1      34.582  22.230  25.270  1.00  0.00     0.212 C 
ATOM     16  C   UNL A   1      33.827  20.944  24.901  1.00  0.00     0.081 C 
BRANCH  15  17
ATOM     17  C   UNL A   1      36.097  22.016  25.401  1.00  0.00     0.010 A 
ATOM     18  C   UNL A   1      36.748  20.845  24.978  1.00  0.00     0.010 A 
ATOM     19  C   UNL A   1      36.879  23.032  25.983  1.00  0.00     0.023 A 
ATOM     20  C   UNL A   1      38.122  20.679  25.157  1.00  0.00     0.001 A 
ATOM     21  C   UNL A   1      38.266  22.883  26.157  1.00  0.00     0.056 A 
ATOM     22  C   UNL A   1      38.877  21.690  25.746  1.00  0.00     0.013 A 
BRANCH  21  23
ATOM     23  C   UNL A   1      39.098  23.972  26.782  1.00  0.00     0.416 C 
ATOM     24  F   UNL A   1      40.241  24.224  26.084  1.00  0.00    -0.166 F 
ATOM     25  F   UNL A   1      38.436  25.162  26.848  1.00  0.00    -0.166 F 
ATOM     26  F   UNL A   1      39.493  23.701  28.057  1.00  0.00    -0.166 F 
ENDBRANCH  21  23
ENDBRANCH  15  17
ENDBRANCH  11  15
ENDBRANCH   5   8
ENDBRANCH   3   4
ENDBRANCH   2   3
ENDBRANCH   1   2
BRANCH   1  27
ATOM     27  C   UNL A   1      33.302  28.973  24.529  1.00  0.00     0.002 C 
BRANCH  27  28
ATOM     28  C   UNL A   1      33.614  27.926  25.603  1.00  0.00     0.021 C 
BRANCH  28  29
ATOM     29  C   UNL A   1      33.824  28.469  27.015  1.00  0.00     0.116 C 
BRANCH  29  30
ATOM     30  N   UNL A   1      33.660  29.911  27.082  1.00  0.00    -0.352 N 
ATOM     31  C   UNL A   1      34.411  30.851  27.737  1.00  0.00     0.251 C 
ATOM     32  H   UNL A   1      32.893  30.267  26.578  1.00  0.00     0.163 HD
ATOM     33  O   UNL A   1      33.991  32.008  27.817  1.00  0.00    -0.269 OA
BRANCH  31  34
ATOM     34  C   UNL A   1      35.703  30.494  28.360  1.00  0.00     0.039 A 
ATOM     35  C   UNL A   1      35.697  29.677  29.493  1.00  0.00     0.014 A 
ATOM     36  C   UNL A   1      36.913  30.998  27.869  1.00  0.00     0.014 A 
ATOM     37  C   UNL A   1      36.903  29.333  30.111  1.00  0.00     0.010 A 
ATOM     38  C   UNL A   1      38.119  30.604  28.449  1.00  0.00     0.010 A 
ATOM     39  C   UNL A   1      38.125  29.777  29.583  1.00  0.00    -0.014 A 
BRANCH  39  40
ATOM     40  C   UNL A   1      39.411  29.397  30.223  1.00  0.00     0.031 A 
ATOM     41  C   UNL A   1      39.897  30.126  31.447  1.00  0.00     0.074 A 
ATOM     42  C   UNL A   1      40.160  28.415  29.682  1.00  0.00     0.049 A 
ATOM     43  N   UNL A   1      40.995  29.939  32.135  1.00  0.00    -0.248 NA
ATOM     44  C   UNL A   1      39.050  31.217  31.953  1.00  0.00     0.031 C 
ATOM     45  C   UNL A   1      39.820  27.658  28.475  1.00  0.00     0.029 A 
ATOM     46  N   UNL A   1      41.361  27.884  30.078  1.00  0.00    -0.354 N 
ATOM     47  C   UNL A   1      40.977  30.895  33.144  1.00  0.00     0.074 A 
ATOM     48  C   UNL A   1      39.784  31.690  32.951  1.00  0.00     0.031 C 
ATOM     49  C   UNL A   1      40.776  26.743  28.247  1.00  0.00     0.029 A 
ATOM     50  C   UNL A   1      41.810  26.866  29.269  1.00  0.00     0.049 A 
ATOM     51  H   UNL A   1      41.856  28.202  30.868  1.00  0.00     0.167 HD
ATOM     52  C   UNL A   1      41.862  31.082  34.154  1.00  0.00     0.031 A 
ATOM     53  C   UNL A   1      42.926  26.117  29.342  1.00  0.00     0.031 A 
ATOM     54  C   UNL A   1      43.041  30.283  34.354  1.00  0.00     0.049 A 
ATOM     55  C   UNL A   1      43.892  26.342  30.472  1.00  0.00     0.074 A 
ATOM     56  C   UNL A   1      43.970  30.361  35.379  1.00  0.00     0.029 A 
ATOM     57  N   UNL A   1      43.456  29.260  33.516  1.00  0.00    -0.354 N 
ATOM     58  N   UNL A   1      43.823  27.209  31.453  1.00  0.00    -0.248 NA
ATOM     59  C   UNL A   1      45.080  25.477  30.511  1.00  0.00     0.031 C 
ATOM     60  C   UNL A   1      44.969  29.412  35.134  1.00  0.00     0.029 A 
ATOM     61  C   UNL A   1      44.637  28.712  33.986  1.00  0.00     0.049 A 
ATOM     62  H   UNL A   1      42.980  28.967  32.705  1.00  0.00     0.167 HD
ATOM     63  C   UNL A   1      44.948  26.982  32.238  1.00  0.00     0.074 A 
ATOM     64  C   UNL A   1      45.670  25.883  31.627  1.00  0.00     0.031 C 
ATOM     65  C   UNL A   1      45.347  27.624  33.363  1.00  0.00     0.031 A 
BRANCH  52  66
ATOM     66  C   UNL A   1      41.584  32.204  35.121  1.00  0.00    -0.014 A 
ATOM     67  C   UNL A   1      42.063  33.504  34.880  1.00  0.00     0.010 A 
ATOM     68  C   UNL A   1      40.806  31.963  36.268  1.00  0.00     0.010 A 
ATOM     69  C   UNL A   1      41.807  34.533  35.789  1.00  0.00     0.020 A 
ATOM     70  C   UNL A   1      40.526  32.996  37.168  1.00  0.00     0.020 A 
ATOM     71  C   UNL A   1      41.045  34.271  36.931  1.00  0.00     0.054 A 
BRANCH  71  72
ATOM     72  S   UNL A   1      40.716  35.628  38.090  1.00  0.00     0.124 S 
ATOM     73  O   UNL A   1      40.242  36.680  37.193  1.00  0.00    -0.237 OA
ATOM     74  O   UNL A   1      39.705  35.057  38.976  1.00  0.00    -0.237 OA
ATOM     75  O   UNL A   1      42.015  35.877  38.710  1.00  0.00    -0.744 OA
ENDBRANCH  71  72
ENDBRANCH  52  66
BRANCH  53  76
ATOM     76  C   UNL A   1      43.178  25.063  28.321  1.00  0.00    -0.014 A 
ATOM     77  C   UNL A   1      43.889  25.363  27.146  1.00  0.00     0.010 A 
ATOM     78  C   UNL A   1      42.718  23.750  28.527  1.00  0.00     0.010 A 
ATOM     79  C   UNL A   1      44.124  24.373  26.189  1.00  0.00     0.020 A 
ATOM     80  C   UNL A   1      42.972  22.751  27.583  1.00  0.00     0.020 A 
ATOM     81  C   UNL A   1      43.663  23.072  26.414  1.00  0.00     0.054 A 
BRANCH  81  82
ATOM     82  S   UNL A   1      44.026  21.787  25.185  1.00  0.00     0.124 S 
ATOM     83  O   UNL A   1      43.854  22.512  23.930  1.00  0.00    -0.237 OA
ATOM     84  O   UNL A   1      45.399  21.410  25.516  1.00  0.00    -0.237 OA
ATOM     85  O   UNL A   1      43.024  20.761  25.460  1.00  0.00    -0.744 OA
ENDBRANCH  81  82
ENDBRANCH  53  76
BRANCH  65  86
ATOM     86  C   UNL A   1      46.612  27.142  34.020  1.00  0.00    -0.014 A 
ATOM     87  C   UNL A   1      47.858  27.707  33.698  1.00  0.00     0.010 A 
ATOM     88  C   UNL A   1      46.545  26.141  35.007  1.00  0.00     0.010 A 
ATOM     89  C   UNL A   1      49.021  27.257  34.327  1.00  0.00     0.020 A 
ATOM     90  C   UNL A   1      47.703  25.706  35.657  1.00  0.00     0.020 A 
ATOM     91  C   UNL A   1      48.936  26.257  35.301  1.00  0.00     0.054 A 
BRANCH  91  92
ATOM     92  S   UNL A   1      50.455  25.716  36.132  1.00  0.00     0.124 S 
ATOM     93  O   UNL A   1      50.022  25.619  37.524  1.00  0.00    -0.237 OA
ATOM     94  O   UNL A   1      50.748  24.445  35.474  1.00  0.00    -0.237 OA
ATOM     95  O   UNL A   1      51.406  26.789  35.849  1.00  0.00    -0.744 OA
ENDBRANCH  91  92
ENDBRANCH  65  86
ENDBRANCH  39  40
ENDBRANCH  31  34
ENDBRANCH  29  30
ENDBRANCH  28  29
ENDBRANCH  27  28
ENDBRANCH   1  27
TORSDOF 19
ENDMDL
MODEL 2
REMARK VINA RESULT:     -10.1      5.102      9.411
REMARK SMILES C[C@@H]1[C@H](C(=O)NCCCCCCNC(=O)c2ccc(-c3c4nc(c(-c5ccc(S(=O)(=O)[O-])cc5)c5ccc([nH]5)c(-c5ccc(S(=O)(=O)[O-])cc5)c5nc(c(-c6ccc(S(=O)(=O)[O-])cc6)c6ccc3[nH]6)C=C5)C=C4)cc2)CC[N@@H+]1[C@@H](C)c1cccc(C(F)(F)F)c1
REMARK SMILES IDX 9 1 8 2 7 3 6 4 4 5 5 6 3 8 1 9 2 10 78 11 76 12 77 13 79 15
REMARK SMILES IDX 80 16 81 17 82 18 90 19 83 20 85 21 84 22 86 23 87 24 88 25
REMARK SMILES IDX 89 26 10 27 11 28 12 29 13 30 14 31 15 33 16 34 17 35 75 36
REMARK SMILES IDX 18 37 74 38 19 39 20 40 21 41 68 42 22 43 73 44 67 45 69 46
REMARK SMILES IDX 23 47 72 48 66 49 65 50 24 52 54 53 35 54 53 55 36 56 39 57
REMARK SMILES IDX 52 58 70 59 37 60 38 61 51 63 71 64 40 65 25 66 26 67 34 68
REMARK SMILES IDX 27 69 33 70 28 71 29 72 30 73 31 74 32 75 55 76 56 77 64 78
REMARK SMILES IDX 57 79 63 80 58 81 59 82 60 83 61 84 62 85 41 86 42 87 50 88
REMARK SMILES IDX 43 89 49 90 44 91 45 92 46 93 47 94 48 95
REMARK H PARENT 6 7 78 14 13 32 69 51 39 62
REMARK Flexibility Score: inf
ROOT
ATOM      1  C   UNL A   1      33.431  28.855  26.480  1.00  0.00     0.002 C 
ENDROOT
BRANCH   1   2
ATOM      2  C   UNL A   1      32.848  29.779  25.409  1.00  0.00     0.021 C 
BRANCH   2   3
ATOM      3  C   UNL A   1      31.351  29.599  25.156  1.00  0.00     0.116 C 
BRANCH   3   4
ATOM      4  N   UNL A   1      31.016  29.855  23.772  1.00  0.00    -0.356 N 
ATOM      5  C   UNL A   1      30.765  29.002  22.747  1.00  0.00     0.229 C 
ATOM      6  O   UNL A   1      30.594  29.511  21.633  1.00  0.00    -0.275 OA
ATOM      7  H   UNL A   1      30.961  30.809  23.534  1.00  0.00     0.163 HD
BRANCH   5   8
ATOM      8  C   UNL A   1      30.668  27.487  22.905  1.00  0.00     0.142 C 
ATOM      9  C   UNL A   1      33.285  27.380  23.085  1.00  0.00     0.076 C 
ATOM     10  C   UNL A   1      31.952  26.644  23.051  1.00  0.00     0.194 C 
ATOM     11  N   UNL A   1      31.654  25.662  24.096  1.00  0.00    -0.326 N 
ATOM     12  C   UNL A   1      29.712  27.003  23.989  1.00  0.00     0.081 C 
ATOM     13  C   UNL A   1      30.229  25.627  24.370  1.00  0.00     0.264 C 
ATOM     14  H   UNL A   1      31.966  24.795  23.657  1.00  0.00     0.348 HD
BRANCH  11  15
ATOM     15  C   UNL A   1      32.595  25.270  25.143  1.00  0.00     0.212 C 
ATOM     16  C   UNL A   1      31.997  25.320  26.557  1.00  0.00     0.081 C 
BRANCH  15  17
ATOM     17  C   UNL A   1      33.250  23.920  24.819  1.00  0.00     0.010 A 
ATOM     18  C   UNL A   1      32.546  22.704  24.816  1.00  0.00     0.010 A 
ATOM     19  C   UNL A   1      34.626  23.886  24.522  1.00  0.00     0.023 A 
ATOM     20  C   UNL A   1      33.195  21.496  24.558  1.00  0.00     0.001 A 
ATOM     21  C   UNL A   1      35.288  22.677  24.247  1.00  0.00     0.056 A 
ATOM     22  C   UNL A   1      34.558  21.481  24.279  1.00  0.00     0.013 A 
BRANCH  21  23
ATOM     23  C   UNL A   1      36.761  22.647  23.932  1.00  0.00     0.416 C 
ATOM     24  F   UNL A   1      37.043  23.141  22.693  1.00  0.00    -0.166 F 
ATOM     25  F   UNL A   1      37.498  23.392  24.803  1.00  0.00    -0.166 F 
ATOM     26  F   UNL A   1      37.306  21.398  23.965  1.00  0.00    -0.166 F 
ENDBRANCH  21  23
ENDBRANCH  15  17
ENDBRANCH  11  15
ENDBRANCH   5   8
ENDBRANCH   3   4
ENDBRANCH   2   3
ENDBRANCH   1   2
BRANCH   1  27
ATOM     27  C   UNL A   1      34.684  29.380  27.187  1.00  0.00     0.002 C 
BRANCH  27  28
ATOM     28  C   UNL A   1      34.623  30.837  27.661  1.00  0.00     0.021 C 
BRANCH  28  29
ATOM     29  C   UNL A   1      35.789  31.297  28.533  1.00  0.00     0.116 C 
BRANCH  29  30
ATOM     30  N   UNL A   1      35.695  30.794  29.892  1.00  0.00    -0.352 N 
ATOM     31  C   UNL A   1      36.568  30.016  30.604  1.00  0.00     0.251 C 
ATOM     32  H   UNL A   1      34.878  31.055  30.377  1.00  0.00     0.163 HD
ATOM     33  O   UNL A   1      36.211  29.545  31.687  1.00  0.00    -0.269 OA
BRANCH  31  34
ATOM     34  C   UNL A   1      37.922  29.722  30.086  1.00  0.00     0.039 A 
ATOM     35  C   UNL A   1      38.946  29.460  31.000  1.00  0.00     0.014 A 
ATOM     36  C   UNL A   1      38.200  29.751  28.716  1.00  0.00     0.014 A 
ATOM     37  C   UNL A   1      40.238  29.190  30.541  1.00  0.00     0.010 A 
ATOM     38  C   UNL A   1      39.475  29.421  28.256  1.00  0.00     0.010 A 
ATOM     39  C   UNL A   1      40.509  29.149  29.164  1.00  0.00    -0.014 A 
BRANCH  39  40
ATOM     40  C   UNL A   1      41.876  28.840  28.669  1.00  0.00     0.031 A 
ATOM     41  C   UNL A   1      42.223  27.449  28.210  1.00  0.00     0.074 A 
ATOM     42  C   UNL A   1      42.817  29.806  28.663  1.00  0.00     0.049 A 
ATOM     43  N   UNL A   1      43.362  26.992  27.756  1.00  0.00    -0.248 NA
ATOM     44  C   UNL A   1      41.159  26.436  28.291  1.00  0.00     0.031 C 
ATOM     45  C   UNL A   1      42.619  31.184  29.118  1.00  0.00     0.029 A 
ATOM     46  N   UNL A   1      44.127  29.775  28.258  1.00  0.00    -0.354 N 
ATOM     47  C   UNL A   1      43.156  25.639  27.508  1.00  0.00     0.074 A 
ATOM     48  C   UNL A   1      41.798  25.339  27.907  1.00  0.00     0.031 C 
ATOM     49  C   UNL A   1      43.758  31.873  28.940  1.00  0.00     0.029 A 
ATOM     50  C   UNL A   1      44.774  30.982  28.389  1.00  0.00     0.049 A 
ATOM     51  H   UNL A   1      44.564  28.966  27.907  1.00  0.00     0.167 HD
ATOM     52  C   UNL A   1      44.012  24.732  26.978  1.00  0.00     0.031 A 
ATOM     53  C   UNL A   1      46.041  31.333  28.098  1.00  0.00     0.031 A 
ATOM     54  C   UNL A   1      45.358  25.033  26.568  1.00  0.00     0.049 A 
ATOM     55  C   UNL A   1      46.972  30.309  27.509  1.00  0.00     0.074 A 
ATOM     56  C   UNL A   1      46.283  24.194  25.970  1.00  0.00     0.029 A 
ATOM     57  N   UNL A   1      45.972  26.267  26.713  1.00  0.00    -0.354 N 
ATOM     58  N   UNL A   1      46.737  29.052  27.223  1.00  0.00    -0.248 NA
ATOM     59  C   UNL A   1      48.334  30.758  27.190  1.00  0.00     0.031 C 
ATOM     60  C   UNL A   1      47.472  24.912  25.793  1.00  0.00     0.029 A 
ATOM     61  C   UNL A   1      47.270  26.209  26.236  1.00  0.00     0.049 A 
ATOM     62  H   UNL A   1      45.547  27.067  27.099  1.00  0.00     0.167 HD
ATOM     63  C   UNL A   1      47.917  28.563  26.672  1.00  0.00     0.074 A 
ATOM     64  C   UNL A   1      48.856  29.665  26.649  1.00  0.00     0.031 C 
ATOM     65  C   UNL A   1      48.195  27.313  26.226  1.00  0.00     0.031 A 
BRANCH  52  66
ATOM     66  C   UNL A   1      43.512  23.320  26.813  1.00  0.00    -0.014 A 
ATOM     67  C   UNL A   1      43.235  22.794  25.538  1.00  0.00     0.010 A 
ATOM     68  C   UNL A   1      43.347  22.499  27.943  1.00  0.00     0.010 A 
ATOM     69  C   UNL A   1      42.762  21.487  25.399  1.00  0.00     0.020 A 
ATOM     70  C   UNL A   1      42.899  21.181  27.806  1.00  0.00     0.020 A 
ATOM     71  C   UNL A   1      42.591  20.691  26.535  1.00  0.00     0.054 A 
BRANCH  71  72
ATOM     72  S   UNL A   1      41.987  18.992  26.326  1.00  0.00     0.124 S 
ATOM     73  O   UNL A   1      42.062  18.477  27.691  1.00  0.00    -0.237 OA
ATOM     74  O   UNL A   1      40.638  19.192  25.804  1.00  0.00    -0.237 OA
ATOM     75  O   UNL A   1      42.935  18.401  25.385  1.00  0.00    -0.744 OA
ENDBRANCH  71  72
ENDBRANCH  52  66
BRANCH  53  76
ATOM     76  C   UNL A   1      46.497  32.729  28.340  1.00  0.00    -0.014 A 
ATOM     77  C   UNL A   1      46.357  33.708  27.342  1.00  0.00     0.010 A 
ATOM     78  C   UNL A   1      47.063  33.087  29.577  1.00  0.00     0.010 A 
ATOM     79  C   UNL A   1      46.787  35.018  27.571  1.00  0.00     0.020 A 
ATOM     80  C   UNL A   1      47.471  34.402  29.818  1.00  0.00     0.020 A 
ATOM     81  C   UNL A   1      47.341  35.357  28.809  1.00  0.00     0.054 A 
BRANCH  81  82
ATOM     82  S   UNL A   1      47.841  37.076  29.106  1.00  0.00     0.124 S 
ATOM     83  O   UNL A   1      48.908  37.254  28.126  1.00  0.00    -0.237 OA
ATOM     84  O   UNL A   1      46.609  37.815  28.843  1.00  0.00    -0.237 OA
ATOM     85  O   UNL A   1      48.268  37.069  30.503  1.00  0.00    -0.744 OA
ENDBRANCH  81  82
ENDBRANCH  53  76
BRANCH  65  86
ATOM     86  C   UNL A   1      49.567  27.076  25.654  1.00  0.00    -0.014 A 
ATOM     87  C   UNL A   1      49.853  27.370  24.310  1.00  0.00     0.010 A 
ATOM     88  C   UNL A   1      50.595  26.596  26.487  1.00  0.00     0.010 A 
ATOM     89  C   UNL A   1      51.136  27.158  23.799  1.00  0.00     0.020 A 
ATOM     90  C   UNL A   1      51.885  26.406  25.986  1.00  0.00     0.020 A 
ATOM     91  C   UNL A   1      52.143  26.674  24.639  1.00  0.00     0.054 A 
BRANCH  91  92
ATOM     92  S   UNL A   1      53.810  26.442  23.963  1.00  0.00     0.124 S 
ATOM     93  O   UNL A   1      53.532  26.186  22.552  1.00  0.00    -0.237 OA
ATOM     94  O   UNL A   1      54.458  27.718  24.255  1.00  0.00    -0.237 OA
ATOM     95  O   UNL A   1      54.331  25.300  24.713  1.00  0.00    -0.744 OA
ENDBRANCH  91  92
ENDBRANCH  65  86
ENDBRANCH  39  40
ENDBRANCH  31  34
ENDBRANCH  29  30
ENDBRANCH  28  29
ENDBRANCH  27  28
ENDBRANCH   1  27
TORSDOF 19
ENDMDL
MODEL 3
REMARK VINA RESULT:     -10.1      4.333      9.786
REMARK SMILES C[C@@H]1[C@H](C(=O)NCCCCCCNC(=O)c2ccc(-c3c4nc(c(-c5ccc(S(=O)(=O)[O-])cc5)c5ccc([nH]5)c(-c5ccc(S(=O)(=O)[O-])cc5)c5nc(c(-c6ccc(S(=O)(=O)[O-])cc6)c6ccc3[nH]6)C=C5)C=C4)cc2)CC[N@@H+]1[C@@H](C)c1cccc(C(F)(F)F)c1
REMARK SMILES IDX 9 1 8 2 7 3 6 4 4 5 5 6 3 8 1 9 2 10 78 11 76 12 77 13 79 15
REMARK SMILES IDX 80 16 81 17 82 18 90 19 83 20 85 21 84 22 86 23 87 24 88 25
REMARK SMILES IDX 89 26 10 27 11 28 12 29 13 30 14 31 15 33 16 34 17 35 75 36
REMARK SMILES IDX 18 37 74 38 19 39 20 40 21 41 68 42 22 43 73 44 67 45 69 46
REMARK SMILES IDX 23 47 72 48 66 49 65 50 24 52 54 53 35 54 53 55 36 56 39 57
REMARK SMILES IDX 52 58 70 59 37 60 38 61 51 63 71 64 40 65 25 66 26 67 34 68
REMARK SMILES IDX 27 69 33 70 28 71 29 72 30 73 31 74 32 75 55 76 56 77 64 78
REMARK SMILES IDX 57 79 63 80 58 81 59 82 60 83 61 84 62 85 41 86 42 87 50 88
REMARK SMILES IDX 43 89 49 90 44 91 45 92 46 93 47 94 48 95
REMARK H PARENT 6 7 78 14 13 32 69 51 39 62
REMARK Flexibility Score: inf
ROOT
ATOM      1  C   UNL A   1      34.911  21.124  24.740  1.00  0.00     0.002 C 
ENDROOT
BRANCH   1   2
ATOM      2  C   UNL A   1      33.527  21.696  24.427  1.00  0.00     0.021 C 
BRANCH   2   3
ATOM      3  C   UNL A   1      33.438  22.471  23.112  1.00  0.00     0.116 C 
BRANCH   3   4
ATOM      4  N   UNL A   1      32.092  22.945  22.871  1.00  0.00    -0.356 N 
ATOM      5  C   UNL A   1      31.364  23.906  23.494  1.00  0.00     0.229 C 
ATOM      6  O   UNL A   1      30.190  24.035  23.127  1.00  0.00    -0.275 OA
ATOM      7  H   UNL A   1      31.627  22.496  22.129  1.00  0.00     0.163 HD
BRANCH   5   8
ATOM      8  C   UNL A   1      31.917  24.820  24.584  1.00  0.00     0.142 C 
ATOM      9  C   UNL A   1      33.043  26.290  22.723  1.00  0.00     0.076 C 
ATOM     10  C   UNL A   1      32.800  26.026  24.203  1.00  0.00     0.194 C 
ATOM     11  N   UNL A   1      32.343  27.126  25.056  1.00  0.00    -0.326 N 
ATOM     12  C   UNL A   1      30.891  25.339  25.585  1.00  0.00     0.081 C 
ATOM     13  C   UNL A   1      31.495  26.623  26.123  1.00  0.00     0.264 C 
ATOM     14  H   UNL A   1      33.226  27.480  25.425  1.00  0.00     0.348 HD
BRANCH  11  15
ATOM     15  C   UNL A   1      32.178  28.503  24.598  1.00  0.00     0.212 C 
ATOM     16  C   UNL A   1      30.780  28.802  24.037  1.00  0.00     0.081 C 
BRANCH  15  17
ATOM     17  C   UNL A   1      32.611  29.501  25.682  1.00  0.00     0.010 A 
ATOM     18  C   UNL A   1      31.817  30.586  26.091  1.00  0.00     0.010 A 
ATOM     19  C   UNL A   1      33.869  29.337  26.293  1.00  0.00     0.023 A 
ATOM     20  C   UNL A   1      32.273  31.492  27.050  1.00  0.00     0.001 A 
ATOM     21  C   UNL A   1      34.333  30.235  27.270  1.00  0.00     0.056 A 
ATOM     22  C   UNL A   1      33.525  31.320  27.634  1.00  0.00     0.013 A 
BRANCH  21  23
ATOM     23  C   UNL A   1      35.681  30.056  27.919  1.00  0.00     0.416 C 
ATOM     24  F   UNL A   1      35.643  30.246  29.268  1.00  0.00    -0.166 F 
ATOM     25  F   UNL A   1      36.186  28.803  27.737  1.00  0.00    -0.166 F 
ATOM     26  F   UNL A   1      36.636  30.908  27.452  1.00  0.00    -0.166 F 
ENDBRANCH  21  23
ENDBRANCH  15  17
ENDBRANCH  11  15
ENDBRANCH   5   8
ENDBRANCH   3   4
ENDBRANCH   2   3
ENDBRANCH   1   2
BRANCH   1  27
ATOM     27  C   UNL A   1      36.094  21.965  24.252  1.00  0.00     0.002 C 
BRANCH  27  28
ATOM     28  C   UNL A   1      36.210  23.369  24.857  1.00  0.00     0.021 C 
BRANCH  28  29
ATOM     29  C   UNL A   1      37.092  23.482  26.099  1.00  0.00     0.116 C 
BRANCH  29  30
ATOM     30  N   UNL A   1      38.118  22.454  26.143  1.00  0.00    -0.352 N 
ATOM     31  C   UNL A   1      39.459  22.562  26.396  1.00  0.00     0.251 C 
ATOM     32  H   UNL A   1      37.799  21.540  25.966  1.00  0.00     0.163 HD
ATOM     33  O   UNL A   1      40.190  21.587  26.202  1.00  0.00    -0.269 OA
BRANCH  31  34
ATOM     34  C   UNL A   1      40.044  23.832  26.879  1.00  0.00     0.039 A 
ATOM     35  C   UNL A   1      40.077  24.927  26.011  1.00  0.00     0.014 A 
ATOM     36  C   UNL A   1      40.602  23.938  28.157  1.00  0.00     0.014 A 
ATOM     37  C   UNL A   1      40.634  26.136  26.436  1.00  0.00     0.010 A 
ATOM     38  C   UNL A   1      41.101  25.162  28.601  1.00  0.00     0.010 A 
ATOM     39  C   UNL A   1      41.133  26.271  27.741  1.00  0.00    -0.014 A 
BRANCH  39  40
ATOM     40  C   UNL A   1      41.706  27.561  28.205  1.00  0.00     0.031 A 
ATOM     41  C   UNL A   1      43.192  27.796  28.152  1.00  0.00     0.074 A 
ATOM     42  C   UNL A   1      40.891  28.511  28.706  1.00  0.00     0.049 A 
ATOM     43  N   UNL A   1      43.872  28.852  28.521  1.00  0.00    -0.248 NA
ATOM     44  C   UNL A   1      44.023  26.696  27.639  1.00  0.00     0.031 C 
ATOM     45  C   UNL A   1      39.438  28.391  28.847  1.00  0.00     0.029 A 
ATOM     46  N   UNL A   1      41.169  29.765  29.187  1.00  0.00    -0.354 N 
ATOM     47  C   UNL A   1      45.208  28.540  28.295  1.00  0.00     0.074 A 
ATOM     48  C   UNL A   1      45.247  27.180  27.803  1.00  0.00     0.031 C 
ATOM     49  C   UNL A   1      38.950  29.536  29.352  1.00  0.00     0.029 A 
ATOM     50  C   UNL A   1      40.054  30.458  29.599  1.00  0.00     0.049 A 
ATOM     51  H   UNL A   1      42.080  30.135  29.233  1.00  0.00     0.167 HD
ATOM     52  C   UNL A   1      46.304  29.321  28.462  1.00  0.00     0.031 A 
ATOM     53  C   UNL A   1      39.934  31.695  30.118  1.00  0.00     0.031 A 
ATOM     54  C   UNL A   1      46.264  30.678  28.938  1.00  0.00     0.049 A 
ATOM     55  C   UNL A   1      41.163  32.543  30.292  1.00  0.00     0.074 A 
ATOM     56  C   UNL A   1      47.314  31.568  29.090  1.00  0.00     0.029 A 
ATOM     57  N   UNL A   1      45.116  31.343  29.339  1.00  0.00    -0.354 N 
ATOM     58  N   UNL A   1      42.410  32.251  30.012  1.00  0.00    -0.248 NA
ATOM     59  C   UNL A   1      40.965  33.892  30.840  1.00  0.00     0.031 C 
ATOM     60  C   UNL A   1      46.805  32.757  29.624  1.00  0.00     0.029 A 
ATOM     61  C   UNL A   1      45.433  32.624  29.758  1.00  0.00     0.049 A 
ATOM     62  H   UNL A   1      44.209  30.960  29.329  1.00  0.00     0.167 HD
ATOM     63  C   UNL A   1      43.145  33.388  30.331  1.00  0.00     0.074 A 
ATOM     64  C   UNL A   1      42.199  34.378  30.807  1.00  0.00     0.031 C 
ATOM     65  C   UNL A   1      44.482  33.594  30.237  1.00  0.00     0.031 A 
BRANCH  52  66
ATOM     66  C   UNL A   1      47.643  28.718  28.127  1.00  0.00    -0.014 A 
ATOM     67  C   UNL A   1      48.183  28.828  26.833  1.00  0.00     0.010 A 
ATOM     68  C   UNL A   1      48.385  28.062  29.125  1.00  0.00     0.010 A 
ATOM     69  C   UNL A   1      49.421  28.255  26.531  1.00  0.00     0.020 A 
ATOM     70  C   UNL A   1      49.637  27.510  28.834  1.00  0.00     0.020 A 
ATOM     71  C   UNL A   1      50.138  27.594  27.533  1.00  0.00     0.054 A 
BRANCH  71  72
ATOM     72  S   UNL A   1      51.749  26.871  27.119  1.00  0.00     0.124 S 
ATOM     73  O   UNL A   1      52.112  27.616  25.916  1.00  0.00    -0.237 OA
ATOM     74  O   UNL A   1      52.549  27.166  28.306  1.00  0.00    -0.237 OA
ATOM     75  O   UNL A   1      51.451  25.456  26.909  1.00  0.00    -0.744 OA
ENDBRANCH  71  72
ENDBRANCH  52  66
BRANCH  53  76
ATOM     76  C   UNL A   1      38.589  32.215  30.488  1.00  0.00    -0.014 A 
ATOM     77  C   UNL A   1      38.033  31.922  31.745  1.00  0.00     0.010 A 
ATOM     78  C   UNL A   1      37.865  33.016  29.588  1.00  0.00     0.010 A 
ATOM     79  C   UNL A   1      36.770  32.411  32.091  1.00  0.00     0.020 A 
ATOM     80  C   UNL A   1      36.612  33.526  29.939  1.00  0.00     0.020 A 
ATOM     81  C   UNL A   1      36.067  33.211  31.185  1.00  0.00     0.054 A 
BRANCH  81  82
ATOM     82  S   UNL A   1      34.453  33.881  31.674  1.00  0.00     0.124 S 
ATOM     83  O   UNL A   1      34.834  35.091  32.395  1.00  0.00    -0.237 OA
ATOM     84  O   UNL A   1      33.794  34.091  30.387  1.00  0.00    -0.237 OA
ATOM     85  O   UNL A   1      33.878  32.816  32.492  1.00  0.00    -0.744 OA
ENDBRANCH  81  82
ENDBRANCH  53  76
BRANCH  65  86
ATOM     86  C   UNL A   1      45.000  34.949  30.639  1.00  0.00    -0.014 A 
ATOM     87  C   UNL A   1      44.994  36.025  29.734  1.00  0.00     0.010 A 
ATOM     88  C   UNL A   1      45.456  35.157  31.953  1.00  0.00     0.010 A 
ATOM     89  C   UNL A   1      45.465  37.280  30.128  1.00  0.00     0.020 A 
ATOM     90  C   UNL A   1      45.905  36.417  32.358  1.00  0.00     0.020 A 
ATOM     91  C   UNL A   1      45.921  37.467  31.437  1.00  0.00     0.054 A 
BRANCH  91  92
ATOM     92  S   UNL A   1      46.493  39.114  31.936  1.00  0.00     0.124 S 
ATOM     93  O   UNL A   1      47.530  38.792  32.913  1.00  0.00    -0.237 OA
ATOM     94  O   UNL A   1      46.969  39.686  30.679  1.00  0.00    -0.237 OA
ATOM     95  O   UNL A   1      45.294  39.745  32.485  1.00  0.00    -0.744 OA
ENDBRANCH  91  92
ENDBRANCH  65  86
ENDBRANCH  39  40
ENDBRANCH  31  34
ENDBRANCH  29  30
ENDBRANCH  28  29
ENDBRANCH  27  28
ENDBRANCH   1  27
TORSDOF 19
ENDMDL
