MODEL 1
REMARK VINA RESULT:     -10.0      0.000      0.000
REMARK SMILES CC(C)(C)[N@@H+](CC(=O)NCCCCCCNC(=O)c1ccc(-c2c3nc(c(-c4ccc(S(=O)(=O)[O-])cc4)c4ccc([nH]4)c(-c4ccc(S(=O)(=O)[O-])cc4)c4nc(c(-c5ccc(S(=O)(=O)[O-])cc5)c5ccc2[nH]5)C=C4)C=C3)cc1)C[C@@H]1Cc2cc(F)ccc2O1
REMARK SMILES IDX 12 1 11 2 10 3 9 4 7 5 8 6 6 8 5 9 2 11 1 12 3 13 4 14 79 15
REMARK SMILES IDX 80 16 81 17 89 18 82 19 88 20 83 21 87 22 84 23 86 24 85 25
REMARK SMILES IDX 13 26 14 27 15 28 16 29 17 30 18 32 19 33 20 34 78 35 21 36
REMARK SMILES IDX 77 37 22 38 23 39 24 40 71 41 25 42 76 43 70 44 72 45 26 46
REMARK SMILES IDX 75 47 69 48 68 49 27 51 57 52 38 53 56 54 39 55 42 56 55 57
REMARK SMILES IDX 73 58 40 59 41 60 54 62 74 63 43 64 28 65 29 66 37 67 30 68
REMARK SMILES IDX 36 69 31 70 32 71 33 72 34 73 35 74 58 75 59 76 67 77 60 78
REMARK SMILES IDX 66 79 61 80 62 81 63 82 64 83 65 84 44 85 45 86 53 87 46 88
REMARK SMILES IDX 52 89 47 90 48 91 49 92 50 93 51 94
REMARK H PARENT 9 7 5 10 16 31 72 50 42 61
REMARK Flexibility Score: inf
ROOT
ATOM      1  C   UNL A   1      30.928  28.425  24.930  1.00  0.00     0.002 C 
ENDROOT
BRANCH   1   2
ATOM      2  C   UNL A   1      31.561  28.807  23.587  1.00  0.00     0.021 C 
BRANCH   2   3
ATOM      3  C   UNL A   1      31.291  27.820  22.444  1.00  0.00     0.116 C 
BRANCH   3   4
ATOM      4  N   UNL A   1      32.451  27.056  22.006  1.00  0.00    -0.351 N 
ATOM      5  C   UNL A   1      33.129  25.994  22.537  1.00  0.00     0.275 C 
ATOM      6  O   UNL A   1      34.008  25.484  21.832  1.00  0.00    -0.269 OA
ATOM      7  H   UNL A   1      32.825  27.369  21.150  1.00  0.00     0.163 HD
BRANCH   5   8
ATOM      8  C   UNL A   1      32.811  25.428  23.926  1.00  0.00     0.364 C 
BRANCH   8   9
ATOM      9  N   UNL A   1      33.070  23.966  24.075  1.00  0.00    -0.320 N 
ATOM     10  H   UNL A   1      33.539  23.600  23.247  1.00  0.00     0.349 HD
BRANCH   9  11
ATOM     11  C   UNL A   1      31.991  23.033  23.714  1.00  0.00     0.090 C 
ATOM     12  C   UNL A   1      31.534  22.263  24.985  1.00  0.00     0.078 C 
ATOM     13  C   UNL A   1      32.454  22.130  22.553  1.00  0.00     0.078 C 
ATOM     14  C   UNL A   1      30.662  23.680  23.277  1.00  0.00     0.078 C 
ENDBRANCH   9  11
BRANCH   9  15
ATOM     15  C   UNL A   1      34.173  23.639  24.999  1.00  0.00     0.309 C 
BRANCH  15  16
ATOM     16  C   UNL A   1      35.717  23.617  24.748  1.00  0.00     0.232 C 
ATOM     17  C   UNL A   1      36.384  22.238  24.613  1.00  0.00     0.090 C 
ATOM     18  O   UNL A   1      36.486  24.466  25.632  1.00  0.00    -0.484 OA
ATOM     19  C   UNL A   1      37.597  22.448  25.436  1.00  0.00     0.001 A 
ATOM     20  C   UNL A   1      37.603  23.736  25.946  1.00  0.00     0.123 A 
ATOM     21  C   UNL A   1      38.634  21.573  25.715  1.00  0.00     0.047 A 
ATOM     22  C   UNL A   1      38.644  24.213  26.723  1.00  0.00     0.050 A 
ATOM     23  C   UNL A   1      39.691  22.042  26.495  1.00  0.00     0.123 A 
ATOM     24  C   UNL A   1      39.710  23.351  26.992  1.00  0.00     0.043 A 
ATOM     25  F   UNL A   1      40.717  21.224  26.768  1.00  0.00    -0.207 F 
ENDBRANCH  15  16
ENDBRANCH   9  15
ENDBRANCH   8   9
ENDBRANCH   5   8
ENDBRANCH   3   4
ENDBRANCH   2   3
ENDBRANCH   1   2
BRANCH   1  26
ATOM     26  C   UNL A   1      31.742  28.918  26.122  1.00  0.00     0.002 C 
BRANCH  26  27
ATOM     27  C   UNL A   1      33.066  28.175  26.337  1.00  0.00     0.021 C 
BRANCH  27  28
ATOM     28  C   UNL A   1      34.300  29.068  26.263  1.00  0.00     0.116 C 
BRANCH  28  29
ATOM     29  N   UNL A   1      33.952  30.439  26.602  1.00  0.00    -0.352 N 
ATOM     30  C   UNL A   1      34.427  31.161  27.665  1.00  0.00     0.251 C 
ATOM     31  H   UNL A   1      33.311  30.893  26.010  1.00  0.00     0.163 HD
ATOM     32  O   UNL A   1      33.809  32.137  28.097  1.00  0.00    -0.269 OA
BRANCH  30  33
ATOM     33  C   UNL A   1      35.702  30.745  28.276  1.00  0.00     0.039 A 
ATOM     34  C   UNL A   1      36.865  31.476  28.033  1.00  0.00     0.014 A 
ATOM     35  C   UNL A   1      35.716  29.639  29.134  1.00  0.00     0.014 A 
ATOM     36  C   UNL A   1      38.046  31.109  28.678  1.00  0.00     0.010 A 
ATOM     37  C   UNL A   1      36.877  29.320  29.825  1.00  0.00     0.010 A 
ATOM     38  C   UNL A   1      38.058  30.039  29.590  1.00  0.00    -0.014 A 
BRANCH  38  39
ATOM     39  C   UNL A   1      39.304  29.634  30.287  1.00  0.00     0.031 A 
ATOM     40  C   UNL A   1      39.698  30.317  31.569  1.00  0.00     0.074 A 
ATOM     41  C   UNL A   1      40.104  28.697  29.741  1.00  0.00     0.049 A 
ATOM     42  N   UNL A   1      40.763  30.135  32.307  1.00  0.00    -0.248 NA
ATOM     43  C   UNL A   1      38.789  31.358  32.075  1.00  0.00     0.031 C 
ATOM     44  C   UNL A   1      39.849  27.995  28.481  1.00  0.00     0.029 A 
ATOM     45  N   UNL A   1      41.295  28.175  30.177  1.00  0.00    -0.354 N 
ATOM     46  C   UNL A   1      40.659  31.046  33.350  1.00  0.00     0.074 A 
ATOM     47  C   UNL A   1      39.458  31.818  33.123  1.00  0.00     0.031 C 
ATOM     48  C   UNL A   1      40.840  27.116  28.260  1.00  0.00     0.029 A 
ATOM     49  C   UNL A   1      41.818  27.217  29.338  1.00  0.00     0.049 A 
ATOM     50  H   UNL A   1      41.736  28.459  31.009  1.00  0.00     0.167 HD
ATOM     51  C   UNL A   1      41.479  31.214  34.416  1.00  0.00     0.031 A 
ATOM     52  C   UNL A   1      42.959  26.506  29.427  1.00  0.00     0.031 A 
ATOM     53  C   UNL A   1      42.667  30.435  34.641  1.00  0.00     0.049 A 
ATOM     54  C   UNL A   1      43.858  26.713  30.616  1.00  0.00     0.074 A 
ATOM     55  C   UNL A   1      43.535  30.484  35.717  1.00  0.00     0.029 A 
ATOM     56  N   UNL A   1      43.156  29.469  33.774  1.00  0.00    -0.354 N 
ATOM     57  N   UNL A   1      43.705  27.530  31.631  1.00  0.00    -0.248 NA
ATOM     58  C   UNL A   1      45.074  25.892  30.679  1.00  0.00     0.031 C 
ATOM     59  C   UNL A   1      44.581  29.589  35.473  1.00  0.00     0.029 A 
ATOM     60  C   UNL A   1      44.329  28.933  34.278  1.00  0.00     0.049 A 
ATOM     61  H   UNL A   1      42.732  29.204  32.926  1.00  0.00     0.167 HD
ATOM     62  C   UNL A   1      44.791  27.300  32.468  1.00  0.00     0.074 A 
ATOM     63  C   UNL A   1      45.584  26.258  31.847  1.00  0.00     0.031 C 
ATOM     64  C   UNL A   1      45.105  27.896  33.646  1.00  0.00     0.031 A 
BRANCH  51  65
ATOM     65  C   UNL A   1      41.118  32.283  35.413  1.00  0.00    -0.014 A 
ATOM     66  C   UNL A   1      40.298  32.001  36.521  1.00  0.00     0.010 A 
ATOM     67  C   UNL A   1      41.637  33.582  35.262  1.00  0.00     0.010 A 
ATOM     68  C   UNL A   1      39.967  33.006  37.434  1.00  0.00     0.020 A 
ATOM     69  C   UNL A   1      41.336  34.583  36.191  1.00  0.00     0.020 A 
ATOM     70  C   UNL A   1      40.488  34.292  37.262  1.00  0.00     0.054 A 
BRANCH  70  71
ATOM     71  S   UNL A   1      40.063  35.571  38.476  1.00  0.00     0.124 S 
ATOM     72  O   UNL A   1      38.957  34.945  39.197  1.00  0.00    -0.237 OA
ATOM     73  O   UNL A   1      41.303  35.717  39.233  1.00  0.00    -0.237 OA
ATOM     74  O   UNL A   1      39.699  36.722  37.655  1.00  0.00    -0.744 OA
ENDBRANCH  70  71
ENDBRANCH  51  65
BRANCH  52  75
ATOM     75  C   UNL A   1      43.304  25.520  28.366  1.00  0.00    -0.014 A 
ATOM     76  C   UNL A   1      43.900  25.940  27.163  1.00  0.00     0.010 A 
ATOM     77  C   UNL A   1      43.052  24.149  28.561  1.00  0.00     0.010 A 
ATOM     78  C   UNL A   1      44.219  25.011  26.168  1.00  0.00     0.020 A 
ATOM     79  C   UNL A   1      43.397  23.214  27.580  1.00  0.00     0.020 A 
ATOM     80  C   UNL A   1      43.969  23.653  26.385  1.00  0.00     0.054 A 
BRANCH  80  81
ATOM     81  S   UNL A   1      44.440  22.461  25.101  1.00  0.00     0.124 S 
ATOM     82  O   UNL A   1      44.863  23.336  24.013  1.00  0.00    -0.237 OA
ATOM     83  O   UNL A   1      45.503  21.700  25.753  1.00  0.00    -0.237 OA
ATOM     84  O   UNL A   1      43.207  21.713  24.862  1.00  0.00    -0.744 OA
ENDBRANCH  80  81
ENDBRANCH  52  75
BRANCH  64  85
ATOM     85  C   UNL A   1      46.337  27.412  34.363  1.00  0.00    -0.014 A 
ATOM     86  C   UNL A   1      47.575  28.060  34.209  1.00  0.00     0.010 A 
ATOM     87  C   UNL A   1      46.237  26.326  35.252  1.00  0.00     0.010 A 
ATOM     88  C   UNL A   1      48.698  27.611  34.908  1.00  0.00     0.020 A 
ATOM     89  C   UNL A   1      47.350  25.893  35.976  1.00  0.00     0.020 A 
ATOM     90  C   UNL A   1      48.578  26.530  35.789  1.00  0.00     0.054 A 
BRANCH  90  91
ATOM     91  S   UNL A   1      50.040  25.996  36.719  1.00  0.00     0.124 S 
ATOM     92  O   UNL A   1      50.863  25.396  35.673  1.00  0.00    -0.237 OA
ATOM     93  O   UNL A   1      50.543  27.252  37.272  1.00  0.00    -0.237 OA
ATOM     94  O   UNL A   1      49.503  25.060  37.704  1.00  0.00    -0.744 OA
ENDBRANCH  90  91
ENDBRANCH  64  85
ENDBRANCH  38  39
ENDBRANCH  30  33
ENDBRANCH  28  29
ENDBRANCH  27  28
ENDBRANCH  26  27
ENDBRANCH   1  26
TORSDOF 20
ENDMDL
MODEL 2
REMARK VINA RESULT:      -9.9      0.787      8.128
REMARK SMILES CC(C)(C)[N@@H+](CC(=O)NCCCCCCNC(=O)c1ccc(-c2c3nc(c(-c4ccc(S(=O)(=O)[O-])cc4)c4ccc([nH]4)c(-c4ccc(S(=O)(=O)[O-])cc4)c4nc(c(-c5ccc(S(=O)(=O)[O-])cc5)c5ccc2[nH]5)C=C4)C=C3)cc1)C[C@@H]1Cc2cc(F)ccc2O1
REMARK SMILES IDX 12 1 11 2 10 3 9 4 7 5 8 6 6 8 5 9 2 11 1 12 3 13 4 14 79 15
REMARK SMILES IDX 80 16 81 17 89 18 82 19 88 20 83 21 87 22 84 23 86 24 85 25
REMARK SMILES IDX 13 26 14 27 15 28 16 29 17 30 18 32 19 33 20 34 78 35 21 36
REMARK SMILES IDX 77 37 22 38 23 39 24 40 71 41 25 42 76 43 70 44 72 45 26 46
REMARK SMILES IDX 75 47 69 48 68 49 27 51 57 52 38 53 56 54 39 55 42 56 55 57
REMARK SMILES IDX 73 58 40 59 41 60 54 62 74 63 43 64 28 65 29 66 37 67 30 68
REMARK SMILES IDX 36 69 31 70 32 71 33 72 34 73 35 74 58 75 59 76 67 77 60 78
REMARK SMILES IDX 66 79 61 80 62 81 63 82 64 83 65 84 44 85 45 86 53 87 46 88
REMARK SMILES IDX 52 89 47 90 48 91 49 92 50 93 51 94
REMARK H PARENT 9 7 5 10 16 31 72 50 42 61
REMARK Flexibility Score: inf
ROOT
ATOM      1  C   UNL A   1      30.940  28.030  24.778  1.00  0.00     0.002 C 
ENDROOT
BRANCH   1   2
ATOM      2  C   UNL A   1      31.616  28.114  23.405  1.00  0.00     0.021 C 
BRANCH   2   3
ATOM      3  C   UNL A   1      30.906  27.334  22.290  1.00  0.00     0.116 C 
BRANCH   3   4
ATOM      4  N   UNL A   1      31.792  26.600  21.395  1.00  0.00    -0.351 N 
ATOM      5  C   UNL A   1      32.789  25.688  21.604  1.00  0.00     0.275 C 
ATOM      6  O   UNL A   1      33.264  25.142  20.602  1.00  0.00    -0.269 OA
ATOM      7  H   UNL A   1      31.642  26.803  20.444  1.00  0.00     0.163 HD
BRANCH   5   8
ATOM      8  C   UNL A   1      33.289  25.323  23.007  1.00  0.00     0.364 C 
BRANCH   8   9
ATOM      9  N   UNL A   1      33.082  23.896  23.388  1.00  0.00    -0.320 N 
ATOM     10  H   UNL A   1      32.743  23.358  22.590  1.00  0.00     0.349 HD
BRANCH   9  11
ATOM     11  C   UNL A   1      31.802  23.525  24.013  1.00  0.00     0.090 C 
ATOM     12  C   UNL A   1      31.544  24.447  25.238  1.00  0.00     0.078 C 
ATOM     13  C   UNL A   1      31.802  22.018  24.338  1.00  0.00     0.078 C 
ATOM     14  C   UNL A   1      30.540  23.803  23.174  1.00  0.00     0.078 C 
ENDBRANCH   9  11
BRANCH   9  15
ATOM     15  C   UNL A   1      34.331  23.123  23.537  1.00  0.00     0.309 C 
BRANCH  15  16
ATOM     16  C   UNL A   1      35.165  22.807  24.822  1.00  0.00     0.232 C 
ATOM     17  C   UNL A   1      35.735  24.005  25.599  1.00  0.00     0.090 C 
ATOM     18  O   UNL A   1      36.178  21.789  24.650  1.00  0.00    -0.484 OA
ATOM     19  C   UNL A   1      37.102  23.512  25.883  1.00  0.00     0.001 A 
ATOM     20  C   UNL A   1      37.265  22.244  25.350  1.00  0.00     0.123 A 
ATOM     21  C   UNL A   1      38.135  24.128  26.570  1.00  0.00     0.047 A 
ATOM     22  C   UNL A   1      38.441  21.530  25.501  1.00  0.00     0.050 A 
ATOM     23  C   UNL A   1      39.325  23.417  26.732  1.00  0.00     0.123 A 
ATOM     24  C   UNL A   1      39.484  22.127  26.215  1.00  0.00     0.043 A 
ATOM     25  F   UNL A   1      40.337  23.980  27.407  1.00  0.00    -0.207 F 
ENDBRANCH  15  16
ENDBRANCH   9  15
ENDBRANCH   8   9
ENDBRANCH   5   8
ENDBRANCH   3   4
ENDBRANCH   2   3
ENDBRANCH   1   2
BRANCH   1  26
ATOM     26  C   UNL A   1      31.877  28.423  25.916  1.00  0.00     0.002 C 
BRANCH  26  27
ATOM     27  C   UNL A   1      33.219  27.682  25.917  1.00  0.00     0.021 C 
BRANCH  27  28
ATOM     28  C   UNL A   1      34.422  28.573  26.204  1.00  0.00     0.116 C 
BRANCH  28  29
ATOM     29  N   UNL A   1      33.989  29.936  26.472  1.00  0.00    -0.352 N 
ATOM     30  C   UNL A   1      34.402  30.733  27.505  1.00  0.00     0.251 C 
ATOM     31  H   UNL A   1      33.333  30.322  25.848  1.00  0.00     0.163 HD
ATOM     32  O   UNL A   1      33.721  31.691  27.881  1.00  0.00    -0.269 OA
BRANCH  30  33
ATOM     33  C   UNL A   1      35.688  30.423  28.155  1.00  0.00     0.039 A 
ATOM     34  C   UNL A   1      36.866  31.006  27.687  1.00  0.00     0.014 A 
ATOM     35  C   UNL A   1      35.700  29.575  29.269  1.00  0.00     0.014 A 
ATOM     36  C   UNL A   1      38.062  30.755  28.360  1.00  0.00     0.010 A 
ATOM     37  C   UNL A   1      36.880  29.385  29.975  1.00  0.00     0.010 A 
ATOM     38  C   UNL A   1      38.076  29.956  29.517  1.00  0.00    -0.014 A 
BRANCH  38  39
ATOM     39  C   UNL A   1      39.338  29.680  30.247  1.00  0.00     0.031 A 
ATOM     40  C   UNL A   1      40.261  28.596  29.760  1.00  0.00     0.074 A 
ATOM     41  C   UNL A   1      39.625  30.363  31.373  1.00  0.00     0.049 A 
ATOM     42  N   UNL A   1      41.387  28.176  30.278  1.00  0.00    -0.248 NA
ATOM     43  C   UNL A   1      39.853  27.870  28.545  1.00  0.00     0.031 C 
ATOM     44  C   UNL A   1      38.787  31.408  31.967  1.00  0.00     0.029 A 
ATOM     45  N   UNL A   1      40.700  30.279  32.220  1.00  0.00    -0.354 N 
ATOM     46  C   UNL A   1      41.811  27.132  29.465  1.00  0.00     0.074 A 
ATOM     47  C   UNL A   1      40.796  26.943  28.452  1.00  0.00     0.031 C 
ATOM     48  C   UNL A   1      39.393  31.885  33.065  1.00  0.00     0.029 A 
ATOM     49  C   UNL A   1      40.641  31.157  33.277  1.00  0.00     0.049 A 
ATOM     50  H   UNL A   1      41.444  29.649  32.086  1.00  0.00     0.167 HD
ATOM     51  C   UNL A   1      42.952  26.407  29.540  1.00  0.00     0.031 A 
ATOM     52  C   UNL A   1      41.493  31.350  34.303  1.00  0.00     0.031 A 
ATOM     53  C   UNL A   1      43.962  26.608  30.545  1.00  0.00     0.049 A 
ATOM     54  C   UNL A   1      42.751  30.529  34.371  1.00  0.00     0.074 A 
ATOM     55  C   UNL A   1      45.181  25.967  30.677  1.00  0.00     0.029 A 
ATOM     56  N   UNL A   1      43.869  27.513  31.592  1.00  0.00    -0.354 N 
ATOM     57  N   UNL A   1      43.170  29.594  33.550  1.00  0.00    -0.248 NA
ATOM     58  C   UNL A   1      43.660  30.798  35.493  1.00  0.00     0.031 C 
ATOM     59  C   UNL A   1      45.800  26.445  31.837  1.00  0.00     0.029 A 
ATOM     60  C   UNL A   1      44.997  27.431  32.390  1.00  0.00     0.049 A 
ATOM     61  H   UNL A   1      43.112  28.124  31.744  1.00  0.00     0.167 HD
ATOM     62  C   UNL A   1      44.404  29.184  34.042  1.00  0.00     0.074 A 
ATOM     63  C   UNL A   1      44.670  29.983  35.222  1.00  0.00     0.031 C 
ATOM     64  C   UNL A   1      45.244  28.234  33.560  1.00  0.00     0.031 A 
BRANCH  51  65
ATOM     65  C   UNL A   1      43.164  25.328  28.510  1.00  0.00    -0.014 A 
ATOM     66  C   UNL A   1      43.546  25.642  27.193  1.00  0.00     0.010 A 
ATOM     67  C   UNL A   1      43.016  23.978  28.875  1.00  0.00     0.010 A 
ATOM     68  C   UNL A   1      43.732  24.629  26.248  1.00  0.00     0.020 A 
ATOM     69  C   UNL A   1      43.233  22.959  27.941  1.00  0.00     0.020 A 
ATOM     70  C   UNL A   1      43.573  23.293  26.629  1.00  0.00     0.054 A 
BRANCH  70  71
ATOM     71  S   UNL A   1      43.846  21.999  25.388  1.00  0.00     0.124 S 
ATOM     72  O   UNL A   1      45.215  21.583  25.683  1.00  0.00    -0.237 OA
ATOM     73  O   UNL A   1      42.810  21.022  25.713  1.00  0.00    -0.237 OA
ATOM     74  O   UNL A   1      43.667  22.694  24.116  1.00  0.00    -0.744 OA
ENDBRANCH  70  71
ENDBRANCH  51  65
BRANCH  52  75
ATOM     75  C   UNL A   1      41.189  32.376  35.338  1.00  0.00    -0.014 A 
ATOM     76  C   UNL A   1      41.528  33.726  35.131  1.00  0.00     0.010 A 
ATOM     77  C   UNL A   1      40.541  32.011  36.532  1.00  0.00     0.010 A 
ATOM     78  C   UNL A   1      41.244  34.686  36.106  1.00  0.00     0.020 A 
ATOM     79  C   UNL A   1      40.229  32.973  37.497  1.00  0.00     0.020 A 
ATOM     80  C   UNL A   1      40.592  34.304  37.282  1.00  0.00     0.054 A 
BRANCH  80  81
ATOM     81  S   UNL A   1      40.186  35.576  38.511  1.00  0.00     0.124 S 
ATOM     82  O   UNL A   1      41.341  35.520  39.400  1.00  0.00    -0.237 OA
ATOM     83  O   UNL A   1      40.074  36.780  37.691  1.00  0.00    -0.237 OA
ATOM     84  O   UNL A   1      38.928  35.104  39.086  1.00  0.00    -0.744 OA
ENDBRANCH  80  81
ENDBRANCH  52  75
BRANCH  64  85
ATOM     85  C   UNL A   1      46.549  28.028  34.284  1.00  0.00    -0.014 A 
ATOM     86  C   UNL A   1      46.667  27.095  35.328  1.00  0.00     0.010 A 
ATOM     87  C   UNL A   1      47.689  28.740  33.868  1.00  0.00     0.010 A 
ATOM     88  C   UNL A   1      47.895  26.900  35.965  1.00  0.00     0.020 A 
ATOM     89  C   UNL A   1      48.926  28.526  34.480  1.00  0.00     0.020 A 
ATOM     90  C   UNL A   1      49.018  27.617  35.535  1.00  0.00     0.054 A 
BRANCH  90  91
ATOM     91  S   UNL A   1      50.610  27.312  36.347  1.00  0.00     0.124 S 
ATOM     92  O   UNL A   1      50.973  28.646  36.816  1.00  0.00    -0.237 OA
ATOM     93  O   UNL A   1      50.258  26.352  37.391  1.00  0.00    -0.237 OA
ATOM     94  O   UNL A   1      51.450  26.778  35.276  1.00  0.00    -0.744 OA
ENDBRANCH  90  91
ENDBRANCH  64  85
ENDBRANCH  38  39
ENDBRANCH  30  33
ENDBRANCH  28  29
ENDBRANCH  27  28
ENDBRANCH  26  27
ENDBRANCH   1  26
TORSDOF 20
ENDMDL
MODEL 3
REMARK VINA RESULT:      -9.8      2.714      3.450
REMARK SMILES CC(C)(C)[N@@H+](CC(=O)NCCCCCCNC(=O)c1ccc(-c2c3nc(c(-c4ccc(S(=O)(=O)[O-])cc4)c4ccc([nH]4)c(-c4ccc(S(=O)(=O)[O-])cc4)c4nc(c(-c5ccc(S(=O)(=O)[O-])cc5)c5ccc2[nH]5)C=C4)C=C3)cc1)C[C@@H]1Cc2cc(F)ccc2O1
REMARK SMILES IDX 12 1 11 2 10 3 9 4 7 5 8 6 6 8 5 9 2 11 1 12 3 13 4 14 79 15
REMARK SMILES IDX 80 16 81 17 89 18 82 19 88 20 83 21 87 22 84 23 86 24 85 25
REMARK SMILES IDX 13 26 14 27 15 28 16 29 17 30 18 32 19 33 20 34 78 35 21 36
REMARK SMILES IDX 77 37 22 38 23 39 24 40 71 41 25 42 76 43 70 44 72 45 26 46
REMARK SMILES IDX 75 47 69 48 68 49 27 51 57 52 38 53 56 54 39 55 42 56 55 57
REMARK SMILES IDX 73 58 40 59 41 60 54 62 74 63 43 64 28 65 29 66 37 67 30 68
REMARK SMILES IDX 36 69 31 70 32 71 33 72 34 73 35 74 58 75 59 76 67 77 60 78
REMARK SMILES IDX 66 79 61 80 62 81 63 82 64 83 65 84 44 85 45 86 53 87 46 88
REMARK SMILES IDX 52 89 47 90 48 91 49 92 50 93 51 94
REMARK H PARENT 9 7 5 10 16 31 72 50 42 61
REMARK Flexibility Score: inf
ROOT
ATOM      1  C   UNL A   1      31.047  29.257  24.926  1.00  0.00     0.002 C 
ENDROOT
BRANCH   1   2
ATOM      2  C   UNL A   1      30.296  28.275  24.019  1.00  0.00     0.021 C 
BRANCH   2   3
ATOM      3  C   UNL A   1      30.698  28.329  22.540  1.00  0.00     0.116 C 
BRANCH   3   4
ATOM      4  N   UNL A   1      32.111  28.084  22.278  1.00  0.00    -0.351 N 
ATOM      5  C   UNL A   1      32.809  26.983  21.867  1.00  0.00     0.275 C 
ATOM      6  O   UNL A   1      34.006  27.147  21.606  1.00  0.00    -0.269 OA
ATOM      7  H   UNL A   1      32.679  28.873  22.429  1.00  0.00     0.163 HD
BRANCH   5   8
ATOM      8  C   UNL A   1      32.153  25.606  21.704  1.00  0.00     0.364 C 
BRANCH   8   9
ATOM      9  N   UNL A   1      32.411  24.659  22.828  1.00  0.00    -0.320 N 
ATOM     10  H   UNL A   1      32.303  23.695  22.515  1.00  0.00     0.349 HD
BRANCH   9  11
ATOM     11  C   UNL A   1      31.299  24.349  23.739  1.00  0.00     0.090 C 
ATOM     12  C   UNL A   1      29.958  24.768  23.073  1.00  0.00     0.078 C 
ATOM     13  C   UNL A   1      31.559  24.999  25.113  1.00  0.00     0.078 C 
ATOM     14  C   UNL A   1      31.037  22.852  23.994  1.00  0.00     0.078 C 
ENDBRANCH   9  11
BRANCH   9  15
ATOM     15  C   UNL A   1      33.837  24.516  23.182  1.00  0.00     0.309 C 
BRANCH  15  16
ATOM     16  C   UNL A   1      34.506  23.694  24.332  1.00  0.00     0.232 C 
ATOM     17  C   UNL A   1      35.330  24.480  25.366  1.00  0.00     0.090 C 
ATOM     18  O   UNL A   1      35.232  22.521  23.895  1.00  0.00    -0.484 OA
ATOM     19  C   UNL A   1      36.512  23.598  25.492  1.00  0.00     0.001 A 
ATOM     20  C   UNL A   1      36.368  22.498  24.662  1.00  0.00     0.123 A 
ATOM     21  C   UNL A   1      37.637  23.741  26.286  1.00  0.00     0.047 A 
ATOM     22  C   UNL A   1      37.314  21.489  24.609  1.00  0.00     0.050 A 
ATOM     23  C   UNL A   1      38.597  22.729  26.244  1.00  0.00     0.123 A 
ATOM     24  C   UNL A   1      38.443  21.606  25.424  1.00  0.00     0.043 A 
ATOM     25  F   UNL A   1      39.690  22.831  27.014  1.00  0.00    -0.207 F 
ENDBRANCH  15  16
ENDBRANCH   9  15
ENDBRANCH   8   9
ENDBRANCH   5   8
ENDBRANCH   3   4
ENDBRANCH   2   3
ENDBRANCH   1   2
BRANCH   1  26
ATOM     26  C   UNL A   1      31.650  28.578  26.151  1.00  0.00     0.002 C 
BRANCH  26  27
ATOM     27  C   UNL A   1      32.961  27.829  25.880  1.00  0.00     0.021 C 
BRANCH  27  28
ATOM     28  C   UNL A   1      34.154  28.359  26.667  1.00  0.00     0.116 C 
BRANCH  28  29
ATOM     29  N   UNL A   1      33.925  29.739  27.064  1.00  0.00    -0.352 N 
ATOM     30  C   UNL A   1      34.668  30.462  27.959  1.00  0.00     0.251 C 
ATOM     31  H   UNL A   1      33.160  30.198  26.650  1.00  0.00     0.163 HD
ATOM     32  O   UNL A   1      34.196  31.454  28.522  1.00  0.00    -0.269 OA
BRANCH  30  33
ATOM     33  C   UNL A   1      36.051  30.030  28.228  1.00  0.00     0.039 A 
ATOM     34  C   UNL A   1      37.026  30.151  27.239  1.00  0.00     0.014 A 
ATOM     35  C   UNL A   1      36.375  29.542  29.500  1.00  0.00     0.014 A 
ATOM     36  C   UNL A   1      38.344  29.802  27.537  1.00  0.00     0.010 A 
ATOM     37  C   UNL A   1      37.699  29.263  29.812  1.00  0.00     0.010 A 
ATOM     38  C   UNL A   1      38.693  29.371  28.829  1.00  0.00    -0.014 A 
BRANCH  38  39
ATOM     39  C   UNL A   1      40.090  28.999  29.166  1.00  0.00     0.031 A 
ATOM     40  C   UNL A   1      40.991  30.004  29.830  1.00  0.00     0.074 A 
ATOM     41  C   UNL A   1      40.560  27.782  28.827  1.00  0.00     0.049 A 
ATOM     42  N   UNL A   1      42.249  29.886  30.169  1.00  0.00    -0.248 NA
ATOM     43  C   UNL A   1      40.411  31.324  30.129  1.00  0.00     0.031 C 
ATOM     44  C   UNL A   1      39.793  26.738  28.142  1.00  0.00     0.029 A 
ATOM     45  N   UNL A   1      41.797  27.219  29.011  1.00  0.00    -0.354 N 
ATOM     46  C   UNL A   1      42.612  31.116  30.705  1.00  0.00     0.074 A 
ATOM     47  C   UNL A   1      41.461  31.984  30.595  1.00  0.00     0.031 C 
ATOM     48  C   UNL A   1      40.569  25.653  27.989  1.00  0.00     0.029 A 
ATOM     49  C   UNL A   1      41.896  25.935  28.527  1.00  0.00     0.049 A 
ATOM     50  H   UNL A   1      42.543  27.689  29.446  1.00  0.00     0.167 HD
ATOM     51  C   UNL A   1      43.792  31.486  31.258  1.00  0.00     0.031 A 
ATOM     52  C   UNL A   1      42.941  25.084  28.514  1.00  0.00     0.031 A 
ATOM     53  C   UNL A   1      44.930  30.613  31.372  1.00  0.00     0.049 A 
ATOM     54  C   UNL A   1      44.244  25.518  29.128  1.00  0.00     0.074 A 
ATOM     55  C   UNL A   1      46.153  30.870  31.967  1.00  0.00     0.029 A 
ATOM     56  N   UNL A   1      44.987  29.318  30.879  1.00  0.00    -0.354 N 
ATOM     57  N   UNL A   1      44.546  26.662  29.695  1.00  0.00    -0.248 NA
ATOM     58  C   UNL A   1      45.342  24.542  29.114  1.00  0.00     0.031 C 
ATOM     59  C   UNL A   1      46.970  29.750  31.783  1.00  0.00     0.029 A 
ATOM     60  C   UNL A   1      46.234  28.771  31.132  1.00  0.00     0.049 A 
ATOM     61  H   UNL A   1      44.251  28.857  30.418  1.00  0.00     0.167 HD
ATOM     62  C   UNL A   1      45.860  26.532  30.131  1.00  0.00     0.074 A 
ATOM     63  C   UNL A   1      46.289  25.194  29.775  1.00  0.00     0.031 C 
ATOM     64  C   UNL A   1      46.642  27.437  30.771  1.00  0.00     0.031 A 
BRANCH  51  65
ATOM     65  C   UNL A   1      43.910  32.896  31.775  1.00  0.00    -0.014 A 
ATOM     66  C   UNL A   1      44.364  33.940  30.949  1.00  0.00     0.010 A 
ATOM     67  C   UNL A   1      43.524  33.189  33.096  1.00  0.00     0.010 A 
ATOM     68  C   UNL A   1      44.473  35.242  31.447  1.00  0.00     0.020 A 
ATOM     69  C   UNL A   1      43.601  34.495  33.588  1.00  0.00     0.020 A 
ATOM     70  C   UNL A   1      44.092  35.511  32.765  1.00  0.00     0.054 A 
BRANCH  70  71
ATOM     71  S   UNL A   1      44.220  37.213  33.376  1.00  0.00     0.124 S 
ATOM     72  O   UNL A   1      44.231  37.980  32.132  1.00  0.00    -0.237 OA
ATOM     73  O   UNL A   1      43.015  37.352  34.188  1.00  0.00    -0.237 OA
ATOM     74  O   UNL A   1      45.475  37.221  34.122  1.00  0.00    -0.744 OA
ENDBRANCH  70  71
ENDBRANCH  51  65
BRANCH  52  75
ATOM     75  C   UNL A   1      42.788  23.729  27.914  1.00  0.00    -0.014 A 
ATOM     76  C   UNL A   1      42.418  22.630  28.710  1.00  0.00     0.010 A 
ATOM     77  C   UNL A   1      42.996  23.535  26.536  1.00  0.00     0.010 A 
ATOM     78  C   UNL A   1      42.279  21.360  28.143  1.00  0.00     0.020 A 
ATOM     79  C   UNL A   1      42.829  22.272  25.961  1.00  0.00     0.020 A 
ATOM     80  C   UNL A   1      42.481  21.190  26.771  1.00  0.00     0.054 A 
BRANCH  80  81
ATOM     81  S   UNL A   1      42.243  19.542  26.049  1.00  0.00     0.124 S 
ATOM     82  O   UNL A   1      42.729  18.671  27.112  1.00  0.00    -0.237 OA
ATOM     83  O   UNL A   1      40.802  19.509  25.809  1.00  0.00    -0.237 OA
ATOM     84  O   UNL A   1      43.066  19.578  24.841  1.00  0.00    -0.744 OA
ENDBRANCH  80  81
ENDBRANCH  52  75
BRANCH  64  85
ATOM     85  C   UNL A   1      48.030  27.003  31.162  1.00  0.00    -0.014 A 
ATOM     86  C   UNL A   1      49.147  27.323  30.371  1.00  0.00     0.010 A 
ATOM     87  C   UNL A   1      48.222  26.315  32.374  1.00  0.00     0.010 A 
ATOM     88  C   UNL A   1      50.429  26.935  30.771  1.00  0.00     0.020 A 
ATOM     89  C   UNL A   1      49.504  25.952  32.793  1.00  0.00     0.020 A 
ATOM     90  C   UNL A   1      50.598  26.253  31.981  1.00  0.00     0.054 A 
BRANCH  90  91
ATOM     91  S   UNL A   1      52.277  25.801  32.499  1.00  0.00     0.124 S 
ATOM     92  O   UNL A   1      52.683  26.972  33.269  1.00  0.00    -0.237 OA
ATOM     93  O   UNL A   1      52.054  24.583  33.276  1.00  0.00    -0.237 OA
ATOM     94  O   UNL A   1      52.989  25.606  31.238  1.00  0.00    -0.744 OA
ENDBRANCH  90  91
ENDBRANCH  64  85
ENDBRANCH  38  39
ENDBRANCH  30  33
ENDBRANCH  28  29
ENDBRANCH  27  28
ENDBRANCH  26  27
ENDBRANCH   1  26
TORSDOF 20
ENDMDL
