MODEL 1
REMARK VINA RESULT:     -11.2      0.000      0.000
REMARK SMILES O=C(NCCCCCCNC(=O)C1(C[C@@H]2COc3ccccc32)CC[NH2+]CC1)c1ccc(-c2c3nc(c(-c4ccc(S(=O)(=O)[O-])cc4)c4ccc([nH]4)c(-c4ccc(S(=O)(=O)[O-])cc4)c4nc(c(-c5ccc(S(=O)(=O)[O-])cc5)c5ccc2[nH]5)C=C4)C=C3)cc1
REMARK SMILES IDX 6 1 5 2 4 3 3 4 1 5 2 6 29 8 30 9 88 10 31 11 87 12 32 13
REMARK SMILES IDX 33 14 34 15 81 16 35 17 86 18 80 19 82 20 36 21 85 22 79 23
REMARK SMILES IDX 78 24 37 26 67 27 48 28 66 29 49 30 52 31 65 32 83 33 50 34
REMARK SMILES IDX 51 35 64 37 84 38 53 39 38 40 39 41 47 42 40 43 46 44 41 45
REMARK SMILES IDX 42 46 43 47 44 48 45 49 68 50 69 51 77 52 70 53 76 54 71 55
REMARK SMILES IDX 72 56 73 57 74 58 75 59 54 60 55 61 63 62 56 63 62 64 57 65
REMARK SMILES IDX 58 66 59 67 60 68 61 69 7 70 8 71 9 72 10 73 11 74 12 76
REMARK SMILES IDX 13 77 24 78 28 79 25 80 27 81 26 82 14 85 15 86 16 87 23 88
REMARK SMILES IDX 17 89 18 90 22 91 19 92 21 93 20 94
REMARK H PARENT 3 7 82 25 52 36 10 75 26 83 26 84
REMARK Flexibility Score: inf
ROOT
ATOM      1  C   UNL A   1      31.637  28.211  25.811  1.00  0.00     0.002 C 
ENDROOT
BRANCH   1   2
ATOM      2  C   UNL A   1      32.935  27.717  26.456  1.00  0.00     0.021 C 
BRANCH   2   3
ATOM      3  C   UNL A   1      34.139  28.617  26.215  1.00  0.00     0.116 C 
BRANCH   3   4
ATOM      4  N   UNL A   1      33.890  29.976  26.662  1.00  0.00    -0.352 N 
ATOM      5  O   UNL A   1      34.102  31.755  28.027  1.00  0.00    -0.269 OA
ATOM      6  C   UNL A   1      34.585  30.722  27.579  1.00  0.00     0.251 C 
ATOM      7  H   UNL A   1      33.115  30.423  26.251  1.00  0.00     0.163 HD
BRANCH   6   8
ATOM      8  C   UNL A   1      35.915  30.261  28.024  1.00  0.00     0.039 A 
ATOM      9  C   UNL A   1      37.026  30.386  27.183  1.00  0.00     0.014 A 
ATOM     10  C   UNL A   1      36.051  29.713  29.300  1.00  0.00     0.014 A 
ATOM     11  C   UNL A   1      38.251  29.860  27.574  1.00  0.00     0.010 A 
ATOM     12  C   UNL A   1      37.300  29.257  29.722  1.00  0.00     0.010 A 
ATOM     13  C   UNL A   1      38.405  29.309  28.856  1.00  0.00    -0.014 A 
BRANCH  13  14
ATOM     14  C   UNL A   1      39.740  28.853  29.311  1.00  0.00     0.031 A 
ATOM     15  C   UNL A   1      40.640  29.766  30.093  1.00  0.00     0.074 A 
ATOM     16  C   UNL A   1      40.147  27.611  28.984  1.00  0.00     0.049 A 
ATOM     17  N   UNL A   1      41.864  29.558  30.507  1.00  0.00    -0.248 NA
ATOM     18  C   UNL A   1      40.100  31.087  30.450  1.00  0.00     0.031 C 
ATOM     19  C   UNL A   1      39.353  26.635  28.232  1.00  0.00     0.029 A 
ATOM     20  N   UNL A   1      41.324  26.957  29.237  1.00  0.00    -0.354 N 
ATOM     21  C   UNL A   1      42.252  30.728  31.149  1.00  0.00     0.074 A 
ATOM     22  C   UNL A   1      41.140  31.650  31.050  1.00  0.00     0.031 C 
ATOM     23  C   UNL A   1      40.057  25.503  28.102  1.00  0.00     0.029 A 
ATOM     24  C   UNL A   1      41.374  25.694  28.699  1.00  0.00     0.049 A 
ATOM     25  H   UNL A   1      42.062  27.353  29.754  1.00  0.00     0.167 HD
ATOM     26  C   UNL A   1      43.429  31.005  31.762  1.00  0.00     0.031 A 
ATOM     27  C   UNL A   1      42.377  24.797  28.656  1.00  0.00     0.031 A 
ATOM     28  C   UNL A   1      44.532  30.081  31.837  1.00  0.00     0.049 A 
ATOM     29  C   UNL A   1      43.688  25.143  29.299  1.00  0.00     0.074 A 
ATOM     30  C   UNL A   1      45.758  30.254  32.455  1.00  0.00     0.029 A 
ATOM     31  N   UNL A   1      44.549  28.816  31.265  1.00  0.00    -0.354 N 
ATOM     32  N   UNL A   1      44.030  26.244  29.926  1.00  0.00    -0.248 NA
ATOM     33  C   UNL A   1      44.745  24.128  29.236  1.00  0.00     0.031 C 
ATOM     34  C   UNL A   1      46.537  29.119  32.206  1.00  0.00     0.029 A 
ATOM     35  C   UNL A   1      45.771  28.208  31.494  1.00  0.00     0.049 A 
ATOM     36  H   UNL A   1      43.801  28.411  30.769  1.00  0.00     0.167 HD
ATOM     37  C   UNL A   1      45.334  26.042  30.359  1.00  0.00     0.074 A 
ATOM     38  C   UNL A   1      45.715  24.713  29.927  1.00  0.00     0.031 C 
ATOM     39  C   UNL A   1      46.137  26.882  31.058  1.00  0.00     0.031 A 
BRANCH  26  40
ATOM     40  C   UNL A   1      43.596  32.379  32.358  1.00  0.00    -0.014 A 
ATOM     41  C   UNL A   1      43.269  32.641  33.701  1.00  0.00     0.010 A 
ATOM     42  C   UNL A   1      44.105  33.424  31.566  1.00  0.00     0.010 A 
ATOM     43  C   UNL A   1      43.392  33.934  34.221  1.00  0.00     0.020 A 
ATOM     44  C   UNL A   1      44.260  34.711  32.090  1.00  0.00     0.020 A 
ATOM     45  C   UNL A   1      43.879  34.962  33.409  1.00  0.00     0.054 A 
BRANCH  45  46
ATOM     46  S   UNL A   1      44.014  36.632  34.105  1.00  0.00     0.124 S 
ATOM     47  O   UNL A   1      44.456  37.405  32.947  1.00  0.00    -0.237 OA
ATOM     48  O   UNL A   1      42.651  36.902  34.554  1.00  0.00    -0.237 OA
ATOM     49  O   UNL A   1      45.001  36.486  35.171  1.00  0.00    -0.744 OA
ENDBRANCH  45  46
ENDBRANCH  26  40
BRANCH  27  50
ATOM     50  C   UNL A   1      42.163  23.497  27.965  1.00  0.00    -0.014 A 
ATOM     51  C   UNL A   1      42.644  23.294  26.662  1.00  0.00     0.010 A 
ATOM     52  C   UNL A   1      41.532  22.433  28.638  1.00  0.00     0.010 A 
ATOM     53  C   UNL A   1      42.499  22.048  26.042  1.00  0.00     0.020 A 
ATOM     54  C   UNL A   1      41.412  21.179  28.033  1.00  0.00     0.020 A 
ATOM     55  C   UNL A   1      41.892  20.997  26.736  1.00  0.00     0.054 A 
BRANCH  55  56
ATOM     56  S   UNL A   1      41.791  19.371  25.939  1.00  0.00     0.124 S 
ATOM     57  O   UNL A   1      42.716  19.522  24.822  1.00  0.00    -0.237 OA
ATOM     58  O   UNL A   1      42.224  18.471  27.006  1.00  0.00    -0.237 OA
ATOM     59  O   UNL A   1      40.380  19.256  25.574  1.00  0.00    -0.744 OA
ENDBRANCH  55  56
ENDBRANCH  27  50
BRANCH  39  60
ATOM     60  C   UNL A   1      47.499  26.373  31.448  1.00  0.00    -0.014 A 
ATOM     61  C   UNL A   1      47.737  25.795  32.706  1.00  0.00     0.010 A 
ATOM     62  C   UNL A   1      48.542  26.412  30.502  1.00  0.00     0.010 A 
ATOM     63  C   UNL A   1      49.000  25.284  33.020  1.00  0.00     0.020 A 
ATOM     64  C   UNL A   1      49.795  25.875  30.801  1.00  0.00     0.020 A 
ATOM     65  C   UNL A   1      50.020  25.323  32.063  1.00  0.00     0.054 A 
BRANCH  65  66
ATOM     66  S   UNL A   1      51.629  24.594  32.470  1.00  0.00     0.124 S 
ATOM     67  O   UNL A   1      51.419  23.187  32.136  1.00  0.00    -0.237 OA
ATOM     68  O   UNL A   1      52.542  25.320  31.590  1.00  0.00    -0.237 OA
ATOM     69  O   UNL A   1      51.788  24.878  33.895  1.00  0.00    -0.744 OA
ENDBRANCH  65  66
ENDBRANCH  39  60
ENDBRANCH  13  14
ENDBRANCH   6   8
ENDBRANCH   3   4
ENDBRANCH   2   3
ENDBRANCH   1   2
BRANCH   1  70
ATOM     70  C   UNL A   1      31.193  27.434  24.567  1.00  0.00     0.002 C 
BRANCH  70  71
ATOM     71  C   UNL A   1      29.959  26.554  24.766  1.00  0.00     0.021 C 
BRANCH  71  72
ATOM     72  C   UNL A   1      30.277  25.067  24.910  1.00  0.00     0.116 C 
BRANCH  72  73
ATOM     73  N   UNL A   1      30.627  24.736  26.265  1.00  0.00    -0.356 N 
ATOM     74  C   UNL A   1      31.401  23.713  26.701  1.00  0.00     0.226 C 
ATOM     75  H   UNL A   1      30.259  25.327  26.962  1.00  0.00     0.163 HD
ATOM     76  O   UNL A   1      30.917  23.053  27.627  1.00  0.00    -0.274 OA
BRANCH  74  77
ATOM     77  C   UNL A   1      32.765  23.323  26.085  1.00  0.00     0.061 C 
ATOM     78  C   UNL A   1      32.753  22.286  24.937  1.00  0.00     0.078 C 
ATOM     79  C   UNL A   1      33.730  22.874  27.219  1.00  0.00     0.078 C 
ATOM     80  C   UNL A   1      33.011  20.814  25.270  1.00  0.00     0.261 C 
ATOM     81  C   UNL A   1      33.747  21.384  27.528  1.00  0.00     0.261 C 
ATOM     82  N   UNL A   1      33.977  20.589  26.333  1.00  0.00    -0.346 N 
ATOM     83  H   UNL A   1      34.905  20.813  25.974  1.00  0.00     0.346 HD
ATOM     84  H   UNL A   1      33.885  19.612  26.610  1.00  0.00     0.346 HD
BRANCH  77  85
ATOM     85  C   UNL A   1      33.390  24.683  25.529  1.00  0.00     0.029 C 
BRANCH  85  86
ATOM     86  C   UNL A   1      34.644  24.754  24.619  1.00  0.00     0.062 C 
ATOM     87  C   UNL A   1      34.441  24.375  23.138  1.00  0.00     0.238 C 
ATOM     88  C   UNL A   1      35.821  23.901  24.912  1.00  0.00     0.001 A 
ATOM     89  O   UNL A   1      35.091  23.111  22.865  1.00  0.00    -0.493 OA
ATOM     90  C   UNL A   1      35.999  22.989  23.883  1.00  0.00     0.122 A 
ATOM     91  C   UNL A   1      36.697  23.928  25.984  1.00  0.00     0.008 A 
ATOM     92  C   UNL A   1      37.009  22.049  23.900  1.00  0.00     0.047 A 
ATOM     93  C   UNL A   1      37.720  22.976  26.031  1.00  0.00     0.001 A 
ATOM     94  C   UNL A   1      37.875  22.040  24.995  1.00  0.00     0.004 A 
ENDBRANCH  85  86
ENDBRANCH  77  85
ENDBRANCH  74  77
ENDBRANCH  72  73
ENDBRANCH  71  72
ENDBRANCH  70  71
ENDBRANCH   1  70
TORSDOF 18
ENDMDL
MODEL 2
REMARK VINA RESULT:     -11.1      2.817      9.535
REMARK SMILES O=C(NCCCCCCNC(=O)C1(C[C@@H]2COc3ccccc32)CC[NH2+]CC1)c1ccc(-c2c3nc(c(-c4ccc(S(=O)(=O)[O-])cc4)c4ccc([nH]4)c(-c4ccc(S(=O)(=O)[O-])cc4)c4nc(c(-c5ccc(S(=O)(=O)[O-])cc5)c5ccc2[nH]5)C=C4)C=C3)cc1
REMARK SMILES IDX 6 1 5 2 4 3 3 4 1 5 2 6 29 8 30 9 88 10 31 11 87 12 32 13
REMARK SMILES IDX 33 14 34 15 81 16 35 17 86 18 80 19 82 20 36 21 85 22 79 23
REMARK SMILES IDX 78 24 37 26 67 27 48 28 66 29 49 30 52 31 65 32 83 33 50 34
REMARK SMILES IDX 51 35 64 37 84 38 53 39 38 40 39 41 47 42 40 43 46 44 41 45
REMARK SMILES IDX 42 46 43 47 44 48 45 49 68 50 69 51 77 52 70 53 76 54 71 55
REMARK SMILES IDX 72 56 73 57 74 58 75 59 54 60 55 61 63 62 56 63 62 64 57 65
REMARK SMILES IDX 58 66 59 67 60 68 61 69 7 70 8 71 9 72 10 73 11 74 12 76
REMARK SMILES IDX 13 77 24 78 28 79 25 80 27 81 26 82 14 85 15 86 16 87 23 88
REMARK SMILES IDX 17 89 18 90 22 91 19 92 21 93 20 94
REMARK H PARENT 3 7 82 25 52 36 10 75 26 83 26 84
REMARK Flexibility Score: inf
ROOT
ATOM      1  C   UNL A   1      34.238  22.794  25.594  1.00  0.00     0.002 C 
ENDROOT
BRANCH   1   2
ATOM      2  C   UNL A   1      35.332  23.537  24.821  1.00  0.00     0.021 C 
BRANCH   2   3
ATOM      3  C   UNL A   1      36.523  23.963  25.669  1.00  0.00     0.116 C 
BRANCH   3   4
ATOM      4  N   UNL A   1      37.517  22.910  25.763  1.00  0.00    -0.352 N 
ATOM      5  O   UNL A   1      39.597  22.066  25.956  1.00  0.00    -0.269 OA
ATOM      6  C   UNL A   1      38.824  22.993  26.170  1.00  0.00     0.251 C 
ATOM      7  H   UNL A   1      37.211  22.012  25.499  1.00  0.00     0.163 HD
BRANCH   6   8
ATOM      8  C   UNL A   1      39.288  24.213  26.859  1.00  0.00     0.039 A 
ATOM      9  C   UNL A   1      38.974  24.429  28.205  1.00  0.00     0.014 A 
ATOM     10  C   UNL A   1      40.056  25.141  26.154  1.00  0.00     0.014 A 
ATOM     11  C   UNL A   1      39.333  25.625  28.815  1.00  0.00     0.010 A 
ATOM     12  C   UNL A   1      40.482  26.306  26.791  1.00  0.00     0.010 A 
ATOM     13  C   UNL A   1      40.109  26.566  28.121  1.00  0.00    -0.014 A 
BRANCH  13  14
ATOM     14  C   UNL A   1      40.585  27.788  28.811  1.00  0.00     0.031 A 
ATOM     15  C   UNL A   1      41.960  27.847  29.412  1.00  0.00     0.074 A 
ATOM     16  C   UNL A   1      39.750  28.840  28.916  1.00  0.00     0.049 A 
ATOM     17  N   UNL A   1      42.511  28.805  30.112  1.00  0.00    -0.248 NA
ATOM     18  C   UNL A   1      42.825  26.675  29.210  1.00  0.00     0.031 C 
ATOM     19  C   UNL A   1      38.393  28.897  28.364  1.00  0.00     0.029 A 
ATOM     20  N   UNL A   1      39.913  30.058  29.522  1.00  0.00    -0.354 N 
ATOM     21  C   UNL A   1      43.776  28.344  30.457  1.00  0.00     0.074 A 
ATOM     22  C   UNL A   1      43.901  27.010  29.908  1.00  0.00     0.031 C 
ATOM     23  C   UNL A   1      37.856  30.093  28.640  1.00  0.00     0.029 A 
ATOM     24  C   UNL A   1      38.800  30.860  29.445  1.00  0.00     0.049 A 
ATOM     25  H   UNL A   1      40.746  30.331  29.969  1.00  0.00     0.167 HD
ATOM     26  C   UNL A   1      44.741  28.976  31.169  1.00  0.00     0.031 A 
ATOM     27  C   UNL A   1      38.548  32.066  29.988  1.00  0.00     0.031 A 
ATOM     28  C   UNL A   1      44.593  30.298  31.723  1.00  0.00     0.049 A 
ATOM     29  C   UNL A   1      39.613  32.728  30.813  1.00  0.00     0.074 A 
ATOM     30  C   UNL A   1      45.518  31.039  32.439  1.00  0.00     0.029 A 
ATOM     31  N   UNL A   1      43.444  31.072  31.636  1.00  0.00    -0.354 N 
ATOM     32  N   UNL A   1      40.814  32.290  31.107  1.00  0.00    -0.248 NA
ATOM     33  C   UNL A   1      39.294  34.045  31.373  1.00  0.00     0.031 C 
ATOM     34  C   UNL A   1      44.908  32.234  32.834  1.00  0.00     0.029 A 
ATOM     35  C   UNL A   1      43.627  32.271  32.305  1.00  0.00     0.049 A 
ATOM     36  H   UNL A   1      42.620  30.808  31.166  1.00  0.00     0.167 HD
ATOM     37  C   UNL A   1      41.407  33.293  31.863  1.00  0.00     0.074 A 
ATOM     38  C   UNL A   1      40.434  34.360  31.975  1.00  0.00     0.031 C 
ATOM     39  C   UNL A   1      42.649  33.326  32.407  1.00  0.00     0.031 A 
BRANCH  26  40
ATOM     40  C   UNL A   1      46.022  28.225  31.424  1.00  0.00    -0.014 A 
ATOM     41  C   UNL A   1      46.169  27.383  32.542  1.00  0.00     0.010 A 
ATOM     42  C   UNL A   1      47.093  28.349  30.520  1.00  0.00     0.010 A 
ATOM     43  C   UNL A   1      47.382  26.728  32.781  1.00  0.00     0.020 A 
ATOM     44  C   UNL A   1      48.296  27.672  30.739  1.00  0.00     0.020 A 
ATOM     45  C   UNL A   1      48.441  26.884  31.882  1.00  0.00     0.054 A 
BRANCH  45  46
ATOM     46  S   UNL A   1      50.007  26.036  32.225  1.00  0.00     0.124 S 
ATOM     47  O   UNL A   1      50.638  26.946  33.179  1.00  0.00    -0.237 OA
ATOM     48  O   UNL A   1      49.565  24.759  32.779  1.00  0.00    -0.237 OA
ATOM     49  O   UNL A   1      50.654  25.956  30.919  1.00  0.00    -0.744 OA
ENDBRANCH  45  46
ENDBRANCH  26  40
BRANCH  27  50
ATOM     50  C   UNL A   1      37.221  32.701  29.766  1.00  0.00    -0.014 A 
ATOM     51  C   UNL A   1      36.203  32.580  30.726  1.00  0.00     0.010 A 
ATOM     52  C   UNL A   1      36.995  33.489  28.621  1.00  0.00     0.010 A 
ATOM     53  C   UNL A   1      34.981  33.235  30.544  1.00  0.00     0.020 A 
ATOM     54  C   UNL A   1      35.787  34.168  28.451  1.00  0.00     0.020 A 
ATOM     55  C   UNL A   1      34.784  34.032  29.411  1.00  0.00     0.054 A 
BRANCH  55  56
ATOM     56  S   UNL A   1      33.221  34.935  29.242  1.00  0.00     0.124 S 
ATOM     57  O   UNL A   1      32.715  34.926  30.610  1.00  0.00    -0.237 OA
ATOM     58  O   UNL A   1      33.661  36.233  28.736  1.00  0.00    -0.237 OA
ATOM     59  O   UNL A   1      32.462  34.129  28.287  1.00  0.00    -0.744 OA
ENDBRANCH  55  56
ENDBRANCH  27  50
BRANCH  39  60
ATOM     60  C   UNL A   1      43.052  34.580  33.136  1.00  0.00    -0.014 A 
ATOM     61  C   UNL A   1      42.904  34.702  34.528  1.00  0.00     0.010 A 
ATOM     62  C   UNL A   1      43.656  35.628  32.415  1.00  0.00     0.010 A 
ATOM     63  C   UNL A   1      43.336  35.859  35.184  1.00  0.00     0.020 A 
ATOM     64  C   UNL A   1      44.115  36.771  33.071  1.00  0.00     0.020 A 
ATOM     65  C   UNL A   1      43.943  36.885  34.450  1.00  0.00     0.054 A 
BRANCH  65  66
ATOM     66  S   UNL A   1      44.553  38.346  35.333  1.00  0.00     0.124 S 
ATOM     67  O   UNL A   1      44.015  39.437  34.524  1.00  0.00    -0.237 OA
ATOM     68  O   UNL A   1      43.957  38.192  36.658  1.00  0.00    -0.237 OA
ATOM     69  O   UNL A   1      46.006  38.197  35.289  1.00  0.00    -0.744 OA
ENDBRANCH  65  66
ENDBRANCH  39  60
ENDBRANCH  13  14
ENDBRANCH   6   8
ENDBRANCH   3   4
ENDBRANCH   2   3
ENDBRANCH   1   2
BRANCH   1  70
ATOM     70  C   UNL A   1      33.586  23.594  26.726  1.00  0.00     0.002 C 
BRANCH  70  71
ATOM     71  C   UNL A   1      32.241  24.229  26.371  1.00  0.00     0.021 C 
BRANCH  71  72
ATOM     72  C   UNL A   1      32.361  25.599  25.706  1.00  0.00     0.116 C 
BRANCH  72  73
ATOM     73  N   UNL A   1      31.421  26.534  26.264  1.00  0.00    -0.356 N 
ATOM     74  C   UNL A   1      31.659  27.792  26.707  1.00  0.00     0.226 C 
ATOM     75  H   UNL A   1      30.490  26.221  26.332  1.00  0.00     0.163 HD
ATOM     76  O   UNL A   1      31.188  28.049  27.820  1.00  0.00    -0.274 OA
BRANCH  74  77
ATOM     77  C   UNL A   1      32.497  28.846  25.945  1.00  0.00     0.061 C 
ATOM     78  C   UNL A   1      34.029  28.638  25.907  1.00  0.00     0.078 C 
ATOM     79  C   UNL A   1      32.148  30.263  26.479  1.00  0.00     0.078 C 
ATOM     80  C   UNL A   1      34.898  29.373  26.931  1.00  0.00     0.261 C 
ATOM     81  C   UNL A   1      33.022  30.781  27.613  1.00  0.00     0.261 C 
ATOM     82  N   UNL A   1      34.435  30.707  27.280  1.00  0.00    -0.346 N 
ATOM     83  H   UNL A   1      34.609  31.323  26.485  1.00  0.00     0.346 HD
ATOM     84  H   UNL A   1      34.947  30.986  28.116  1.00  0.00     0.346 HD
BRANCH  77  85
ATOM     85  C   UNL A   1      31.949  28.826  24.445  1.00  0.00     0.029 C 
BRANCH  85  86
ATOM     86  C   UNL A   1      30.444  28.821  24.069  1.00  0.00     0.062 C 
ATOM     87  C   UNL A   1      30.015  27.834  22.965  1.00  0.00     0.238 C 
ATOM     88  C   UNL A   1      29.812  30.051  23.533  1.00  0.00     0.001 A 
ATOM     89  O   UNL A   1      29.666  28.566  21.767  1.00  0.00    -0.493 OA
ATOM     90  C   UNL A   1      29.412  29.832  22.223  1.00  0.00     0.122 A 
ATOM     91  C   UNL A   1      29.572  31.270  24.145  1.00  0.00     0.008 A 
ATOM     92  C   UNL A   1      28.812  30.816  21.464  1.00  0.00     0.047 A 
ATOM     93  C   UNL A   1      28.979  32.287  23.391  1.00  0.00     0.001 A 
ATOM     94  C   UNL A   1      28.601  32.062  22.057  1.00  0.00     0.004 A 
ENDBRANCH  85  86
ENDBRANCH  77  85
ENDBRANCH  74  77
ENDBRANCH  72  73
ENDBRANCH  71  72
ENDBRANCH  70  71
ENDBRANCH   1  70
TORSDOF 18
ENDMDL
MODEL 3
REMARK VINA RESULT:     -11.1      3.087      3.687
REMARK SMILES O=C(NCCCCCCNC(=O)C1(C[C@@H]2COc3ccccc32)CC[NH2+]CC1)c1ccc(-c2c3nc(c(-c4ccc(S(=O)(=O)[O-])cc4)c4ccc([nH]4)c(-c4ccc(S(=O)(=O)[O-])cc4)c4nc(c(-c5ccc(S(=O)(=O)[O-])cc5)c5ccc2[nH]5)C=C4)C=C3)cc1
REMARK SMILES IDX 6 1 5 2 4 3 3 4 1 5 2 6 29 8 30 9 88 10 31 11 87 12 32 13
REMARK SMILES IDX 33 14 34 15 81 16 35 17 86 18 80 19 82 20 36 21 85 22 79 23
REMARK SMILES IDX 78 24 37 26 67 27 48 28 66 29 49 30 52 31 65 32 83 33 50 34
REMARK SMILES IDX 51 35 64 37 84 38 53 39 38 40 39 41 47 42 40 43 46 44 41 45
REMARK SMILES IDX 42 46 43 47 44 48 45 49 68 50 69 51 77 52 70 53 76 54 71 55
REMARK SMILES IDX 72 56 73 57 74 58 75 59 54 60 55 61 63 62 56 63 62 64 57 65
REMARK SMILES IDX 58 66 59 67 60 68 61 69 7 70 8 71 9 72 10 73 11 74 12 76
REMARK SMILES IDX 13 77 24 78 28 79 25 80 27 81 26 82 14 85 15 86 16 87 23 88
REMARK SMILES IDX 17 89 18 90 22 91 19 92 21 93 20 94
REMARK H PARENT 3 7 82 25 52 36 10 75 26 83 26 84
REMARK Flexibility Score: inf
ROOT
ATOM      1  C   UNL A   1      33.857  28.431  25.948  1.00  0.00     0.002 C 
ENDROOT
BRANCH   1   2
ATOM      2  C   UNL A   1      34.081  29.545  26.974  1.00  0.00     0.021 C 
BRANCH   2   3
ATOM      3  C   UNL A   1      35.399  29.446  27.731  1.00  0.00     0.116 C 
BRANCH   3   4
ATOM      4  N   UNL A   1      35.328  30.116  29.018  1.00  0.00    -0.352 N 
ATOM      5  O   UNL A   1      35.986  30.592  31.119  1.00  0.00    -0.269 OA
ATOM      6  C   UNL A   1      36.286  30.208  29.994  1.00  0.00     0.251 C 
ATOM      7  H   UNL A   1      34.475  30.565  29.216  1.00  0.00     0.163 HD
BRANCH   6   8
ATOM      8  C   UNL A   1      37.678  29.832  29.677  1.00  0.00     0.039 A 
ATOM      9  C   UNL A   1      38.171  29.979  28.376  1.00  0.00     0.014 A 
ATOM     10  C   UNL A   1      38.497  29.341  30.694  1.00  0.00     0.014 A 
ATOM     11  C   UNL A   1      39.450  29.530  28.068  1.00  0.00     0.010 A 
ATOM     12  C   UNL A   1      39.808  28.965  30.399  1.00  0.00     0.010 A 
ATOM     13  C   UNL A   1      40.289  29.039  29.081  1.00  0.00    -0.014 A 
BRANCH  13  14
ATOM     14  C   UNL A   1      41.689  28.668  28.769  1.00  0.00     0.031 A 
ATOM     15  C   UNL A   1      42.784  29.695  28.808  1.00  0.00     0.074 A 
ATOM     16  C   UNL A   1      41.960  27.396  28.419  1.00  0.00     0.049 A 
ATOM     17  N   UNL A   1      44.048  29.562  28.494  1.00  0.00    -0.248 NA
ATOM     18  C   UNL A   1      42.412  31.049  29.247  1.00  0.00     0.031 C 
ATOM     19  C   UNL A   1      40.976  26.312  28.353  1.00  0.00     0.029 A 
ATOM     20  N   UNL A   1      43.137  26.798  28.050  1.00  0.00    -0.354 N 
ATOM     21  C   UNL A   1      44.617  30.818  28.672  1.00  0.00     0.074 A 
ATOM     22  C   UNL A   1      43.555  31.704  29.099  1.00  0.00     0.031 C 
ATOM     23  C   UNL A   1      41.592  25.180  27.987  1.00  0.00     0.029 A 
ATOM     24  C   UNL A   1      42.998  25.470  27.726  1.00  0.00     0.049 A 
ATOM     25  H   UNL A   1      43.999  27.273  28.021  1.00  0.00     0.167 HD
ATOM     26  C   UNL A   1      45.907  31.194  28.492  1.00  0.00     0.031 A 
ATOM     27  C   UNL A   1      43.889  24.587  27.240  1.00  0.00     0.031 A 
ATOM     28  C   UNL A   1      46.949  30.303  28.050  1.00  0.00     0.049 A 
ATOM     29  C   UNL A   1      45.301  25.037  27.002  1.00  0.00     0.074 A 
ATOM     30  C   UNL A   1      48.292  30.577  27.859  1.00  0.00     0.029 A 
ATOM     31  N   UNL A   1      46.763  28.967  27.717  1.00  0.00    -0.354 N 
ATOM     32  N   UNL A   1      45.830  26.221  27.201  1.00  0.00    -0.248 NA
ATOM     33  C   UNL A   1      46.237  24.034  26.482  1.00  0.00     0.031 C 
ATOM     34  C   UNL A   1      48.905  29.425  27.355  1.00  0.00     0.029 A 
ATOM     35  C   UNL A   1      47.961  28.412  27.298  1.00  0.00     0.049 A 
ATOM     36  H   UNL A   1      45.906  28.487  27.770  1.00  0.00     0.167 HD
ATOM     37  C   UNL A   1      47.170  26.099  26.858  1.00  0.00     0.074 A 
ATOM     38  C   UNL A   1      47.370  24.724  26.446  1.00  0.00     0.031 C 
ATOM     39  C   UNL A   1      48.146  27.040  26.891  1.00  0.00     0.031 A 
BRANCH  26  40
ATOM     40  C   UNL A   1      46.249  32.642  28.731  1.00  0.00    -0.014 A 
ATOM     41  C   UNL A   1      46.669  33.099  29.993  1.00  0.00     0.010 A 
ATOM     42  C   UNL A   1      46.164  33.561  27.668  1.00  0.00     0.010 A 
ATOM     43  C   UNL A   1      46.941  34.455  30.202  1.00  0.00     0.020 A 
ATOM     44  C   UNL A   1      46.465  34.912  27.865  1.00  0.00     0.020 A 
ATOM     45  C   UNL A   1      46.829  35.354  29.137  1.00  0.00     0.054 A 
BRANCH  45  46
ATOM     46  S   UNL A   1      47.171  37.110  29.441  1.00  0.00     0.124 S 
ATOM     47  O   UNL A   1      47.618  37.559  28.124  1.00  0.00    -0.237 OA
ATOM     48  O   UNL A   1      45.871  37.620  29.868  1.00  0.00    -0.237 OA
ATOM     49  O   UNL A   1      48.201  37.090  30.475  1.00  0.00    -0.744 OA
ENDBRANCH  45  46
ENDBRANCH  26  40
BRANCH  27  50
ATOM     50  C   UNL A   1      43.450  23.198  26.941  1.00  0.00    -0.014 A 
ATOM     51  C   UNL A   1      43.681  22.632  25.676  1.00  0.00     0.010 A 
ATOM     52  C   UNL A   1      42.856  22.411  27.946  1.00  0.00     0.010 A 
ATOM     53  C   UNL A   1      43.327  21.304  25.421  1.00  0.00     0.020 A 
ATOM     54  C   UNL A   1      42.527  21.075  27.704  1.00  0.00     0.020 A 
ATOM     55  C   UNL A   1      42.760  20.531  26.440  1.00  0.00     0.054 A 
BRANCH  55  56
ATOM     56  S   UNL A   1      42.385  18.789  26.107  1.00  0.00     0.124 S 
ATOM     57  O   UNL A   1      43.308  18.482  25.019  1.00  0.00    -0.237 OA
ATOM     58  O   UNL A   1      42.681  18.153  27.388  1.00  0.00    -0.237 OA
ATOM     59  O   UNL A   1      40.970  18.807  25.741  1.00  0.00    -0.744 OA
ENDBRANCH  55  56
ENDBRANCH  27  50
BRANCH  39  60
ATOM     60  C   UNL A   1      49.538  26.607  26.516  1.00  0.00    -0.014 A 
ATOM     61  C   UNL A   1      50.384  25.968  27.438  1.00  0.00     0.010 A 
ATOM     62  C   UNL A   1      49.977  26.784  25.190  1.00  0.00     0.010 A 
ATOM     63  C   UNL A   1      51.653  25.531  27.046  1.00  0.00     0.020 A 
ATOM     64  C   UNL A   1      51.231  26.322  24.787  1.00  0.00     0.020 A 
ATOM     65  C   UNL A   1      52.066  25.707  25.720  1.00  0.00     0.054 A 
BRANCH  65  66
ATOM     66  S   UNL A   1      53.689  25.073  25.220  1.00  0.00     0.124 S 
ATOM     67  O   UNL A   1      54.566  25.643  26.240  1.00  0.00    -0.237 OA
ATOM     68  O   UNL A   1      53.502  23.626  25.289  1.00  0.00    -0.237 OA
ATOM     69  O   UNL A   1      53.872  25.609  23.873  1.00  0.00    -0.744 OA
ENDBRANCH  65  66
ENDBRANCH  39  60
ENDBRANCH  13  14
ENDBRANCH   6   8
ENDBRANCH   3   4
ENDBRANCH   2   3
ENDBRANCH   1   2
BRANCH   1  70
ATOM     70  C   UNL A   1      32.912  27.312  26.400  1.00  0.00     0.002 C 
BRANCH  70  71
ATOM     71  C   UNL A   1      31.867  26.897  25.364  1.00  0.00     0.021 C 
BRANCH  71  72
ATOM     72  C   UNL A   1      30.974  25.743  25.815  1.00  0.00     0.116 C 
BRANCH  72  73
ATOM     73  N   UNL A   1      31.605  24.967  26.849  1.00  0.00    -0.356 N 
ATOM     74  C   UNL A   1      32.133  23.723  26.754  1.00  0.00     0.226 C 
ATOM     75  H   UNL A   1      31.659  25.392  27.736  1.00  0.00     0.163 HD
ATOM     76  O   UNL A   1      31.780  22.938  27.642  1.00  0.00    -0.274 OA
BRANCH  74  77
ATOM     77  C   UNL A   1      33.064  23.252  25.612  1.00  0.00     0.061 C 
ATOM     78  C   UNL A   1      32.559  23.442  24.163  1.00  0.00     0.078 C 
ATOM     79  C   UNL A   1      33.472  21.772  25.861  1.00  0.00     0.078 C 
ATOM     80  C   UNL A   1      31.876  22.267  23.459  1.00  0.00     0.261 C 
ATOM     81  C   UNL A   1      32.587  20.719  25.210  1.00  0.00     0.261 C 
ATOM     82  N   UNL A   1      32.423  20.959  23.786  1.00  0.00    -0.346 N 
ATOM     83  H   UNL A   1      33.336  20.875  23.340  1.00  0.00     0.346 HD
ATOM     84  H   UNL A   1      31.752  20.269  23.449  1.00  0.00     0.346 HD
BRANCH  77  85
ATOM     85  C   UNL A   1      34.415  24.085  25.789  1.00  0.00     0.029 C 
BRANCH  85  86
ATOM     86  C   UNL A   1      35.667  23.912  24.889  1.00  0.00     0.062 C 
ATOM     87  C   UNL A   1      35.562  22.867  23.760  1.00  0.00     0.238 C 
ATOM     88  C   UNL A   1      36.951  23.473  25.486  1.00  0.00     0.001 A 
ATOM     89  O   UNL A   1      36.403  21.730  24.068  1.00  0.00    -0.493 OA
ATOM     90  C   UNL A   1      37.292  22.225  24.984  1.00  0.00     0.122 A 
ATOM     91  C   UNL A   1      37.785  24.119  26.383  1.00  0.00     0.008 A 
ATOM     92  C   UNL A   1      38.433  21.559  25.384  1.00  0.00     0.047 A 
ATOM     93  C   UNL A   1      38.939  23.458  26.814  1.00  0.00     0.001 A 
ATOM     94  C   UNL A   1      39.261  22.184  26.318  1.00  0.00     0.004 A 
ENDBRANCH  85  86
ENDBRANCH  77  85
ENDBRANCH  74  77
ENDBRANCH  72  73
ENDBRANCH  71  72
ENDBRANCH  70  71
ENDBRANCH   1  70
TORSDOF 18
ENDMDL
