MODEL 1
REMARK VINA RESULT:     -11.8      0.000      0.000
REMARK SMILES Cc1nc(=O)[nH]c(C)c1CC(=O)N1CC[C@H](C(=O)NCCCCCCNC(=O)c2ccc(-c3c4nc(c(-c5ccc(S(=O)(=O)[O-])cc5)c5ccc([nH]5)c(-c5ccc(S(=O)(=O)[O-])cc5)c5nc(c(-c6ccc(S(=O)(=O)[O-])cc6)c6ccc3[nH]6)C=C5)C=C4)cc2)[C@@H]1C
REMARK SMILES IDX 22 1 21 2 20 3 19 4 17 5 18 6 16 8 13 9 14 10 89 11 15 12
REMARK SMILES IDX 90 13 11 14 12 15 10 16 9 17 1 18 2 19 3 20 4 21 7 22 5 23
REMARK SMILES IDX 6 24 8 25 23 27 24 28 25 29 26 30 27 31 28 33 29 34 30 35
REMARK SMILES IDX 88 36 31 37 87 38 32 39 33 40 34 41 81 42 35 43 86 44 80 45
REMARK SMILES IDX 82 46 36 47 85 48 79 49 78 50 37 52 67 53 48 54 66 55 49 56
REMARK SMILES IDX 52 57 65 58 83 59 50 60 51 61 64 63 84 64 53 65 38 66 39 67
REMARK SMILES IDX 47 68 40 69 46 70 41 71 42 72 43 73 44 74 45 75 68 76 69 77
REMARK SMILES IDX 77 78 70 79 76 80 71 81 72 82 73 83 74 84 75 85 54 86 55 87
REMARK SMILES IDX 63 88 56 89 62 90 57 91 58 92 59 93 60 94 61 95
REMARK H PARENT 19 7 6 26 26 32 82 51 52 62
REMARK Flexibility Score: inf
ROOT
ATOM      1  C   UNL A   1      38.552  22.679  26.079  1.00  0.00     0.002 C 
ENDROOT
BRANCH   1   2
ATOM      2  C   UNL A   1      37.687  22.145  24.934  1.00  0.00     0.021 C 
BRANCH   2   3
ATOM      3  C   UNL A   1      36.846  20.923  25.284  1.00  0.00     0.116 C 
BRANCH   3   4
ATOM      4  N   UNL A   1      35.799  21.208  26.250  1.00  0.00    -0.356 N 
ATOM      5  C   UNL A   1      34.452  21.333  26.158  1.00  0.00     0.225 C 
ATOM      6  O   UNL A   1      33.849  21.382  27.240  1.00  0.00    -0.275 OA
ATOM      7  H   UNL A   1      36.139  21.340  27.165  1.00  0.00     0.163 HD
BRANCH   5   8
ATOM      8  C   UNL A   1      33.636  21.529  24.871  1.00  0.00     0.102 C 
ATOM      9  N   UNL A   1      32.054  23.302  24.841  1.00  0.00    -0.339 N 
ATOM     10  C   UNL A   1      31.432  22.154  25.502  1.00  0.00     0.120 C 
ATOM     11  C   UNL A   1      33.364  22.919  24.272  1.00  0.00     0.094 C 
ATOM     12  C   UNL A   1      32.239  20.952  25.056  1.00  0.00     0.037 C 
ATOM     13  C   UNL A   1      34.569  23.836  24.459  1.00  0.00     0.032 C 
BRANCH   9  14
ATOM     14  C   UNL A   1      31.290  24.449  24.769  1.00  0.00     0.227 C 
ATOM     15  O   UNL A   1      31.072  25.106  25.796  1.00  0.00    -0.275 OA
BRANCH  14  16
ATOM     16  C   UNL A   1      30.547  24.832  23.492  1.00  0.00     0.139 C 
BRANCH  16  17
ATOM     17  C   UNL A   1      30.524  26.277  23.125  1.00  0.00     0.002 A 
ATOM     18  C   UNL A   1      28.114  26.588  24.129  1.00  0.00     0.067 C 
ATOM     19  C   UNL A   1      29.303  27.120  23.351  1.00  0.00     0.049 A 
ATOM     20  N   UNL A   1      29.146  28.321  22.892  1.00  0.00    -0.198 NA
ATOM     21  C   UNL A   1      30.162  28.902  22.192  1.00  0.00     0.345 A 
ATOM     22  C   UNL A   1      31.547  26.942  22.548  1.00  0.00     0.022 A 
ATOM     23  O   UNL A   1      30.044  29.985  21.622  1.00  0.00    -0.246 OA
ATOM     24  N   UNL A   1      31.347  28.225  22.109  1.00  0.00    -0.310 N 
ATOM     25  C   UNL A   1      32.906  26.373  22.239  1.00  0.00     0.065 C 
ATOM     26  H   UNL A   1      32.113  28.693  21.706  1.00  0.00     0.171 HD
ENDBRANCH  16  17
ENDBRANCH  14  16
ENDBRANCH   9  14
ENDBRANCH   5   8
ENDBRANCH   3   4
ENDBRANCH   2   3
ENDBRANCH   1   2
BRANCH   1  27
ATOM     27  C   UNL A   1      39.845  21.905  26.359  1.00  0.00     0.002 C 
BRANCH  27  28
ATOM     28  C   UNL A   1      40.605  22.306  27.626  1.00  0.00     0.021 C 
BRANCH  28  29
ATOM     29  C   UNL A   1      41.770  23.267  27.415  1.00  0.00     0.116 C 
BRANCH  29  30
ATOM     30  N   UNL A   1      41.637  24.056  26.204  1.00  0.00    -0.352 N 
ATOM     31  C   UNL A   1      41.338  25.390  26.065  1.00  0.00     0.251 C 
ATOM     32  H   UNL A   1      41.781  23.567  25.362  1.00  0.00     0.163 HD
ATOM     33  O   UNL A   1      41.127  25.859  24.951  1.00  0.00    -0.269 OA
BRANCH  31  34
ATOM     34  C   UNL A   1      41.243  26.250  27.265  1.00  0.00     0.039 A 
ATOM     35  C   UNL A   1      42.226  27.220  27.479  1.00  0.00     0.014 A 
ATOM     36  C   UNL A   1      40.188  26.107  28.171  1.00  0.00     0.014 A 
ATOM     37  C   UNL A   1      42.117  28.088  28.568  1.00  0.00     0.010 A 
ATOM     38  C   UNL A   1      40.042  27.019  29.213  1.00  0.00     0.010 A 
ATOM     39  C   UNL A   1      41.006  28.018  29.425  1.00  0.00    -0.014 A 
BRANCH  39  40
ATOM     40  C   UNL A   1      40.833  28.979  30.545  1.00  0.00     0.031 A 
ATOM     41  C   UNL A   1      41.682  28.853  31.784  1.00  0.00     0.074 A 
ATOM     42  C   UNL A   1      39.868  29.919  30.479  1.00  0.00     0.049 A 
ATOM     43  N   UNL A   1      41.624  29.542  32.894  1.00  0.00    -0.248 NA
ATOM     44  C   UNL A   1      42.716  27.803  31.785  1.00  0.00     0.031 C 
ATOM     45  C   UNL A   1      38.955  30.120  29.349  1.00  0.00     0.029 A 
ATOM     46  N   UNL A   1      39.482  30.876  31.386  1.00  0.00    -0.354 N 
ATOM     47  C   UNL A   1      42.589  28.994  33.731  1.00  0.00     0.074 A 
ATOM     48  C   UNL A   1      43.196  27.893  33.017  1.00  0.00     0.031 C 
ATOM     49  C   UNL A   1      38.131  31.143  29.625  1.00  0.00     0.029 A 
ATOM     50  C   UNL A   1      38.420  31.644  30.965  1.00  0.00     0.049 A 
ATOM     51  H   UNL A   1      39.925  31.002  32.256  1.00  0.00     0.167 HD
ATOM     52  C   UNL A   1      42.946  29.382  34.978  1.00  0.00     0.031 A 
ATOM     53  C   UNL A   1      37.741  32.625  31.593  1.00  0.00     0.031 A 
ATOM     54  C   UNL A   1      42.360  30.497  35.674  1.00  0.00     0.049 A 
ATOM     55  C   UNL A   1      38.159  33.030  32.983  1.00  0.00     0.074 A 
ATOM     56  C   UNL A   1      42.711  31.015  36.908  1.00  0.00     0.029 A 
ATOM     57  N   UNL A   1      41.305  31.262  35.203  1.00  0.00    -0.354 N 
ATOM     58  N   UNL A   1      39.133  32.553  33.721  1.00  0.00    -0.248 NA
ATOM     59  C   UNL A   1      37.395  34.112  33.621  1.00  0.00     0.031 C 
ATOM     60  C   UNL A   1      41.824  32.050  37.215  1.00  0.00     0.029 A 
ATOM     61  C   UNL A   1      40.970  32.225  36.139  1.00  0.00     0.049 A 
ATOM     62  H   UNL A   1      40.860  31.139  34.333  1.00  0.00     0.167 HD
ATOM     63  C   UNL A   1      39.119  33.303  34.893  1.00  0.00     0.074 A 
ATOM     64  C   UNL A   1      38.055  34.273  34.759  1.00  0.00     0.031 C 
ATOM     65  C   UNL A   1      39.919  33.198  35.983  1.00  0.00     0.031 A 
BRANCH  52  66
ATOM     66  C   UNL A   1      44.019  28.602  35.691  1.00  0.00    -0.014 A 
ATOM     67  C   UNL A   1      43.698  27.522  36.533  1.00  0.00     0.010 A 
ATOM     68  C   UNL A   1      45.372  28.885  35.426  1.00  0.00     0.010 A 
ATOM     69  C   UNL A   1      44.712  26.747  37.104  1.00  0.00     0.020 A 
ATOM     70  C   UNL A   1      46.387  28.097  35.974  1.00  0.00     0.020 A 
ATOM     71  C   UNL A   1      46.049  27.035  36.814  1.00  0.00     0.054 A 
BRANCH  71  72
ATOM     72  S   UNL A   1      47.337  25.960  37.504  1.00  0.00     0.124 S 
ATOM     73  O   UNL A   1      47.337  26.354  38.911  1.00  0.00    -0.237 OA
ATOM     74  O   UNL A   1      46.819  24.623  37.226  1.00  0.00    -0.237 OA
ATOM     75  O   UNL A   1      48.537  26.330  36.756  1.00  0.00    -0.744 OA
ENDBRANCH  71  72
ENDBRANCH  52  66
BRANCH  53  76
ATOM     76  C   UNL A   1      36.580  33.286  30.932  1.00  0.00    -0.014 A 
ATOM     77  C   UNL A   1      36.692  33.811  29.633  1.00  0.00     0.010 A 
ATOM     78  C   UNL A   1      35.362  33.434  31.623  1.00  0.00     0.010 A 
ATOM     79  C   UNL A   1      35.629  34.517  29.059  1.00  0.00     0.020 A 
ATOM     80  C   UNL A   1      34.285  34.105  31.039  1.00  0.00     0.020 A 
ATOM     81  C   UNL A   1      34.435  34.665  29.769  1.00  0.00     0.054 A 
BRANCH  81  82
ATOM     82  S   UNL A   1      33.073  35.593  29.010  1.00  0.00     0.124 S 
ATOM     83  O   UNL A   1      33.785  36.670  28.329  1.00  0.00    -0.237 OA
ATOM     84  O   UNL A   1      32.455  34.593  28.143  1.00  0.00    -0.237 OA
ATOM     85  O   UNL A   1      32.262  36.004  30.154  1.00  0.00    -0.744 OA
ENDBRANCH  81  82
ENDBRANCH  53  76
BRANCH  65  86
ATOM     86  C   UNL A   1      39.716  34.188  37.100  1.00  0.00    -0.014 A 
ATOM     87  C   UNL A   1      39.018  33.842  38.270  1.00  0.00     0.010 A 
ATOM     88  C   UNL A   1      40.300  35.465  37.001  1.00  0.00     0.010 A 
ATOM     89  C   UNL A   1      38.884  34.767  39.310  1.00  0.00     0.020 A 
ATOM     90  C   UNL A   1      40.197  36.379  38.051  1.00  0.00     0.020 A 
ATOM     91  C   UNL A   1      39.478  36.028  39.195  1.00  0.00     0.054 A 
BRANCH  91  92
ATOM     92  S   UNL A   1      39.338  37.187  40.583  1.00  0.00     0.124 S 
ATOM     93  O   UNL A   1      38.728  38.351  39.947  1.00  0.00    -0.237 OA
ATOM     94  O   UNL A   1      38.484  36.461  41.519  1.00  0.00    -0.237 OA
ATOM     95  O   UNL A   1      40.719  37.371  41.022  1.00  0.00    -0.744 OA
ENDBRANCH  91  92
ENDBRANCH  65  86
ENDBRANCH  39  40
ENDBRANCH  31  34
ENDBRANCH  29  30
ENDBRANCH  28  29
ENDBRANCH  27  28
ENDBRANCH   1  27
TORSDOF 19
ENDMDL
MODEL 2
REMARK VINA RESULT:     -11.7      6.164     12.061
REMARK SMILES Cc1nc(=O)[nH]c(C)c1CC(=O)N1CC[C@H](C(=O)NCCCCCCNC(=O)c2ccc(-c3c4nc(c(-c5ccc(S(=O)(=O)[O-])cc5)c5ccc([nH]5)c(-c5ccc(S(=O)(=O)[O-])cc5)c5nc(c(-c6ccc(S(=O)(=O)[O-])cc6)c6ccc3[nH]6)C=C5)C=C4)cc2)[C@@H]1C
REMARK SMILES IDX 22 1 21 2 20 3 19 4 17 5 18 6 16 8 13 9 14 10 89 11 15 12
REMARK SMILES IDX 90 13 11 14 12 15 10 16 9 17 1 18 2 19 3 20 4 21 7 22 5 23
REMARK SMILES IDX 6 24 8 25 23 27 24 28 25 29 26 30 27 31 28 33 29 34 30 35
REMARK SMILES IDX 88 36 31 37 87 38 32 39 33 40 34 41 81 42 35 43 86 44 80 45
REMARK SMILES IDX 82 46 36 47 85 48 79 49 78 50 37 52 67 53 48 54 66 55 49 56
REMARK SMILES IDX 52 57 65 58 83 59 50 60 51 61 64 63 84 64 53 65 38 66 39 67
REMARK SMILES IDX 47 68 40 69 46 70 41 71 42 72 43 73 44 74 45 75 68 76 69 77
REMARK SMILES IDX 77 78 70 79 76 80 71 81 72 82 73 83 74 84 75 85 54 86 55 87
REMARK SMILES IDX 63 88 56 89 62 90 57 91 58 92 59 93 60 94 61 95
REMARK H PARENT 19 7 6 26 26 32 82 51 52 62
REMARK Flexibility Score: inf
ROOT
ATOM      1  C   UNL A   1      35.241  31.669  27.703  1.00  0.00     0.002 C 
ENDROOT
BRANCH   1   2
ATOM      2  C   UNL A   1      34.192  30.616  28.075  1.00  0.00     0.021 C 
BRANCH   2   3
ATOM      3  C   UNL A   1      33.073  30.440  27.055  1.00  0.00     0.116 C 
BRANCH   3   4
ATOM      4  N   UNL A   1      32.130  29.396  27.416  1.00  0.00    -0.356 N 
ATOM      5  C   UNL A   1      31.895  28.146  26.946  1.00  0.00     0.225 C 
ATOM      6  O   UNL A   1      31.135  27.453  27.637  1.00  0.00    -0.275 OA
ATOM      7  H   UNL A   1      31.535  29.648  28.159  1.00  0.00     0.163 HD
BRANCH   5   8
ATOM      8  C   UNL A   1      32.382  27.563  25.609  1.00  0.00     0.102 C 
ATOM      9  N   UNL A   1      32.311  25.201  25.358  1.00  0.00    -0.339 N 
ATOM     10  C   UNL A   1      33.536  25.541  26.083  1.00  0.00     0.120 C 
ATOM     11  C   UNL A   1      31.636  26.430  24.886  1.00  0.00     0.094 C 
ATOM     12  C   UNL A   1      33.788  27.003  25.776  1.00  0.00     0.037 C 
ATOM     13  C   UNL A   1      30.127  26.579  25.052  1.00  0.00     0.032 C 
BRANCH   9  14
ATOM     14  C   UNL A   1      32.077  23.856  25.156  1.00  0.00     0.227 C 
ATOM     15  O   UNL A   1      31.082  23.324  25.663  1.00  0.00    -0.275 OA
BRANCH  14  16
ATOM     16  C   UNL A   1      33.113  22.962  24.479  1.00  0.00     0.139 C 
BRANCH  16  17
ATOM     17  C   UNL A   1      33.095  21.513  24.832  1.00  0.00     0.002 A 
ATOM     18  C   UNL A   1      32.042  20.869  22.510  1.00  0.00     0.067 C 
ATOM     19  C   UNL A   1      32.489  20.494  23.911  1.00  0.00     0.049 A 
ATOM     20  N   UNL A   1      32.270  19.257  24.229  1.00  0.00    -0.198 NA
ATOM     21  C   UNL A   1      32.650  18.810  25.460  1.00  0.00     0.345 A 
ATOM     22  C   UNL A   1      33.575  20.993  25.981  1.00  0.00     0.022 A 
ATOM     23  O   UNL A   1      32.367  17.689  25.878  1.00  0.00    -0.246 OA
ATOM     24  N   UNL A   1      33.352  19.669  26.260  1.00  0.00    -0.310 N 
ATOM     25  C   UNL A   1      34.273  21.759  27.072  1.00  0.00     0.065 C 
ATOM     26  H   UNL A   1      33.726  19.311  27.097  1.00  0.00     0.171 HD
ENDBRANCH  16  17
ENDBRANCH  14  16
ENDBRANCH   9  14
ENDBRANCH   5   8
ENDBRANCH   3   4
ENDBRANCH   2   3
ENDBRANCH   1   2
BRANCH   1  27
ATOM     27  C   UNL A   1      35.197  32.971  28.510  1.00  0.00     0.002 C 
BRANCH  27  28
ATOM     28  C   UNL A   1      36.553  33.564  28.900  1.00  0.00     0.021 C 
BRANCH  28  29
ATOM     29  C   UNL A   1      36.909  33.469  30.379  1.00  0.00     0.116 C 
BRANCH  29  30
ATOM     30  N   UNL A   1      36.301  32.324  31.033  1.00  0.00    -0.352 N 
ATOM     31  C   UNL A   1      36.757  31.031  31.121  1.00  0.00     0.251 C 
ATOM     32  H   UNL A   1      35.439  32.499  31.476  1.00  0.00     0.163 HD
ATOM     33  O   UNL A   1      36.037  30.158  31.596  1.00  0.00    -0.269 OA
BRANCH  31  34
ATOM     34  C   UNL A   1      38.105  30.691  30.617  1.00  0.00     0.039 A 
ATOM     35  C   UNL A   1      39.165  30.612  31.523  1.00  0.00     0.014 A 
ATOM     36  C   UNL A   1      38.323  30.447  29.258  1.00  0.00     0.014 A 
ATOM     37  C   UNL A   1      40.431  30.225  31.077  1.00  0.00     0.010 A 
ATOM     38  C   UNL A   1      39.567  29.990  28.828  1.00  0.00     0.010 A 
ATOM     39  C   UNL A   1      40.635  29.877  29.732  1.00  0.00    -0.014 A 
BRANCH  39  40
ATOM     40  C   UNL A   1      41.955  29.392  29.251  1.00  0.00     0.031 A 
ATOM     41  C   UNL A   1      43.107  30.354  29.113  1.00  0.00     0.074 A 
ATOM     42  C   UNL A   1      42.099  28.105  28.874  1.00  0.00     0.049 A 
ATOM     43  N   UNL A   1      44.305  30.139  28.637  1.00  0.00    -0.248 NA
ATOM     44  C   UNL A   1      42.875  31.744  29.545  1.00  0.00     0.031 C 
ATOM     45  C   UNL A   1      41.049  27.083  28.926  1.00  0.00     0.029 A 
ATOM     46  N   UNL A   1      43.183  27.436  28.360  1.00  0.00    -0.354 N 
ATOM     47  C   UNL A   1      44.959  31.365  28.686  1.00  0.00     0.074 A 
ATOM     48  C   UNL A   1      44.015  32.329  29.205  1.00  0.00     0.031 C 
ATOM     49  C   UNL A   1      41.545  25.918  28.478  1.00  0.00     0.029 A 
ATOM     50  C   UNL A   1      42.931  26.115  28.064  1.00  0.00     0.049 A 
ATOM     51  H   UNL A   1      44.059  27.861  28.217  1.00  0.00     0.167 HD
ATOM     52  C   UNL A   1      46.235  31.657  28.342  1.00  0.00     0.031 A 
ATOM     53  C   UNL A   1      43.718  25.174  27.505  1.00  0.00     0.031 A 
ATOM     54  C   UNL A   1      47.181  30.688  27.853  1.00  0.00     0.049 A 
ATOM     55  C   UNL A   1      45.132  25.533  27.126  1.00  0.00     0.074 A 
ATOM     56  C   UNL A   1      48.519  30.875  27.553  1.00  0.00     0.029 A 
ATOM     57  N   UNL A   1      46.892  29.358  27.591  1.00  0.00    -0.354 N 
ATOM     58  N   UNL A   1      45.755  26.679  27.263  1.00  0.00    -0.248 NA
ATOM     59  C   UNL A   1      45.953  24.470  26.529  1.00  0.00     0.031 C 
ATOM     60  C   UNL A   1      49.022  29.675  27.045  1.00  0.00     0.029 A 
ATOM     61  C   UNL A   1      48.019  28.722  27.099  1.00  0.00     0.049 A 
ATOM     62  H   UNL A   1      46.017  28.931  27.733  1.00  0.00     0.167 HD
ATOM     63  C   UNL A   1      47.049  26.462  26.802  1.00  0.00     0.074 A 
ATOM     64  C   UNL A   1      47.125  25.074  26.401  1.00  0.00     0.031 C 
ATOM     65  C   UNL A   1      48.084  27.334  26.721  1.00  0.00     0.031 A 
BRANCH  52  66
ATOM     66  C   UNL A   1      46.702  33.083  28.469  1.00  0.00    -0.014 A 
ATOM     67  C   UNL A   1      46.290  34.070  27.556  1.00  0.00     0.010 A 
ATOM     68  C   UNL A   1      47.477  33.460  29.583  1.00  0.00     0.010 A 
ATOM     69  C   UNL A   1      46.652  35.407  27.751  1.00  0.00     0.020 A 
ATOM     70  C   UNL A   1      47.817  34.798  29.795  1.00  0.00     0.020 A 
ATOM     71  C   UNL A   1      47.406  35.763  28.874  1.00  0.00     0.054 A 
BRANCH  71  72
ATOM     72  S   UNL A   1      47.789  37.516  29.141  1.00  0.00     0.124 S 
ATOM     73  O   UNL A   1      47.059  37.799  30.375  1.00  0.00    -0.237 OA
ATOM     74  O   UNL A   1      49.244  37.508  29.260  1.00  0.00    -0.237 OA
ATOM     75  O   UNL A   1      47.266  38.173  27.946  1.00  0.00    -0.744 OA
ENDBRANCH  71  72
ENDBRANCH  52  66
BRANCH  53  76
ATOM     76  C   UNL A   1      43.191  23.804  27.242  1.00  0.00    -0.014 A 
ATOM     77  C   UNL A   1      43.367  22.772  28.180  1.00  0.00     0.010 A 
ATOM     78  C   UNL A   1      42.548  23.514  26.024  1.00  0.00     0.010 A 
ATOM     79  C   UNL A   1      42.959  21.467  27.884  1.00  0.00     0.020 A 
ATOM     80  C   UNL A   1      42.104  22.221  25.739  1.00  0.00     0.020 A 
ATOM     81  C   UNL A   1      42.336  21.199  26.662  1.00  0.00     0.054 A 
BRANCH  81  82
ATOM     82  S   UNL A   1      41.823  19.498  26.294  1.00  0.00     0.124 S 
ATOM     83  O   UNL A   1      40.391  19.657  26.067  1.00  0.00    -0.237 OA
ATOM     84  O   UNL A   1      42.622  19.177  25.113  1.00  0.00    -0.237 OA
ATOM     85  O   UNL A   1      42.187  18.763  27.504  1.00  0.00    -0.744 OA
ENDBRANCH  81  82
ENDBRANCH  53  76
BRANCH  65  86
ATOM     86  C   UNL A   1      49.408  26.808  26.230  1.00  0.00    -0.014 A 
ATOM     87  C   UNL A   1      49.821  26.989  24.899  1.00  0.00     0.010 A 
ATOM     88  C   UNL A   1      50.282  26.187  27.142  1.00  0.00     0.010 A 
ATOM     89  C   UNL A   1      51.074  26.530  24.482  1.00  0.00     0.020 A 
ATOM     90  C   UNL A   1      51.547  25.758  26.737  1.00  0.00     0.020 A 
ATOM     91  C   UNL A   1      51.931  25.922  25.405  1.00  0.00     0.054 A 
BRANCH  91  92
ATOM     92  S   UNL A   1      53.573  25.389  24.850  1.00  0.00     0.124 S 
ATOM     93  O   UNL A   1      54.453  26.113  25.762  1.00  0.00    -0.237 OA
ATOM     94  O   UNL A   1      53.521  23.941  25.042  1.00  0.00    -0.237 OA
ATOM     95  O   UNL A   1      53.626  25.824  23.456  1.00  0.00    -0.744 OA
ENDBRANCH  91  92
ENDBRANCH  65  86
ENDBRANCH  39  40
ENDBRANCH  31  34
ENDBRANCH  29  30
ENDBRANCH  28  29
ENDBRANCH  27  28
ENDBRANCH   1  27
TORSDOF 19
ENDMDL
MODEL 3
REMARK VINA RESULT:     -11.5      6.148     12.001
REMARK SMILES Cc1nc(=O)[nH]c(C)c1CC(=O)N1CC[C@H](C(=O)NCCCCCCNC(=O)c2ccc(-c3c4nc(c(-c5ccc(S(=O)(=O)[O-])cc5)c5ccc([nH]5)c(-c5ccc(S(=O)(=O)[O-])cc5)c5nc(c(-c6ccc(S(=O)(=O)[O-])cc6)c6ccc3[nH]6)C=C5)C=C4)cc2)[C@@H]1C
REMARK SMILES IDX 22 1 21 2 20 3 19 4 17 5 18 6 16 8 13 9 14 10 89 11 15 12
REMARK SMILES IDX 90 13 11 14 12 15 10 16 9 17 1 18 2 19 3 20 4 21 7 22 5 23
REMARK SMILES IDX 6 24 8 25 23 27 24 28 25 29 26 30 27 31 28 33 29 34 30 35
REMARK SMILES IDX 88 36 31 37 87 38 32 39 33 40 34 41 81 42 35 43 86 44 80 45
REMARK SMILES IDX 82 46 36 47 85 48 79 49 78 50 37 52 67 53 48 54 66 55 49 56
REMARK SMILES IDX 52 57 65 58 83 59 50 60 51 61 64 63 84 64 53 65 38 66 39 67
REMARK SMILES IDX 47 68 40 69 46 70 41 71 42 72 43 73 44 74 45 75 68 76 69 77
REMARK SMILES IDX 77 78 70 79 76 80 71 81 72 82 73 83 74 84 75 85 54 86 55 87
REMARK SMILES IDX 63 88 56 89 62 90 57 91 58 92 59 93 60 94 61 95
REMARK H PARENT 19 7 6 26 26 32 82 51 52 62
REMARK Flexibility Score: inf
ROOT
ATOM      1  C   UNL A   1      33.266  30.068  26.244  1.00  0.00     0.002 C 
ENDROOT
BRANCH   1   2
ATOM      2  C   UNL A   1      31.744  30.066  26.076  1.00  0.00     0.021 C 
BRANCH   2   3
ATOM      3  C   UNL A   1      31.259  29.829  24.651  1.00  0.00     0.116 C 
BRANCH   3   4
ATOM      4  N   UNL A   1      31.952  28.740  23.985  1.00  0.00    -0.356 N 
ATOM      5  C   UNL A   1      31.724  27.407  23.890  1.00  0.00     0.225 C 
ATOM      6  O   UNL A   1      32.423  26.807  23.060  1.00  0.00    -0.275 OA
ATOM      7  H   UNL A   1      32.759  29.031  23.501  1.00  0.00     0.163 HD
BRANCH   5   8
ATOM      8  C   UNL A   1      30.784  26.573  24.774  1.00  0.00     0.102 C 
ATOM      9  N   UNL A   1      31.067  24.213  24.746  1.00  0.00    -0.339 N 
ATOM     10  C   UNL A   1      30.255  24.583  23.587  1.00  0.00     0.120 C 
ATOM     11  C   UNL A   1      31.283  25.389  25.618  1.00  0.00     0.094 C 
ATOM     12  C   UNL A   1      29.691  25.951  23.916  1.00  0.00     0.037 C 
ATOM     13  C   UNL A   1      32.673  25.670  26.182  1.00  0.00     0.032 C 
BRANCH   9  14
ATOM     14  C   UNL A   1      31.373  22.873  24.872  1.00  0.00     0.227 C 
ATOM     15  O   UNL A   1      31.168  22.296  25.947  1.00  0.00    -0.275 OA
BRANCH  14  16
ATOM     16  C   UNL A   1      32.134  22.126  23.779  1.00  0.00     0.139 C 
BRANCH  16  17
ATOM     17  C   UNL A   1      33.575  21.837  24.031  1.00  0.00     0.002 A 
ATOM     18  C   UNL A   1      33.040  19.384  24.814  1.00  0.00     0.067 C 
ATOM     19  C   UNL A   1      34.017  20.529  24.622  1.00  0.00     0.049 A 
ATOM     20  N   UNL A   1      35.218  20.282  25.038  1.00  0.00    -0.198 NA
ATOM     21  C   UNL A   1      36.180  21.238  24.898  1.00  0.00     0.345 A 
ATOM     22  C   UNL A   1      34.587  22.695  23.789  1.00  0.00     0.022 A 
ATOM     23  O   UNL A   1      37.307  21.125  25.377  1.00  0.00    -0.246 OA
ATOM     24  N   UNL A   1      35.851  22.377  24.215  1.00  0.00    -0.310 N 
ATOM     25  C   UNL A   1      34.458  24.058  23.163  1.00  0.00     0.065 C 
ATOM     26  H   UNL A   1      36.574  23.013  24.013  1.00  0.00     0.171 HD
ENDBRANCH  16  17
ENDBRANCH  14  16
ENDBRANCH   9  14
ENDBRANCH   5   8
ENDBRANCH   3   4
ENDBRANCH   2   3
ENDBRANCH   1   2
BRANCH   1  27
ATOM     27  C   UNL A   1      33.831  29.042  27.232  1.00  0.00     0.002 C 
BRANCH  27  28
ATOM     28  C   UNL A   1      35.287  29.252  27.658  1.00  0.00     0.021 C 
BRANCH  28  29
ATOM     29  C   UNL A   1      35.630  30.654  28.148  1.00  0.00     0.116 C 
BRANCH  29  30
ATOM     30  N   UNL A   1      35.528  30.787  29.591  1.00  0.00    -0.352 N 
ATOM     31  C   UNL A   1      36.481  30.560  30.554  1.00  0.00     0.251 C 
ATOM     32  H   UNL A   1      34.651  31.082  29.927  1.00  0.00     0.163 HD
ATOM     33  O   UNL A   1      36.173  30.588  31.741  1.00  0.00    -0.269 OA
BRANCH  31  34
ATOM     34  C   UNL A   1      37.871  30.253  30.153  1.00  0.00     0.039 A 
ATOM     35  C   UNL A   1      38.751  29.740  31.109  1.00  0.00     0.014 A 
ATOM     36  C   UNL A   1      38.305  30.463  28.841  1.00  0.00     0.014 A 
ATOM     37  C   UNL A   1      40.048  29.378  30.735  1.00  0.00     0.010 A 
ATOM     38  C   UNL A   1      39.573  30.035  28.454  1.00  0.00     0.010 A 
ATOM     39  C   UNL A   1      40.459  29.490  29.397  1.00  0.00    -0.014 A 
BRANCH  39  40
ATOM     40  C   UNL A   1      41.808  29.043  28.963  1.00  0.00     0.031 A 
ATOM     41  C   UNL A   1      42.937  30.037  28.868  1.00  0.00     0.074 A 
ATOM     42  C   UNL A   1      42.001  27.761  28.591  1.00  0.00     0.049 A 
ATOM     43  N   UNL A   1      44.157  29.855  28.434  1.00  0.00    -0.248 NA
ATOM     44  C   UNL A   1      42.651  31.419  29.292  1.00  0.00     0.031 C 
ATOM     45  C   UNL A   1      40.979  26.710  28.603  1.00  0.00     0.029 A 
ATOM     46  N   UNL A   1      43.121  27.123  28.115  1.00  0.00    -0.354 N 
ATOM     47  C   UNL A   1      44.774  31.099  28.508  1.00  0.00     0.074 A 
ATOM     48  C   UNL A   1      43.786  32.036  28.993  1.00  0.00     0.031 C 
ATOM     49  C   UNL A   1      41.523  25.560  28.173  1.00  0.00     0.029 A 
ATOM     50  C   UNL A   1      42.916  25.796  27.809  1.00  0.00     0.049 A 
ATOM     51  H   UNL A   1      43.989  27.573  28.004  1.00  0.00     0.167 HD
ATOM     52  C   UNL A   1      46.053  31.427  28.209  1.00  0.00     0.031 A 
ATOM     53  C   UNL A   1      43.749  24.879  27.277  1.00  0.00     0.031 A 
ATOM     54  C   UNL A   1      47.042  30.486  27.755  1.00  0.00     0.049 A 
ATOM     55  C   UNL A   1      45.165  25.277  26.949  1.00  0.00     0.074 A 
ATOM     56  C   UNL A   1      48.384  30.710  27.503  1.00  0.00     0.029 A 
ATOM     57  N   UNL A   1      46.800  29.149  27.481  1.00  0.00    -0.354 N 
ATOM     58  N   UNL A   1      45.750  26.441  27.109  1.00  0.00    -0.248 NA
ATOM     59  C   UNL A   1      46.036  24.239  26.382  1.00  0.00     0.031 C 
ATOM     60  C   UNL A   1      48.939  29.526  27.011  1.00  0.00     0.029 A 
ATOM     61  C   UNL A   1      47.961  28.546  27.029  1.00  0.00     0.049 A 
ATOM     62  H   UNL A   1      45.933  28.697  27.591  1.00  0.00     0.167 HD
ATOM     63  C   UNL A   1      47.066  26.260  26.696  1.00  0.00     0.074 A 
ATOM     64  C   UNL A   1      47.195  24.875  26.296  1.00  0.00     0.031 C 
ATOM     65  C   UNL A   1      48.079  27.161  26.652  1.00  0.00     0.031 A 
BRANCH  52  66
ATOM     66  C   UNL A   1      46.475  32.866  28.355  1.00  0.00    -0.014 A 
ATOM     67  C   UNL A   1      47.119  33.323  29.518  1.00  0.00     0.010 A 
ATOM     68  C   UNL A   1      46.322  33.745  27.266  1.00  0.00     0.010 A 
ATOM     69  C   UNL A   1      47.594  34.636  29.592  1.00  0.00     0.020 A 
ATOM     70  C   UNL A   1      46.819  35.049  27.327  1.00  0.00     0.020 A 
ATOM     71  C   UNL A   1      47.448  35.487  28.493  1.00  0.00     0.054 A 
BRANCH  71  72
ATOM     72  S   UNL A   1      48.148  37.158  28.590  1.00  0.00     0.124 S 
ATOM     73  O   UNL A   1      48.658  37.192  29.959  1.00  0.00    -0.237 OA
ATOM     74  O   UNL A   1      49.164  37.139  27.541  1.00  0.00    -0.237 OA
ATOM     75  O   UNL A   1      47.005  38.030  28.331  1.00  0.00    -0.744 OA
ENDBRANCH  71  72
ENDBRANCH  52  66
BRANCH  53  76
ATOM     76  C   UNL A   1      43.270  23.495  26.994  1.00  0.00    -0.014 A 
ATOM     77  C   UNL A   1      43.104  22.563  28.033  1.00  0.00     0.010 A 
ATOM     78  C   UNL A   1      43.021  23.089  25.669  1.00  0.00     0.010 A 
ATOM     79  C   UNL A   1      42.752  21.240  27.750  1.00  0.00     0.020 A 
ATOM     80  C   UNL A   1      42.632  21.778  25.385  1.00  0.00     0.020 A 
ATOM     81  C   UNL A   1      42.524  20.854  26.426  1.00  0.00     0.054 A 
BRANCH  81  82
ATOM     82  S   UNL A   1      42.077  19.130  26.079  1.00  0.00     0.124 S 
ATOM     83  O   UNL A   1      42.463  18.464  27.318  1.00  0.00    -0.237 OA
ATOM     84  O   UNL A   1      40.641  19.222  25.828  1.00  0.00    -0.237 OA
ATOM     85  O   UNL A   1      42.889  18.797  24.910  1.00  0.00    -0.744 OA
ENDBRANCH  81  82
ENDBRANCH  53  76
BRANCH  65  86
ATOM     86  C   UNL A   1      49.433  26.673  26.208  1.00  0.00    -0.014 A 
ATOM     87  C   UNL A   1      49.877  26.844  24.886  1.00  0.00     0.010 A 
ATOM     88  C   UNL A   1      50.301  26.099  27.156  1.00  0.00     0.010 A 
ATOM     89  C   UNL A   1      51.157  26.422  24.513  1.00  0.00     0.020 A 
ATOM     90  C   UNL A   1      51.592  25.708  26.794  1.00  0.00     0.020 A 
ATOM     91  C   UNL A   1      52.008  25.861  25.471  1.00  0.00     0.054 A 
BRANCH  91  92
ATOM     92  S   UNL A   1      53.682  25.376  24.972  1.00  0.00     0.124 S 
ATOM     93  O   UNL A   1      53.858  26.120  23.729  1.00  0.00    -0.237 OA
ATOM     94  O   UNL A   1      54.495  25.830  26.098  1.00  0.00    -0.237 OA
ATOM     95  O   UNL A   1      53.593  23.925  24.822  1.00  0.00    -0.744 OA
ENDBRANCH  91  92
ENDBRANCH  65  86
ENDBRANCH  39  40
ENDBRANCH  31  34
ENDBRANCH  29  30
ENDBRANCH  28  29
ENDBRANCH  27  28
ENDBRANCH   1  27
TORSDOF 19
ENDMDL
