MODEL 1
REMARK VINA RESULT:     -12.3      0.000      0.000
REMARK SMILES Cc1ccccc1C(=O)Nc1cc(C(=O)NCCCCCCNC(=O)c2ccc(-c3c4nc(c(-c5ccc(S(=O)(=O)[O-])cc5)c5ccc([nH]5)c(-c5ccc(S(=O)(=O)[O-])cc5)c5nc(c(-c6ccc(S(=O)(=O)[O-])cc6)c6ccc3[nH]6)C=C5)C=C4)cc2)ccc1N1CC[NH+](CC(=O)Nc2ccc(F)cc2)CC1
REMARK SMILES IDX 19 1 18 2 17 3 16 4 14 5 15 6 13 8 11 9 12 10 88 11 87 12
REMARK SMILES IDX 86 13 10 14 8 15 9 16 7 18 1 19 2 20 3 21 4 22 6 23 5 24
REMARK SMILES IDX 89 25 90 26 105 27 91 28 104 29 92 30 93 32 94 33 95 34
REMARK SMILES IDX 96 35 97 37 98 38 103 39 99 40 102 41 100 42 101 43 20 44
REMARK SMILES IDX 21 45 22 46 23 47 24 48 25 50 26 51 27 52 85 53 28 54 84 55
REMARK SMILES IDX 29 56 30 57 31 58 78 59 32 60 83 61 77 62 79 63 33 64 82 65
REMARK SMILES IDX 76 66 75 67 34 69 64 70 45 71 63 72 46 73 49 74 62 75 80 76
REMARK SMILES IDX 47 77 48 78 61 80 81 81 50 82 35 83 36 84 44 85 37 86 43 87
REMARK SMILES IDX 38 88 39 89 40 90 41 91 42 92 65 93 66 94 74 95 67 96 73 97
REMARK SMILES IDX 68 98 69 99 70 100 71 101 72 102 51 103 52 104 60 105 53 106
REMARK SMILES IDX 59 107 54 108 55 109 56 110 57 111 58 112
REMARK H PARENT 16 7 10 17 92 31 96 36 23 49 79 68 49 79
REMARK Flexibility Score: inf
ROOT
ATOM      1  C   UNL A   1      35.649  29.770  27.986  1.00  0.00     0.002 C 
ENDROOT
BRANCH   1   2
ATOM      2  C   UNL A   1      35.108  31.113  27.480  1.00  0.00     0.021 C 
BRANCH   2   3
ATOM      3  C   UNL A   1      33.913  31.643  28.278  1.00  0.00     0.116 C 
BRANCH   3   4
ATOM      4  N   UNL A   1      32.807  32.027  27.414  1.00  0.00    -0.352 N 
ATOM      5  C   UNL A   1      31.957  31.323  26.596  1.00  0.00     0.251 C 
ATOM      6  O   UNL A   1      31.047  31.955  26.054  1.00  0.00    -0.269 OA
ATOM      7  H   UNL A   1      32.632  32.996  27.415  1.00  0.00     0.163 HD
BRANCH   5   8
ATOM      8  C   UNL A   1      32.028  29.847  26.371  1.00  0.00     0.042 A 
ATOM      9  C   UNL A   1      32.220  27.871  24.983  1.00  0.00     0.065 A 
ATOM     10  C   UNL A   1      31.972  29.239  25.128  1.00  0.00     0.042 A 
ATOM     11  C   UNL A   1      32.374  26.995  26.097  1.00  0.00     0.061 A 
ATOM     12  C   UNL A   1      32.318  27.615  27.354  1.00  0.00     0.029 A 
ATOM     13  C   UNL A   1      32.184  29.011  27.488  1.00  0.00     0.016 A 
BRANCH   9  14
ATOM     14  N   UNL A   1      32.299  27.371  23.676  1.00  0.00    -0.320 N 
ATOM     15  C   UNL A   1      31.383  27.491  22.645  1.00  0.00     0.255 C 
ATOM     16  O   UNL A   1      31.783  27.261  21.498  1.00  0.00    -0.269 OA
ATOM     17  H   UNL A   1      33.116  26.865  23.463  1.00  0.00     0.170 HD
BRANCH  15  18
ATOM     18  C   UNL A   1      29.951  27.892  22.799  1.00  0.00     0.043 A 
ATOM     19  C   UNL A   1      29.077  25.960  24.295  1.00  0.00     0.045 C 
ATOM     20  C   UNL A   1      28.923  27.226  23.501  1.00  0.00    -0.038 A 
ATOM     21  C   UNL A   1      27.625  27.787  23.500  1.00  0.00     0.004 A 
ATOM     22  C   UNL A   1      27.367  29.025  22.916  1.00  0.00     0.000 A 
ATOM     23  C   UNL A   1      29.675  29.164  22.254  1.00  0.00     0.014 A 
ATOM     24  C   UNL A   1      28.401  29.730  22.319  1.00  0.00     0.001 A 
ENDBRANCH  15  18
ENDBRANCH   9  14
BRANCH  11  25
ATOM     25  N   UNL A   1      32.613  25.626  25.976  1.00  0.00    -0.359 N 
ATOM     26  C   UNL A   1      31.829  24.589  26.704  1.00  0.00     0.178 C 
ATOM     27  C   UNL A   1      33.947  25.134  25.634  1.00  0.00     0.178 C 
ATOM     28  C   UNL A   1      32.030  23.130  26.128  1.00  0.00     0.284 C 
ATOM     29  C   UNL A   1      33.772  23.938  24.698  1.00  0.00     0.284 C 
ATOM     30  N   UNL A   1      33.295  22.776  25.441  1.00  0.00    -0.324 N 
ATOM     31  H   UNL A   1      33.050  22.022  24.801  1.00  0.00     0.348 HD
BRANCH  30  32
ATOM     32  C   UNL A   1      34.342  22.076  26.215  1.00  0.00     0.364 C 
BRANCH  32  33
ATOM     33  C   UNL A   1      35.242  21.091  25.472  1.00  0.00     0.279 C 
ATOM     34  O   UNL A   1      34.746  20.077  24.956  1.00  0.00    -0.268 OA
ATOM     35  N   UNL A   1      36.583  21.265  25.257  1.00  0.00    -0.321 N 
ATOM     36  H   UNL A   1      36.903  20.696  24.521  1.00  0.00     0.170 HD
BRANCH  35  37
ATOM     37  C   UNL A   1      37.631  22.037  25.802  1.00  0.00     0.041 A 
ATOM     38  C   UNL A   1      37.366  23.409  25.969  1.00  0.00     0.029 A 
ATOM     39  C   UNL A   1      38.922  21.596  26.074  1.00  0.00     0.029 A 
ATOM     40  C   UNL A   1      38.373  24.309  26.339  1.00  0.00     0.041 A 
ATOM     41  C   UNL A   1      39.950  22.498  26.391  1.00  0.00     0.041 A 
ATOM     42  C   UNL A   1      39.667  23.848  26.520  1.00  0.00     0.123 A 
ATOM     43  F   UNL A   1      40.643  24.711  26.827  1.00  0.00    -0.207 F 
ENDBRANCH  35  37
ENDBRANCH  32  33
ENDBRANCH  30  32
ENDBRANCH  11  25
ENDBRANCH   5   8
ENDBRANCH   3   4
ENDBRANCH   2   3
ENDBRANCH   1   2
BRANCH   1  44
ATOM     44  C   UNL A   1      36.868  29.835  28.927  1.00  0.00     0.002 C 
BRANCH  44  45
ATOM     45  C   UNL A   1      36.593  30.310  30.356  1.00  0.00     0.021 C 
BRANCH  45  46
ATOM     46  C   UNL A   1      37.815  30.867  31.066  1.00  0.00     0.116 C 
BRANCH  46  47
ATOM     47  N   UNL A   1      38.015  30.368  32.419  1.00  0.00    -0.352 N 
ATOM     48  C   UNL A   1      38.030  28.990  32.641  1.00  0.00     0.251 C 
ATOM     49  H   UNL A   1      38.138  30.994  33.169  1.00  0.00     0.163 HD
ATOM     50  O   UNL A   1      37.162  28.360  33.209  1.00  0.00    -0.269 OA
BRANCH  48  51
ATOM     51  C   UNL A   1      39.174  28.314  31.990  1.00  0.00     0.039 A 
ATOM     52  C   UNL A   1      40.479  28.576  32.407  1.00  0.00     0.014 A 
ATOM     53  C   UNL A   1      38.912  27.658  30.787  1.00  0.00     0.014 A 
ATOM     54  C   UNL A   1      41.535  28.306  31.535  1.00  0.00     0.010 A 
ATOM     55  C   UNL A   1      39.943  27.493  29.889  1.00  0.00     0.010 A 
ATOM     56  C   UNL A   1      41.250  27.845  30.248  1.00  0.00    -0.014 A 
BRANCH  56  57
ATOM     57  C   UNL A   1      42.226  27.722  29.172  1.00  0.00     0.031 A 
ATOM     58  C   UNL A   1      42.874  26.413  28.920  1.00  0.00     0.074 A 
ATOM     59  C   UNL A   1      42.407  28.743  28.302  1.00  0.00     0.049 A 
ATOM     60  N   UNL A   1      43.933  26.248  28.201  1.00  0.00    -0.248 NA
ATOM     61  C   UNL A   1      42.387  25.169  29.509  1.00  0.00     0.031 C 
ATOM     62  C   UNL A   1      43.024  28.666  26.980  1.00  0.00     0.029 A 
ATOM     63  N   UNL A   1      42.265  30.112  28.522  1.00  0.00    -0.354 N 
ATOM     64  C   UNL A   1      44.073  24.896  27.974  1.00  0.00     0.074 A 
ATOM     65  C   UNL A   1      43.140  24.266  28.876  1.00  0.00     0.031 C 
ATOM     66  C   UNL A   1      43.488  29.881  26.652  1.00  0.00     0.029 A 
ATOM     67  C   UNL A   1      43.316  30.727  27.821  1.00  0.00     0.049 A 
ATOM     68  H   UNL A   1      41.569  30.559  29.060  1.00  0.00     0.167 HD
ATOM     69  C   UNL A   1      44.859  24.467  26.946  1.00  0.00     0.031 A 
ATOM     70  C   UNL A   1      44.307  31.457  28.412  1.00  0.00     0.031 A 
ATOM     71  C   UNL A   1      45.561  25.576  26.306  1.00  0.00     0.049 A 
ATOM     72  C   UNL A   1      45.695  30.925  28.113  1.00  0.00     0.074 A 
ATOM     73  C   UNL A   1      45.353  26.285  25.134  1.00  0.00     0.029 A 
ATOM     74  N   UNL A   1      46.493  26.295  27.042  1.00  0.00    -0.354 N 
ATOM     75  N   UNL A   1      45.932  29.739  27.623  1.00  0.00    -0.248 NA
ATOM     76  C   UNL A   1      46.926  31.667  28.368  1.00  0.00     0.031 C 
ATOM     77  C   UNL A   1      46.126  27.476  25.201  1.00  0.00     0.029 A 
ATOM     78  C   UNL A   1      46.818  27.472  26.399  1.00  0.00     0.049 A 
ATOM     79  H   UNL A   1      46.870  26.005  27.904  1.00  0.00     0.167 HD
ATOM     80  C   UNL A   1      47.283  29.548  27.482  1.00  0.00     0.074 A 
ATOM     81  C   UNL A   1      47.863  30.791  27.959  1.00  0.00     0.031 C 
ATOM     82  C   UNL A   1      47.796  28.378  26.992  1.00  0.00     0.031 A 
BRANCH  69  83
ATOM     83  C   UNL A   1      44.792  23.074  26.355  1.00  0.00    -0.014 A 
ATOM     84  C   UNL A   1      45.979  22.443  25.925  1.00  0.00     0.010 A 
ATOM     85  C   UNL A   1      43.601  22.354  26.147  1.00  0.00     0.010 A 
ATOM     86  C   UNL A   1      45.969  21.214  25.247  1.00  0.00     0.020 A 
ATOM     87  C   UNL A   1      43.571  21.140  25.440  1.00  0.00     0.020 A 
ATOM     88  C   UNL A   1      44.758  20.581  24.983  1.00  0.00     0.054 A 
BRANCH  88  89
ATOM     89  S   UNL A   1      44.753  19.032  24.044  1.00  0.00     0.124 S 
ATOM     90  O   UNL A   1      44.375  19.478  22.705  1.00  0.00    -0.237 OA
ATOM     91  O   UNL A   1      46.130  18.571  24.190  1.00  0.00    -0.237 OA
ATOM     92  O   UNL A   1      43.750  18.217  24.726  1.00  0.00    -0.744 OA
ENDBRANCH  88  89
ENDBRANCH  69  83
BRANCH  70  93
ATOM     93  C   UNL A   1      43.887  32.138  29.671  1.00  0.00    -0.014 A 
ATOM     94  C   UNL A   1      43.349  31.319  30.689  1.00  0.00     0.010 A 
ATOM     95  C   UNL A   1      44.446  33.379  30.023  1.00  0.00     0.010 A 
ATOM     96  C   UNL A   1      43.564  31.626  32.035  1.00  0.00     0.020 A 
ATOM     97  C   UNL A   1      44.647  33.696  31.376  1.00  0.00     0.020 A 
ATOM     98  C   UNL A   1      44.288  32.773  32.362  1.00  0.00     0.054 A 
BRANCH  98  99
ATOM     99  S   UNL A   1      44.920  32.934  34.063  1.00  0.00     0.124 S 
ATOM    100  O   UNL A   1      44.238  31.849  34.760  1.00  0.00    -0.237 OA
ATOM    101  O   UNL A   1      46.363  32.758  33.876  1.00  0.00    -0.237 OA
ATOM    102  O   UNL A   1      44.512  34.283  34.445  1.00  0.00    -0.744 OA
ENDBRANCH  98  99
ENDBRANCH  70  93
BRANCH  82 103
ATOM    103  C   UNL A   1      49.251  27.953  26.949  1.00  0.00    -0.014 A 
ATOM    104  C   UNL A   1      50.272  28.491  27.745  1.00  0.00     0.010 A 
ATOM    105  C   UNL A   1      49.609  26.850  26.128  1.00  0.00     0.010 A 
ATOM    106  C   UNL A   1      51.583  27.987  27.695  1.00  0.00     0.020 A 
ATOM    107  C   UNL A   1      50.899  26.310  26.103  1.00  0.00     0.020 A 
ATOM    108  C   UNL A   1      51.888  26.900  26.876  1.00  0.00     0.054 A 
BRANCH 108 109
ATOM    109  S   UNL A   1      53.563  26.212  26.881  1.00  0.00     0.124 S 
ATOM    110  O   UNL A   1      53.331  24.851  26.406  1.00  0.00    -0.237 OA
ATOM    111  O   UNL A   1      54.277  27.085  25.952  1.00  0.00    -0.237 OA
ATOM    112  O   UNL A   1      53.978  26.329  28.276  1.00  0.00    -0.744 OA
ENDBRANCH 108 109
ENDBRANCH  82 103
ENDBRANCH  56  57
ENDBRANCH  48  51
ENDBRANCH  46  47
ENDBRANCH  45  46
ENDBRANCH  44  45
ENDBRANCH   1  44
TORSDOF 22
ENDMDL
MODEL 2
REMARK VINA RESULT:     -12.1      1.914      2.547
REMARK SMILES Cc1ccccc1C(=O)Nc1cc(C(=O)NCCCCCCNC(=O)c2ccc(-c3c4nc(c(-c5ccc(S(=O)(=O)[O-])cc5)c5ccc([nH]5)c(-c5ccc(S(=O)(=O)[O-])cc5)c5nc(c(-c6ccc(S(=O)(=O)[O-])cc6)c6ccc3[nH]6)C=C5)C=C4)cc2)ccc1N1CC[NH+](CC(=O)Nc2ccc(F)cc2)CC1
REMARK SMILES IDX 19 1 18 2 17 3 16 4 14 5 15 6 13 8 11 9 12 10 88 11 87 12
REMARK SMILES IDX 86 13 10 14 8 15 9 16 7 18 1 19 2 20 3 21 4 22 6 23 5 24
REMARK SMILES IDX 89 25 90 26 105 27 91 28 104 29 92 30 93 32 94 33 95 34
REMARK SMILES IDX 96 35 97 37 98 38 103 39 99 40 102 41 100 42 101 43 20 44
REMARK SMILES IDX 21 45 22 46 23 47 24 48 25 50 26 51 27 52 85 53 28 54 84 55
REMARK SMILES IDX 29 56 30 57 31 58 78 59 32 60 83 61 77 62 79 63 33 64 82 65
REMARK SMILES IDX 76 66 75 67 34 69 64 70 45 71 63 72 46 73 49 74 62 75 80 76
REMARK SMILES IDX 47 77 48 78 61 80 81 81 50 82 35 83 36 84 44 85 37 86 43 87
REMARK SMILES IDX 38 88 39 89 40 90 41 91 42 92 65 93 66 94 74 95 67 96 73 97
REMARK SMILES IDX 68 98 69 99 70 100 71 101 72 102 51 103 52 104 60 105 53 106
REMARK SMILES IDX 59 107 54 108 55 109 56 110 57 111 58 112
REMARK H PARENT 16 7 10 17 92 31 96 36 23 49 79 68 49 79
REMARK Flexibility Score: inf
ROOT
ATOM      1  C   UNL A   1      35.586  29.702  28.005  1.00  0.00     0.002 C 
ENDROOT
BRANCH   1   2
ATOM      2  C   UNL A   1      35.054  31.059  27.526  1.00  0.00     0.021 C 
BRANCH   2   3
ATOM      3  C   UNL A   1      34.034  31.698  28.474  1.00  0.00     0.116 C 
BRANCH   3   4
ATOM      4  N   UNL A   1      32.905  32.269  27.755  1.00  0.00    -0.352 N 
ATOM      5  C   UNL A   1      31.955  31.743  26.914  1.00  0.00     0.251 C 
ATOM      6  O   UNL A   1      31.060  32.502  26.533  1.00  0.00    -0.269 OA
ATOM      7  H   UNL A   1      32.801  33.237  27.903  1.00  0.00     0.163 HD
BRANCH   5   8
ATOM      8  C   UNL A   1      31.905  30.313  26.482  1.00  0.00     0.042 A 
ATOM      9  C   UNL A   1      31.933  28.545  24.827  1.00  0.00     0.065 A 
ATOM     10  C   UNL A   1      31.797  29.895  25.167  1.00  0.00     0.042 A 
ATOM     11  C   UNL A   1      32.015  27.510  25.805  1.00  0.00     0.061 A 
ATOM     12  C   UNL A   1      32.012  27.949  27.138  1.00  0.00     0.029 A 
ATOM     13  C   UNL A   1      31.993  29.318  27.468  1.00  0.00     0.016 A 
BRANCH   9  14
ATOM     14  N   UNL A   1      31.968  28.230  23.462  1.00  0.00    -0.320 N 
ATOM     15  C   UNL A   1      30.969  28.369  22.513  1.00  0.00     0.255 C 
ATOM     16  O   UNL A   1      31.306  28.339  21.324  1.00  0.00    -0.269 OA
ATOM     17  H   UNL A   1      32.819  27.858  23.134  1.00  0.00     0.170 HD
BRANCH  15  18
ATOM     18  C   UNL A   1      29.517  28.571  22.806  1.00  0.00     0.043 A 
ATOM     19  C   UNL A   1      28.949  26.316  23.957  1.00  0.00     0.045 C 
ATOM     20  C   UNL A   1      28.613  27.678  23.420  1.00  0.00    -0.038 A 
ATOM     21  C   UNL A   1      27.266  28.079  23.583  1.00  0.00     0.004 A 
ATOM     22  C   UNL A   1      26.844  29.364  23.251  1.00  0.00     0.000 A 
ATOM     23  C   UNL A   1      29.076  29.880  22.519  1.00  0.00     0.014 A 
ATOM     24  C   UNL A   1      27.758  30.277  22.748  1.00  0.00     0.001 A 
ENDBRANCH  15  18
ENDBRANCH   9  14
BRANCH  11  25
ATOM     25  N   UNL A   1      32.141  26.157  25.489  1.00  0.00    -0.359 N 
ATOM     26  C   UNL A   1      32.123  25.072  26.510  1.00  0.00     0.178 C 
ATOM     27  C   UNL A   1      32.867  25.740  24.290  1.00  0.00     0.178 C 
ATOM     28  C   UNL A   1      31.906  23.633  25.892  1.00  0.00     0.284 C 
ATOM     29  C   UNL A   1      32.121  24.548  23.691  1.00  0.00     0.284 C 
ATOM     30  N   UNL A   1      32.336  23.354  24.502  1.00  0.00    -0.324 N 
ATOM     31  H   UNL A   1      31.735  22.595  24.183  1.00  0.00     0.348 HD
BRANCH  30  32
ATOM     32  C   UNL A   1      33.645  22.700  24.289  1.00  0.00     0.364 C 
BRANCH  32  33
ATOM     33  C   UNL A   1      34.364  22.125  25.507  1.00  0.00     0.279 C 
ATOM     34  O   UNL A   1      34.994  22.883  26.261  1.00  0.00    -0.268 OA
ATOM     35  N   UNL A   1      34.320  20.812  25.894  1.00  0.00    -0.321 N 
ATOM     36  H   UNL A   1      34.580  20.710  26.838  1.00  0.00     0.170 HD
BRANCH  35  37
ATOM     37  C   UNL A   1      34.001  19.567  25.312  1.00  0.00     0.041 A 
ATOM     38  C   UNL A   1      35.092  18.778  24.905  1.00  0.00     0.029 A 
ATOM     39  C   UNL A   1      32.725  19.108  25.000  1.00  0.00     0.029 A 
ATOM     40  C   UNL A   1      34.909  17.603  24.164  1.00  0.00     0.041 A 
ATOM     41  C   UNL A   1      32.535  17.963  24.211  1.00  0.00     0.041 A 
ATOM     42  C   UNL A   1      33.629  17.221  23.798  1.00  0.00     0.123 A 
ATOM     43  F   UNL A   1      33.451  16.125  23.050  1.00  0.00    -0.207 F 
ENDBRANCH  35  37
ENDBRANCH  32  33
ENDBRANCH  30  32
ENDBRANCH  11  25
ENDBRANCH   5   8
ENDBRANCH   3   4
ENDBRANCH   2   3
ENDBRANCH   1   2
BRANCH   1  44
ATOM     44  C   UNL A   1      36.845  29.736  28.893  1.00  0.00     0.002 C 
BRANCH  44  45
ATOM     45  C   UNL A   1      36.635  30.171  30.346  1.00  0.00     0.021 C 
BRANCH  45  46
ATOM     46  C   UNL A   1      37.865  30.788  30.988  1.00  0.00     0.116 C 
BRANCH  46  47
ATOM     47  N   UNL A   1      38.114  30.367  32.360  1.00  0.00    -0.352 N 
ATOM     48  C   UNL A   1      38.197  29.004  32.649  1.00  0.00     0.251 C 
ATOM     49  H   UNL A   1      38.223  31.034  33.075  1.00  0.00     0.163 HD
ATOM     50  O   UNL A   1      37.370  28.364  33.265  1.00  0.00    -0.269 OA
BRANCH  48  51
ATOM     51  C   UNL A   1      39.358  28.347  32.007  1.00  0.00     0.039 A 
ATOM     52  C   UNL A   1      40.657  28.688  32.383  1.00  0.00     0.014 A 
ATOM     53  C   UNL A   1      39.103  27.623  30.843  1.00  0.00     0.014 A 
ATOM     54  C   UNL A   1      41.707  28.422  31.503  1.00  0.00     0.010 A 
ATOM     55  C   UNL A   1      40.123  27.459  29.932  1.00  0.00     0.010 A 
ATOM     56  C   UNL A   1      41.419  27.886  30.246  1.00  0.00    -0.014 A 
BRANCH  56  57
ATOM     57  C   UNL A   1      42.379  27.754  29.156  1.00  0.00     0.031 A 
ATOM     58  C   UNL A   1      43.017  26.441  28.901  1.00  0.00     0.074 A 
ATOM     59  C   UNL A   1      42.552  28.770  28.279  1.00  0.00     0.049 A 
ATOM     60  N   UNL A   1      44.065  26.268  28.168  1.00  0.00    -0.248 NA
ATOM     61  C   UNL A   1      42.533  25.202  29.503  1.00  0.00     0.031 C 
ATOM     62  C   UNL A   1      43.150  28.684  26.949  1.00  0.00     0.029 A 
ATOM     63  N   UNL A   1      42.419  30.141  28.495  1.00  0.00    -0.354 N 
ATOM     64  C   UNL A   1      44.195  24.915  27.945  1.00  0.00     0.074 A 
ATOM     65  C   UNL A   1      43.273  24.292  28.864  1.00  0.00     0.031 C 
ATOM     66  C   UNL A   1      43.614  29.896  26.609  1.00  0.00     0.029 A 
ATOM     67  C   UNL A   1      43.463  30.748  27.776  1.00  0.00     0.049 A 
ATOM     68  H   UNL A   1      41.734  30.593  29.040  1.00  0.00     0.167 HD
ATOM     69  C   UNL A   1      44.965  24.476  26.908  1.00  0.00     0.031 A 
ATOM     70  C   UNL A   1      44.466  31.476  28.349  1.00  0.00     0.031 A 
ATOM     71  C   UNL A   1      45.663  25.580  26.253  1.00  0.00     0.049 A 
ATOM     72  C   UNL A   1      45.847  30.936  28.032  1.00  0.00     0.074 A 
ATOM     73  C   UNL A   1      45.442  26.284  25.081  1.00  0.00     0.029 A 
ATOM     74  N   UNL A   1      46.608  26.298  26.972  1.00  0.00    -0.354 N 
ATOM     75  N   UNL A   1      46.072  29.747  27.545  1.00  0.00    -0.248 NA
ATOM     76  C   UNL A   1      47.085  31.674  28.267  1.00  0.00     0.031 C 
ATOM     77  C   UNL A   1      46.220  27.472  25.131  1.00  0.00     0.029 A 
ATOM     78  C   UNL A   1      46.929  27.470  26.319  1.00  0.00     0.049 A 
ATOM     79  H   UNL A   1      46.997  26.010  27.830  1.00  0.00     0.167 HD
ATOM     80  C   UNL A   1      47.420  29.549  27.385  1.00  0.00     0.074 A 
ATOM     81  C   UNL A   1      48.012  30.792  27.848  1.00  0.00     0.031 C 
ATOM     82  C   UNL A   1      47.920  28.375  26.894  1.00  0.00     0.031 A 
BRANCH  69  83
ATOM     83  C   UNL A   1      44.883  23.082  26.325  1.00  0.00    -0.014 A 
ATOM     84  C   UNL A   1      46.049  22.471  25.815  1.00  0.00     0.010 A 
ATOM     85  C   UNL A   1      43.694  22.339  26.199  1.00  0.00     0.010 A 
ATOM     86  C   UNL A   1      46.015  21.240  25.141  1.00  0.00     0.020 A 
ATOM     87  C   UNL A   1      43.638  21.124  25.497  1.00  0.00     0.020 A 
ATOM     88  C   UNL A   1      44.801  20.585  24.961  1.00  0.00     0.054 A 
BRANCH  88  89
ATOM     89  S   UNL A   1      44.760  19.034  24.026  1.00  0.00     0.124 S 
ATOM     90  O   UNL A   1      43.724  18.275  24.723  1.00  0.00    -0.237 OA
ATOM     91  O   UNL A   1      44.414  19.486  22.682  1.00  0.00    -0.237 OA
ATOM     92  O   UNL A   1      46.114  18.505  24.174  1.00  0.00    -0.744 OA
ENDBRANCH  88  89
ENDBRANCH  69  83
BRANCH  70  93
ATOM     93  C   UNL A   1      44.067  32.165  29.611  1.00  0.00    -0.014 A 
ATOM     94  C   UNL A   1      43.494  33.449  29.482  1.00  0.00     0.010 A 
ATOM     95  C   UNL A   1      43.800  31.415  30.770  1.00  0.00     0.010 A 
ATOM     96  C   UNL A   1      42.507  33.879  30.373  1.00  0.00     0.020 A 
ATOM     97  C   UNL A   1      42.821  31.854  31.676  1.00  0.00     0.020 A 
ATOM     98  C   UNL A   1      42.120  33.036  31.415  1.00  0.00     0.054 A 
BRANCH  98  99
ATOM     99  S   UNL A   1      40.569  33.411  32.294  1.00  0.00     0.124 S 
ATOM    100  O   UNL A   1      39.629  33.631  31.201  1.00  0.00    -0.237 OA
ATOM    101  O   UNL A   1      40.354  32.192  33.078  1.00  0.00    -0.237 OA
ATOM    102  O   UNL A   1      40.909  34.593  33.081  1.00  0.00    -0.744 OA
ENDBRANCH  98  99
ENDBRANCH  70  93
BRANCH  82 103
ATOM    103  C   UNL A   1      49.373  27.942  26.831  1.00  0.00    -0.014 A 
ATOM    104  C   UNL A   1      50.053  27.256  27.847  1.00  0.00     0.010 A 
ATOM    105  C   UNL A   1      50.085  28.137  25.618  1.00  0.00     0.010 A 
ATOM    106  C   UNL A   1      51.380  26.825  27.679  1.00  0.00     0.020 A 
ATOM    107  C   UNL A   1      51.389  27.673  25.421  1.00  0.00     0.020 A 
ATOM    108  C   UNL A   1      52.039  27.035  26.467  1.00  0.00     0.054 A 
BRANCH 108 109
ATOM    109  S   UNL A   1      53.721  26.406  26.238  1.00  0.00     0.124 S 
ATOM    110  O   UNL A   1      53.614  25.720  24.953  1.00  0.00    -0.237 OA
ATOM    111  O   UNL A   1      54.527  27.624  26.230  1.00  0.00    -0.237 OA
ATOM    112  O   UNL A   1      53.926  25.541  27.397  1.00  0.00    -0.744 OA
ENDBRANCH 108 109
ENDBRANCH  82 103
ENDBRANCH  56  57
ENDBRANCH  48  51
ENDBRANCH  46  47
ENDBRANCH  45  46
ENDBRANCH  44  45
ENDBRANCH   1  44
TORSDOF 22
ENDMDL
MODEL 3
REMARK VINA RESULT:     -11.5      5.383     11.087
REMARK SMILES Cc1ccccc1C(=O)Nc1cc(C(=O)NCCCCCCNC(=O)c2ccc(-c3c4nc(c(-c5ccc(S(=O)(=O)[O-])cc5)c5ccc([nH]5)c(-c5ccc(S(=O)(=O)[O-])cc5)c5nc(c(-c6ccc(S(=O)(=O)[O-])cc6)c6ccc3[nH]6)C=C5)C=C4)cc2)ccc1N1CC[NH+](CC(=O)Nc2ccc(F)cc2)CC1
REMARK SMILES IDX 19 1 18 2 17 3 16 4 14 5 15 6 13 8 11 9 12 10 88 11 87 12
REMARK SMILES IDX 86 13 10 14 8 15 9 16 7 18 1 19 2 20 3 21 4 22 6 23 5 24
REMARK SMILES IDX 89 25 90 26 105 27 91 28 104 29 92 30 93 32 94 33 95 34
REMARK SMILES IDX 96 35 97 37 98 38 103 39 99 40 102 41 100 42 101 43 20 44
REMARK SMILES IDX 21 45 22 46 23 47 24 48 25 50 26 51 27 52 85 53 28 54 84 55
REMARK SMILES IDX 29 56 30 57 31 58 78 59 32 60 83 61 77 62 79 63 33 64 82 65
REMARK SMILES IDX 76 66 75 67 34 69 64 70 45 71 63 72 46 73 49 74 62 75 80 76
REMARK SMILES IDX 47 77 48 78 61 80 81 81 50 82 35 83 36 84 44 85 37 86 43 87
REMARK SMILES IDX 38 88 39 89 40 90 41 91 42 92 65 93 66 94 74 95 67 96 73 97
REMARK SMILES IDX 68 98 69 99 70 100 71 101 72 102 51 103 52 104 60 105 53 106
REMARK SMILES IDX 59 107 54 108 55 109 56 110 57 111 58 112
REMARK H PARENT 16 7 10 17 92 31 96 36 23 49 79 68 49 79
REMARK Flexibility Score: inf
ROOT
ATOM      1  C   UNL A   1      35.802  29.646  27.965  1.00  0.00     0.002 C 
ENDROOT
BRANCH   1   2
ATOM      2  C   UNL A   1      35.087  30.817  27.279  1.00  0.00     0.021 C 
BRANCH   2   3
ATOM      3  C   UNL A   1      33.927  31.400  28.089  1.00  0.00     0.116 C 
BRANCH   3   4
ATOM      4  N   UNL A   1      32.832  31.839  27.237  1.00  0.00    -0.352 N 
ATOM      5  C   UNL A   1      31.872  31.176  26.512  1.00  0.00     0.251 C 
ATOM      6  O   UNL A   1      31.015  31.864  25.953  1.00  0.00    -0.269 OA
ATOM      7  H   UNL A   1      32.767  32.819  27.163  1.00  0.00     0.163 HD
BRANCH   5   8
ATOM      8  C   UNL A   1      31.767  29.688  26.408  1.00  0.00     0.042 A 
ATOM      9  C   UNL A   1      31.793  27.591  25.197  1.00  0.00     0.065 A 
ATOM     10  C   UNL A   1      31.714  28.987  25.216  1.00  0.00     0.042 A 
ATOM     11  C   UNL A   1      31.760  26.802  26.384  1.00  0.00     0.061 A 
ATOM     12  C   UNL A   1      31.703  27.532  27.582  1.00  0.00     0.029 A 
ATOM     13  C   UNL A   1      31.741  28.940  27.596  1.00  0.00     0.016 A 
BRANCH   9  14
ATOM     14  N   UNL A   1      31.892  26.973  23.943  1.00  0.00    -0.320 N 
ATOM     15  C   UNL A   1      31.211  27.270  22.774  1.00  0.00     0.255 C 
ATOM     16  O   UNL A   1      31.674  26.826  21.718  1.00  0.00    -0.269 OA
ATOM     17  H   UNL A   1      32.531  26.227  23.885  1.00  0.00     0.170 HD
BRANCH  15  18
ATOM     18  C   UNL A   1      29.969  28.097  22.680  1.00  0.00     0.043 A 
ATOM     19  C   UNL A   1      28.310  26.615  24.015  1.00  0.00     0.045 C 
ATOM     20  C   UNL A   1      28.687  27.818  23.200  1.00  0.00    -0.038 A 
ATOM     21  C   UNL A   1      27.645  28.748  22.974  1.00  0.00     0.004 A 
ATOM     22  C   UNL A   1      27.882  29.970  22.348  1.00  0.00     0.000 A 
ATOM     23  C   UNL A   1      30.193  29.359  22.089  1.00  0.00     0.014 A 
ATOM     24  C   UNL A   1      29.165  30.289  21.933  1.00  0.00     0.001 A 
ENDBRANCH  15  18
ENDBRANCH   9  14
BRANCH  11  25
ATOM     25  N   UNL A   1      31.828  25.409  26.389  1.00  0.00    -0.359 N 
ATOM     26  C   UNL A   1      33.109  24.651  26.452  1.00  0.00     0.178 C 
ATOM     27  C   UNL A   1      30.775  24.613  25.759  1.00  0.00     0.178 C 
ATOM     28  C   UNL A   1      32.919  23.125  26.820  1.00  0.00     0.284 C 
ATOM     29  C   UNL A   1      30.546  23.378  26.631  1.00  0.00     0.284 C 
ATOM     30  N   UNL A   1      31.651  22.437  26.481  1.00  0.00    -0.324 N 
ATOM     31  H   UNL A   1      31.567  21.680  27.159  1.00  0.00     0.348 HD
BRANCH  30  32
ATOM     32  C   UNL A   1      31.599  21.629  25.244  1.00  0.00     0.364 C 
BRANCH  32  33
ATOM     33  C   UNL A   1      32.211  22.221  23.976  1.00  0.00     0.279 C 
ATOM     34  O   UNL A   1      31.467  22.647  23.079  1.00  0.00    -0.268 OA
ATOM     35  N   UNL A   1      33.552  22.392  23.760  1.00  0.00    -0.321 N 
ATOM     36  H   UNL A   1      33.717  23.048  23.046  1.00  0.00     0.170 HD
BRANCH  35  37
ATOM     37  C   UNL A   1      34.761  21.885  24.283  1.00  0.00     0.041 A 
ATOM     38  C   UNL A   1      35.874  22.743  24.208  1.00  0.00     0.029 A 
ATOM     39  C   UNL A   1      34.977  20.593  24.750  1.00  0.00     0.029 A 
ATOM     40  C   UNL A   1      37.162  22.300  24.535  1.00  0.00     0.041 A 
ATOM     41  C   UNL A   1      36.271  20.125  25.027  1.00  0.00     0.041 A 
ATOM     42  C   UNL A   1      37.353  20.982  24.915  1.00  0.00     0.123 A 
ATOM     43  F   UNL A   1      38.588  20.540  25.184  1.00  0.00    -0.207 F 
ENDBRANCH  35  37
ENDBRANCH  32  33
ENDBRANCH  30  32
ENDBRANCH  11  25
ENDBRANCH   5   8
ENDBRANCH   3   4
ENDBRANCH   2   3
ENDBRANCH   1   2
BRANCH   1  44
ATOM     44  C   UNL A   1      37.226  29.923  28.485  1.00  0.00     0.002 C 
BRANCH  44  45
ATOM     45  C   UNL A   1      37.994  28.716  29.031  1.00  0.00     0.021 C 
BRANCH  45  46
ATOM     46  C   UNL A   1      37.872  28.537  30.534  1.00  0.00     0.116 C 
BRANCH  46  47
ATOM     47  N   UNL A   1      38.977  27.821  31.155  1.00  0.00    -0.352 N 
ATOM     48  C   UNL A   1      40.251  28.393  31.144  1.00  0.00     0.251 C 
ATOM     49  H   UNL A   1      38.830  26.944  31.576  1.00  0.00     0.163 HD
ATOM     50  O   UNL A   1      41.191  28.004  30.484  1.00  0.00    -0.269 OA
BRANCH  48  51
ATOM     51  C   UNL A   1      40.329  29.640  31.937  1.00  0.00     0.039 A 
ATOM     52  C   UNL A   1      40.025  30.870  31.351  1.00  0.00     0.014 A 
ATOM     53  C   UNL A   1      40.988  29.562  33.164  1.00  0.00     0.014 A 
ATOM     54  C   UNL A   1      40.518  32.037  31.935  1.00  0.00     0.010 A 
ATOM     55  C   UNL A   1      41.562  30.704  33.677  1.00  0.00     0.010 A 
ATOM     56  C   UNL A   1      41.355  31.938  33.048  1.00  0.00    -0.014 A 
BRANCH  56  57
ATOM     57  C   UNL A   1      42.105  33.045  33.628  1.00  0.00     0.031 A 
ATOM     58  C   UNL A   1      41.455  33.921  34.631  1.00  0.00     0.074 A 
ATOM     59  C   UNL A   1      43.431  33.165  33.387  1.00  0.00     0.049 A 
ATOM     60  N   UNL A   1      41.906  35.073  34.998  1.00  0.00    -0.248 NA
ATOM     61  C   UNL A   1      40.193  33.573  35.278  1.00  0.00     0.031 C 
ATOM     62  C   UNL A   1      44.394  33.944  34.163  1.00  0.00     0.029 A 
ATOM     63  N   UNL A   1      44.152  32.778  32.258  1.00  0.00    -0.354 N 
ATOM     64  C   UNL A   1      41.203  35.456  36.119  1.00  0.00     0.074 A 
ATOM     65  C   UNL A   1      40.096  34.533  36.201  1.00  0.00     0.031 C 
ATOM     66  C   UNL A   1      45.438  34.242  33.375  1.00  0.00     0.029 A 
ATOM     67  C   UNL A   1      45.096  33.795  32.036  1.00  0.00     0.049 A 
ATOM     68  H   UNL A   1      44.025  31.959  31.724  1.00  0.00     0.167 HD
ATOM     69  C   UNL A   1      41.714  36.421  36.935  1.00  0.00     0.031 A 
ATOM     70  C   UNL A   1      45.132  34.575  30.916  1.00  0.00     0.031 A 
ATOM     71  C   UNL A   1      42.930  37.009  36.376  1.00  0.00     0.049 A 
ATOM     72  C   UNL A   1      45.031  36.057  31.222  1.00  0.00     0.074 A 
ATOM     73  C   UNL A   1      44.279  36.835  36.639  1.00  0.00     0.029 A 
ATOM     74  N   UNL A   1      42.848  37.715  35.185  1.00  0.00    -0.354 N 
ATOM     75  N   UNL A   1      44.636  36.540  32.367  1.00  0.00    -0.248 NA
ATOM     76  C   UNL A   1      45.332  37.111  30.259  1.00  0.00     0.031 C 
ATOM     77  C   UNL A   1      45.010  37.391  35.555  1.00  0.00     0.029 A 
ATOM     78  C   UNL A   1      44.105  37.922  34.654  1.00  0.00     0.049 A 
ATOM     79  H   UNL A   1      42.008  38.026  34.774  1.00  0.00     0.167 HD
ATOM     80  C   UNL A   1      44.634  37.911  32.327  1.00  0.00     0.074 A 
ATOM     81  C   UNL A   1      45.086  38.220  30.981  1.00  0.00     0.031 C 
ATOM     82  C   UNL A   1      44.253  38.661  33.405  1.00  0.00     0.031 A 
BRANCH  69  83
ATOM     83  C   UNL A   1      41.259  36.652  38.360  1.00  0.00    -0.014 A 
ATOM     84  C   UNL A   1      42.133  36.348  39.427  1.00  0.00     0.010 A 
ATOM     85  C   UNL A   1      39.980  37.112  38.724  1.00  0.00     0.010 A 
ATOM     86  C   UNL A   1      41.725  36.411  40.769  1.00  0.00     0.020 A 
ATOM     87  C   UNL A   1      39.546  37.147  40.060  1.00  0.00     0.020 A 
ATOM     88  C   UNL A   1      40.421  36.784  41.077  1.00  0.00     0.054 A 
BRANCH  88  89
ATOM     89  S   UNL A   1      39.886  36.791  42.807  1.00  0.00     0.124 S 
ATOM     90  O   UNL A   1      38.693  35.947  42.770  1.00  0.00    -0.237 OA
ATOM     91  O   UNL A   1      41.039  36.220  43.496  1.00  0.00    -0.237 OA
ATOM     92  O   UNL A   1      39.631  38.203  43.086  1.00  0.00    -0.744 OA
ENDBRANCH  88  89
ENDBRANCH  69  83
BRANCH  70  93
ATOM     93  C   UNL A   1      44.612  33.900  29.691  1.00  0.00    -0.014 A 
ATOM     94  C   UNL A   1      43.499  34.498  29.059  1.00  0.00     0.010 A 
ATOM     95  C   UNL A   1      45.450  33.059  28.939  1.00  0.00     0.010 A 
ATOM     96  C   UNL A   1      43.356  34.439  27.670  1.00  0.00     0.020 A 
ATOM     97  C   UNL A   1      45.297  32.986  27.545  1.00  0.00     0.020 A 
ATOM     98  C   UNL A   1      44.309  33.752  26.918  1.00  0.00     0.054 A 
BRANCH  98  99
ATOM     99  S   UNL A   1      44.354  34.036  25.119  1.00  0.00     0.124 S 
ATOM    100  O   UNL A   1      43.177  34.869  24.900  1.00  0.00    -0.237 OA
ATOM    101  O   UNL A   1      45.646  34.707  24.944  1.00  0.00    -0.237 OA
ATOM    102  O   UNL A   1      44.284  32.688  24.565  1.00  0.00    -0.744 OA
ENDBRANCH  98  99
ENDBRANCH  70  93
BRANCH  82 103
ATOM    103  C   UNL A   1      44.027  40.161  33.455  1.00  0.00    -0.014 A 
ATOM    104  C   UNL A   1      44.942  41.097  33.956  1.00  0.00     0.010 A 
ATOM    105  C   UNL A   1      42.854  40.688  32.852  1.00  0.00     0.010 A 
ATOM    106  C   UNL A   1      44.685  42.478  33.896  1.00  0.00     0.020 A 
ATOM    107  C   UNL A   1      42.607  42.060  32.746  1.00  0.00     0.020 A 
ATOM    108  C   UNL A   1      43.519  42.950  33.291  1.00  0.00     0.054 A 
BRANCH 108 109
ATOM    109  S   UNL A   1      43.239  44.734  33.154  1.00  0.00     0.124 S 
ATOM    110  O   UNL A   1      44.170  45.263  34.146  1.00  0.00    -0.237 OA
ATOM    111  O   UNL A   1      43.585  45.012  31.762  1.00  0.00    -0.237 OA
ATOM    112  O   UNL A   1      41.823  44.885  33.476  1.00  0.00    -0.744 OA
ENDBRANCH 108 109
ENDBRANCH  82 103
ENDBRANCH  56  57
ENDBRANCH  48  51
ENDBRANCH  46  47
ENDBRANCH  45  46
ENDBRANCH  44  45
ENDBRANCH   1  44
TORSDOF 22
ENDMDL
