MODEL 1
REMARK VINA RESULT:     -11.0      0.000      0.000
REMARK SMILES O=C(NCCCCCCNC(=O)c1cc(F)cc(-c2cc3ccccc3s2)c1)c1ccc(-c2c3nc(c(-c4ccc(S(=O)(=O)[O-])cc4)c4ccc([nH]4)c(-c4ccc(S(=O)(=O)[O-])cc4)c4nc(c(-c5ccc(S(=O)(=O)[O-])cc5)c5ccc2[nH]5)C=C4)C=C3)cc1
REMARK SMILES IDX 5 1 4 2 3 3 1 4 2 5 29 7 30 8 88 9 31 10 87 11 32 12 33 13
REMARK SMILES IDX 34 14 81 15 35 16 86 17 80 18 82 19 36 20 85 21 79 22 78 23
REMARK SMILES IDX 37 25 67 26 48 27 66 28 49 29 52 30 65 31 83 32 50 33 51 34
REMARK SMILES IDX 64 36 84 37 53 38 38 39 39 40 47 41 40 42 46 43 41 44 42 45
REMARK SMILES IDX 43 46 44 47 45 48 68 49 69 50 77 51 70 52 76 53 71 54 72 55
REMARK SMILES IDX 73 56 74 57 75 58 54 59 55 60 63 61 56 62 62 63 57 64 58 65
REMARK SMILES IDX 59 66 60 67 61 68 6 69 7 70 8 71 9 72 10 73 11 74 12 76
REMARK SMILES IDX 13 77 14 78 28 79 15 80 18 81 16 82 17 83 19 84 20 85 27 86
REMARK SMILES IDX 21 87 26 88 22 89 25 90 23 91 24 92
REMARK H PARENT 3 6 82 24 52 35 10 75
REMARK Flexibility Score: inf
ROOT
ATOM      1  C   UNL A   1      35.238  23.393  25.943  1.00  0.00     0.021 C 
ENDROOT
BRANCH   1   2
ATOM      2  C   UNL A   1      36.684  23.872  25.895  1.00  0.00     0.116 C 
BRANCH   2   3
ATOM      3  N   UNL A   1      37.627  22.782  26.078  1.00  0.00    -0.352 N 
ATOM      4  O   UNL A   1      39.649  21.822  26.329  1.00  0.00    -0.269 OA
ATOM      5  C   UNL A   1      38.955  22.832  26.417  1.00  0.00     0.251 C 
ATOM      6  H   UNL A   1      37.261  21.879  25.938  1.00  0.00     0.163 HD
BRANCH   5   7
ATOM      7  C   UNL A   1      39.549  24.106  26.872  1.00  0.00     0.039 A 
ATOM      8  C   UNL A   1      39.597  24.428  28.232  1.00  0.00     0.014 A 
ATOM      9  C   UNL A   1      40.089  24.977  25.924  1.00  0.00     0.014 A 
ATOM     10  C   UNL A   1      40.085  25.668  28.635  1.00  0.00     0.010 A 
ATOM     11  C   UNL A   1      40.643  26.190  26.337  1.00  0.00     0.010 A 
ATOM     12  C   UNL A   1      40.628  26.553  27.694  1.00  0.00    -0.014 A 
BRANCH  12  13
ATOM     13  C   UNL A   1      41.244  27.829  28.133  1.00  0.00     0.031 A 
ATOM     14  C   UNL A   1      42.734  28.012  28.115  1.00  0.00     0.074 A 
ATOM     15  C   UNL A   1      40.447  28.811  28.598  1.00  0.00     0.049 A 
ATOM     16  N   UNL A   1      43.445  29.023  28.545  1.00  0.00    -0.248 NA
ATOM     17  C   UNL A   1      43.531  26.912  27.551  1.00  0.00     0.031 C 
ATOM     18  C   UNL A   1      38.986  28.745  28.667  1.00  0.00     0.029 A 
ATOM     19  N   UNL A   1      40.751  30.044  29.115  1.00  0.00    -0.354 N 
ATOM     20  C   UNL A   1      44.773  28.673  28.331  1.00  0.00     0.074 A 
ATOM     21  C   UNL A   1      44.768  27.346  27.751  1.00  0.00     0.031 C 
ATOM     22  C   UNL A   1      38.520  29.886  29.194  1.00  0.00     0.029 A 
ATOM     23  C   UNL A   1      39.649  30.735  29.559  1.00  0.00     0.049 A 
ATOM     24  H   UNL A   1      41.668  30.399  29.165  1.00  0.00     0.167 HD
ATOM     25  C   UNL A   1      45.891  29.391  28.598  1.00  0.00     0.031 A 
ATOM     26  C   UNL A   1      39.552  31.901  30.224  1.00  0.00     0.031 A 
ATOM     27  C   UNL A   1      45.881  30.702  29.194  1.00  0.00     0.049 A 
ATOM     28  C   UNL A   1      40.801  32.664  30.551  1.00  0.00     0.074 A 
ATOM     29  C   UNL A   1      46.955  31.529  29.469  1.00  0.00     0.029 A 
ATOM     30  N   UNL A   1      44.742  31.369  29.626  1.00  0.00    -0.354 N 
ATOM     31  N   UNL A   1      42.047  32.341  30.295  1.00  0.00    -0.248 NA
ATOM     32  C   UNL A   1      40.638  33.947  31.247  1.00  0.00     0.031 C 
ATOM     33  C   UNL A   1      46.472  32.667  30.125  1.00  0.00     0.029 A 
ATOM     34  C   UNL A   1      45.091  32.583  30.195  1.00  0.00     0.049 A 
ATOM     35  H   UNL A   1      43.822  31.029  29.541  1.00  0.00     0.167 HD
ATOM     36  C   UNL A   1      42.817  33.393  30.777  1.00  0.00     0.074 A 
ATOM     37  C   UNL A   1      41.895  34.363  31.335  1.00  0.00     0.031 C 
ATOM     38  C   UNL A   1      44.164  33.541  30.747  1.00  0.00     0.031 A 
BRANCH  25  39
ATOM     39  C   UNL A   1      47.219  28.745  28.296  1.00  0.00    -0.014 A 
ATOM     40  C   UNL A   1      47.896  27.967  29.253  1.00  0.00     0.010 A 
ATOM     41  C   UNL A   1      47.801  28.918  27.025  1.00  0.00     0.010 A 
ATOM     42  C   UNL A   1      49.158  27.436  28.970  1.00  0.00     0.020 A 
ATOM     43  C   UNL A   1      49.048  28.362  26.727  1.00  0.00     0.020 A 
ATOM     44  C   UNL A   1      49.732  27.649  27.713  1.00  0.00     0.054 A 
BRANCH  44  45
ATOM     45  S   UNL A   1      51.386  26.980  27.385  1.00  0.00     0.124 S 
ATOM     46  O   UNL A   1      51.471  25.900  28.366  1.00  0.00    -0.237 OA
ATOM     47  O   UNL A   1      51.289  26.554  25.991  1.00  0.00    -0.237 OA
ATOM     48  O   UNL A   1      52.275  28.113  27.628  1.00  0.00    -0.744 OA
ENDBRANCH  44  45
ENDBRANCH  25  39
BRANCH  26  49
ATOM     49  C   UNL A   1      38.205  32.383  30.635  1.00  0.00    -0.014 A 
ATOM     50  C   UNL A   1      37.681  32.059  31.896  1.00  0.00     0.010 A 
ATOM     51  C   UNL A   1      37.484  33.253  29.794  1.00  0.00     0.010 A 
ATOM     52  C   UNL A   1      36.465  32.608  32.316  1.00  0.00     0.020 A 
ATOM     53  C   UNL A   1      36.283  33.825  30.221  1.00  0.00     0.020 A 
ATOM     54  C   UNL A   1      35.780  33.496  31.481  1.00  0.00     0.054 A 
BRANCH  54  55
ATOM     55  S   UNL A   1      34.261  34.277  32.094  1.00  0.00     0.124 S 
ATOM     56  O   UNL A   1      33.724  33.245  32.975  1.00  0.00    -0.237 OA
ATOM     57  O   UNL A   1      34.769  35.475  32.756  1.00  0.00    -0.237 OA
ATOM     58  O   UNL A   1      33.490  34.527  30.877  1.00  0.00    -0.744 OA
ENDBRANCH  54  55
ENDBRANCH  26  49
BRANCH  38  59
ATOM     59  C   UNL A   1      44.741  34.818  31.298  1.00  0.00    -0.014 A 
ATOM     60  C   UNL A   1      44.882  35.963  30.497  1.00  0.00     0.010 A 
ATOM     61  C   UNL A   1      45.044  34.897  32.670  1.00  0.00     0.010 A 
ATOM     62  C   UNL A   1      45.317  37.168  31.060  1.00  0.00     0.020 A 
ATOM     63  C   UNL A   1      45.454  36.104  33.241  1.00  0.00     0.020 A 
ATOM     64  C   UNL A   1      45.590  37.232  32.430  1.00  0.00     0.054 A 
BRANCH  64  65
ATOM     65  S   UNL A   1      46.056  38.830  33.154  1.00  0.00     0.124 S 
ATOM     66  O   UNL A   1      46.013  38.540  34.585  1.00  0.00    -0.237 OA
ATOM     67  O   UNL A   1      47.388  39.055  32.599  1.00  0.00    -0.237 OA
ATOM     68  O   UNL A   1      45.024  39.745  32.672  1.00  0.00    -0.744 OA
ENDBRANCH  64  65
ENDBRANCH  38  59
ENDBRANCH  12  13
ENDBRANCH   5   7
ENDBRANCH   2   3
ENDBRANCH   1   2
BRANCH   1  69
ATOM     69  C   UNL A   1      35.048  21.975  26.487  1.00  0.00     0.002 C 
BRANCH  69  70
ATOM     70  C   UNL A   1      34.603  20.933  25.456  1.00  0.00     0.002 C 
BRANCH  70  71
ATOM     71  C   UNL A   1      33.178  20.402  25.635  1.00  0.00     0.021 C 
BRANCH  71  72
ATOM     72  C   UNL A   1      32.084  21.292  25.051  1.00  0.00     0.116 C 
BRANCH  72  73
ATOM     73  N   UNL A   1      31.145  21.734  26.069  1.00  0.00    -0.352 N 
ATOM     74  C   UNL A   1      30.772  23.007  26.398  1.00  0.00     0.251 C 
ATOM     75  H   UNL A   1      30.718  21.017  26.592  1.00  0.00     0.163 HD
ATOM     76  O   UNL A   1      30.107  23.227  27.412  1.00  0.00    -0.269 OA
BRANCH  74  77
ATOM     77  C   UNL A   1      31.174  24.133  25.537  1.00  0.00     0.043 A 
ATOM     78  C   UNL A   1      30.915  24.101  24.165  1.00  0.00     0.053 A 
ATOM     79  C   UNL A   1      31.777  25.253  26.124  1.00  0.00     0.023 A 
ATOM     80  C   UNL A   1      31.330  25.165  23.379  1.00  0.00     0.124 A 
ATOM     81  C   UNL A   1      32.168  26.334  25.325  1.00  0.00    -0.005 A 
ATOM     82  F   UNL A   1      31.118  25.128  22.059  1.00  0.00    -0.207 F 
ATOM     83  C   UNL A   1      31.955  26.272  23.941  1.00  0.00     0.048 A 
BRANCH  81  84
ATOM     84  C   UNL A   1      32.731  27.550  25.910  1.00  0.00     0.036 A 
ATOM     85  C   UNL A   1      34.009  27.736  26.391  1.00  0.00     0.029 A 
ATOM     86  S   UNL A   1      31.785  28.958  26.100  1.00  0.00    -0.135 S 
ATOM     87  C   UNL A   1      34.229  29.045  26.926  1.00  0.00    -0.007 A 
ATOM     88  C   UNL A   1      33.077  29.828  26.838  1.00  0.00     0.035 A 
ATOM     89  C   UNL A   1      35.389  29.615  27.503  1.00  0.00     0.009 A 
ATOM     90  C   UNL A   1      33.052  31.154  27.313  1.00  0.00     0.019 A 
ATOM     91  C   UNL A   1      35.370  30.930  27.976  1.00  0.00     0.001 A 
ATOM     92  C   UNL A   1      34.212  31.689  27.882  1.00  0.00     0.001 A 
ENDBRANCH  81  84
ENDBRANCH  74  77
ENDBRANCH  72  73
ENDBRANCH  71  72
ENDBRANCH  70  71
ENDBRANCH  69  70
ENDBRANCH   1  69
TORSDOF 17
ENDMDL
MODEL 2
REMARK VINA RESULT:     -11.0      3.255      9.482
REMARK SMILES O=C(NCCCCCCNC(=O)c1cc(F)cc(-c2cc3ccccc3s2)c1)c1ccc(-c2c3nc(c(-c4ccc(S(=O)(=O)[O-])cc4)c4ccc([nH]4)c(-c4ccc(S(=O)(=O)[O-])cc4)c4nc(c(-c5ccc(S(=O)(=O)[O-])cc5)c5ccc2[nH]5)C=C4)C=C3)cc1
REMARK SMILES IDX 5 1 4 2 3 3 1 4 2 5 29 7 30 8 88 9 31 10 87 11 32 12 33 13
REMARK SMILES IDX 34 14 81 15 35 16 86 17 80 18 82 19 36 20 85 21 79 22 78 23
REMARK SMILES IDX 37 25 67 26 48 27 66 28 49 29 52 30 65 31 83 32 50 33 51 34
REMARK SMILES IDX 64 36 84 37 53 38 38 39 39 40 47 41 40 42 46 43 41 44 42 45
REMARK SMILES IDX 43 46 44 47 45 48 68 49 69 50 77 51 70 52 76 53 71 54 72 55
REMARK SMILES IDX 73 56 74 57 75 58 54 59 55 60 63 61 56 62 62 63 57 64 58 65
REMARK SMILES IDX 59 66 60 67 61 68 6 69 7 70 8 71 9 72 10 73 11 74 12 76
REMARK SMILES IDX 13 77 14 78 28 79 15 80 18 81 16 82 17 83 19 84 20 85 27 86
REMARK SMILES IDX 21 87 26 88 22 89 25 90 23 91 24 92
REMARK H PARENT 3 6 82 24 52 35 10 75
REMARK Flexibility Score: inf
ROOT
ATOM      1  C   UNL A   1      34.823  28.893  27.642  1.00  0.00     0.021 C 
ENDROOT
BRANCH   1   2
ATOM      2  C   UNL A   1      35.230  30.359  27.731  1.00  0.00     0.116 C 
BRANCH   2   3
ATOM      3  N   UNL A   1      35.197  30.852  29.098  1.00  0.00    -0.352 N 
ATOM      4  O   UNL A   1      35.893  31.078  31.228  1.00  0.00    -0.269 OA
ATOM      5  C   UNL A   1      36.167  30.790  30.065  1.00  0.00     0.251 C 
ATOM      6  H   UNL A   1      34.360  31.294  29.367  1.00  0.00     0.163 HD
BRANCH   5   7
ATOM      7  C   UNL A   1      37.535  30.361  29.708  1.00  0.00     0.039 A 
ATOM      8  C   UNL A   1      37.955  30.343  28.374  1.00  0.00     0.014 A 
ATOM      9  C   UNL A   1      38.417  29.995  30.727  1.00  0.00     0.014 A 
ATOM     10  C   UNL A   1      39.218  29.857  28.050  1.00  0.00     0.010 A 
ATOM     11  C   UNL A   1      39.709  29.576  30.405  1.00  0.00     0.010 A 
ATOM     12  C   UNL A   1      40.113  29.485  29.063  1.00  0.00    -0.014 A 
BRANCH  12  13
ATOM     13  C   UNL A   1      41.496  29.067  28.725  1.00  0.00     0.031 A 
ATOM     14  C   UNL A   1      42.609  30.072  28.654  1.00  0.00     0.074 A 
ATOM     15  C   UNL A   1      41.731  27.773  28.432  1.00  0.00     0.049 A 
ATOM     16  N   UNL A   1      43.853  29.898  28.289  1.00  0.00    -0.248 NA
ATOM     17  C   UNL A   1      42.279  31.455  29.032  1.00  0.00     0.031 C 
ATOM     18  C   UNL A   1      40.727  26.708  28.464  1.00  0.00     0.029 A 
ATOM     19  N   UNL A   1      42.880  27.138  28.035  1.00  0.00    -0.354 N 
ATOM     20  C   UNL A   1      44.451  31.150  28.365  1.00  0.00     0.074 A 
ATOM     21  C   UNL A   1      43.424  32.078  28.791  1.00  0.00     0.031 C 
ATOM     22  C   UNL A   1      41.303  25.552  28.103  1.00  0.00     0.029 A 
ATOM     23  C   UNL A   1      42.696  25.806  27.753  1.00  0.00     0.049 A 
ATOM     24  H   UNL A   1      43.750  27.592  27.958  1.00  0.00     0.167 HD
ATOM     25  C   UNL A   1      45.735  31.493  28.097  1.00  0.00     0.031 A 
ATOM     26  C   UNL A   1      43.537  24.893  27.231  1.00  0.00     0.031 A 
ATOM     27  C   UNL A   1      46.739  30.561  27.654  1.00  0.00     0.049 A 
ATOM     28  C   UNL A   1      44.943  25.298  26.901  1.00  0.00     0.074 A 
ATOM     29  C   UNL A   1      48.078  30.799  27.395  1.00  0.00     0.029 A 
ATOM     30  N   UNL A   1      46.513  29.218  27.384  1.00  0.00    -0.354 N 
ATOM     31  N   UNL A   1      45.506  26.476  27.027  1.00  0.00    -0.248 NA
ATOM     32  C   UNL A   1      45.830  24.257  26.367  1.00  0.00     0.031 C 
ATOM     33  C   UNL A   1      48.644  29.616  26.907  1.00  0.00     0.029 A 
ATOM     34  C   UNL A   1      47.679  28.622  26.930  1.00  0.00     0.049 A 
ATOM     35  H   UNL A   1      45.651  28.756  27.498  1.00  0.00     0.167 HD
ATOM     36  C   UNL A   1      46.822  26.313  26.611  1.00  0.00     0.074 A 
ATOM     37  C   UNL A   1      46.971  24.922  26.234  1.00  0.00     0.031 C 
ATOM     38  C   UNL A   1      47.815  27.235  26.558  1.00  0.00     0.031 A 
BRANCH  25  39
ATOM     39  C   UNL A   1      46.106  32.948  28.228  1.00  0.00    -0.014 A 
ATOM     40  C   UNL A   1      45.882  33.863  27.183  1.00  0.00     0.010 A 
ATOM     41  C   UNL A   1      46.689  33.410  29.423  1.00  0.00     0.010 A 
ATOM     42  C   UNL A   1      46.298  35.192  27.303  1.00  0.00     0.020 A 
ATOM     43  C   UNL A   1      47.077  34.745  29.560  1.00  0.00     0.020 A 
ATOM     44  C   UNL A   1      46.906  35.622  28.487  1.00  0.00     0.054 A 
BRANCH  44  45
ATOM     45  S   UNL A   1      47.469  37.342  28.603  1.00  0.00     0.124 S 
ATOM     46  O   UNL A   1      46.868  37.768  29.865  1.00  0.00    -0.237 OA
ATOM     47  O   UNL A   1      48.924  37.203  28.618  1.00  0.00    -0.237 OA
ATOM     48  O   UNL A   1      46.917  37.971  27.407  1.00  0.00    -0.744 OA
ENDBRANCH  44  45
ENDBRANCH  25  39
BRANCH  26  49
ATOM     49  C   UNL A   1      43.034  23.517  26.977  1.00  0.00    -0.014 A 
ATOM     50  C   UNL A   1      42.678  23.110  25.681  1.00  0.00     0.010 A 
ATOM     51  C   UNL A   1      43.003  22.575  28.025  1.00  0.00     0.010 A 
ATOM     52  C   UNL A   1      42.313  21.783  25.434  1.00  0.00     0.020 A 
ATOM     53  C   UNL A   1      42.666  21.243  27.776  1.00  0.00     0.020 A 
ATOM     54  C   UNL A   1      42.321  20.855  26.480  1.00  0.00     0.054 A 
BRANCH  54  55
ATOM     55  S   UNL A   1      41.948  19.118  26.111  1.00  0.00     0.124 S 
ATOM     56  O   UNL A   1      42.255  18.465  27.379  1.00  0.00    -0.237 OA
ATOM     57  O   UNL A   1      40.534  19.170  25.752  1.00  0.00    -0.237 OA
ATOM     58  O   UNL A   1      42.852  18.802  25.007  1.00  0.00    -0.744 OA
ENDBRANCH  54  55
ENDBRANCH  26  49
BRANCH  38  59
ATOM     59  C   UNL A   1      49.177  26.773  26.113  1.00  0.00    -0.014 A 
ATOM     60  C   UNL A   1      49.617  26.956  24.792  1.00  0.00     0.010 A 
ATOM     61  C   UNL A   1      50.067  26.245  27.068  1.00  0.00     0.010 A 
ATOM     62  C   UNL A   1      50.926  26.620  24.432  1.00  0.00     0.020 A 
ATOM     63  C   UNL A   1      51.382  25.931  26.717  1.00  0.00     0.020 A 
ATOM     64  C   UNL A   1      51.803  26.119  25.400  1.00  0.00     0.054 A 
BRANCH  64  65
ATOM     65  S   UNL A   1      53.524  25.783  24.931  1.00  0.00     0.124 S 
ATOM     66  O   UNL A   1      54.254  26.228  26.115  1.00  0.00    -0.237 OA
ATOM     67  O   UNL A   1      53.516  24.340  24.703  1.00  0.00    -0.237 OA
ATOM     68  O   UNL A   1      53.723  26.597  23.733  1.00  0.00    -0.744 OA
ENDBRANCH  64  65
ENDBRANCH  38  59
ENDBRANCH  12  13
ENDBRANCH   5   7
ENDBRANCH   2   3
ENDBRANCH   1   2
BRANCH   1  69
ATOM     69  C   UNL A   1      33.370  28.652  27.226  1.00  0.00     0.002 C 
BRANCH  69  70
ATOM     70  C   UNL A   1      32.516  29.915  27.077  1.00  0.00     0.002 C 
BRANCH  70  71
ATOM     71  C   UNL A   1      31.809  30.073  25.728  1.00  0.00     0.021 C 
BRANCH  71  72
ATOM     72  C   UNL A   1      32.611  29.587  24.524  1.00  0.00     0.116 C 
BRANCH  72  73
ATOM     73  N   UNL A   1      31.749  29.234  23.406  1.00  0.00    -0.352 N 
ATOM     74  C   UNL A   1      31.200  28.021  23.096  1.00  0.00     0.251 C 
ATOM     75  H   UNL A   1      31.532  29.970  22.789  1.00  0.00     0.163 HD
ATOM     76  O   UNL A   1      30.646  27.839  22.011  1.00  0.00    -0.269 OA
BRANCH  74  77
ATOM     77  C   UNL A   1      31.276  26.914  24.065  1.00  0.00     0.043 A 
ATOM     78  C   UNL A   1      30.154  26.557  24.818  1.00  0.00     0.053 A 
ATOM     79  C   UNL A   1      32.474  26.199  24.185  1.00  0.00     0.023 A 
ATOM     80  C   UNL A   1      30.266  25.528  25.740  1.00  0.00     0.124 A 
ATOM     81  C   UNL A   1      32.568  25.144  25.101  1.00  0.00    -0.005 A 
ATOM     82  F   UNL A   1      29.208  25.200  26.491  1.00  0.00    -0.207 F 
ATOM     83  C   UNL A   1      31.456  24.825  25.892  1.00  0.00     0.048 A 
BRANCH  81  84
ATOM     84  C   UNL A   1      33.777  24.327  25.200  1.00  0.00     0.036 A 
ATOM     85  C   UNL A   1      35.033  24.731  25.599  1.00  0.00     0.029 A 
ATOM     86  S   UNL A   1      33.763  22.675  24.773  1.00  0.00    -0.135 S 
ATOM     87  C   UNL A   1      36.007  23.683  25.556  1.00  0.00    -0.007 A 
ATOM     88  C   UNL A   1      35.443  22.487  25.108  1.00  0.00     0.035 A 
ATOM     89  C   UNL A   1      37.384  23.699  25.884  1.00  0.00     0.009 A 
ATOM     90  C   UNL A   1      36.216  21.317  24.975  1.00  0.00     0.019 A 
ATOM     91  C   UNL A   1      38.154  22.541  25.753  1.00  0.00     0.001 A 
ATOM     92  C   UNL A   1      37.574  21.364  25.302  1.00  0.00     0.001 A 
ENDBRANCH  81  84
ENDBRANCH  74  77
ENDBRANCH  72  73
ENDBRANCH  71  72
ENDBRANCH  70  71
ENDBRANCH  69  70
ENDBRANCH   1  69
TORSDOF 17
ENDMDL
MODEL 3
REMARK VINA RESULT:     -10.8      4.772      5.962
REMARK SMILES O=C(NCCCCCCNC(=O)c1cc(F)cc(-c2cc3ccccc3s2)c1)c1ccc(-c2c3nc(c(-c4ccc(S(=O)(=O)[O-])cc4)c4ccc([nH]4)c(-c4ccc(S(=O)(=O)[O-])cc4)c4nc(c(-c5ccc(S(=O)(=O)[O-])cc5)c5ccc2[nH]5)C=C4)C=C3)cc1
REMARK SMILES IDX 5 1 4 2 3 3 1 4 2 5 29 7 30 8 88 9 31 10 87 11 32 12 33 13
REMARK SMILES IDX 34 14 81 15 35 16 86 17 80 18 82 19 36 20 85 21 79 22 78 23
REMARK SMILES IDX 37 25 67 26 48 27 66 28 49 29 52 30 65 31 83 32 50 33 51 34
REMARK SMILES IDX 64 36 84 37 53 38 38 39 39 40 47 41 40 42 46 43 41 44 42 45
REMARK SMILES IDX 43 46 44 47 45 48 68 49 69 50 77 51 70 52 76 53 71 54 72 55
REMARK SMILES IDX 73 56 74 57 75 58 54 59 55 60 63 61 56 62 62 63 57 64 58 65
REMARK SMILES IDX 59 66 60 67 61 68 6 69 7 70 8 71 9 72 10 73 11 74 12 76
REMARK SMILES IDX 13 77 14 78 28 79 15 80 18 81 16 82 17 83 19 84 20 85 27 86
REMARK SMILES IDX 21 87 26 88 22 89 25 90 23 91 24 92
REMARK H PARENT 3 6 82 24 52 35 10 75
REMARK Flexibility Score: inf
ROOT
ATOM      1  C   UNL A   1      37.619  23.624  26.088  1.00  0.00     0.021 C 
ENDROOT
BRANCH   1   2
ATOM      2  C   UNL A   1      38.853  24.016  26.892  1.00  0.00     0.116 C 
BRANCH   2   3
ATOM      3  N   UNL A   1      40.011  24.237  26.042  1.00  0.00    -0.352 N 
ATOM      4  O   UNL A   1      41.698  25.407  25.115  1.00  0.00    -0.269 OA
ATOM      5  C   UNL A   1      40.896  25.285  26.039  1.00  0.00     0.251 C 
ATOM      6  H   UNL A   1      40.185  23.535  25.374  1.00  0.00     0.163 HD
BRANCH   5   7
ATOM      7  C   UNL A   1      40.870  26.272  27.138  1.00  0.00     0.039 A 
ATOM      8  C   UNL A   1      41.608  27.457  27.054  1.00  0.00     0.014 A 
ATOM      9  C   UNL A   1      40.075  26.016  28.257  1.00  0.00     0.014 A 
ATOM     10  C   UNL A   1      41.637  28.335  28.134  1.00  0.00     0.010 A 
ATOM     11  C   UNL A   1      40.049  26.933  29.310  1.00  0.00     0.010 A 
ATOM     12  C   UNL A   1      40.845  28.090  29.264  1.00  0.00    -0.014 A 
BRANCH  12  13
ATOM     13  C   UNL A   1      40.793  29.076  30.371  1.00  0.00     0.031 A 
ATOM     14  C   UNL A   1      41.728  28.971  31.541  1.00  0.00     0.074 A 
ATOM     15  C   UNL A   1      39.858  30.045  30.337  1.00  0.00     0.049 A 
ATOM     16  N   UNL A   1      41.763  29.689  32.634  1.00  0.00    -0.248 NA
ATOM     17  C   UNL A   1      42.749  27.913  31.481  1.00  0.00     0.031 C 
ATOM     18  C   UNL A   1      38.893  30.244  29.253  1.00  0.00     0.029 A 
ATOM     19  N   UNL A   1      39.554  31.031  31.240  1.00  0.00    -0.354 N 
ATOM     20  C   UNL A   1      42.789  29.157  33.406  1.00  0.00     0.074 A 
ATOM     21  C   UNL A   1      43.336  28.041  32.664  1.00  0.00     0.031 C 
ATOM     22  C   UNL A   1      38.105  31.286  29.554  1.00  0.00     0.029 A 
ATOM     23  C   UNL A   1      38.466  31.787  30.876  1.00  0.00     0.049 A 
ATOM     24  H   UNL A   1      40.063  31.181  32.069  1.00  0.00     0.167 HD
ATOM     25  C   UNL A   1      43.228  29.559  34.624  1.00  0.00     0.031 A 
ATOM     26  C   UNL A   1      37.800  32.749  31.543  1.00  0.00     0.031 A 
ATOM     27  C   UNL A   1      42.660  30.659  35.360  1.00  0.00     0.049 A 
ATOM     28  C   UNL A   1      38.272  33.154  32.907  1.00  0.00     0.074 A 
ATOM     29  C   UNL A   1      43.057  31.173  36.581  1.00  0.00     0.029 A 
ATOM     30  N   UNL A   1      41.560  31.403  34.953  1.00  0.00    -0.354 N 
ATOM     31  N   UNL A   1      39.276  32.674  33.601  1.00  0.00    -0.248 NA
ATOM     32  C   UNL A   1      37.533  34.232  33.577  1.00  0.00     0.031 C 
ATOM     33  C   UNL A   1      42.159  32.183  36.943  1.00  0.00     0.029 A 
ATOM     34  C   UNL A   1      41.245  32.349  35.915  1.00  0.00     0.049 A 
ATOM     35  H   UNL A   1      41.075  31.276  34.106  1.00  0.00     0.167 HD
ATOM     36  C   UNL A   1      39.306  33.407  34.781  1.00  0.00     0.074 A 
ATOM     37  C   UNL A   1      38.222  34.366  34.704  1.00  0.00     0.031 C 
ATOM     38  C   UNL A   1      40.163  33.299  35.826  1.00  0.00     0.031 A 
BRANCH  25  39
ATOM     39  C   UNL A   1      44.345  28.768  35.255  1.00  0.00    -0.014 A 
ATOM     40  C   UNL A   1      45.696  29.089  35.027  1.00  0.00     0.010 A 
ATOM     41  C   UNL A   1      44.036  27.684  36.098  1.00  0.00     0.010 A 
ATOM     42  C   UNL A   1      46.713  28.297  35.569  1.00  0.00     0.020 A 
ATOM     43  C   UNL A   1      45.050  26.910  36.669  1.00  0.00     0.020 A 
ATOM     44  C   UNL A   1      46.383  27.205  36.377  1.00  0.00     0.054 A 
BRANCH  44  45
ATOM     45  S   UNL A   1      47.721  26.173  37.038  1.00  0.00     0.124 S 
ATOM     46  O   UNL A   1      47.291  25.979  38.421  1.00  0.00    -0.237 OA
ATOM     47  O   UNL A   1      47.659  24.985  36.190  1.00  0.00    -0.237 OA
ATOM     48  O   UNL A   1      48.914  26.997  36.866  1.00  0.00    -0.744 OA
ENDBRANCH  44  45
ENDBRANCH  25  39
BRANCH  26  49
ATOM     49  C   UNL A   1      36.600  33.361  30.910  1.00  0.00    -0.014 A 
ATOM     50  C   UNL A   1      35.406  33.512  31.633  1.00  0.00     0.010 A 
ATOM     51  C   UNL A   1      36.684  33.885  29.605  1.00  0.00     0.010 A 
ATOM     52  C   UNL A   1      34.321  34.189  31.068  1.00  0.00     0.020 A 
ATOM     53  C   UNL A   1      35.612  34.585  29.048  1.00  0.00     0.020 A 
ATOM     54  C   UNL A   1      34.435  34.731  29.783  1.00  0.00     0.054 A 
BRANCH  54  55
ATOM     55  S   UNL A   1      33.051  35.697  29.116  1.00  0.00     0.124 S 
ATOM     56  O   UNL A   1      33.741  36.785  28.432  1.00  0.00    -0.237 OA
ATOM     57  O   UNL A   1      32.381  34.729  28.252  1.00  0.00    -0.237 OA
ATOM     58  O   UNL A   1      32.297  36.082  30.308  1.00  0.00    -0.744 OA
ENDBRANCH  54  55
ENDBRANCH  26  49
BRANCH  38  59
ATOM     59  C   UNL A   1      40.001  34.266  36.969  1.00  0.00    -0.014 A 
ATOM     60  C   UNL A   1      40.465  35.589  36.880  1.00  0.00     0.010 A 
ATOM     61  C   UNL A   1      39.274  33.866  38.106  1.00  0.00     0.010 A 
ATOM     62  C   UNL A   1      40.203  36.497  37.911  1.00  0.00     0.020 A 
ATOM     63  C   UNL A   1      38.989  34.778  39.126  1.00  0.00     0.020 A 
ATOM     64  C   UNL A   1      39.458  36.088  39.022  1.00  0.00     0.054 A 
BRANCH  64  65
ATOM     65  S   UNL A   1      39.048  37.311  40.299  1.00  0.00     0.124 S 
ATOM     66  O   UNL A   1      38.281  36.513  41.250  1.00  0.00    -0.237 OA
ATOM     67  O   UNL A   1      40.365  37.745  40.760  1.00  0.00    -0.237 OA
ATOM     68  O   UNL A   1      38.283  38.325  39.575  1.00  0.00    -0.744 OA
ENDBRANCH  64  65
ENDBRANCH  38  59
ENDBRANCH  12  13
ENDBRANCH   5   7
ENDBRANCH   2   3
ENDBRANCH   1   2
BRANCH   1  69
ATOM     69  C   UNL A   1      37.577  22.160  25.645  1.00  0.00     0.002 C 
BRANCH  69  70
ATOM     70  C   UNL A   1      36.525  21.828  24.581  1.00  0.00     0.002 C 
BRANCH  70  71
ATOM     71  C   UNL A   1      36.213  22.956  23.595  1.00  0.00     0.021 C 
BRANCH  71  72
ATOM     72  C   UNL A   1      34.758  23.419  23.590  1.00  0.00     0.116 C 
BRANCH  72  73
ATOM     73  N   UNL A   1      33.913  22.538  22.801  1.00  0.00    -0.352 N 
ATOM     74  C   UNL A   1      32.568  22.316  22.908  1.00  0.00     0.251 C 
ATOM     75  H   UNL A   1      34.372  22.032  22.092  1.00  0.00     0.163 HD
ATOM     76  O   UNL A   1      32.029  21.397  22.288  1.00  0.00    -0.269 OA
BRANCH  74  77
ATOM     77  C   UNL A   1      31.751  23.179  23.778  1.00  0.00     0.043 A 
ATOM     78  C   UNL A   1      31.510  22.819  25.106  1.00  0.00     0.053 A 
ATOM     79  C   UNL A   1      31.260  24.387  23.266  1.00  0.00     0.023 A 
ATOM     80  C   UNL A   1      30.715  23.640  25.890  1.00  0.00     0.124 A 
ATOM     81  C   UNL A   1      30.480  25.222  24.074  1.00  0.00    -0.005 A 
ATOM     82  F   UNL A   1      30.450  23.287  27.153  1.00  0.00    -0.207 F 
ATOM     83  C   UNL A   1      30.197  24.829  25.389  1.00  0.00     0.048 A 
BRANCH  81  84
ATOM     84  C   UNL A   1      30.014  26.524  23.599  1.00  0.00     0.036 A 
ATOM     85  C   UNL A   1      28.751  27.061  23.728  1.00  0.00     0.029 A 
ATOM     86  S   UNL A   1      31.052  27.577  22.747  1.00  0.00    -0.135 S 
ATOM     87  C   UNL A   1      28.618  28.352  23.124  1.00  0.00    -0.007 A 
ATOM     88  C   UNL A   1      29.817  28.759  22.534  1.00  0.00     0.035 A 
ATOM     89  C   UNL A   1      27.500  29.216  23.045  1.00  0.00     0.009 A 
ATOM     90  C   UNL A   1      29.922  29.996  21.867  1.00  0.00     0.019 A 
ATOM     91  C   UNL A   1      27.601  30.443  22.386  1.00  0.00     0.001 A 
ATOM     92  C   UNL A   1      28.800  30.827  21.802  1.00  0.00     0.001 A 
ENDBRANCH  81  84
ENDBRANCH  74  77
ENDBRANCH  72  73
ENDBRANCH  71  72
ENDBRANCH  70  71
ENDBRANCH  69  70
ENDBRANCH   1  69
TORSDOF 17
ENDMDL
