MODEL 1
REMARK VINA RESULT:     -10.4      0.000      0.000
REMARK SMILES N#CCSCC(=O)N1Cc2ccccc2C[C@@H]1C(=O)NCCCCCCNC(=O)c1ccc(-c2c3nc(c(-c4ccc(S(=O)(=O)[O-])cc4)c4ccc([nH]4)c(-c4ccc(S(=O)(=O)[O-])cc4)c4nc(c(-c5ccc(S(=O)(=O)[O-])cc5)c5ccc2[nH]5)C=C4)C=C3)cc1
REMARK SMILES IDX 22 1 21 2 20 3 18 4 19 5 17 7 8 8 9 9 10 10 16 11 11 12
REMARK SMILES IDX 15 13 12 14 14 15 13 16 6 17 7 18 5 19 4 20 3 21 2 22 1 23
REMARK SMILES IDX 23 24 24 25 25 26 26 27 27 28 28 29 29 31 30 32 31 33 89 34
REMARK SMILES IDX 32 35 88 36 33 37 34 38 35 39 82 40 36 41 87 42 81 43 83 44
REMARK SMILES IDX 37 45 86 46 80 47 79 48 38 50 68 51 49 52 67 53 50 54 53 55
REMARK SMILES IDX 66 56 84 57 51 58 52 59 65 61 85 62 54 63 39 64 40 65 48 66
REMARK SMILES IDX 41 67 47 68 42 69 43 70 44 71 45 72 46 73 69 74 70 75 78 76
REMARK SMILES IDX 71 77 77 78 72 79 73 80 74 81 75 82 76 83 55 84 56 85 64 86
REMARK SMILES IDX 57 87 63 88 58 89 59 90 60 91 61 92 62 93
REMARK H PARENT 20 6 27 30 83 49 53 60
REMARK Flexibility Score: inf
ROOT
ATOM      1  C   UNL A   1      37.162  23.436  24.961  1.00  0.00     0.021 C 
ENDROOT
BRANCH   1   2
ATOM      2  C   UNL A   1      35.912  24.054  25.577  1.00  0.00     0.116 C 
BRANCH   2   3
ATOM      3  N   UNL A   1      34.878  24.310  24.585  1.00  0.00    -0.354 N 
ATOM      4  C   UNL A   1      33.643  24.887  24.627  1.00  0.00     0.243 C 
ATOM      5  O   UNL A   1      33.064  24.968  23.534  1.00  0.00    -0.273 OA
ATOM      6  H   UNL A   1      35.125  23.997  23.684  1.00  0.00     0.163 HD
BRANCH   4   7
ATOM      7  C   UNL A   1      32.898  25.359  25.917  1.00  0.00     0.179 C 
ATOM      8  N   UNL A   1      31.481  24.984  26.026  1.00  0.00    -0.325 N 
ATOM      9  C   UNL A   1      30.475  26.039  25.728  1.00  0.00     0.156 C 
ATOM     10  C   UNL A   1      31.000  27.168  24.863  1.00  0.00    -0.025 A 
ATOM     11  C   UNL A   1      33.143  26.870  26.065  1.00  0.00     0.071 C 
ATOM     12  C   UNL A   1      30.207  27.798  23.899  1.00  0.00     0.006 A 
ATOM     13  C   UNL A   1      32.327  27.592  25.036  1.00  0.00    -0.040 A 
ATOM     14  C   UNL A   1      30.752  28.800  23.090  1.00  0.00     0.000 A 
ATOM     15  C   UNL A   1      32.866  28.602  24.237  1.00  0.00     0.004 A 
ATOM     16  C   UNL A   1      32.079  29.196  23.255  1.00  0.00     0.000 A 
BRANCH   8  17
ATOM     17  C   UNL A   1      31.018  23.705  26.309  1.00  0.00     0.233 C 
ATOM     18  O   UNL A   1      30.331  23.530  27.326  1.00  0.00    -0.274 OA
BRANCH  17  19
ATOM     19  C   UNL A   1      31.439  22.442  25.551  1.00  0.00     0.170 C 
BRANCH  19  20
ATOM     20  S   UNL A   1      32.919  21.491  25.980  1.00  0.00    -0.137 SA
BRANCH  20  21
ATOM     21  C   UNL A   1      33.047  20.317  24.600  1.00  0.00     0.189 C 
BRANCH  21  22
ATOM     22  C   UNL A   1      32.669  18.894  24.977  1.00  0.00     0.073 C 
ATOM     23  N   UNL A   1      32.356  17.713  25.289  1.00  0.00    -0.197 NA
ENDBRANCH  21  22
ENDBRANCH  20  21
ENDBRANCH  19  20
ENDBRANCH  17  19
ENDBRANCH   8  17
ENDBRANCH   4   7
ENDBRANCH   2   3
ENDBRANCH   1   2
BRANCH   1  24
ATOM     24  C   UNL A   1      36.907  22.149  24.176  1.00  0.00     0.002 C 
BRANCH  24  25
ATOM     25  C   UNL A   1      36.896  20.862  25.010  1.00  0.00     0.002 C 
BRANCH  25  26
ATOM     26  C   UNL A   1      38.144  19.982  24.894  1.00  0.00     0.021 C 
BRANCH  26  27
ATOM     27  C   UNL A   1      39.320  20.402  25.773  1.00  0.00     0.116 C 
BRANCH  27  28
ATOM     28  N   UNL A   1      40.291  19.331  25.939  1.00  0.00    -0.352 N 
ATOM     29  C   UNL A   1      41.648  19.400  26.119  1.00  0.00     0.251 C 
ATOM     30  H   UNL A   1      39.918  18.420  25.917  1.00  0.00     0.163 HD
ATOM     31  O   UNL A   1      42.328  18.376  26.036  1.00  0.00    -0.269 OA
BRANCH  29  32
ATOM     32  C   UNL A   1      42.298  20.697  26.401  1.00  0.00     0.039 A 
ATOM     33  C   UNL A   1      42.804  21.446  25.336  1.00  0.00     0.014 A 
ATOM     34  C   UNL A   1      42.426  21.165  27.712  1.00  0.00     0.014 A 
ATOM     35  C   UNL A   1      43.382  22.693  25.580  1.00  0.00     0.010 A 
ATOM     36  C   UNL A   1      42.941  22.439  27.947  1.00  0.00     0.010 A 
ATOM     37  C   UNL A   1      43.424  23.215  26.883  1.00  0.00    -0.014 A 
BRANCH  37  38
ATOM     38  C   UNL A   1      43.951  24.579  27.147  1.00  0.00     0.031 A 
ATOM     39  C   UNL A   1      43.022  25.693  27.546  1.00  0.00     0.074 A 
ATOM     40  C   UNL A   1      45.265  24.826  26.967  1.00  0.00     0.049 A 
ATOM     41  N   UNL A   1      43.295  26.953  27.770  1.00  0.00    -0.248 NA
ATOM     42  C   UNL A   1      41.597  25.354  27.690  1.00  0.00     0.031 C 
ATOM     43  C   UNL A   1      46.261  23.840  26.541  1.00  0.00     0.029 A 
ATOM     44  N   UNL A   1      45.987  25.984  27.111  1.00  0.00    -0.354 N 
ATOM     45  C   UNL A   1      42.080  27.559  28.068  1.00  0.00     0.074 A 
ATOM     46  C   UNL A   1      41.061  26.538  27.948  1.00  0.00     0.031 C 
ATOM     47  C   UNL A   1      47.467  24.428  26.486  1.00  0.00     0.029 A 
ATOM     48  C   UNL A   1      47.325  25.840  26.828  1.00  0.00     0.049 A 
ATOM     49  H   UNL A   1      45.585  26.838  27.392  1.00  0.00     0.167 HD
ATOM     50  C   UNL A   1      41.836  28.843  28.424  1.00  0.00     0.031 A 
ATOM     51  C   UNL A   1      48.326  26.741  26.830  1.00  0.00     0.031 A 
ATOM     52  C   UNL A   1      42.854  29.852  28.545  1.00  0.00     0.049 A 
ATOM     53  C   UNL A   1      48.027  28.165  27.214  1.00  0.00     0.074 A 
ATOM     54  C   UNL A   1      42.716  31.168  28.954  1.00  0.00     0.029 A 
ATOM     55  N   UNL A   1      44.197  29.664  28.253  1.00  0.00    -0.354 N 
ATOM     56  N   UNL A   1      46.881  28.701  27.561  1.00  0.00    -0.248 NA
ATOM     57  C   UNL A   1      49.158  29.102  27.217  1.00  0.00     0.031 C 
ATOM     58  C   UNL A   1      43.964  31.791  28.853  1.00  0.00     0.029 A 
ATOM     59  C   UNL A   1      44.892  30.847  28.444  1.00  0.00     0.049 A 
ATOM     60  H   UNL A   1      44.597  28.817  27.954  1.00  0.00     0.167 HD
ATOM     61  C   UNL A   1      47.158  30.032  27.849  1.00  0.00     0.074 A 
ATOM     62  C   UNL A   1      48.582  30.215  27.653  1.00  0.00     0.031 C 
ATOM     63  C   UNL A   1      46.310  31.016  28.242  1.00  0.00     0.031 A 
BRANCH  50  64
ATOM     64  C   UNL A   1      40.406  29.232  28.701  1.00  0.00    -0.014 A 
ATOM     65  C   UNL A   1      39.478  29.390  27.655  1.00  0.00     0.010 A 
ATOM     66  C   UNL A   1      39.972  29.396  30.029  1.00  0.00     0.010 A 
ATOM     67  C   UNL A   1      38.154  29.744  27.930  1.00  0.00     0.020 A 
ATOM     68  C   UNL A   1      38.641  29.722  30.309  1.00  0.00     0.020 A 
ATOM     69  C   UNL A   1      37.744  29.909  29.256  1.00  0.00     0.054 A 
BRANCH  69  70
ATOM     70  S   UNL A   1      36.015  30.347  29.583  1.00  0.00     0.124 S 
ATOM     71  O   UNL A   1      35.884  30.019  31.000  1.00  0.00    -0.237 OA
ATOM     72  O   UNL A   1      35.981  31.772  29.263  1.00  0.00    -0.237 OA
ATOM     73  O   UNL A   1      35.260  29.489  28.673  1.00  0.00    -0.744 OA
ENDBRANCH  69  70
ENDBRANCH  50  64
BRANCH  51  74
ATOM     74  C   UNL A   1      49.707  26.321  26.467  1.00  0.00    -0.014 A 
ATOM     75  C   UNL A   1      50.568  25.777  27.437  1.00  0.00     0.010 A 
ATOM     76  C   UNL A   1      50.164  26.448  25.142  1.00  0.00     0.010 A 
ATOM     77  C   UNL A   1      51.867  25.389  27.094  1.00  0.00     0.020 A 
ATOM     78  C   UNL A   1      51.452  26.033  24.789  1.00  0.00     0.020 A 
ATOM     79  C   UNL A   1      52.299  25.518  25.771  1.00  0.00     0.054 A 
BRANCH  79  80
ATOM     80  S   UNL A   1      53.972  24.963  25.341  1.00  0.00     0.124 S 
ATOM     81  O   UNL A   1      54.672  25.099  26.614  1.00  0.00    -0.237 OA
ATOM     82  O   UNL A   1      53.743  23.595  24.885  1.00  0.00    -0.237 OA
ATOM     83  O   UNL A   1      54.385  25.899  24.297  1.00  0.00    -0.744 OA
ENDBRANCH  79  80
ENDBRANCH  51  74
BRANCH  63  84
ATOM     84  C   UNL A   1      46.902  32.374  28.515  1.00  0.00    -0.014 A 
ATOM     85  C   UNL A   1      46.977  33.355  27.511  1.00  0.00     0.010 A 
ATOM     86  C   UNL A   1      47.344  32.687  29.814  1.00  0.00     0.010 A 
ATOM     87  C   UNL A   1      47.512  34.615  27.793  1.00  0.00     0.020 A 
ATOM     88  C   UNL A   1      47.851  33.955  30.107  1.00  0.00     0.020 A 
ATOM     89  C   UNL A   1      47.945  34.907  29.090  1.00  0.00     0.054 A 
BRANCH  89  90
ATOM     90  S   UNL A   1      48.596  36.564  29.440  1.00  0.00     0.124 S 
ATOM     91  O   UNL A   1      48.976  36.451  30.845  1.00  0.00    -0.237 OA
ATOM     92  O   UNL A   1      49.705  36.678  28.496  1.00  0.00    -0.237 OA
ATOM     93  O   UNL A   1      47.462  37.445  29.170  1.00  0.00    -0.744 OA
ENDBRANCH  89  90
ENDBRANCH  63  84
ENDBRANCH  37  38
ENDBRANCH  29  32
ENDBRANCH  27  28
ENDBRANCH  26  27
ENDBRANCH  25  26
ENDBRANCH  24  25
ENDBRANCH   1  24
TORSDOF 21
ENDMDL
MODEL 2
REMARK VINA RESULT:     -10.2      6.400     11.156
REMARK SMILES N#CCSCC(=O)N1Cc2ccccc2C[C@@H]1C(=O)NCCCCCCNC(=O)c1ccc(-c2c3nc(c(-c4ccc(S(=O)(=O)[O-])cc4)c4ccc([nH]4)c(-c4ccc(S(=O)(=O)[O-])cc4)c4nc(c(-c5ccc(S(=O)(=O)[O-])cc5)c5ccc2[nH]5)C=C4)C=C3)cc1
REMARK SMILES IDX 22 1 21 2 20 3 18 4 19 5 17 7 8 8 9 9 10 10 16 11 11 12
REMARK SMILES IDX 15 13 12 14 14 15 13 16 6 17 7 18 5 19 4 20 3 21 2 22 1 23
REMARK SMILES IDX 23 24 24 25 25 26 26 27 27 28 28 29 29 31 30 32 31 33 89 34
REMARK SMILES IDX 32 35 88 36 33 37 34 38 35 39 82 40 36 41 87 42 81 43 83 44
REMARK SMILES IDX 37 45 86 46 80 47 79 48 38 50 68 51 49 52 67 53 50 54 53 55
REMARK SMILES IDX 66 56 84 57 51 58 52 59 65 61 85 62 54 63 39 64 40 65 48 66
REMARK SMILES IDX 41 67 47 68 42 69 43 70 44 71 45 72 46 73 69 74 70 75 78 76
REMARK SMILES IDX 71 77 77 78 72 79 73 80 74 81 75 82 76 83 55 84 56 85 64 86
REMARK SMILES IDX 57 87 63 88 58 89 59 90 60 91 61 92 62 93
REMARK H PARENT 20 6 27 30 83 49 53 60
REMARK Flexibility Score: inf
ROOT
ATOM      1  C   UNL A   1      34.582  23.665  25.049  1.00  0.00     0.021 C 
ENDROOT
BRANCH   1   2
ATOM      2  C   UNL A   1      34.180  24.986  25.695  1.00  0.00     0.116 C 
BRANCH   2   3
ATOM      3  N   UNL A   1      34.320  26.110  24.781  1.00  0.00    -0.354 N 
ATOM      4  C   UNL A   1      33.577  27.225  24.526  1.00  0.00     0.243 C 
ATOM      5  O   UNL A   1      34.061  27.997  23.686  1.00  0.00    -0.273 OA
ATOM      6  H   UNL A   1      35.130  26.054  24.224  1.00  0.00     0.163 HD
BRANCH   4   7
ATOM      7  C   UNL A   1      32.172  27.546  25.131  1.00  0.00     0.179 C 
ATOM      8  N   UNL A   1      31.471  28.710  24.571  1.00  0.00    -0.325 N 
ATOM      9  C   UNL A   1      31.488  29.962  25.373  1.00  0.00     0.156 C 
ATOM     10  C   UNL A   1      32.629  30.045  26.367  1.00  0.00    -0.025 A 
ATOM     11  C   UNL A   1      32.331  27.605  26.660  1.00  0.00     0.071 C 
ATOM     12  C   UNL A   1      33.280  31.248  26.656  1.00  0.00     0.006 A 
ATOM     13  C   UNL A   1      33.044  28.873  27.019  1.00  0.00    -0.040 A 
ATOM     14  C   UNL A   1      34.362  31.265  27.542  1.00  0.00     0.000 A 
ATOM     15  C   UNL A   1      34.115  28.893  27.915  1.00  0.00     0.004 A 
ATOM     16  C   UNL A   1      34.781  30.089  28.166  1.00  0.00     0.000 A 
BRANCH   8  17
ATOM     17  C   UNL A   1      30.866  28.745  23.321  1.00  0.00     0.233 C 
ATOM     18  O   UNL A   1      31.572  28.943  22.321  1.00  0.00    -0.274 OA
BRANCH  17  19
ATOM     19  C   UNL A   1      29.351  28.735  23.089  1.00  0.00     0.170 C 
BRANCH  19  20
ATOM     20  S   UNL A   1      28.341  30.236  23.161  1.00  0.00    -0.137 SA
BRANCH  20  21
ATOM     21  C   UNL A   1      28.076  30.618  21.405  1.00  0.00     0.189 C 
BRANCH  21  22
ATOM     22  C   UNL A   1      27.858  32.097  21.131  1.00  0.00     0.073 C 
ATOM     23  N   UNL A   1      27.677  33.324  20.903  1.00  0.00    -0.197 NA
ENDBRANCH  21  22
ENDBRANCH  20  21
ENDBRANCH  19  20
ENDBRANCH  17  19
ENDBRANCH   8  17
ENDBRANCH   4   7
ENDBRANCH   2   3
ENDBRANCH   1   2
BRANCH   1  24
ATOM     24  C   UNL A   1      36.013  23.637  24.509  1.00  0.00     0.002 C 
BRANCH  24  25
ATOM     25  C   UNL A   1      37.073  23.113  25.485  1.00  0.00     0.002 C 
BRANCH  25  26
ATOM     26  C   UNL A   1      38.001  24.169  26.093  1.00  0.00     0.021 C 
BRANCH  26  27
ATOM     27  C   UNL A   1      39.164  23.618  26.915  1.00  0.00     0.116 C 
BRANCH  27  28
ATOM     28  N   UNL A   1      40.448  23.848  26.272  1.00  0.00    -0.352 N 
ATOM     29  C   UNL A   1      41.298  24.918  26.372  1.00  0.00     0.251 C 
ATOM     30  H   UNL A   1      40.752  23.127  25.675  1.00  0.00     0.163 HD
ATOM     31  O   UNL A   1      42.245  25.021  25.590  1.00  0.00    -0.269 OA
BRANCH  29  32
ATOM     32  C   UNL A   1      41.076  25.954  27.402  1.00  0.00     0.039 A 
ATOM     33  C   UNL A   1      40.128  25.722  28.401  1.00  0.00     0.014 A 
ATOM     34  C   UNL A   1      41.786  27.158  27.374  1.00  0.00     0.014 A 
ATOM     35  C   UNL A   1      39.937  26.671  29.408  1.00  0.00     0.010 A 
ATOM     36  C   UNL A   1      41.644  28.072  28.416  1.00  0.00     0.010 A 
ATOM     37  C   UNL A   1      40.718  27.838  29.443  1.00  0.00    -0.014 A 
BRANCH  37  38
ATOM     38  C   UNL A   1      40.592  28.812  30.558  1.00  0.00     0.031 A 
ATOM     39  C   UNL A   1      41.460  28.690  31.781  1.00  0.00     0.074 A 
ATOM     40  C   UNL A   1      39.649  29.774  30.490  1.00  0.00     0.049 A 
ATOM     41  N   UNL A   1      41.458  29.418  32.868  1.00  0.00    -0.248 NA
ATOM     42  C   UNL A   1      42.442  27.595  31.794  1.00  0.00     0.031 C 
ATOM     43  C   UNL A   1      38.718  29.971  29.377  1.00  0.00     0.029 A 
ATOM     44  N   UNL A   1      39.313  30.763  31.382  1.00  0.00    -0.354 N 
ATOM     45  C   UNL A   1      42.424  28.864  33.699  1.00  0.00     0.074 A 
ATOM     46  C   UNL A   1      42.959  27.709  33.009  1.00  0.00     0.031 C 
ATOM     47  C   UNL A   1      37.936  31.031  29.639  1.00  0.00     0.029 A 
ATOM     48  C   UNL A   1      38.277  31.561  30.955  1.00  0.00     0.049 A 
ATOM     49  H   UNL A   1      39.769  30.888  32.244  1.00  0.00     0.167 HD
ATOM     50  C   UNL A   1      42.841  29.286  34.917  1.00  0.00     0.031 A 
ATOM     51  C   UNL A   1      37.662  32.598  31.557  1.00  0.00     0.031 A 
ATOM     52  C   UNL A   1      42.307  30.437  35.596  1.00  0.00     0.049 A 
ATOM     53  C   UNL A   1      38.131  33.038  32.916  1.00  0.00     0.074 A 
ATOM     54  C   UNL A   1      42.701  30.980  36.807  1.00  0.00     0.029 A 
ATOM     55  N   UNL A   1      41.263  31.222  35.128  1.00  0.00    -0.354 N 
ATOM     56  N   UNL A   1      39.096  32.542  33.655  1.00  0.00    -0.248 NA
ATOM     57  C   UNL A   1      37.437  34.184  33.519  1.00  0.00     0.031 C 
ATOM     58  C   UNL A   1      41.856  32.056  37.100  1.00  0.00     0.029 A 
ATOM     59  C   UNL A   1      40.979  32.224  36.041  1.00  0.00     0.049 A 
ATOM     60  H   UNL A   1      40.793  31.085  34.275  1.00  0.00     0.167 HD
ATOM     61  C   UNL A   1      39.141  33.333  34.798  1.00  0.00     0.074 A 
ATOM     62  C   UNL A   1      38.120  34.348  34.645  1.00  0.00     0.031 C 
ATOM     63  C   UNL A   1      39.956  33.228  35.877  1.00  0.00     0.031 A 
BRANCH  50  64
ATOM     64  C   UNL A   1      43.923  28.491  35.600  1.00  0.00    -0.014 A 
ATOM     65  C   UNL A   1      45.278  28.849  35.480  1.00  0.00     0.010 A 
ATOM     66  C   UNL A   1      43.576  27.397  36.415  1.00  0.00     0.010 A 
ATOM     67  C   UNL A   1      46.269  28.105  36.126  1.00  0.00     0.020 A 
ATOM     68  C   UNL A   1      44.562  26.668  37.087  1.00  0.00     0.020 A 
ATOM     69  C   UNL A   1      45.904  27.017  36.925  1.00  0.00     0.054 A 
BRANCH  69  70
ATOM     70  S   UNL A   1      47.210  26.083  37.770  1.00  0.00     0.124 S 
ATOM     71  O   UNL A   1      46.857  24.705  37.439  1.00  0.00    -0.237 OA
ATOM     72  O   UNL A   1      48.425  26.589  37.136  1.00  0.00    -0.237 OA
ATOM     73  O   UNL A   1      47.045  26.447  39.175  1.00  0.00    -0.744 OA
ENDBRANCH  69  70
ENDBRANCH  50  64
BRANCH  51  74
ATOM     74  C   UNL A   1      36.540  33.297  30.871  1.00  0.00    -0.014 A 
ATOM     75  C   UNL A   1      35.249  33.296  31.429  1.00  0.00     0.010 A 
ATOM     76  C   UNL A   1      36.762  33.982  29.662  1.00  0.00     0.010 A 
ATOM     77  C   UNL A   1      34.196  33.948  30.779  1.00  0.00     0.020 A 
ATOM     78  C   UNL A   1      35.718  34.660  29.026  1.00  0.00     0.020 A 
ATOM     79  C   UNL A   1      34.439  34.627  29.583  1.00  0.00     0.054 A 
BRANCH  79  80
ATOM     80  S   UNL A   1      33.067  35.505  28.783  1.00  0.00     0.124 S 
ATOM     81  O   UNL A   1      33.769  36.516  27.999  1.00  0.00    -0.237 OA
ATOM     82  O   UNL A   1      32.419  34.445  28.016  1.00  0.00    -0.237 OA
ATOM     83  O   UNL A   1      32.286  36.015  29.908  1.00  0.00    -0.744 OA
ENDBRANCH  79  80
ENDBRANCH  51  74
BRANCH  63  84
ATOM     84  C   UNL A   1      39.799  34.255  36.968  1.00  0.00    -0.014 A 
ATOM     85  C   UNL A   1      39.122  33.955  38.163  1.00  0.00     0.010 A 
ATOM     86  C   UNL A   1      40.383  35.525  36.811  1.00  0.00     0.010 A 
ATOM     87  C   UNL A   1      39.005  34.918  39.169  1.00  0.00     0.020 A 
ATOM     88  C   UNL A   1      40.295  36.479  37.828  1.00  0.00     0.020 A 
ATOM     89  C   UNL A   1      39.594  36.174  38.995  1.00  0.00     0.054 A 
BRANCH  89  90
ATOM     90  S   UNL A   1      39.465  37.390  40.334  1.00  0.00     0.124 S 
ATOM     91  O   UNL A   1      40.867  37.692  40.607  1.00  0.00    -0.237 OA
ATOM     92  O   UNL A   1      38.699  38.469  39.714  1.00  0.00    -0.237 OA
ATOM     93  O   UNL A   1      38.766  36.667  41.394  1.00  0.00    -0.744 OA
ENDBRANCH  89  90
ENDBRANCH  63  84
ENDBRANCH  37  38
ENDBRANCH  29  32
ENDBRANCH  27  28
ENDBRANCH  26  27
ENDBRANCH  25  26
ENDBRANCH  24  25
ENDBRANCH   1  24
TORSDOF 21
ENDMDL
MODEL 3
REMARK VINA RESULT:     -10.1      2.009      8.131
REMARK SMILES N#CCSCC(=O)N1Cc2ccccc2C[C@@H]1C(=O)NCCCCCCNC(=O)c1ccc(-c2c3nc(c(-c4ccc(S(=O)(=O)[O-])cc4)c4ccc([nH]4)c(-c4ccc(S(=O)(=O)[O-])cc4)c4nc(c(-c5ccc(S(=O)(=O)[O-])cc5)c5ccc2[nH]5)C=C4)C=C3)cc1
REMARK SMILES IDX 22 1 21 2 20 3 18 4 19 5 17 7 8 8 9 9 10 10 16 11 11 12
REMARK SMILES IDX 15 13 12 14 14 15 13 16 6 17 7 18 5 19 4 20 3 21 2 22 1 23
REMARK SMILES IDX 23 24 24 25 25 26 26 27 27 28 28 29 29 31 30 32 31 33 89 34
REMARK SMILES IDX 32 35 88 36 33 37 34 38 35 39 82 40 36 41 87 42 81 43 83 44
REMARK SMILES IDX 37 45 86 46 80 47 79 48 38 50 68 51 49 52 67 53 50 54 53 55
REMARK SMILES IDX 66 56 84 57 51 58 52 59 65 61 85 62 54 63 39 64 40 65 48 66
REMARK SMILES IDX 41 67 47 68 42 69 43 70 44 71 45 72 46 73 69 74 70 75 78 76
REMARK SMILES IDX 71 77 77 78 72 79 73 80 74 81 75 82 76 83 55 84 56 85 64 86
REMARK SMILES IDX 57 87 63 88 58 89 59 90 60 91 61 92 62 93
REMARK H PARENT 20 6 27 30 83 49 53 60
REMARK Flexibility Score: inf
ROOT
ATOM      1  C   UNL A   1      34.093  27.546  25.641  1.00  0.00     0.021 C 
ENDROOT
BRANCH   1   2
ATOM      2  C   UNL A   1      33.866  26.061  25.380  1.00  0.00     0.116 C 
BRANCH   2   3
ATOM      3  N   UNL A   1      32.712  25.545  26.104  1.00  0.00    -0.354 N 
ATOM      4  C   UNL A   1      31.644  24.771  25.760  1.00  0.00     0.243 C 
ATOM      5  O   UNL A   1      30.875  24.495  26.692  1.00  0.00    -0.273 OA
ATOM      6  H   UNL A   1      32.702  25.815  27.051  1.00  0.00     0.163 HD
BRANCH   4   7
ATOM      7  C   UNL A   1      31.289  24.292  24.316  1.00  0.00     0.179 C 
ATOM      8  N   UNL A   1      32.406  24.198  23.366  1.00  0.00    -0.325 N 
ATOM      9  C   UNL A   1      32.544  25.295  22.370  1.00  0.00     0.156 C 
ATOM     10  C   UNL A   1      31.874  26.590  22.780  1.00  0.00    -0.025 A 
ATOM     11  C   UNL A   1      30.130  25.169  23.811  1.00  0.00     0.071 C 
ATOM     12  C   UNL A   1      32.420  27.841  22.477  1.00  0.00     0.006 A 
ATOM     13  C   UNL A   1      30.664  26.531  23.489  1.00  0.00    -0.040 A 
ATOM     14  C   UNL A   1      31.791  29.008  22.921  1.00  0.00     0.000 A 
ATOM     15  C   UNL A   1      30.028  27.697  23.921  1.00  0.00     0.004 A 
ATOM     16  C   UNL A   1      30.601  28.935  23.646  1.00  0.00     0.000 A 
BRANCH   8  17
ATOM     17  C   UNL A   1      33.379  23.207  23.381  1.00  0.00     0.233 C 
ATOM     18  O   UNL A   1      34.511  23.475  22.951  1.00  0.00    -0.274 OA
BRANCH  17  19
ATOM     19  C   UNL A   1      33.117  21.738  23.728  1.00  0.00     0.170 C 
BRANCH  19  20
ATOM     20  S   UNL A   1      33.951  20.891  25.094  1.00  0.00    -0.137 SA
BRANCH  20  21
ATOM     21  C   UNL A   1      34.079  19.186  24.483  1.00  0.00     0.189 C 
BRANCH  21  22
ATOM     22  C   UNL A   1      33.059  18.242  25.098  1.00  0.00     0.073 C 
ATOM     23  N   UNL A   1      32.213  17.459  25.609  1.00  0.00    -0.197 NA
ENDBRANCH  21  22
ENDBRANCH  20  21
ENDBRANCH  19  20
ENDBRANCH  17  19
ENDBRANCH   8  17
ENDBRANCH   4   7
ENDBRANCH   2   3
ENDBRANCH   1   2
BRANCH   1  24
ATOM     24  C   UNL A   1      33.064  28.186  26.573  1.00  0.00     0.002 C 
BRANCH  24  25
ATOM     25  C   UNL A   1      33.595  29.319  27.459  1.00  0.00     0.002 C 
BRANCH  25  26
ATOM     26  C   UNL A   1      35.118  29.411  27.584  1.00  0.00     0.021 C 
BRANCH  26  27
ATOM     27  C   UNL A   1      35.639  30.659  28.294  1.00  0.00     0.116 C 
BRANCH  27  28
ATOM     28  N   UNL A   1      35.570  30.536  29.742  1.00  0.00    -0.352 N 
ATOM     29  C   UNL A   1      36.508  30.074  30.627  1.00  0.00     0.251 C 
ATOM     30  H   UNL A   1      34.720  30.827  30.146  1.00  0.00     0.163 HD
ATOM     31  O   UNL A   1      36.188  29.856  31.797  1.00  0.00    -0.269 OA
BRANCH  29  32
ATOM     32  C   UNL A   1      37.895  29.827  30.183  1.00  0.00     0.039 A 
ATOM     33  C   UNL A   1      38.854  29.459  31.129  1.00  0.00     0.014 A 
ATOM     34  C   UNL A   1      38.255  29.974  28.839  1.00  0.00     0.014 A 
ATOM     35  C   UNL A   1      40.159  29.178  30.720  1.00  0.00     0.010 A 
ATOM     36  C   UNL A   1      39.539  29.627  28.423  1.00  0.00     0.010 A 
ATOM     37  C   UNL A   1      40.504  29.226  29.360  1.00  0.00    -0.014 A 
BRANCH  37  38
ATOM     38  C   UNL A   1      41.863  28.841  28.898  1.00  0.00     0.031 A 
ATOM     39  C   UNL A   1      42.959  29.868  28.809  1.00  0.00     0.074 A 
ATOM     40  C   UNL A   1      42.090  27.572  28.501  1.00  0.00     0.049 A 
ATOM     41  N   UNL A   1      44.188  29.725  28.385  1.00  0.00    -0.248 NA
ATOM     42  C   UNL A   1      42.625  31.238  29.229  1.00  0.00     0.031 C 
ATOM     43  C   UNL A   1      41.098  26.494  28.499  1.00  0.00     0.029 A 
ATOM     44  N   UNL A   1      43.226  26.977  28.013  1.00  0.00    -0.354 N 
ATOM     45  C   UNL A   1      44.770  30.984  28.474  1.00  0.00     0.074 A 
ATOM     46  C   UNL A   1      43.744  31.889  28.947  1.00  0.00     0.031 C 
ATOM     47  C   UNL A   1      41.675  25.365  28.061  1.00  0.00     0.029 A 
ATOM     48  C   UNL A   1      43.063  25.645  27.707  1.00  0.00     0.049 A 
ATOM     49  H   UNL A   1      44.077  27.456  27.893  1.00  0.00     0.167 HD
ATOM     50  C   UNL A   1      46.046  31.351  28.203  1.00  0.00     0.031 A 
ATOM     51  C   UNL A   1      43.928  24.750  27.190  1.00  0.00     0.031 A 
ATOM     52  C   UNL A   1      47.063  30.446  27.737  1.00  0.00     0.049 A 
ATOM     53  C   UNL A   1      45.335  25.186  26.882  1.00  0.00     0.074 A 
ATOM     54  C   UNL A   1      48.399  30.708  27.488  1.00  0.00     0.029 A 
ATOM     55  N   UNL A   1      46.858  29.105  27.444  1.00  0.00    -0.354 N 
ATOM     56  N   UNL A   1      45.884  26.367  27.040  1.00  0.00    -0.248 NA
ATOM     57  C   UNL A   1      46.240  24.166  26.337  1.00  0.00     0.031 C 
ATOM     58  C   UNL A   1      48.989  29.542  26.988  1.00  0.00     0.029 A 
ATOM     59  C   UNL A   1      48.036  28.536  26.988  1.00  0.00     0.049 A 
ATOM     60  H   UNL A   1      46.003  28.629  27.545  1.00  0.00     0.167 HD
ATOM     61  C   UNL A   1      47.207  26.225  26.639  1.00  0.00     0.074 A 
ATOM     62  C   UNL A   1      47.379  24.841  26.247  1.00  0.00     0.031 C 
ATOM     63  C   UNL A   1      48.193  27.156  26.598  1.00  0.00     0.031 A 
BRANCH  50  64
ATOM     64  C   UNL A   1      46.412  32.800  28.396  1.00  0.00    -0.014 A 
ATOM     65  C   UNL A   1      46.266  33.734  27.353  1.00  0.00     0.010 A 
ATOM     66  C   UNL A   1      46.865  33.245  29.652  1.00  0.00     0.010 A 
ATOM     67  C   UNL A   1      46.604  35.076  27.551  1.00  0.00     0.020 A 
ATOM     68  C   UNL A   1      47.175  34.592  29.862  1.00  0.00     0.020 A 
ATOM     69  C   UNL A   1      47.058  35.496  28.804  1.00  0.00     0.054 A 
BRANCH  69  70
ATOM     70  S   UNL A   1      47.468  37.247  29.038  1.00  0.00     0.124 S 
ATOM     71  O   UNL A   1      48.302  37.521  27.870  1.00  0.00    -0.237 OA
ATOM     72  O   UNL A   1      46.154  37.885  29.034  1.00  0.00    -0.237 OA
ATOM     73  O   UNL A   1      48.166  37.274  30.321  1.00  0.00    -0.744 OA
ENDBRANCH  69  70
ENDBRANCH  50  64
BRANCH  51  74
ATOM     74  C   UNL A   1      43.489  23.350  26.941  1.00  0.00    -0.014 A 
ATOM     75  C   UNL A   1      43.588  22.787  25.656  1.00  0.00     0.010 A 
ATOM     76  C   UNL A   1      42.982  22.565  27.993  1.00  0.00     0.010 A 
ATOM     77  C   UNL A   1      43.169  21.473  25.424  1.00  0.00     0.020 A 
ATOM     78  C   UNL A   1      42.590  21.242  27.771  1.00  0.00     0.020 A 
ATOM     79  C   UNL A   1      42.674  20.709  26.484  1.00  0.00     0.054 A 
BRANCH  79  80
ATOM     80  S   UNL A   1      42.181  18.992  26.167  1.00  0.00     0.124 S 
ATOM     81  O   UNL A   1      42.462  18.354  27.449  1.00  0.00    -0.237 OA
ATOM     82  O   UNL A   1      40.768  19.129  25.824  1.00  0.00    -0.237 OA
ATOM     83  O   UNL A   1      43.046  18.586  25.061  1.00  0.00    -0.744 OA
ENDBRANCH  79  80
ENDBRANCH  51  74
BRANCH  63  84
ATOM     84  C   UNL A   1      49.555  26.706  26.141  1.00  0.00    -0.014 A 
ATOM     85  C   UNL A   1      50.000  26.936  24.828  1.00  0.00     0.010 A 
ATOM     86  C   UNL A   1      50.423  26.086  27.060  1.00  0.00     0.010 A 
ATOM     87  C   UNL A   1      51.276  26.526  24.432  1.00  0.00     0.020 A 
ATOM     88  C   UNL A   1      51.710  25.703  26.676  1.00  0.00     0.020 A 
ATOM     89  C   UNL A   1      52.123  25.913  25.360  1.00  0.00     0.054 A 
BRANCH  89  90
ATOM     90  S   UNL A   1      53.790  25.430  24.832  1.00  0.00     0.124 S 
ATOM     91  O   UNL A   1      54.614  25.939  25.924  1.00  0.00    -0.237 OA
ATOM     92  O   UNL A   1      53.690  23.975  24.746  1.00  0.00    -0.237 OA
ATOM     93  O   UNL A   1      53.960  26.114  23.552  1.00  0.00    -0.744 OA
ENDBRANCH  89  90
ENDBRANCH  63  84
ENDBRANCH  37  38
ENDBRANCH  29  32
ENDBRANCH  27  28
ENDBRANCH  26  27
ENDBRANCH  25  26
ENDBRANCH  24  25
ENDBRANCH   1  24
TORSDOF 21
ENDMDL
