MODEL 1
REMARK VINA RESULT:     -12.3      0.000      0.000
REMARK SMILES O=C(NCCCCCCNC(=O)[C@@H](Cc1ccc(F)cc1)NC(=O)c1ccn(C2CCCC2)n1)c1ccc(-c2c3nc(c(-c4ccc(S(=O)(=O)[O-])cc4)c4ccc([nH]4)c(-c4ccc(S(=O)(=O)[O-])cc4)c4nc(c(-c5ccc(S(=O)(=O)[O-])cc5)c5ccc2[nH]5)C=C4)C=C3)cc1
REMARK SMILES IDX 6 1 5 2 4 3 3 4 1 5 2 6 35 8 36 9 94 10 37 11 93 12 38 13
REMARK SMILES IDX 39 14 40 15 87 16 41 17 92 18 86 19 88 20 42 21 91 22 85 23
REMARK SMILES IDX 84 24 43 26 73 27 54 28 72 29 55 30 58 31 71 32 89 33 56 34
REMARK SMILES IDX 57 35 70 37 90 38 59 39 44 40 45 41 53 42 46 43 52 44 47 45
REMARK SMILES IDX 48 46 49 47 50 48 51 49 74 50 75 51 83 52 76 53 82 54 77 55
REMARK SMILES IDX 78 56 79 57 80 58 81 59 60 60 61 61 69 62 62 63 68 64 63 65
REMARK SMILES IDX 64 66 65 67 66 68 67 69 7 70 8 71 9 72 10 73 11 74 12 76
REMARK SMILES IDX 13 77 14 78 15 79 16 80 21 81 17 82 20 83 18 84 19 85 22 86
REMARK SMILES IDX 23 87 24 89 25 90 26 91 34 92 27 93 28 94 29 95 30 96 33 97
REMARK SMILES IDX 31 98 32 99
REMARK H PARENT 3 7 88 25 58 36 10 75 22 88
REMARK Flexibility Score: inf
ROOT
ATOM      1  C   UNL A   1      35.669  23.705  24.105  1.00  0.00     0.002 C 
ENDROOT
BRANCH   1   2
ATOM      2  C   UNL A   1      36.142  22.290  24.467  1.00  0.00     0.021 C 
BRANCH   2   3
ATOM      3  C   UNL A   1      36.915  22.174  25.779  1.00  0.00     0.116 C 
BRANCH   3   4
ATOM      4  N   UNL A   1      38.178  21.475  25.671  1.00  0.00    -0.352 N 
ATOM      5  O   UNL A   1      40.262  20.800  25.929  1.00  0.00    -0.269 OA
ATOM      6  C   UNL A   1      39.446  21.703  26.131  1.00  0.00     0.251 C 
ATOM      7  H   UNL A   1      38.110  20.646  25.144  1.00  0.00     0.163 HD
BRANCH   6   8
ATOM      8  C   UNL A   1      39.911  22.963  26.773  1.00  0.00     0.039 A 
ATOM      9  C   UNL A   1      41.033  23.102  27.593  1.00  0.00     0.014 A 
ATOM     10  C   UNL A   1      39.112  24.096  26.535  1.00  0.00     0.014 A 
ATOM     11  C   UNL A   1      41.287  24.310  28.241  1.00  0.00     0.010 A 
ATOM     12  C   UNL A   1      39.371  25.308  27.161  1.00  0.00     0.010 A 
ATOM     13  C   UNL A   1      40.438  25.403  28.049  1.00  0.00    -0.014 A 
BRANCH  13  14
ATOM     14  C   UNL A   1      40.798  26.688  28.647  1.00  0.00     0.031 A 
ATOM     15  C   UNL A   1      42.000  27.327  28.035  1.00  0.00     0.074 A 
ATOM     16  C   UNL A   1      40.031  27.340  29.547  1.00  0.00     0.049 A 
ATOM     17  N   UNL A   1      43.131  27.611  28.596  1.00  0.00    -0.248 NA
ATOM     18  C   UNL A   1      41.985  27.560  26.580  1.00  0.00     0.031 C 
ATOM     19  C   UNL A   1      38.692  26.972  30.017  1.00  0.00     0.029 A 
ATOM     20  N   UNL A   1      40.241  28.545  30.150  1.00  0.00    -0.354 N 
ATOM     21  C   UNL A   1      43.893  28.253  27.621  1.00  0.00     0.074 A 
ATOM     22  C   UNL A   1      43.209  28.045  26.372  1.00  0.00     0.031 C 
ATOM     23  C   UNL A   1      38.124  28.038  30.627  1.00  0.00     0.029 A 
ATOM     24  C   UNL A   1      39.099  29.112  30.713  1.00  0.00     0.049 A 
ATOM     25  H   UNL A   1      41.125  28.979  30.185  1.00  0.00     0.167 HD
ATOM     26  C   UNL A   1      44.901  29.111  27.947  1.00  0.00     0.031 A 
ATOM     27  C   UNL A   1      38.948  30.387  31.161  1.00  0.00     0.031 A 
ATOM     28  C   UNL A   1      45.319  28.948  29.314  1.00  0.00     0.049 A 
ATOM     29  C   UNL A   1      40.305  30.932  31.404  1.00  0.00     0.074 A 
ATOM     30  C   UNL A   1      45.844  27.912  30.060  1.00  0.00     0.029 A 
ATOM     31  N   UNL A   1      44.863  29.874  30.222  1.00  0.00    -0.354 N 
ATOM     32  N   UNL A   1      41.100  30.486  32.334  1.00  0.00    -0.248 NA
ATOM     33  C   UNL A   1      40.950  31.664  30.328  1.00  0.00     0.031 C 
ATOM     34  C   UNL A   1      45.237  28.044  31.343  1.00  0.00     0.029 A 
ATOM     35  C   UNL A   1      44.437  29.187  31.327  1.00  0.00     0.049 A 
ATOM     36  H   UNL A   1      44.845  30.851  30.100  1.00  0.00     0.167 HD
ATOM     37  C   UNL A   1      42.358  30.486  31.751  1.00  0.00     0.074 A 
ATOM     38  C   UNL A   1      42.218  31.307  30.549  1.00  0.00     0.031 C 
ATOM     39  C   UNL A   1      43.320  29.600  32.147  1.00  0.00     0.031 A 
BRANCH  26  40
ATOM     40  C   UNL A   1      45.193  30.383  27.176  1.00  0.00    -0.014 A 
ATOM     41  C   UNL A   1      46.538  30.697  26.878  1.00  0.00     0.010 A 
ATOM     42  C   UNL A   1      44.250  31.419  27.014  1.00  0.00     0.010 A 
ATOM     43  C   UNL A   1      46.928  32.004  26.560  1.00  0.00     0.020 A 
ATOM     44  C   UNL A   1      44.624  32.715  26.653  1.00  0.00     0.020 A 
ATOM     45  C   UNL A   1      45.967  33.010  26.474  1.00  0.00     0.054 A 
BRANCH  45  46
ATOM     46  S   UNL A   1      46.495  34.720  26.209  1.00  0.00     0.124 S 
ATOM     47  O   UNL A   1      45.293  35.318  25.639  1.00  0.00    -0.237 OA
ATOM     48  O   UNL A   1      46.838  35.149  27.562  1.00  0.00    -0.237 OA
ATOM     49  O   UNL A   1      47.627  34.589  25.295  1.00  0.00    -0.744 OA
ENDBRANCH  45  46
ENDBRANCH  26  40
BRANCH  27  50
ATOM     50  C   UNL A   1      37.748  31.262  31.068  1.00  0.00    -0.014 A 
ATOM     51  C   UNL A   1      36.495  30.850  31.564  1.00  0.00     0.010 A 
ATOM     52  C   UNL A   1      37.903  32.627  30.752  1.00  0.00     0.010 A 
ATOM     53  C   UNL A   1      35.458  31.778  31.788  1.00  0.00     0.020 A 
ATOM     54  C   UNL A   1      36.876  33.555  30.968  1.00  0.00     0.020 A 
ATOM     55  C   UNL A   1      35.665  33.131  31.507  1.00  0.00     0.054 A 
BRANCH  55  56
ATOM     56  S   UNL A   1      34.392  34.352  31.958  1.00  0.00     0.124 S 
ATOM     57  O   UNL A   1      35.186  35.432  32.536  1.00  0.00    -0.237 OA
ATOM     58  O   UNL A   1      33.763  34.648  30.674  1.00  0.00    -0.237 OA
ATOM     59  O   UNL A   1      33.545  33.631  32.908  1.00  0.00    -0.744 OA
ENDBRANCH  55  56
ENDBRANCH  27  50
BRANCH  39  60
ATOM     60  C   UNL A   1      43.105  28.819  33.422  1.00  0.00    -0.014 A 
ATOM     61  C   UNL A   1      42.921  29.410  34.688  1.00  0.00     0.010 A 
ATOM     62  C   UNL A   1      42.926  27.431  33.298  1.00  0.00     0.010 A 
ATOM     63  C   UNL A   1      42.590  28.623  35.803  1.00  0.00     0.020 A 
ATOM     64  C   UNL A   1      42.579  26.645  34.398  1.00  0.00     0.020 A 
ATOM     65  C   UNL A   1      42.421  27.242  35.647  1.00  0.00     0.054 A 
BRANCH  65  66
ATOM     66  S   UNL A   1      41.948  26.231  37.078  1.00  0.00     0.124 S 
ATOM     67  O   UNL A   1      41.859  24.892  36.505  1.00  0.00    -0.237 OA
ATOM     68  O   UNL A   1      43.056  26.447  38.008  1.00  0.00    -0.237 OA
ATOM     69  O   UNL A   1      40.674  26.808  37.506  1.00  0.00    -0.744 OA
ENDBRANCH  65  66
ENDBRANCH  39  60
ENDBRANCH  13  14
ENDBRANCH   6   8
ENDBRANCH   3   4
ENDBRANCH   2   3
ENDBRANCH   1   2
BRANCH   1  70
ATOM     70  C   UNL A   1      35.408  24.650  25.283  1.00  0.00     0.002 C 
BRANCH  70  71
ATOM     71  C   UNL A   1      34.169  25.528  25.129  1.00  0.00     0.021 C 
BRANCH  71  72
ATOM     72  C   UNL A   1      33.853  25.972  23.701  1.00  0.00     0.116 C 
BRANCH  72  73
ATOM     73  N   UNL A   1      33.607  27.398  23.671  1.00  0.00    -0.354 N 
ATOM     74  C   UNL A   1      32.590  28.138  24.184  1.00  0.00     0.242 C 
ATOM     75  H   UNL A   1      34.295  27.922  23.199  1.00  0.00     0.163 HD
ATOM     76  O   UNL A   1      32.422  29.261  23.690  1.00  0.00    -0.273 OA
BRANCH  74  77
ATOM     77  C   UNL A   1      31.615  27.631  25.273  1.00  0.00     0.176 C 
BRANCH  77  78
ATOM     78  C   UNL A   1      31.744  28.281  26.671  1.00  0.00     0.070 C 
BRANCH  78  79
ATOM     79  C   UNL A   1      32.954  29.121  27.017  1.00  0.00    -0.045 A 
ATOM     80  C   UNL A   1      34.249  28.581  27.062  1.00  0.00     0.007 A 
ATOM     81  C   UNL A   1      32.795  30.498  27.256  1.00  0.00     0.007 A 
ATOM     82  C   UNL A   1      35.335  29.365  27.466  1.00  0.00     0.039 A 
ATOM     83  C   UNL A   1      33.885  31.288  27.632  1.00  0.00     0.039 A 
ATOM     84  C   UNL A   1      35.140  30.707  27.762  1.00  0.00     0.123 A 
ATOM     85  F   UNL A   1      36.165  31.444  28.208  1.00  0.00    -0.207 F 
ENDBRANCH  78  79
ENDBRANCH  77  78
BRANCH  77  86
ATOM     86  N   UNL A   1      30.237  27.451  24.818  1.00  0.00    -0.339 N 
ATOM     87  C   UNL A   1      29.637  26.325  24.304  1.00  0.00     0.272 C 
ATOM     88  H   UNL A   1      29.659  28.245  24.889  1.00  0.00     0.164 HD
ATOM     89  O   UNL A   1      28.483  26.436  23.875  1.00  0.00    -0.267 OA
BRANCH  87  90
ATOM     90  C   UNL A   1      30.372  25.054  24.279  1.00  0.00     0.150 A 
ATOM     91  C   UNL A   1      30.825  24.310  23.153  1.00  0.00     0.056 A 
ATOM     92  N   UNL A   1      30.711  24.426  25.419  1.00  0.00    -0.167 NA
ATOM     93  C   UNL A   1      31.390  23.168  23.668  1.00  0.00     0.110 A 
ATOM     94  N   UNL A   1      31.316  23.295  25.025  1.00  0.00    -0.269 N 
BRANCH  94  95
ATOM     95  C   UNL A   1      31.841  22.371  26.005  1.00  0.00     0.107 C 
ATOM     96  C   UNL A   1      32.778  21.319  25.418  1.00  0.00     0.027 C 
ATOM     97  C   UNL A   1      32.692  23.017  27.100  1.00  0.00     0.027 C 
ATOM     98  C   UNL A   1      33.467  20.737  26.643  1.00  0.00     0.002 C 
ATOM     99  C   UNL A   1      33.534  21.873  27.664  1.00  0.00     0.002 C 
ENDBRANCH  94  95
ENDBRANCH  87  90
ENDBRANCH  77  86
ENDBRANCH  74  77
ENDBRANCH  72  73
ENDBRANCH  71  72
ENDBRANCH  70  71
ENDBRANCH   1  70
TORSDOF 21
ENDMDL
MODEL 2
REMARK VINA RESULT:     -12.3      2.148      3.853
REMARK SMILES O=C(NCCCCCCNC(=O)[C@@H](Cc1ccc(F)cc1)NC(=O)c1ccn(C2CCCC2)n1)c1ccc(-c2c3nc(c(-c4ccc(S(=O)(=O)[O-])cc4)c4ccc([nH]4)c(-c4ccc(S(=O)(=O)[O-])cc4)c4nc(c(-c5ccc(S(=O)(=O)[O-])cc5)c5ccc2[nH]5)C=C4)C=C3)cc1
REMARK SMILES IDX 6 1 5 2 4 3 3 4 1 5 2 6 35 8 36 9 94 10 37 11 93 12 38 13
REMARK SMILES IDX 39 14 40 15 87 16 41 17 92 18 86 19 88 20 42 21 91 22 85 23
REMARK SMILES IDX 84 24 43 26 73 27 54 28 72 29 55 30 58 31 71 32 89 33 56 34
REMARK SMILES IDX 57 35 70 37 90 38 59 39 44 40 45 41 53 42 46 43 52 44 47 45
REMARK SMILES IDX 48 46 49 47 50 48 51 49 74 50 75 51 83 52 76 53 82 54 77 55
REMARK SMILES IDX 78 56 79 57 80 58 81 59 60 60 61 61 69 62 62 63 68 64 63 65
REMARK SMILES IDX 64 66 65 67 66 68 67 69 7 70 8 71 9 72 10 73 11 74 12 76
REMARK SMILES IDX 13 77 14 78 15 79 16 80 21 81 17 82 20 83 18 84 19 85 22 86
REMARK SMILES IDX 23 87 24 89 25 90 26 91 34 92 27 93 28 94 29 95 30 96 33 97
REMARK SMILES IDX 31 98 32 99
REMARK H PARENT 3 7 88 25 58 36 10 75 22 88
REMARK Flexibility Score: inf
ROOT
ATOM      1  C   UNL A   1      39.505  21.988  26.126  1.00  0.00     0.002 C 
ENDROOT
BRANCH   1   2
ATOM      2  C   UNL A   1      40.626  21.686  27.129  1.00  0.00     0.021 C 
BRANCH   2   3
ATOM      3  C   UNL A   1      41.809  20.897  26.571  1.00  0.00     0.116 C 
BRANCH   3   4
ATOM      4  N   UNL A   1      42.426  21.487  25.402  1.00  0.00    -0.352 N 
ATOM      5  O   UNL A   1      43.514  22.809  24.012  1.00  0.00    -0.269 OA
ATOM      6  C   UNL A   1      42.960  22.711  25.111  1.00  0.00     0.251 C 
ATOM      7  H   UNL A   1      42.470  20.864  24.640  1.00  0.00     0.163 HD
BRANCH   6   8
ATOM      8  C   UNL A   1      42.856  23.920  25.974  1.00  0.00     0.039 A 
ATOM      9  C   UNL A   1      43.532  24.132  27.177  1.00  0.00     0.014 A 
ATOM     10  C   UNL A   1      41.967  24.912  25.521  1.00  0.00     0.014 A 
ATOM     11  C   UNL A   1      43.246  25.251  27.958  1.00  0.00     0.010 A 
ATOM     12  C   UNL A   1      41.695  26.039  26.284  1.00  0.00     0.010 A 
ATOM     13  C   UNL A   1      42.305  26.188  27.526  1.00  0.00    -0.014 A 
BRANCH  13  14
ATOM     14  C   UNL A   1      42.117  27.409  28.308  1.00  0.00     0.031 A 
ATOM     15  C   UNL A   1      43.230  28.395  28.174  1.00  0.00     0.074 A 
ATOM     16  C   UNL A   1      40.974  27.717  28.958  1.00  0.00     0.049 A 
ATOM     17  N   UNL A   1      44.027  28.835  29.093  1.00  0.00    -0.248 NA
ATOM     18  C   UNL A   1      43.582  28.847  26.816  1.00  0.00     0.031 C 
ATOM     19  C   UNL A   1      39.705  26.984  28.936  1.00  0.00     0.029 A 
ATOM     20  N   UNL A   1      40.668  28.827  29.690  1.00  0.00    -0.354 N 
ATOM     21  C   UNL A   1      44.841  29.782  28.473  1.00  0.00     0.074 A 
ATOM     22  C   UNL A   1      44.637  29.625  27.057  1.00  0.00     0.031 C 
ATOM     23  C   UNL A   1      38.719  27.781  29.410  1.00  0.00     0.029 A 
ATOM     24  C   UNL A   1      39.303  29.021  29.894  1.00  0.00     0.049 A 
ATOM     25  H   UNL A   1      41.352  29.439  30.045  1.00  0.00     0.167 HD
ATOM     26  C   UNL A   1      45.442  30.784  29.176  1.00  0.00     0.031 A 
ATOM     27  C   UNL A   1      38.692  30.140  30.368  1.00  0.00     0.031 A 
ATOM     28  C   UNL A   1      45.466  30.504  30.588  1.00  0.00     0.049 A 
ATOM     29  C   UNL A   1      39.720  30.933  31.082  1.00  0.00     0.074 A 
ATOM     30  C   UNL A   1      46.004  29.510  31.379  1.00  0.00     0.029 A 
ATOM     31  N   UNL A   1      44.533  31.145  31.368  1.00  0.00    -0.354 N 
ATOM     32  N   UNL A   1      40.295  30.538  32.181  1.00  0.00    -0.248 NA
ATOM     33  C   UNL A   1      40.434  31.955  30.335  1.00  0.00     0.031 C 
ATOM     34  C   UNL A   1      45.034  29.293  32.401  1.00  0.00     0.029 A 
ATOM     35  C   UNL A   1      44.000  30.212  32.216  1.00  0.00     0.049 A 
ATOM     36  H   UNL A   1      44.292  32.098  31.324  1.00  0.00     0.167 HD
ATOM     37  C   UNL A   1      41.621  30.918  32.042  1.00  0.00     0.074 A 
ATOM     38  C   UNL A   1      41.627  31.866  30.928  1.00  0.00     0.031 C 
ATOM     39  C   UNL A   1      42.623  30.223  32.658  1.00  0.00     0.031 A 
BRANCH  26  40
ATOM     40  C   UNL A   1      45.598  32.195  28.645  1.00  0.00    -0.014 A 
ATOM     41  C   UNL A   1      46.864  32.814  28.739  1.00  0.00     0.010 A 
ATOM     42  C   UNL A   1      44.502  33.034  28.356  1.00  0.00     0.010 A 
ATOM     43  C   UNL A   1      47.001  34.206  28.672  1.00  0.00     0.020 A 
ATOM     44  C   UNL A   1      44.636  34.419  28.242  1.00  0.00     0.020 A 
ATOM     45  C   UNL A   1      45.878  35.001  28.448  1.00  0.00     0.054 A 
BRANCH  45  46
ATOM     46  S   UNL A   1      46.040  36.802  28.510  1.00  0.00     0.124 S 
ATOM     47  O   UNL A   1      44.844  37.233  27.795  1.00  0.00    -0.237 OA
ATOM     48  O   UNL A   1      46.047  37.060  29.948  1.00  0.00    -0.237 OA
ATOM     49  O   UNL A   1      47.307  37.054  27.830  1.00  0.00    -0.744 OA
ENDBRANCH  45  46
ENDBRANCH  26  40
BRANCH  27  50
ATOM     50  C   UNL A   1      37.385  30.722  29.959  1.00  0.00    -0.014 A 
ATOM     51  C   UNL A   1      36.591  31.458  30.861  1.00  0.00     0.010 A 
ATOM     52  C   UNL A   1      37.053  30.800  28.591  1.00  0.00     0.010 A 
ATOM     53  C   UNL A   1      35.544  32.284  30.405  1.00  0.00     0.020 A 
ATOM     54  C   UNL A   1      36.011  31.615  28.131  1.00  0.00     0.020 A 
ATOM     55  C   UNL A   1      35.275  32.373  29.037  1.00  0.00     0.054 A 
BRANCH  55  56
ATOM     56  S   UNL A   1      34.043  33.569  28.435  1.00  0.00     0.124 S 
ATOM     57  O   UNL A   1      34.850  34.459  27.607  1.00  0.00    -0.237 OA
ATOM     58  O   UNL A   1      33.098  32.720  27.714  1.00  0.00    -0.237 OA
ATOM     59  O   UNL A   1      33.518  34.171  29.661  1.00  0.00    -0.744 OA
ENDBRANCH  55  56
ENDBRANCH  27  50
BRANCH  39  60
ATOM     60  C   UNL A   1      42.258  29.221  33.726  1.00  0.00    -0.014 A 
ATOM     61  C   UNL A   1      41.829  27.905  33.461  1.00  0.00     0.010 A 
ATOM     62  C   UNL A   1      42.515  29.586  35.059  1.00  0.00     0.010 A 
ATOM     63  C   UNL A   1      41.640  26.989  34.509  1.00  0.00     0.020 A 
ATOM     64  C   UNL A   1      42.347  28.676  36.104  1.00  0.00     0.020 A 
ATOM     65  C   UNL A   1      41.902  27.384  35.826  1.00  0.00     0.054 A 
BRANCH  65  66
ATOM     66  S   UNL A   1      41.702  26.188  37.176  1.00  0.00     0.124 S 
ATOM     67  O   UNL A   1      41.755  24.908  36.477  1.00  0.00    -0.237 OA
ATOM     68  O   UNL A   1      42.844  26.481  38.040  1.00  0.00    -0.237 OA
ATOM     69  O   UNL A   1      40.400  26.526  37.751  1.00  0.00    -0.744 OA
ENDBRANCH  65  66
ENDBRANCH  39  60
ENDBRANCH  13  14
ENDBRANCH   6   8
ENDBRANCH   3   4
ENDBRANCH   2   3
ENDBRANCH   1   2
BRANCH   1  70
ATOM     70  C   UNL A   1      38.635  23.210  26.435  1.00  0.00     0.002 C 
BRANCH  70  71
ATOM     71  C   UNL A   1      37.494  23.442  25.447  1.00  0.00     0.021 C 
BRANCH  71  72
ATOM     72  C   UNL A   1      36.141  23.775  26.075  1.00  0.00     0.116 C 
BRANCH  72  73
ATOM     73  N   UNL A   1      35.571  22.588  26.677  1.00  0.00    -0.354 N 
ATOM     74  C   UNL A   1      34.277  22.213  26.853  1.00  0.00     0.242 C 
ATOM     75  H   UNL A   1      36.233  21.943  27.016  1.00  0.00     0.163 HD
ATOM     76  O   UNL A   1      34.065  21.360  27.725  1.00  0.00    -0.273 OA
BRANCH  74  77
ATOM     77  C   UNL A   1      33.084  22.833  26.088  1.00  0.00     0.176 C 
BRANCH  77  78
ATOM     78  C   UNL A   1      33.168  22.813  24.544  1.00  0.00     0.070 C 
BRANCH  78  79
ATOM     79  C   UNL A   1      33.191  24.108  23.760  1.00  0.00    -0.045 A 
ATOM     80  C   UNL A   1      32.564  24.234  22.510  1.00  0.00     0.007 A 
ATOM     81  C   UNL A   1      33.813  25.241  24.314  1.00  0.00     0.007 A 
ATOM     82  C   UNL A   1      32.673  25.419  21.775  1.00  0.00     0.039 A 
ATOM     83  C   UNL A   1      33.898  26.434  23.591  1.00  0.00     0.039 A 
ATOM     84  C   UNL A   1      33.353  26.502  22.315  1.00  0.00     0.123 A 
ATOM     85  F   UNL A   1      33.512  27.616  21.588  1.00  0.00    -0.207 F 
ENDBRANCH  78  79
ENDBRANCH  77  78
BRANCH  77  86
ATOM     86  N   UNL A   1      31.770  22.480  26.623  1.00  0.00    -0.339 N 
ATOM     87  C   UNL A   1      30.651  23.268  26.759  1.00  0.00     0.272 C 
ATOM     88  H   UNL A   1      31.672  21.549  26.930  1.00  0.00     0.164 HD
ATOM     89  O   UNL A   1      29.678  22.785  27.348  1.00  0.00    -0.267 OA
BRANCH  87  90
ATOM     90  C   UNL A   1      30.650  24.631  26.213  1.00  0.00     0.150 A 
ATOM     91  C   UNL A   1      30.012  25.118  25.037  1.00  0.00     0.056 A 
ATOM     92  N   UNL A   1      31.313  25.625  26.828  1.00  0.00    -0.167 NA
ATOM     93  C   UNL A   1      30.381  26.438  24.936  1.00  0.00     0.110 A 
ATOM     94  N   UNL A   1      31.139  26.698  26.040  1.00  0.00    -0.269 N 
BRANCH  94  95
ATOM     95  C   UNL A   1      31.705  27.975  26.415  1.00  0.00     0.107 C 
ATOM     96  C   UNL A   1      33.128  27.880  26.959  1.00  0.00     0.027 C 
ATOM     97  C   UNL A   1      31.842  28.975  25.266  1.00  0.00     0.027 C 
ATOM     98  C   UNL A   1      33.618  29.320  26.920  1.00  0.00     0.002 C 
ATOM     99  C   UNL A   1      32.894  29.976  25.744  1.00  0.00     0.002 C 
ENDBRANCH  94  95
ENDBRANCH  87  90
ENDBRANCH  77  86
ENDBRANCH  74  77
ENDBRANCH  72  73
ENDBRANCH  71  72
ENDBRANCH  70  71
ENDBRANCH   1  70
TORSDOF 21
ENDMDL
MODEL 3
REMARK VINA RESULT:     -12.2      3.245      9.558
REMARK SMILES O=C(NCCCCCCNC(=O)[C@@H](Cc1ccc(F)cc1)NC(=O)c1ccn(C2CCCC2)n1)c1ccc(-c2c3nc(c(-c4ccc(S(=O)(=O)[O-])cc4)c4ccc([nH]4)c(-c4ccc(S(=O)(=O)[O-])cc4)c4nc(c(-c5ccc(S(=O)(=O)[O-])cc5)c5ccc2[nH]5)C=C4)C=C3)cc1
REMARK SMILES IDX 6 1 5 2 4 3 3 4 1 5 2 6 35 8 36 9 94 10 37 11 93 12 38 13
REMARK SMILES IDX 39 14 40 15 87 16 41 17 92 18 86 19 88 20 42 21 91 22 85 23
REMARK SMILES IDX 84 24 43 26 73 27 54 28 72 29 55 30 58 31 71 32 89 33 56 34
REMARK SMILES IDX 57 35 70 37 90 38 59 39 44 40 45 41 53 42 46 43 52 44 47 45
REMARK SMILES IDX 48 46 49 47 50 48 51 49 74 50 75 51 83 52 76 53 82 54 77 55
REMARK SMILES IDX 78 56 79 57 80 58 81 59 60 60 61 61 69 62 62 63 68 64 63 65
REMARK SMILES IDX 64 66 65 67 66 68 67 69 7 70 8 71 9 72 10 73 11 74 12 76
REMARK SMILES IDX 13 77 14 78 15 79 16 80 21 81 17 82 20 83 18 84 19 85 22 86
REMARK SMILES IDX 23 87 24 89 25 90 26 91 34 92 27 93 28 94 29 95 30 96 33 97
REMARK SMILES IDX 31 98 32 99
REMARK H PARENT 3 7 88 25 58 36 10 75 22 88
REMARK Flexibility Score: inf
ROOT
ATOM      1  C   UNL A   1      33.562  26.990  26.152  1.00  0.00     0.002 C 
ENDROOT
BRANCH   1   2
ATOM      2  C   UNL A   1      32.907  28.288  26.642  1.00  0.00     0.021 C 
BRANCH   2   3
ATOM      3  C   UNL A   1      33.601  29.577  26.205  1.00  0.00     0.116 C 
BRANCH   3   4
ATOM      4  N   UNL A   1      33.628  30.615  27.215  1.00  0.00    -0.352 N 
ATOM      5  O   UNL A   1      34.259  32.138  28.679  1.00  0.00    -0.269 OA
ATOM      6  C   UNL A   1      34.601  31.165  28.002  1.00  0.00     0.251 C 
ATOM      7  H   UNL A   1      32.743  31.016  27.372  1.00  0.00     0.163 HD
BRANCH   6   8
ATOM      8  C   UNL A   1      35.986  30.639  28.148  1.00  0.00     0.039 A 
ATOM      9  C   UNL A   1      36.424  29.363  27.784  1.00  0.00     0.014 A 
ATOM     10  C   UNL A   1      36.911  31.523  28.733  1.00  0.00     0.014 A 
ATOM     11  C   UNL A   1      37.718  28.948  28.095  1.00  0.00     0.010 A 
ATOM     12  C   UNL A   1      38.208  31.122  29.026  1.00  0.00     0.010 A 
ATOM     13  C   UNL A   1      38.600  29.817  28.744  1.00  0.00    -0.014 A 
BRANCH  13  14
ATOM     14  C   UNL A   1      39.984  29.393  28.948  1.00  0.00     0.031 A 
ATOM     15  C   UNL A   1      40.334  29.127  30.374  1.00  0.00     0.074 A 
ATOM     16  C   UNL A   1      40.833  29.090  27.943  1.00  0.00     0.049 A 
ATOM     17  N   UNL A   1      41.211  29.731  31.110  1.00  0.00    -0.248 NA
ATOM     18  C   UNL A   1      39.510  28.153  31.111  1.00  0.00     0.031 C 
ATOM     19  C   UNL A   1      40.537  29.024  26.508  1.00  0.00     0.029 A 
ATOM     20  N   UNL A   1      42.126  28.659  28.003  1.00  0.00    -0.354 N 
ATOM     21  C   UNL A   1      41.201  29.071  32.338  1.00  0.00     0.074 A 
ATOM     22  C   UNL A   1      40.033  28.230  32.335  1.00  0.00     0.031 C 
ATOM     23  C   UNL A   1      41.530  28.355  25.877  1.00  0.00     0.029 A 
ATOM     24  C   UNL A   1      42.589  28.067  26.830  1.00  0.00     0.049 A 
ATOM     25  H   UNL A   1      42.685  28.757  28.808  1.00  0.00     0.167 HD
ATOM     26  C   UNL A   1      42.282  29.082  33.169  1.00  0.00     0.031 A 
ATOM     27  C   UNL A   1      43.729  27.343  26.667  1.00  0.00     0.031 A 
ATOM     28  C   UNL A   1      43.203  30.135  32.830  1.00  0.00     0.049 A 
ATOM     29  C   UNL A   1      44.632  27.685  27.792  1.00  0.00     0.074 A 
ATOM     30  C   UNL A   1      43.132  31.512  32.762  1.00  0.00     0.029 A 
ATOM     31  N   UNL A   1      44.330  29.779  32.128  1.00  0.00    -0.354 N 
ATOM     32  N   UNL A   1      45.164  28.862  27.951  1.00  0.00    -0.248 NA
ATOM     33  C   UNL A   1      44.584  26.853  28.982  1.00  0.00     0.031 C 
ATOM     34  C   UNL A   1      43.924  31.861  31.629  1.00  0.00     0.029 A 
ATOM     35  C   UNL A   1      44.487  30.690  31.119  1.00  0.00     0.049 A 
ATOM     36  H   UNL A   1      44.915  29.011  32.317  1.00  0.00     0.167 HD
ATOM     37  C   UNL A   1      45.109  29.091  29.317  1.00  0.00     0.074 A 
ATOM     38  C   UNL A   1      44.827  27.784  29.909  1.00  0.00     0.031 C 
ATOM     39  C   UNL A   1      45.024  30.360  29.817  1.00  0.00     0.031 A 
BRANCH  26  40
ATOM     40  C   UNL A   1      42.717  27.882  33.986  1.00  0.00    -0.014 A 
ATOM     41  C   UNL A   1      42.883  28.040  35.380  1.00  0.00     0.010 A 
ATOM     42  C   UNL A   1      43.264  26.717  33.410  1.00  0.00     0.010 A 
ATOM     43  C   UNL A   1      43.660  27.146  36.127  1.00  0.00     0.020 A 
ATOM     44  C   UNL A   1      44.003  25.796  34.156  1.00  0.00     0.020 A 
ATOM     45  C   UNL A   1      44.236  26.042  35.501  1.00  0.00     0.054 A 
BRANCH  45  46
ATOM     46  S   UNL A   1      45.357  24.975  36.439  1.00  0.00     0.124 S 
ATOM     47  O   UNL A   1      44.945  25.245  37.812  1.00  0.00    -0.237 OA
ATOM     48  O   UNL A   1      45.023  23.650  35.924  1.00  0.00    -0.237 OA
ATOM     49  O   UNL A   1      46.682  25.467  36.071  1.00  0.00    -0.744 OA
ENDBRANCH  45  46
ENDBRANCH  26  40
BRANCH  27  50
ATOM     50  C   UNL A   1      43.947  26.145  25.811  1.00  0.00    -0.014 A 
ATOM     51  C   UNL A   1      45.243  25.707  25.472  1.00  0.00     0.010 A 
ATOM     52  C   UNL A   1      42.879  25.257  25.567  1.00  0.00     0.010 A 
ATOM     53  C   UNL A   1      45.466  24.412  24.964  1.00  0.00     0.020 A 
ATOM     54  C   UNL A   1      43.092  23.970  25.058  1.00  0.00     0.020 A 
ATOM     55  C   UNL A   1      44.387  23.543  24.779  1.00  0.00     0.054 A 
BRANCH  55  56
ATOM     56  S   UNL A   1      44.691  21.817  24.290  1.00  0.00     0.124 S 
ATOM     57  O   UNL A   1      43.730  21.086  25.108  1.00  0.00    -0.237 OA
ATOM     58  O   UNL A   1      44.415  21.837  22.856  1.00  0.00    -0.237 OA
ATOM     59  O   UNL A   1      46.095  21.601  24.643  1.00  0.00    -0.744 OA
ENDBRANCH  55  56
ENDBRANCH  27  50
BRANCH  39  60
ATOM     60  C   UNL A   1      45.286  31.523  28.891  1.00  0.00    -0.014 A 
ATOM     61  C   UNL A   1      46.561  32.078  28.663  1.00  0.00     0.010 A 
ATOM     62  C   UNL A   1      44.212  31.966  28.100  1.00  0.00     0.010 A 
ATOM     63  C   UNL A   1      46.746  33.068  27.684  1.00  0.00     0.020 A 
ATOM     64  C   UNL A   1      44.391  32.936  27.114  1.00  0.00     0.020 A 
ATOM     65  C   UNL A   1      45.655  33.490  26.915  1.00  0.00     0.054 A 
BRANCH  65  66
ATOM     66  S   UNL A   1      45.902  34.735  25.618  1.00  0.00     0.124 S 
ATOM     67  O   UNL A   1      47.319  34.587  25.301  1.00  0.00    -0.237 OA
ATOM     68  O   UNL A   1      44.974  34.305  24.574  1.00  0.00    -0.237 OA
ATOM     69  O   UNL A   1      45.542  35.993  26.272  1.00  0.00    -0.744 OA
ENDBRANCH  65  66
ENDBRANCH  39  60
ENDBRANCH  13  14
ENDBRANCH   6   8
ENDBRANCH   3   4
ENDBRANCH   2   3
ENDBRANCH   1   2
BRANCH   1  70
ATOM     70  C   UNL A   1      32.698  26.095  25.257  1.00  0.00     0.002 C 
BRANCH  70  71
ATOM     71  C   UNL A   1      31.422  25.581  25.916  1.00  0.00     0.021 C 
BRANCH  71  72
ATOM     72  C   UNL A   1      31.352  24.068  26.119  1.00  0.00     0.116 C 
BRANCH  72  73
ATOM     73  N   UNL A   1      32.444  23.631  26.963  1.00  0.00    -0.354 N 
ATOM     74  C   UNL A   1      33.334  22.617  26.813  1.00  0.00     0.242 C 
ATOM     75  H   UNL A   1      32.562  24.160  27.785  1.00  0.00     0.163 HD
ATOM     76  O   UNL A   1      33.900  22.224  27.842  1.00  0.00    -0.273 OA
BRANCH  74  77
ATOM     77  C   UNL A   1      33.612  21.900  25.470  1.00  0.00     0.176 C 
BRANCH  77  78
ATOM     78  C   UNL A   1      32.689  20.710  25.118  1.00  0.00     0.070 C 
BRANCH  78  79
ATOM     79  C   UNL A   1      33.257  19.314  24.979  1.00  0.00    -0.045 A 
ATOM     80  C   UNL A   1      34.611  19.085  24.687  1.00  0.00     0.007 A 
ATOM     81  C   UNL A   1      32.422  18.203  25.195  1.00  0.00     0.007 A 
ATOM     82  C   UNL A   1      35.086  17.785  24.483  1.00  0.00     0.039 A 
ATOM     83  C   UNL A   1      32.903  16.903  25.019  1.00  0.00     0.039 A 
ATOM     84  C   UNL A   1      34.224  16.708  24.636  1.00  0.00     0.123 A 
ATOM     85  F   UNL A   1      34.660  15.467  24.381  1.00  0.00    -0.207 F 
ENDBRANCH  78  79
ENDBRANCH  77  78
BRANCH  77  86
ATOM     86  N   UNL A   1      33.891  22.797  24.350  1.00  0.00    -0.339 N 
ATOM     87  C   UNL A   1      35.082  23.383  23.987  1.00  0.00     0.272 C 
ATOM     88  H   UNL A   1      33.121  23.012  23.776  1.00  0.00     0.164 HD
ATOM     89  O   UNL A   1      35.058  24.203  23.063  1.00  0.00    -0.267 OA
BRANCH  87  90
ATOM     90  C   UNL A   1      36.316  23.024  24.697  1.00  0.00     0.150 A 
ATOM     91  C   UNL A   1      37.150  21.885  24.512  1.00  0.00     0.056 A 
ATOM     92  N   UNL A   1      36.808  23.807  25.672  1.00  0.00    -0.167 NA
ATOM     93  C   UNL A   1      38.130  21.984  25.471  1.00  0.00     0.110 A 
ATOM     94  N   UNL A   1      37.894  23.160  26.123  1.00  0.00    -0.269 N 
BRANCH  94  95
ATOM     95  C   UNL A   1      38.700  23.736  27.176  1.00  0.00     0.107 C 
ATOM     96  C   UNL A   1      40.138  23.223  27.200  1.00  0.00     0.027 C 
ATOM     97  C   UNL A   1      38.877  25.253  27.088  1.00  0.00     0.027 C 
ATOM     98  C   UNL A   1      40.852  24.215  28.105  1.00  0.00     0.002 C 
ATOM     99  C   UNL A   1      40.125  25.548  27.919  1.00  0.00     0.002 C 
ENDBRANCH  94  95
ENDBRANCH  87  90
ENDBRANCH  77  86
ENDBRANCH  74  77
ENDBRANCH  72  73
ENDBRANCH  71  72
ENDBRANCH  70  71
ENDBRANCH   1  70
TORSDOF 21
ENDMDL
