MODEL 1
REMARK VINA RESULT:     -11.5      0.000      0.000
REMARK SMILES CCn1cc(C)c(C(=O)NCCCCCCNC(=O)c2ccc(-c3c4nc(c(-c5ccc(S(=O)(=O)[O-])cc5)c5ccc([nH]5)c(-c5ccc(S(=O)(=O)[O-])cc5)c5nc(c(-c6ccc(S(=O)(=O)[O-])cc6)c6ccc3[nH]6)C=C5)C=C4)cc2)c1CC(=O)N1CCc2ccccc21
REMARK SMILES IDX 13 1 12 2 11 3 10 4 8 5 9 6 7 8 3 9 4 10 80 11 5 12 6 13
REMARK SMILES IDX 2 14 1 15 81 16 82 17 83 18 84 19 85 20 92 21 86 22 87 23
REMARK SMILES IDX 91 24 88 25 90 26 89 27 14 28 15 29 16 30 17 31 18 32 19 34
REMARK SMILES IDX 20 35 21 36 79 37 22 38 78 39 23 40 24 41 25 42 72 43 26 44
REMARK SMILES IDX 77 45 71 46 73 47 27 48 76 49 70 50 69 51 28 53 58 54 39 55
REMARK SMILES IDX 57 56 40 57 43 58 56 59 74 60 41 61 42 62 55 64 75 65 44 66
REMARK SMILES IDX 29 67 30 68 38 69 31 70 37 71 32 72 33 73 34 74 35 75 36 76
REMARK SMILES IDX 59 77 60 78 68 79 61 80 67 81 62 82 63 83 64 84 65 85 66 86
REMARK SMILES IDX 45 87 46 88 54 89 47 90 53 91 48 92 49 93 50 94 51 95 52 96
REMARK H PARENT 10 7 17 33 73 52 43 63
REMARK Flexibility Score: inf
ROOT
ATOM      1  C   UNL A   1      38.588  24.161  26.492  1.00  0.00     0.002 C 
ENDROOT
BRANCH   1   2
ATOM      2  C   UNL A   1      37.176  23.769  26.049  1.00  0.00     0.021 C 
BRANCH   2   3
ATOM      3  C   UNL A   1      36.951  23.024  24.718  1.00  0.00     0.116 C 
BRANCH   3   4
ATOM      4  N   UNL A   1      36.368  21.695  24.809  1.00  0.00    -0.352 N 
ATOM      5  C   UNL A   1      35.075  21.209  24.916  1.00  0.00     0.253 C 
ATOM      6  O   UNL A   1      34.946  19.999  24.711  1.00  0.00    -0.269 OA
ATOM      7  H   UNL A   1      37.045  20.979  24.789  1.00  0.00     0.163 HD
BRANCH   5   8
ATOM      8  C   UNL A   1      33.919  22.073  25.177  1.00  0.00     0.064 A 
ATOM      9  N   UNL A   1      32.082  23.264  24.906  1.00  0.00    -0.350 N 
ATOM     10  C   UNL A   1      32.238  23.166  26.260  1.00  0.00     0.090 A 
ATOM     11  C   UNL A   1      33.311  23.008  24.338  1.00  0.00     0.040 A 
ATOM     12  C   UNL A   1      33.458  22.547  26.470  1.00  0.00    -0.020 A 
ATOM     13  C   UNL A   1      34.212  22.544  27.755  1.00  0.00     0.047 C 
BRANCH   9  14
ATOM     14  C   UNL A   1      30.883  23.736  24.236  1.00  0.00     0.118 C 
ATOM     15  C   UNL A   1      30.251  24.896  24.992  1.00  0.00     0.027 C 
ENDBRANCH   9  14
BRANCH  11  16
ATOM     16  C   UNL A   1      33.957  23.925  23.328  1.00  0.00     0.155 C 
BRANCH  16  17
ATOM     17  C   UNL A   1      33.953  25.370  23.896  1.00  0.00     0.232 C 
ATOM     18  O   UNL A   1      34.391  25.650  25.014  1.00  0.00    -0.274 OA
BRANCH  17  19
ATOM     19  N   UNL A   1      33.379  26.335  23.096  1.00  0.00    -0.311 N 
ATOM     20  C   UNL A   1      33.083  26.039  21.687  1.00  0.00     0.130 C 
ATOM     21  C   UNL A   1      32.372  27.230  23.538  1.00  0.00     0.047 A 
ATOM     22  C   UNL A   1      31.584  26.324  21.521  1.00  0.00     0.059 C 
ATOM     23  C   UNL A   1      31.415  27.403  22.544  1.00  0.00    -0.022 A 
ATOM     24  C   UNL A   1      32.303  27.964  24.704  1.00  0.00     0.026 A 
ATOM     25  C   UNL A   1      30.443  28.386  22.644  1.00  0.00     0.006 A 
ATOM     26  C   UNL A   1      31.385  29.017  24.786  1.00  0.00     0.002 A 
ATOM     27  C   UNL A   1      30.472  29.239  23.749  1.00  0.00     0.000 A 
ENDBRANCH  17  19
ENDBRANCH  16  17
ENDBRANCH  11  16
ENDBRANCH   5   8
ENDBRANCH   3   4
ENDBRANCH   2   3
ENDBRANCH   1   2
BRANCH   1  28
ATOM     28  C   UNL A   1      39.435  23.103  27.186  1.00  0.00     0.002 C 
BRANCH  28  29
ATOM     29  C   UNL A   1      39.972  21.986  26.288  1.00  0.00     0.021 C 
BRANCH  29  30
ATOM     30  C   UNL A   1      41.316  21.410  26.720  1.00  0.00     0.116 C 
BRANCH  30  31
ATOM     31  N   UNL A   1      42.381  21.675  25.751  1.00  0.00    -0.352 N 
ATOM     32  C   UNL A   1      42.897  22.900  25.361  1.00  0.00     0.251 C 
ATOM     33  H   UNL A   1      42.782  20.884  25.324  1.00  0.00     0.163 HD
ATOM     34  O   UNL A   1      43.455  23.038  24.289  1.00  0.00    -0.269 OA
BRANCH  32  35
ATOM     35  C   UNL A   1      42.797  24.023  26.308  1.00  0.00     0.039 A 
ATOM     36  C   UNL A   1      43.340  23.966  27.597  1.00  0.00     0.014 A 
ATOM     37  C   UNL A   1      42.104  25.147  25.868  1.00  0.00     0.014 A 
ATOM     38  C   UNL A   1      43.210  25.079  28.425  1.00  0.00     0.010 A 
ATOM     39  C   UNL A   1      42.126  26.291  26.609  1.00  0.00     0.010 A 
ATOM     40  C   UNL A   1      42.594  26.229  27.916  1.00  0.00    -0.014 A 
BRANCH  40  41
ATOM     41  C   UNL A   1      42.430  27.436  28.703  1.00  0.00     0.031 A 
ATOM     42  C   UNL A   1      43.492  28.454  28.519  1.00  0.00     0.074 A 
ATOM     43  C   UNL A   1      41.250  27.701  29.304  1.00  0.00     0.049 A 
ATOM     44  N   UNL A   1      44.365  28.835  29.387  1.00  0.00    -0.248 NA
ATOM     45  C   UNL A   1      43.715  29.009  27.173  1.00  0.00     0.031 C 
ATOM     46  C   UNL A   1      40.008  26.915  29.266  1.00  0.00     0.029 A 
ATOM     47  N   UNL A   1      40.865  28.825  29.954  1.00  0.00    -0.354 N 
ATOM     48  C   UNL A   1      45.119  29.829  28.772  1.00  0.00     0.074 A 
ATOM     49  C   UNL A   1      44.811  29.746  27.366  1.00  0.00     0.031 C 
ATOM     50  C   UNL A   1      38.970  27.696  29.637  1.00  0.00     0.029 A 
ATOM     51  C   UNL A   1      39.489  28.976  30.086  1.00  0.00     0.049 A 
ATOM     52  H   UNL A   1      41.507  29.482  30.305  1.00  0.00     0.167 HD
ATOM     53  C   UNL A   1      45.759  30.790  29.497  1.00  0.00     0.031 A 
ATOM     54  C   UNL A   1      38.835  30.098  30.479  1.00  0.00     0.031 A 
ATOM     55  C   UNL A   1      45.701  30.499  30.908  1.00  0.00     0.049 A 
ATOM     56  C   UNL A   1      39.831  30.939  31.198  1.00  0.00     0.074 A 
ATOM     57  C   UNL A   1      46.169  29.471  31.701  1.00  0.00     0.029 A 
ATOM     58  N   UNL A   1      44.700  31.117  31.626  1.00  0.00    -0.354 N 
ATOM     59  N   UNL A   1      40.386  30.570  32.321  1.00  0.00    -0.248 NA
ATOM     60  C   UNL A   1      40.589  31.921  30.432  1.00  0.00     0.031 C 
ATOM     61  C   UNL A   1      45.114  29.219  32.624  1.00  0.00     0.029 A 
ATOM     62  C   UNL A   1      44.105  30.164  32.413  1.00  0.00     0.049 A 
ATOM     63  H   UNL A   1      44.457  32.070  31.582  1.00  0.00     0.167 HD
ATOM     64  C   UNL A   1      41.728  30.905  32.186  1.00  0.00     0.074 A 
ATOM     65  C   UNL A   1      41.772  31.828  31.051  1.00  0.00     0.031 C 
ATOM     66  C   UNL A   1      42.707  30.176  32.802  1.00  0.00     0.031 A 
BRANCH  53  67
ATOM     67  C   UNL A   1      46.107  32.168  28.998  1.00  0.00    -0.014 A 
ATOM     68  C   UNL A   1      45.316  33.255  29.422  1.00  0.00     0.010 A 
ATOM     69  C   UNL A   1      47.002  32.404  27.936  1.00  0.00     0.010 A 
ATOM     70  C   UNL A   1      45.358  34.489  28.763  1.00  0.00     0.020 A 
ATOM     71  C   UNL A   1      47.083  33.644  27.299  1.00  0.00     0.020 A 
ATOM     72  C   UNL A   1      46.230  34.667  27.691  1.00  0.00     0.054 A 
BRANCH  72  73
ATOM     73  S   UNL A   1      46.185  36.219  26.762  1.00  0.00     0.124 S 
ATOM     74  O   UNL A   1      47.074  37.066  27.549  1.00  0.00    -0.237 OA
ATOM     75  O   UNL A   1      46.690  35.810  25.454  1.00  0.00    -0.237 OA
ATOM     76  O   UNL A   1      44.773  36.593  26.792  1.00  0.00    -0.744 OA
ENDBRANCH  72  73
ENDBRANCH  53  67
BRANCH  54  77
ATOM     77  C   UNL A   1      37.526  30.602  29.982  1.00  0.00    -0.014 A 
ATOM     78  C   UNL A   1      36.552  31.116  30.859  1.00  0.00     0.010 A 
ATOM     79  C   UNL A   1      37.337  30.824  28.601  1.00  0.00     0.010 A 
ATOM     80  C   UNL A   1      35.474  31.883  30.378  1.00  0.00     0.020 A 
ATOM     81  C   UNL A   1      36.263  31.577  28.113  1.00  0.00     0.020 A 
ATOM     82  C   UNL A   1      35.352  32.130  29.007  1.00  0.00     0.054 A 
BRANCH  82  83
ATOM     83  S   UNL A   1      34.096  33.300  28.405  1.00  0.00     0.124 S 
ATOM     84  O   UNL A   1      33.121  32.413  27.778  1.00  0.00    -0.237 OA
ATOM     85  O   UNL A   1      33.661  33.957  29.633  1.00  0.00    -0.237 OA
ATOM     86  O   UNL A   1      34.847  34.153  27.485  1.00  0.00    -0.744 OA
ENDBRANCH  82  83
ENDBRANCH  54  77
BRANCH  66  87
ATOM     87  C   UNL A   1      42.297  29.120  33.809  1.00  0.00    -0.014 A 
ATOM     88  C   UNL A   1      41.969  27.793  33.460  1.00  0.00     0.010 A 
ATOM     89  C   UNL A   1      42.431  29.434  35.171  1.00  0.00     0.010 A 
ATOM     90  C   UNL A   1      41.759  26.818  34.448  1.00  0.00     0.020 A 
ATOM     91  C   UNL A   1      42.243  28.464  36.160  1.00  0.00     0.020 A 
ATOM     92  C   UNL A   1      41.896  27.162  35.795  1.00  0.00     0.054 A 
BRANCH  92  93
ATOM     93  S   UNL A   1      41.668  25.892  37.070  1.00  0.00     0.124 S 
ATOM     94  O   UNL A   1      41.867  24.654  36.321  1.00  0.00    -0.237 OA
ATOM     95  O   UNL A   1      42.709  26.214  38.043  1.00  0.00    -0.237 OA
ATOM     96  O   UNL A   1      40.301  26.115  37.542  1.00  0.00    -0.744 OA
ENDBRANCH  92  93
ENDBRANCH  66  87
ENDBRANCH  40  41
ENDBRANCH  32  35
ENDBRANCH  30  31
ENDBRANCH  29  30
ENDBRANCH  28  29
ENDBRANCH   1  28
TORSDOF 20
ENDMDL
MODEL 2
REMARK VINA RESULT:     -11.4      1.418      3.236
REMARK SMILES CCn1cc(C)c(C(=O)NCCCCCCNC(=O)c2ccc(-c3c4nc(c(-c5ccc(S(=O)(=O)[O-])cc5)c5ccc([nH]5)c(-c5ccc(S(=O)(=O)[O-])cc5)c5nc(c(-c6ccc(S(=O)(=O)[O-])cc6)c6ccc3[nH]6)C=C5)C=C4)cc2)c1CC(=O)N1CCc2ccccc21
REMARK SMILES IDX 13 1 12 2 11 3 10 4 8 5 9 6 7 8 3 9 4 10 80 11 5 12 6 13
REMARK SMILES IDX 2 14 1 15 81 16 82 17 83 18 84 19 85 20 92 21 86 22 87 23
REMARK SMILES IDX 91 24 88 25 90 26 89 27 14 28 15 29 16 30 17 31 18 32 19 34
REMARK SMILES IDX 20 35 21 36 79 37 22 38 78 39 23 40 24 41 25 42 72 43 26 44
REMARK SMILES IDX 77 45 71 46 73 47 27 48 76 49 70 50 69 51 28 53 58 54 39 55
REMARK SMILES IDX 57 56 40 57 43 58 56 59 74 60 41 61 42 62 55 64 75 65 44 66
REMARK SMILES IDX 29 67 30 68 38 69 31 70 37 71 32 72 33 73 34 74 35 75 36 76
REMARK SMILES IDX 59 77 60 78 68 79 61 80 67 81 62 82 63 83 64 84 65 85 66 86
REMARK SMILES IDX 45 87 46 88 54 89 47 90 53 91 48 92 49 93 50 94 51 95 52 96
REMARK H PARENT 10 7 17 33 73 52 43 63
REMARK Flexibility Score: inf
ROOT
ATOM      1  C   UNL A   1      37.715  22.311  25.401  1.00  0.00     0.002 C 
ENDROOT
BRANCH   1   2
ATOM      2  C   UNL A   1      36.626  22.486  24.339  1.00  0.00     0.021 C 
BRANCH   2   3
ATOM      3  C   UNL A   1      35.922  23.846  24.157  1.00  0.00     0.116 C 
BRANCH   3   4
ATOM      4  N   UNL A   1      34.835  23.890  23.192  1.00  0.00    -0.352 N 
ATOM      5  C   UNL A   1      33.833  24.802  22.901  1.00  0.00     0.253 C 
ATOM      6  O   UNL A   1      33.240  24.615  21.835  1.00  0.00    -0.269 OA
ATOM      7  H   UNL A   1      34.805  23.093  22.614  1.00  0.00     0.163 HD
BRANCH   5   8
ATOM      8  C   UNL A   1      33.538  25.960  23.753  1.00  0.00     0.064 A 
ATOM      9  N   UNL A   1      33.076  27.213  25.509  1.00  0.00    -0.350 N 
ATOM     10  C   UNL A   1      33.421  28.099  24.528  1.00  0.00     0.090 A 
ATOM     11  C   UNL A   1      32.724  26.036  24.884  1.00  0.00     0.040 A 
ATOM     12  C   UNL A   1      33.580  27.359  23.369  1.00  0.00    -0.020 A 
ATOM     13  C   UNL A   1      33.604  27.917  21.987  1.00  0.00     0.047 C 
BRANCH   9  14
ATOM     14  C   UNL A   1      32.936  27.539  26.917  1.00  0.00     0.118 C 
ATOM     15  C   UNL A   1      33.760  28.767  27.282  1.00  0.00     0.027 C 
ENDBRANCH   9  14
BRANCH  11  16
ATOM     16  C   UNL A   1      31.428  25.315  25.160  1.00  0.00     0.155 C 
BRANCH  16  17
ATOM     17  C   UNL A   1      31.687  24.222  26.233  1.00  0.00     0.232 C 
ATOM     18  O   UNL A   1      30.999  24.108  27.249  1.00  0.00    -0.274 OA
BRANCH  17  19
ATOM     19  N   UNL A   1      32.774  23.403  26.016  1.00  0.00    -0.311 N 
ATOM     20  C   UNL A   1      33.816  23.278  27.046  1.00  0.00     0.130 C 
ATOM     21  C   UNL A   1      32.697  22.144  25.368  1.00  0.00     0.047 A 
ATOM     22  C   UNL A   1      33.910  21.775  27.343  1.00  0.00     0.059 C 
ATOM     23  C   UNL A   1      33.523  21.226  26.007  1.00  0.00    -0.022 A 
ATOM     24  C   UNL A   1      32.032  21.795  24.211  1.00  0.00     0.026 A 
ATOM     25  C   UNL A   1      33.790  19.987  25.446  1.00  0.00     0.006 A 
ATOM     26  C   UNL A   1      32.355  20.585  23.586  1.00  0.00     0.002 A 
ATOM     27  C   UNL A   1      33.247  19.693  24.193  1.00  0.00     0.000 A 
ENDBRANCH  17  19
ENDBRANCH  16  17
ENDBRANCH  11  16
ENDBRANCH   5   8
ENDBRANCH   3   4
ENDBRANCH   2   3
ENDBRANCH   1   2
BRANCH   1  28
ATOM     28  C   UNL A   1      38.460  20.984  25.443  1.00  0.00     0.002 C 
BRANCH  28  29
ATOM     29  C   UNL A   1      39.673  20.931  26.375  1.00  0.00     0.021 C 
BRANCH  29  30
ATOM     30  C   UNL A   1      40.424  22.251  26.520  1.00  0.00     0.116 C 
BRANCH  30  31
ATOM     31  N   UNL A   1      41.741  22.224  25.880  1.00  0.00    -0.352 N 
ATOM     32  C   UNL A   1      42.521  23.298  25.484  1.00  0.00     0.251 C 
ATOM     33  H   UNL A   1      42.119  21.332  25.710  1.00  0.00     0.163 HD
ATOM     34  O   UNL A   1      43.365  23.180  24.617  1.00  0.00    -0.269 OA
BRANCH  32  35
ATOM     35  C   UNL A   1      42.336  24.580  26.186  1.00  0.00     0.039 A 
ATOM     36  C   UNL A   1      41.503  25.591  25.692  1.00  0.00     0.014 A 
ATOM     37  C   UNL A   1      43.056  24.753  27.364  1.00  0.00     0.014 A 
ATOM     38  C   UNL A   1      41.375  26.768  26.426  1.00  0.00     0.010 A 
ATOM     39  C   UNL A   1      42.800  25.826  28.165  1.00  0.00     0.010 A 
ATOM     40  C   UNL A   1      42.037  26.870  27.656  1.00  0.00    -0.014 A 
BRANCH  40  41
ATOM     41  C   UNL A   1      41.948  28.052  28.492  1.00  0.00     0.031 A 
ATOM     42  C   UNL A   1      43.012  29.060  28.269  1.00  0.00     0.074 A 
ATOM     43  C   UNL A   1      40.817  28.312  29.182  1.00  0.00     0.049 A 
ATOM     44  N   UNL A   1      43.949  29.398  29.087  1.00  0.00    -0.248 NA
ATOM     45  C   UNL A   1      43.151  29.658  26.931  1.00  0.00     0.031 C 
ATOM     46  C   UNL A   1      39.562  27.545  29.204  1.00  0.00     0.029 A 
ATOM     47  N   UNL A   1      40.496  29.418  29.895  1.00  0.00    -0.354 N 
ATOM     48  C   UNL A   1      44.675  30.402  28.455  1.00  0.00     0.074 A 
ATOM     49  C   UNL A   1      44.270  30.372  27.073  1.00  0.00     0.031 C 
ATOM     50  C   UNL A   1      38.565  28.328  29.672  1.00  0.00     0.029 A 
ATOM     51  C   UNL A   1      39.135  29.583  30.127  1.00  0.00     0.049 A 
ATOM     52  H   UNL A   1      41.172  30.053  30.222  1.00  0.00     0.167 HD
ATOM     53  C   UNL A   1      45.379  31.327  29.166  1.00  0.00     0.031 A 
ATOM     54  C   UNL A   1      38.528  30.700  30.602  1.00  0.00     0.031 A 
ATOM     55  C   UNL A   1      45.414  30.989  30.567  1.00  0.00     0.049 A 
ATOM     56  C   UNL A   1      39.586  31.502  31.279  1.00  0.00     0.074 A 
ATOM     57  C   UNL A   1      45.917  29.927  31.290  1.00  0.00     0.029 A 
ATOM     58  N   UNL A   1      44.475  31.596  31.374  1.00  0.00    -0.354 N 
ATOM     59  N   UNL A   1      40.210  31.086  32.347  1.00  0.00    -0.248 NA
ATOM     60  C   UNL A   1      40.305  32.499  30.496  1.00  0.00     0.031 C 
ATOM     61  C   UNL A   1      44.925  29.658  32.276  1.00  0.00     0.029 A 
ATOM     62  C   UNL A   1      43.919  30.624  32.168  1.00  0.00     0.049 A 
ATOM     63  H   UNL A   1      44.245  32.553  31.378  1.00  0.00     0.167 HD
ATOM     64  C   UNL A   1      41.545  31.406  32.131  1.00  0.00     0.074 A 
ATOM     65  C   UNL A   1      41.526  32.367  31.027  1.00  0.00     0.031 C 
ATOM     66  C   UNL A   1      42.552  30.643  32.653  1.00  0.00     0.031 A 
BRANCH  53  67
ATOM     67  C   UNL A   1      45.715  32.717  28.691  1.00  0.00    -0.014 A 
ATOM     68  C   UNL A   1      47.041  33.174  28.836  1.00  0.00     0.010 A 
ATOM     69  C   UNL A   1      44.741  33.677  28.355  1.00  0.00     0.010 A 
ATOM     70  C   UNL A   1      47.360  34.533  28.733  1.00  0.00     0.020 A 
ATOM     71  C   UNL A   1      45.055  35.030  28.208  1.00  0.00     0.020 A 
ATOM     72  C   UNL A   1      46.357  35.455  28.439  1.00  0.00     0.054 A 
BRANCH  72  73
ATOM     73  S   UNL A   1      46.751  37.220  28.438  1.00  0.00     0.124 S 
ATOM     74  O   UNL A   1      48.200  37.205  28.602  1.00  0.00    -0.237 OA
ATOM     75  O   UNL A   1      46.264  37.644  27.128  1.00  0.00    -0.237 OA
ATOM     76  O   UNL A   1      45.996  37.738  29.577  1.00  0.00    -0.744 OA
ENDBRANCH  72  73
ENDBRANCH  53  67
BRANCH  54  77
ATOM     77  C   UNL A   1      37.197  31.240  30.214  1.00  0.00    -0.014 A 
ATOM     78  C   UNL A   1      36.504  32.151  31.033  1.00  0.00     0.010 A 
ATOM     79  C   UNL A   1      36.722  31.058  28.898  1.00  0.00     0.010 A 
ATOM     80  C   UNL A   1      35.425  32.905  30.530  1.00  0.00     0.020 A 
ATOM     81  C   UNL A   1      35.644  31.795  28.393  1.00  0.00     0.020 A 
ATOM     82  C   UNL A   1      35.020  32.739  29.202  1.00  0.00     0.054 A 
BRANCH  82  83
ATOM     83  S   UNL A   1      33.781  33.861  28.485  1.00  0.00     0.124 S 
ATOM     84  O   UNL A   1      33.128  34.403  29.673  1.00  0.00    -0.237 OA
ATOM     85  O   UNL A   1      34.604  34.799  27.729  1.00  0.00    -0.237 OA
ATOM     86  O   UNL A   1      32.956  32.972  27.669  1.00  0.00    -0.744 OA
ENDBRANCH  82  83
ENDBRANCH  54  77
BRANCH  66  87
ATOM     87  C   UNL A   1      42.194  29.558  33.649  1.00  0.00    -0.014 A 
ATOM     88  C   UNL A   1      41.738  28.275  33.279  1.00  0.00     0.010 A 
ATOM     89  C   UNL A   1      42.512  29.785  34.999  1.00  0.00     0.010 A 
ATOM     90  C   UNL A   1      41.582  27.261  34.236  1.00  0.00     0.020 A 
ATOM     91  C   UNL A   1      42.378  28.773  35.954  1.00  0.00     0.020 A 
ATOM     92  C   UNL A   1      41.903  27.519  35.571  1.00  0.00     0.054 A 
BRANCH  92  93
ATOM     93  S   UNL A   1      41.743  26.194  36.800  1.00  0.00     0.124 S 
ATOM     94  O   UNL A   1      41.828  24.990  35.979  1.00  0.00    -0.237 OA
ATOM     95  O   UNL A   1      42.879  26.432  37.688  1.00  0.00    -0.237 OA
ATOM     96  O   UNL A   1      40.434  26.438  37.406  1.00  0.00    -0.744 OA
ENDBRANCH  92  93
ENDBRANCH  66  87
ENDBRANCH  40  41
ENDBRANCH  32  35
ENDBRANCH  30  31
ENDBRANCH  29  30
ENDBRANCH  28  29
ENDBRANCH   1  28
TORSDOF 20
ENDMDL
MODEL 3
REMARK VINA RESULT:     -11.4      1.270      1.879
REMARK SMILES CCn1cc(C)c(C(=O)NCCCCCCNC(=O)c2ccc(-c3c4nc(c(-c5ccc(S(=O)(=O)[O-])cc5)c5ccc([nH]5)c(-c5ccc(S(=O)(=O)[O-])cc5)c5nc(c(-c6ccc(S(=O)(=O)[O-])cc6)c6ccc3[nH]6)C=C5)C=C4)cc2)c1CC(=O)N1CCc2ccccc21
REMARK SMILES IDX 13 1 12 2 11 3 10 4 8 5 9 6 7 8 3 9 4 10 80 11 5 12 6 13
REMARK SMILES IDX 2 14 1 15 81 16 82 17 83 18 84 19 85 20 92 21 86 22 87 23
REMARK SMILES IDX 91 24 88 25 90 26 89 27 14 28 15 29 16 30 17 31 18 32 19 34
REMARK SMILES IDX 20 35 21 36 79 37 22 38 78 39 23 40 24 41 25 42 72 43 26 44
REMARK SMILES IDX 77 45 71 46 73 47 27 48 76 49 70 50 69 51 28 53 58 54 39 55
REMARK SMILES IDX 57 56 40 57 43 58 56 59 74 60 41 61 42 62 55 64 75 65 44 66
REMARK SMILES IDX 29 67 30 68 38 69 31 70 37 71 32 72 33 73 34 74 35 75 36 76
REMARK SMILES IDX 59 77 60 78 68 79 61 80 67 81 62 82 63 83 64 84 65 85 66 86
REMARK SMILES IDX 45 87 46 88 54 89 47 90 53 91 48 92 49 93 50 94 51 95 52 96
REMARK H PARENT 10 7 17 33 73 52 43 63
REMARK Flexibility Score: inf
ROOT
ATOM      1  C   UNL A   1      37.312  22.565  25.805  1.00  0.00     0.002 C 
ENDROOT
BRANCH   1   2
ATOM      2  C   UNL A   1      36.509  22.298  24.529  1.00  0.00     0.021 C 
BRANCH   2   3
ATOM      3  C   UNL A   1      35.688  23.425  23.871  1.00  0.00     0.116 C 
BRANCH   3   4
ATOM      4  N   UNL A   1      34.757  23.025  22.827  1.00  0.00    -0.352 N 
ATOM      5  C   UNL A   1      33.384  23.121  22.664  1.00  0.00     0.253 C 
ATOM      6  O   UNL A   1      32.970  22.897  21.523  1.00  0.00    -0.269 OA
ATOM      7  H   UNL A   1      35.203  22.589  22.065  1.00  0.00     0.163 HD
BRANCH   5   8
ATOM      8  C   UNL A   1      32.481  23.534  23.744  1.00  0.00     0.064 A 
ATOM      9  N   UNL A   1      31.124  24.730  25.005  1.00  0.00    -0.350 N 
ATOM     10  C   UNL A   1      30.993  23.451  25.467  1.00  0.00     0.090 A 
ATOM     11  C   UNL A   1      32.319  24.793  24.323  1.00  0.00     0.040 A 
ATOM     12  C   UNL A   1      31.936  22.693  24.795  1.00  0.00    -0.020 A 
ATOM     13  C   UNL A   1      32.409  21.341  25.208  1.00  0.00     0.047 C 
BRANCH   9  14
ATOM     14  C   UNL A   1      30.245  25.835  25.347  1.00  0.00     0.118 C 
ATOM     15  C   UNL A   1      29.391  26.246  24.156  1.00  0.00     0.027 C 
ENDBRANCH   9  14
BRANCH  11  16
ATOM     16  C   UNL A   1      33.366  25.845  24.595  1.00  0.00     0.155 C 
BRANCH  16  17
ATOM     17  C   UNL A   1      33.316  26.901  23.457  1.00  0.00     0.232 C 
ATOM     18  O   UNL A   1      33.533  26.621  22.276  1.00  0.00    -0.274 OA
BRANCH  17  19
ATOM     19  N   UNL A   1      33.065  28.199  23.844  1.00  0.00    -0.311 N 
ATOM     20  C   UNL A   1      31.933  28.933  23.259  1.00  0.00     0.130 C 
ATOM     21  C   UNL A   1      33.199  28.666  25.176  1.00  0.00     0.047 A 
ATOM     22  C   UNL A   1      31.086  29.389  24.455  1.00  0.00     0.059 C 
ATOM     23  C   UNL A   1      32.159  29.535  25.487  1.00  0.00    -0.022 A 
ATOM     24  C   UNL A   1      34.220  28.451  26.080  1.00  0.00     0.026 A 
ATOM     25  C   UNL A   1      32.175  30.290  26.649  1.00  0.00     0.006 A 
ATOM     26  C   UNL A   1      34.297  29.265  27.215  1.00  0.00     0.002 A 
ATOM     27  C   UNL A   1      33.288  30.196  27.487  1.00  0.00     0.000 A 
ENDBRANCH  17  19
ENDBRANCH  16  17
ENDBRANCH  11  16
ENDBRANCH   5   8
ENDBRANCH   3   4
ENDBRANCH   2   3
ENDBRANCH   1   2
BRANCH   1  28
ATOM     28  C   UNL A   1      38.726  22.007  25.885  1.00  0.00     0.002 C 
BRANCH  28  29
ATOM     29  C   UNL A   1      39.638  22.652  26.933  1.00  0.00     0.021 C 
BRANCH  29  30
ATOM     30  C   UNL A   1      40.833  21.801  27.349  1.00  0.00     0.116 C 
BRANCH  30  31
ATOM     31  N   UNL A   1      41.926  21.849  26.376  1.00  0.00    -0.352 N 
ATOM     32  C   UNL A   1      42.440  22.956  25.721  1.00  0.00     0.251 C 
ATOM     33  H   UNL A   1      42.350  20.987  26.161  1.00  0.00     0.163 HD
ATOM     34  O   UNL A   1      43.031  22.847  24.664  1.00  0.00    -0.269 OA
BRANCH  32  35
ATOM     35  C   UNL A   1      42.295  24.269  26.371  1.00  0.00     0.039 A 
ATOM     36  C   UNL A   1      41.512  25.294  25.825  1.00  0.00     0.014 A 
ATOM     37  C   UNL A   1      43.003  24.458  27.554  1.00  0.00     0.014 A 
ATOM     38  C   UNL A   1      41.420  26.501  26.513  1.00  0.00     0.010 A 
ATOM     39  C   UNL A   1      42.778  25.570  28.310  1.00  0.00     0.010 A 
ATOM     40  C   UNL A   1      42.066  26.623  27.749  1.00  0.00    -0.014 A 
BRANCH  40  41
ATOM     41  C   UNL A   1      42.011  27.839  28.539  1.00  0.00     0.031 A 
ATOM     42  C   UNL A   1      43.114  28.798  28.292  1.00  0.00     0.074 A 
ATOM     43  C   UNL A   1      40.883  28.166  29.205  1.00  0.00     0.049 A 
ATOM     44  N   UNL A   1      44.054  29.133  29.108  1.00  0.00    -0.248 NA
ATOM     45  C   UNL A   1      43.289  29.340  26.934  1.00  0.00     0.031 C 
ATOM     46  C   UNL A   1      39.601  27.447  29.241  1.00  0.00     0.029 A 
ATOM     47  N   UNL A   1      40.595  29.309  29.872  1.00  0.00    -0.354 N 
ATOM     48  C   UNL A   1      44.824  30.085  28.448  1.00  0.00     0.074 A 
ATOM     49  C   UNL A   1      44.433  30.018  27.062  1.00  0.00     0.031 C 
ATOM     50  C   UNL A   1      38.628  28.283  29.667  1.00  0.00     0.029 A 
ATOM     51  C   UNL A   1      39.240  29.533  30.081  1.00  0.00     0.049 A 
ATOM     52  H   UNL A   1      41.291  29.932  30.184  1.00  0.00     0.167 HD
ATOM     53  C   UNL A   1      45.554  31.010  29.132  1.00  0.00     0.031 A 
ATOM     54  C   UNL A   1      38.669  30.689  30.506  1.00  0.00     0.031 A 
ATOM     55  C   UNL A   1      45.561  30.724  30.545  1.00  0.00     0.049 A 
ATOM     56  C   UNL A   1      39.748  31.476  31.165  1.00  0.00     0.074 A 
ATOM     57  C   UNL A   1      46.017  29.673  31.314  1.00  0.00     0.029 A 
ATOM     58  N   UNL A   1      44.636  31.395  31.317  1.00  0.00    -0.354 N 
ATOM     59  N   UNL A   1      40.345  31.079  32.256  1.00  0.00    -0.248 NA
ATOM     60  C   UNL A   1      40.512  32.416  30.354  1.00  0.00     0.031 C 
ATOM     61  C   UNL A   1      45.004  29.479  32.297  1.00  0.00     0.029 A 
ATOM     62  C   UNL A   1      44.036  30.475  32.140  1.00  0.00     0.049 A 
ATOM     63  H   UNL A   1      44.441  32.360  31.283  1.00  0.00     0.167 HD
ATOM     64  C   UNL A   1      41.693  31.342  32.044  1.00  0.00     0.074 A 
ATOM     65  C   UNL A   1      41.722  32.260  30.905  1.00  0.00     0.031 C 
ATOM     66  C   UNL A   1      42.666  30.562  32.607  1.00  0.00     0.031 A 
BRANCH  53  67
ATOM     67  C   UNL A   1      45.946  32.368  28.609  1.00  0.00    -0.014 A 
ATOM     68  C   UNL A   1      47.315  32.703  28.571  1.00  0.00     0.010 A 
ATOM     69  C   UNL A   1      45.025  33.414  28.403  1.00  0.00     0.010 A 
ATOM     70  C   UNL A   1      47.738  34.028  28.420  1.00  0.00     0.020 A 
ATOM     71  C   UNL A   1      45.437  34.734  28.208  1.00  0.00     0.020 A 
ATOM     72  C   UNL A   1      46.791  35.039  28.259  1.00  0.00     0.054 A 
BRANCH  72  73
ATOM     73  S   UNL A   1      47.338  36.762  28.196  1.00  0.00     0.124 S 
ATOM     74  O   UNL A   1      47.427  37.100  29.613  1.00  0.00    -0.237 OA
ATOM     75  O   UNL A   1      48.610  36.656  27.487  1.00  0.00    -0.237 OA
ATOM     76  O   UNL A   1      46.270  37.432  27.458  1.00  0.00    -0.744 OA
ENDBRANCH  72  73
ENDBRANCH  53  67
BRANCH  54  77
ATOM     77  C   UNL A   1      37.363  31.262  30.082  1.00  0.00    -0.014 A 
ATOM     78  C   UNL A   1      36.372  31.611  31.018  1.00  0.00     0.010 A 
ATOM     79  C   UNL A   1      37.192  31.715  28.757  1.00  0.00     0.010 A 
ATOM     80  C   UNL A   1      35.293  32.442  30.659  1.00  0.00     0.020 A 
ATOM     81  C   UNL A   1      36.117  32.533  28.388  1.00  0.00     0.020 A 
ATOM     82  C   UNL A   1      35.189  32.919  29.349  1.00  0.00     0.054 A 
BRANCH  82  83
ATOM     83  S   UNL A   1      33.930  34.166  28.936  1.00  0.00     0.124 S 
ATOM     84  O   UNL A   1      33.083  33.449  27.988  1.00  0.00    -0.237 OA
ATOM     85  O   UNL A   1      33.331  34.453  30.235  1.00  0.00    -0.237 OA
ATOM     86  O   UNL A   1      34.717  35.260  28.368  1.00  0.00    -0.744 OA
ENDBRANCH  82  83
ENDBRANCH  54  77
BRANCH  66  87
ATOM     87  C   UNL A   1      42.257  29.530  33.639  1.00  0.00    -0.014 A 
ATOM     88  C   UNL A   1      41.781  28.243  33.312  1.00  0.00     0.010 A 
ATOM     89  C   UNL A   1      42.545  29.809  34.985  1.00  0.00     0.010 A 
ATOM     90  C   UNL A   1      41.577  27.274  34.307  1.00  0.00     0.020 A 
ATOM     91  C   UNL A   1      42.363  28.843  35.979  1.00  0.00     0.020 A 
ATOM     92  C   UNL A   1      41.869  27.583  35.638  1.00  0.00     0.054 A 
BRANCH  92  93
ATOM     93  S   UNL A   1      41.647  26.317  36.918  1.00  0.00     0.124 S 
ATOM     94  O   UNL A   1      41.686  25.078  36.147  1.00  0.00    -0.237 OA
ATOM     95  O   UNL A   1      42.787  26.543  37.804  1.00  0.00    -0.237 OA
ATOM     96  O   UNL A   1      40.346  26.639  37.504  1.00  0.00    -0.744 OA
ENDBRANCH  92  93
ENDBRANCH  66  87
ENDBRANCH  40  41
ENDBRANCH  32  35
ENDBRANCH  30  31
ENDBRANCH  29  30
ENDBRANCH  28  29
ENDBRANCH   1  28
TORSDOF 20
ENDMDL
