MODEL 1
REMARK VINA RESULT:      -9.8      0.000      0.000
REMARK SMILES C[C@@H](Oc1ccc(C=C(C#N)C#N)cc1)C(=O)NCCCCCCNC(=O)c1ccc(-c2c3nc(c(-c4ccc(S(=O)(=O)[O-])cc4)c4ccc([nH]4)c(-c4ccc(S(=O)(=O)[O-])cc4)c4nc(c(-c5ccc(S(=O)(=O)[O-])cc5)c5ccc2[nH]5)C=C4)C=C3)cc1
REMARK SMILES IDX 21 1 20 2 19 3 18 4 16 5 17 6 2 8 1 9 3 10 4 11 5 12 15 13
REMARK SMILES IDX 6 14 14 15 7 16 8 17 9 18 10 19 11 20 12 21 13 22 22 23
REMARK SMILES IDX 23 24 24 25 25 26 26 27 27 29 28 30 29 31 87 32 30 33 86 34
REMARK SMILES IDX 31 35 32 36 33 37 80 38 34 39 85 40 79 41 81 42 35 43 84 44
REMARK SMILES IDX 78 45 77 46 36 48 66 49 47 50 65 51 48 52 51 53 64 54 82 55
REMARK SMILES IDX 49 56 50 57 63 59 83 60 52 61 37 62 38 63 46 64 39 65 45 66
REMARK SMILES IDX 40 67 41 68 42 69 43 70 44 71 67 72 68 73 76 74 69 75 75 76
REMARK SMILES IDX 70 77 71 78 72 79 73 80 74 81 53 82 54 83 62 84 55 85 61 86
REMARK SMILES IDX 56 87 57 88 58 89 59 90 60 91
REMARK H PARENT 18 7 25 28 81 47 51 58
REMARK Flexibility Score: inf
ROOT
ATOM      1  C   UNL A   1      31.199  28.033  25.166  1.00  0.00     0.002 C 
ENDROOT
BRANCH   1   2
ATOM      2  C   UNL A   1      30.722  29.116  24.196  1.00  0.00     0.021 C 
BRANCH   2   3
ATOM      3  C   UNL A   1      30.886  28.738  22.726  1.00  0.00     0.116 C 
BRANCH   3   4
ATOM      4  N   UNL A   1      32.278  28.466  22.403  1.00  0.00    -0.353 N 
ATOM      5  C   UNL A   1      32.847  27.321  21.915  1.00  0.00     0.260 C 
ATOM      6  O   UNL A   1      34.067  27.300  21.738  1.00  0.00    -0.271 OA
ATOM      7  H   UNL A   1      32.901  29.213  22.557  1.00  0.00     0.163 HD
BRANCH   5   8
ATOM      8  C   UNL A   1      31.982  26.077  21.666  1.00  0.00     0.258 C 
ATOM      9  C   UNL A   1      32.582  25.327  20.476  1.00  0.00     0.064 C 
BRANCH   8  10
ATOM     10  O   UNL A   1      31.925  25.402  22.931  1.00  0.00    -0.481 OA
BRANCH  10  11
ATOM     11  C   UNL A   1      33.038  24.776  23.397  1.00  0.00     0.120 A 
ATOM     12  C   UNL A   1      33.604  25.274  24.570  1.00  0.00     0.047 A 
ATOM     13  C   UNL A   1      33.722  23.815  22.668  1.00  0.00     0.047 A 
ATOM     14  C   UNL A   1      34.839  24.789  25.023  1.00  0.00     0.012 A 
ATOM     15  C   UNL A   1      34.929  23.301  23.136  1.00  0.00     0.012 A 
ATOM     16  C   UNL A   1      35.523  23.808  24.294  1.00  0.00    -0.023 A 
BRANCH  16  17
ATOM     17  C   UNL A   1      36.820  23.298  24.765  1.00  0.00     0.039 C 
ATOM     18  C   UNL A   1      37.101  22.033  25.148  1.00  0.00     0.130 C 
BRANCH  18  19
ATOM     19  C   UNL A   1      36.153  20.970  25.091  1.00  0.00     0.111 C 
ATOM     20  N   UNL A   1      35.377  20.112  24.998  1.00  0.00    -0.192 NA
ENDBRANCH  18  19
BRANCH  18  21
ATOM     21  C   UNL A   1      38.392  21.741  25.675  1.00  0.00     0.111 C 
ATOM     22  N   UNL A   1      39.457  21.544  26.087  1.00  0.00    -0.192 NA
ENDBRANCH  18  21
ENDBRANCH  16  17
ENDBRANCH  10  11
ENDBRANCH   8  10
ENDBRANCH   5   8
ENDBRANCH   3   4
ENDBRANCH   2   3
ENDBRANCH   1   2
BRANCH   1  23
ATOM     23  C   UNL A   1      31.772  28.565  26.483  1.00  0.00     0.002 C 
BRANCH  23  24
ATOM     24  C   UNL A   1      33.150  28.012  26.852  1.00  0.00     0.021 C 
BRANCH  24  25
ATOM     25  C   UNL A   1      34.306  28.954  26.531  1.00  0.00     0.116 C 
BRANCH  25  26
ATOM     26  N   UNL A   1      33.944  30.346  26.755  1.00  0.00    -0.352 N 
ATOM     27  C   UNL A   1      34.444  31.236  27.672  1.00  0.00     0.251 C 
ATOM     28  H   UNL A   1      33.241  30.699  26.164  1.00  0.00     0.163 HD
ATOM     29  O   UNL A   1      33.863  32.297  27.877  1.00  0.00    -0.269 OA
BRANCH  27  30
ATOM     30  C   UNL A   1      35.674  30.900  28.422  1.00  0.00     0.039 A 
ATOM     31  C   UNL A   1      35.630  29.878  29.372  1.00  0.00     0.014 A 
ATOM     32  C   UNL A   1      36.866  31.589  28.183  1.00  0.00     0.014 A 
ATOM     33  C   UNL A   1      36.799  29.510  30.040  1.00  0.00     0.010 A 
ATOM     34  C   UNL A   1      38.045  31.162  28.786  1.00  0.00     0.010 A 
ATOM     35  C   UNL A   1      38.024  30.121  29.726  1.00  0.00    -0.014 A 
BRANCH  35  36
ATOM     36  C   UNL A   1      39.291  29.680  30.366  1.00  0.00     0.031 A 
ATOM     37  C   UNL A   1      39.808  30.386  31.591  1.00  0.00     0.074 A 
ATOM     38  C   UNL A   1      39.997  28.671  29.817  1.00  0.00     0.049 A 
ATOM     39  N   UNL A   1      40.911  30.169  32.261  1.00  0.00    -0.248 NA
ATOM     40  C   UNL A   1      38.995  31.494  32.121  1.00  0.00     0.031 C 
ATOM     41  C   UNL A   1      39.618  27.928  28.613  1.00  0.00     0.029 A 
ATOM     42  N   UNL A   1      41.183  28.094  30.199  1.00  0.00    -0.354 N 
ATOM     43  C   UNL A   1      40.925  31.112  33.283  1.00  0.00     0.074 A 
ATOM     44  C   UNL A   1      39.754  31.942  33.110  1.00  0.00     0.031 C 
ATOM     45  C   UNL A   1      40.534  26.975  28.375  1.00  0.00     0.029 A 
ATOM     46  C   UNL A   1      41.592  27.073  29.374  1.00  0.00     0.049 A 
ATOM     47  H   UNL A   1      41.693  28.385  30.989  1.00  0.00     0.167 HD
ATOM     48  C   UNL A   1      41.822  31.260  34.287  1.00  0.00     0.031 A 
ATOM     49  C   UNL A   1      42.702  26.308  29.407  1.00  0.00     0.031 A 
ATOM     50  C   UNL A   1      42.988  30.432  34.454  1.00  0.00     0.049 A 
ATOM     51  C   UNL A   1      43.705  26.525  30.508  1.00  0.00     0.074 A 
ATOM     52  C   UNL A   1      43.934  30.476  35.463  1.00  0.00     0.029 A 
ATOM     53  N   UNL A   1      43.373  29.418  33.590  1.00  0.00    -0.354 N 
ATOM     54  N   UNL A   1      43.666  27.378  31.504  1.00  0.00    -0.248 NA
ATOM     55  C   UNL A   1      44.900  25.669  30.496  1.00  0.00     0.031 C 
ATOM     56  C   UNL A   1      44.929  29.539  35.171  1.00  0.00     0.029 A 
ATOM     57  C   UNL A   1      44.560  28.851  34.026  1.00  0.00     0.049 A 
ATOM     58  H   UNL A   1      42.876  29.141  32.786  1.00  0.00     0.167 HD
ATOM     59  C   UNL A   1      44.811  27.135  32.256  1.00  0.00     0.074 A 
ATOM     60  C   UNL A   1      45.510  26.044  31.611  1.00  0.00     0.031 C 
ATOM     61  C   UNL A   1      45.244  27.761  33.379  1.00  0.00     0.031 A 
BRANCH  48  62
ATOM     62  C   UNL A   1      41.584  32.363  35.287  1.00  0.00    -0.014 A 
ATOM     63  C   UNL A   1      42.231  33.607  35.166  1.00  0.00     0.010 A 
ATOM     64  C   UNL A   1      40.645  32.180  36.320  1.00  0.00     0.010 A 
ATOM     65  C   UNL A   1      41.965  34.635  36.074  1.00  0.00     0.020 A 
ATOM     66  C   UNL A   1      40.352  33.217  37.210  1.00  0.00     0.020 A 
ATOM     67  C   UNL A   1      41.023  34.436  37.087  1.00  0.00     0.054 A 
BRANCH  67  68
ATOM     68  S   UNL A   1      40.662  35.808  38.217  1.00  0.00     0.124 S 
ATOM     69  O   UNL A   1      39.781  36.644  37.405  1.00  0.00    -0.237 OA
ATOM     70  O   UNL A   1      40.023  35.131  39.343  1.00  0.00    -0.237 OA
ATOM     71  O   UNL A   1      41.975  36.381  38.500  1.00  0.00    -0.744 OA
ENDBRANCH  67  68
ENDBRANCH  48  62
BRANCH  49  72
ATOM     72  C   UNL A   1      42.933  25.271  28.361  1.00  0.00    -0.014 A 
ATOM     73  C   UNL A   1      42.359  23.991  28.473  1.00  0.00     0.010 A 
ATOM     74  C   UNL A   1      43.751  25.553  27.251  1.00  0.00     0.010 A 
ATOM     75  C   UNL A   1      42.627  23.006  27.518  1.00  0.00     0.020 A 
ATOM     76  C   UNL A   1      43.990  24.584  26.273  1.00  0.00     0.020 A 
ATOM     77  C   UNL A   1      43.441  23.310  26.423  1.00  0.00     0.054 A 
BRANCH  77  78
ATOM     78  S   UNL A   1      43.756  22.024  25.183  1.00  0.00     0.124 S 
ATOM     79  O   UNL A   1      45.159  21.703  25.425  1.00  0.00    -0.237 OA
ATOM     80  O   UNL A   1      42.795  20.988  25.555  1.00  0.00    -0.237 OA
ATOM     81  O   UNL A   1      43.477  22.695  23.915  1.00  0.00    -0.744 OA
ENDBRANCH  77  78
ENDBRANCH  49  72
BRANCH  61  82
ATOM     82  C   UNL A   1      46.513  27.251  34.015  1.00  0.00    -0.014 A 
ATOM     83  C   UNL A   1      46.493  26.231  34.983  1.00  0.00     0.010 A 
ATOM     84  C   UNL A   1      47.752  27.769  33.593  1.00  0.00     0.010 A 
ATOM     85  C   UNL A   1      47.686  25.765  35.543  1.00  0.00     0.020 A 
ATOM     86  C   UNL A   1      48.948  27.280  34.122  1.00  0.00     0.020 A 
ATOM     87  C   UNL A   1      48.907  26.290  35.105  1.00  0.00     0.054 A 
BRANCH  87  88
ATOM     88  S   UNL A   1      50.441  25.634  35.816  1.00  0.00     0.124 S 
ATOM     89  O   UNL A   1      51.284  25.480  34.633  1.00  0.00    -0.237 OA
ATOM     90  O   UNL A   1      50.840  26.692  36.740  1.00  0.00    -0.237 OA
ATOM     91  O   UNL A   1      50.024  24.384  36.449  1.00  0.00    -0.744 OA
ENDBRANCH  87  88
ENDBRANCH  61  82
ENDBRANCH  35  36
ENDBRANCH  27  30
ENDBRANCH  25  26
ENDBRANCH  24  25
ENDBRANCH  23  24
ENDBRANCH   1  23
TORSDOF 21
ENDMDL
MODEL 2
REMARK VINA RESULT:      -8.7      1.750      2.435
REMARK SMILES C[C@@H](Oc1ccc(C=C(C#N)C#N)cc1)C(=O)NCCCCCCNC(=O)c1ccc(-c2c3nc(c(-c4ccc(S(=O)(=O)[O-])cc4)c4ccc([nH]4)c(-c4ccc(S(=O)(=O)[O-])cc4)c4nc(c(-c5ccc(S(=O)(=O)[O-])cc5)c5ccc2[nH]5)C=C4)C=C3)cc1
REMARK SMILES IDX 21 1 20 2 19 3 18 4 16 5 17 6 2 8 1 9 3 10 4 11 5 12 15 13
REMARK SMILES IDX 6 14 14 15 7 16 8 17 9 18 10 19 11 20 12 21 13 22 22 23
REMARK SMILES IDX 23 24 24 25 25 26 26 27 27 29 28 30 29 31 87 32 30 33 86 34
REMARK SMILES IDX 31 35 32 36 33 37 80 38 34 39 85 40 79 41 81 42 35 43 84 44
REMARK SMILES IDX 78 45 77 46 36 48 66 49 47 50 65 51 48 52 51 53 64 54 82 55
REMARK SMILES IDX 49 56 50 57 63 59 83 60 52 61 37 62 38 63 46 64 39 65 45 66
REMARK SMILES IDX 40 67 41 68 42 69 43 70 44 71 67 72 68 73 76 74 69 75 75 76
REMARK SMILES IDX 70 77 71 78 72 79 73 80 74 81 53 82 54 83 62 84 55 85 61 86
REMARK SMILES IDX 56 87 57 88 58 89 59 90 60 91
REMARK H PARENT 18 7 25 28 81 47 51 58
REMARK Flexibility Score: inf
ROOT
ATOM      1  C   UNL A   1      32.541  28.402  25.645  1.00  0.00     0.002 C 
ENDROOT
BRANCH   1   2
ATOM      2  C   UNL A   1      31.231  28.861  25.002  1.00  0.00     0.021 C 
BRANCH   2   3
ATOM      3  C   UNL A   1      31.039  28.359  23.574  1.00  0.00     0.116 C 
BRANCH   3   4
ATOM      4  N   UNL A   1      32.296  28.356  22.842  1.00  0.00    -0.353 N 
ATOM      5  C   UNL A   1      33.005  27.298  22.342  1.00  0.00     0.260 C 
ATOM      6  O   UNL A   1      34.075  27.525  21.772  1.00  0.00    -0.271 OA
ATOM      7  H   UNL A   1      32.693  29.243  22.683  1.00  0.00     0.163 HD
BRANCH   5   8
ATOM      8  C   UNL A   1      32.502  25.864  22.556  1.00  0.00     0.258 C 
ATOM      9  C   UNL A   1      32.669  25.113  21.235  1.00  0.00     0.064 C 
BRANCH   8  10
ATOM     10  O   UNL A   1      33.221  25.383  23.702  1.00  0.00    -0.481 OA
BRANCH  10  11
ATOM     11  C   UNL A   1      33.206  24.053  23.981  1.00  0.00     0.120 A 
ATOM     12  C   UNL A   1      32.049  23.537  24.561  1.00  0.00     0.047 A 
ATOM     13  C   UNL A   1      34.336  23.253  23.892  1.00  0.00     0.047 A 
ATOM     14  C   UNL A   1      32.017  22.214  25.025  1.00  0.00     0.012 A 
ATOM     15  C   UNL A   1      34.297  21.927  24.315  1.00  0.00     0.012 A 
ATOM     16  C   UNL A   1      33.153  21.403  24.923  1.00  0.00    -0.023 A 
BRANCH  16  17
ATOM     17  C   UNL A   1      33.125  20.015  25.412  1.00  0.00     0.039 C 
ATOM     18  C   UNL A   1      32.800  18.914  24.701  1.00  0.00     0.130 C 
BRANCH  18  19
ATOM     19  C   UNL A   1      32.481  18.946  23.312  1.00  0.00     0.111 C 
ATOM     20  N   UNL A   1      32.257  18.941  22.173  1.00  0.00    -0.192 NA
ENDBRANCH  18  19
BRANCH  18  21
ATOM     21  C   UNL A   1      32.727  17.657  25.367  1.00  0.00     0.111 C 
ATOM     22  N   UNL A   1      32.666  16.657  25.949  1.00  0.00    -0.192 NA
ENDBRANCH  18  21
ENDBRANCH  16  17
ENDBRANCH  10  11
ENDBRANCH   8  10
ENDBRANCH   5   8
ENDBRANCH   3   4
ENDBRANCH   2   3
ENDBRANCH   1   2
BRANCH   1  23
ATOM     23  C   UNL A   1      33.124  29.377  26.673  1.00  0.00     0.002 C 
BRANCH  23  24
ATOM     24  C   UNL A   1      34.484  28.969  27.243  1.00  0.00     0.021 C 
BRANCH  24  25
ATOM     25  C   UNL A   1      35.489  30.111  27.335  1.00  0.00     0.116 C 
BRANCH  25  26
ATOM     26  N   UNL A   1      34.956  31.240  28.084  1.00  0.00    -0.352 N 
ATOM     27  C   UNL A   1      35.360  31.748  29.292  1.00  0.00     0.251 C 
ATOM     28  H   UNL A   1      34.197  31.704  27.663  1.00  0.00     0.163 HD
ATOM     29  O   UNL A   1      34.652  32.554  29.887  1.00  0.00    -0.269 OA
BRANCH  27  30
ATOM     30  C   UNL A   1      36.643  31.304  29.880  1.00  0.00     0.039 A 
ATOM     31  C   UNL A   1      36.637  30.267  30.814  1.00  0.00     0.014 A 
ATOM     32  C   UNL A   1      37.847  31.908  29.505  1.00  0.00     0.014 A 
ATOM     33  C   UNL A   1      37.847  29.798  31.329  1.00  0.00     0.010 A 
ATOM     34  C   UNL A   1      39.054  31.380  29.952  1.00  0.00     0.010 A 
ATOM     35  C   UNL A   1      39.068  30.323  30.873  1.00  0.00    -0.014 A 
BRANCH  35  36
ATOM     36  C   UNL A   1      40.366  29.774  31.347  1.00  0.00     0.031 A 
ATOM     37  C   UNL A   1      41.063  30.388  32.531  1.00  0.00     0.074 A 
ATOM     38  C   UNL A   1      40.937  28.749  30.681  1.00  0.00     0.049 A 
ATOM     39  N   UNL A   1      42.217  30.071  33.061  1.00  0.00    -0.248 NA
ATOM     40  C   UNL A   1      40.391  31.518  33.194  1.00  0.00     0.031 C 
ATOM     41  C   UNL A   1      40.377  28.089  29.499  1.00  0.00     0.029 A 
ATOM     42  N   UNL A   1      42.116  28.082  30.901  1.00  0.00    -0.354 N 
ATOM     43  C   UNL A   1      42.409  30.963  34.111  1.00  0.00     0.074 A 
ATOM     44  C   UNL A   1      41.284  31.871  34.107  1.00  0.00     0.031 C 
ATOM     45  C   UNL A   1      41.194  27.093  29.120  1.00  0.00     0.029 A 
ATOM     46  C   UNL A   1      42.361  27.077  29.995  1.00  0.00     0.049 A 
ATOM     47  H   UNL A   1      42.730  28.303  31.639  1.00  0.00     0.167 HD
ATOM     48  C   UNL A   1      43.420  31.006  35.011  1.00  0.00     0.031 A 
ATOM     49  C   UNL A   1      43.414  26.244  29.870  1.00  0.00     0.031 A 
ATOM     50  C   UNL A   1      44.539  30.101  35.010  1.00  0.00     0.049 A 
ATOM     51  C   UNL A   1      44.546  26.346  30.857  1.00  0.00     0.074 A 
ATOM     52  C   UNL A   1      45.592  30.039  35.905  1.00  0.00     0.029 A 
ATOM     53  N   UNL A   1      44.755  29.106  34.069  1.00  0.00    -0.354 N 
ATOM     54  N   UNL A   1      44.675  27.153  31.884  1.00  0.00    -0.248 NA
ATOM     55  C   UNL A   1      45.671  25.419  30.674  1.00  0.00     0.031 C 
ATOM     56  C   UNL A   1      46.483  29.055  35.465  1.00  0.00     0.029 A 
ATOM     57  C   UNL A   1      45.943  28.447  34.343  1.00  0.00     0.049 A 
ATOM     58  H   UNL A   1      44.155  28.899  33.317  1.00  0.00     0.167 HD
ATOM     59  C   UNL A   1      45.878  26.803  32.490  1.00  0.00     0.074 A 
ATOM     60  C   UNL A   1      46.426  25.702  31.726  1.00  0.00     0.031 C 
ATOM     61  C   UNL A   1      46.476  27.347  33.579  1.00  0.00     0.031 A 
BRANCH  48  62
ATOM     62  C   UNL A   1      43.370  32.074  36.075  1.00  0.00    -0.014 A 
ATOM     63  C   UNL A   1      43.852  33.372  35.826  1.00  0.00     0.010 A 
ATOM     64  C   UNL A   1      42.765  31.798  37.315  1.00  0.00     0.010 A 
ATOM     65  C   UNL A   1      43.757  34.364  36.805  1.00  0.00     0.020 A 
ATOM     66  C   UNL A   1      42.638  32.795  38.286  1.00  0.00     0.020 A 
ATOM     67  C   UNL A   1      43.145  34.071  38.028  1.00  0.00     0.054 A 
BRANCH  67  68
ATOM     68  S   UNL A   1      42.990  35.394  39.259  1.00  0.00     0.124 S 
ATOM     69  O   UNL A   1      43.298  36.581  38.466  1.00  0.00    -0.237 OA
ATOM     70  O   UNL A   1      41.599  35.268  39.686  1.00  0.00    -0.237 OA
ATOM     71  O   UNL A   1      43.984  35.047  40.270  1.00  0.00    -0.744 OA
ENDBRANCH  67  68
ENDBRANCH  48  62
BRANCH  49  72
ATOM     72  C   UNL A   1      43.456  25.245  28.764  1.00  0.00    -0.014 A 
ATOM     73  C   UNL A   1      44.054  25.560  27.530  1.00  0.00     0.010 A 
ATOM     74  C   UNL A   1      42.875  23.974  28.932  1.00  0.00     0.010 A 
ATOM     75  C   UNL A   1      44.039  24.639  26.478  1.00  0.00     0.020 A 
ATOM     76  C   UNL A   1      42.891  23.037  27.897  1.00  0.00     0.020 A 
ATOM     77  C   UNL A   1      43.458  23.383  26.669  1.00  0.00     0.054 A 
BRANCH  77  78
ATOM     78  S   UNL A   1      43.471  22.195  25.298  1.00  0.00     0.124 S 
ATOM     79  O   UNL A   1      42.304  21.371  25.597  1.00  0.00    -0.237 OA
ATOM     80  O   UNL A   1      43.351  23.064  24.129  1.00  0.00    -0.237 OA
ATOM     81  O   UNL A   1      44.762  21.524  25.437  1.00  0.00    -0.744 OA
ENDBRANCH  77  78
ENDBRANCH  49  72
BRANCH  61  82
ATOM     82  C   UNL A   1      47.770  26.731  34.045  1.00  0.00    -0.014 A 
ATOM     83  C   UNL A   1      49.017  27.218  33.614  1.00  0.00     0.010 A 
ATOM     84  C   UNL A   1      47.735  25.677  34.979  1.00  0.00     0.010 A 
ATOM     85  C   UNL A   1      50.201  26.639  34.077  1.00  0.00     0.020 A 
ATOM     86  C   UNL A   1      48.916  25.121  35.473  1.00  0.00     0.020 A 
ATOM     87  C   UNL A   1      50.143  25.596  35.008  1.00  0.00     0.054 A 
BRANCH  87  88
ATOM     88  S   UNL A   1      51.697  24.894  35.627  1.00  0.00     0.124 S 
ATOM     89  O   UNL A   1      51.269  24.253  36.867  1.00  0.00    -0.237 OA
ATOM     90  O   UNL A   1      52.086  23.987  34.550  1.00  0.00    -0.237 OA
ATOM     91  O   UNL A   1      52.561  26.061  35.795  1.00  0.00    -0.744 OA
ENDBRANCH  87  88
ENDBRANCH  61  82
ENDBRANCH  35  36
ENDBRANCH  27  30
ENDBRANCH  25  26
ENDBRANCH  24  25
ENDBRANCH  23  24
ENDBRANCH   1  23
TORSDOF 21
ENDMDL
MODEL 3
REMARK VINA RESULT:      -8.3      6.313      9.299
REMARK SMILES C[C@@H](Oc1ccc(C=C(C#N)C#N)cc1)C(=O)NCCCCCCNC(=O)c1ccc(-c2c3nc(c(-c4ccc(S(=O)(=O)[O-])cc4)c4ccc([nH]4)c(-c4ccc(S(=O)(=O)[O-])cc4)c4nc(c(-c5ccc(S(=O)(=O)[O-])cc5)c5ccc2[nH]5)C=C4)C=C3)cc1
REMARK SMILES IDX 21 1 20 2 19 3 18 4 16 5 17 6 2 8 1 9 3 10 4 11 5 12 15 13
REMARK SMILES IDX 6 14 14 15 7 16 8 17 9 18 10 19 11 20 12 21 13 22 22 23
REMARK SMILES IDX 23 24 24 25 25 26 26 27 27 29 28 30 29 31 87 32 30 33 86 34
REMARK SMILES IDX 31 35 32 36 33 37 80 38 34 39 85 40 79 41 81 42 35 43 84 44
REMARK SMILES IDX 78 45 77 46 36 48 66 49 47 50 65 51 48 52 51 53 64 54 82 55
REMARK SMILES IDX 49 56 50 57 63 59 83 60 52 61 37 62 38 63 46 64 39 65 45 66
REMARK SMILES IDX 40 67 41 68 42 69 43 70 44 71 67 72 68 73 76 74 69 75 75 76
REMARK SMILES IDX 70 77 71 78 72 79 73 80 74 81 53 82 54 83 62 84 55 85 61 86
REMARK SMILES IDX 56 87 57 88 58 89 59 90 60 91
REMARK H PARENT 18 7 25 28 81 47 51 58
REMARK Flexibility Score: inf
ROOT
ATOM      1  C   UNL A   1      34.499  29.552  26.808  1.00  0.00     0.002 C 
ENDROOT
BRANCH   1   2
ATOM      2  C   UNL A   1      32.988  29.639  27.035  1.00  0.00     0.021 C 
BRANCH   2   3
ATOM      3  C   UNL A   1      32.176  29.678  25.744  1.00  0.00     0.116 C 
BRANCH   3   4
ATOM      4  N   UNL A   1      33.039  29.606  24.575  1.00  0.00    -0.353 N 
ATOM      5  C   UNL A   1      32.841  28.946  23.392  1.00  0.00     0.260 C 
ATOM      6  O   UNL A   1      33.728  28.997  22.537  1.00  0.00    -0.271 OA
ATOM      7  H   UNL A   1      33.886  30.103  24.644  1.00  0.00     0.163 HD
BRANCH   5   8
ATOM      8  C   UNL A   1      31.572  28.109  23.179  1.00  0.00     0.258 C 
ATOM      9  C   UNL A   1      30.432  29.074  22.848  1.00  0.00     0.064 C 
BRANCH   8  10
ATOM     10  O   UNL A   1      31.932  27.128  22.196  1.00  0.00    -0.481 OA
BRANCH  10  11
ATOM     11  C   UNL A   1      32.010  25.822  22.564  1.00  0.00     0.120 A 
ATOM     12  C   UNL A   1      33.141  25.113  22.162  1.00  0.00     0.047 A 
ATOM     13  C   UNL A   1      30.949  25.137  23.139  1.00  0.00     0.047 A 
ATOM     14  C   UNL A   1      33.219  23.728  22.362  1.00  0.00     0.012 A 
ATOM     15  C   UNL A   1      31.039  23.768  23.376  1.00  0.00     0.012 A 
ATOM     16  C   UNL A   1      32.154  23.039  22.955  1.00  0.00    -0.023 A 
BRANCH  16  17
ATOM     17  C   UNL A   1      32.231  21.585  23.164  1.00  0.00     0.039 C 
ATOM     18  C   UNL A   1      32.803  20.946  24.208  1.00  0.00     0.130 C 
BRANCH  18  19
ATOM     19  C   UNL A   1      33.384  21.627  25.317  1.00  0.00     0.111 C 
ATOM     20  N   UNL A   1      33.816  22.204  26.227  1.00  0.00    -0.192 NA
ENDBRANCH  18  19
BRANCH  18  21
ATOM     21  C   UNL A   1      32.874  19.524  24.194  1.00  0.00     0.111 C 
ATOM     22  N   UNL A   1      32.957  18.369  24.144  1.00  0.00    -0.192 NA
ENDBRANCH  18  21
ENDBRANCH  16  17
ENDBRANCH  10  11
ENDBRANCH   8  10
ENDBRANCH   5   8
ENDBRANCH   3   4
ENDBRANCH   2   3
ENDBRANCH   1   2
BRANCH   1  23
ATOM     23  C   UNL A   1      35.345  29.732  28.073  1.00  0.00     0.002 C 
BRANCH  23  24
ATOM     24  C   UNL A   1      36.819  30.051  27.817  1.00  0.00     0.021 C 
BRANCH  24  25
ATOM     25  C   UNL A   1      37.652  30.208  29.084  1.00  0.00     0.116 C 
BRANCH  25  26
ATOM     26  N   UNL A   1      36.992  29.617  30.239  1.00  0.00    -0.352 N 
ATOM     27  C   UNL A   1      37.278  29.767  31.573  1.00  0.00     0.251 C 
ATOM     28  H   UNL A   1      36.233  29.025  30.034  1.00  0.00     0.163 HD
ATOM     29  O   UNL A   1      36.770  29.015  32.398  1.00  0.00    -0.269 OA
BRANCH  27  30
ATOM     30  C   UNL A   1      38.213  30.828  32.005  1.00  0.00     0.039 A 
ATOM     31  C   UNL A   1      37.766  32.151  32.043  1.00  0.00     0.014 A 
ATOM     32  C   UNL A   1      39.524  30.517  32.377  1.00  0.00     0.014 A 
ATOM     33  C   UNL A   1      38.619  33.152  32.509  1.00  0.00     0.010 A 
ATOM     34  C   UNL A   1      40.341  31.502  32.923  1.00  0.00     0.010 A 
ATOM     35  C   UNL A   1      39.900  32.832  32.990  1.00  0.00    -0.014 A 
BRANCH  35  36
ATOM     36  C   UNL A   1      40.787  33.875  33.570  1.00  0.00     0.031 A 
ATOM     37  C   UNL A   1      40.654  34.264  35.018  1.00  0.00     0.074 A 
ATOM     38  C   UNL A   1      41.681  34.502  32.779  1.00  0.00     0.049 A 
ATOM     39  N   UNL A   1      41.310  35.178  35.687  1.00  0.00    -0.248 NA
ATOM     40  C   UNL A   1      39.640  33.553  35.815  1.00  0.00     0.031 C 
ATOM     41  C   UNL A   1      41.883  34.238  31.352  1.00  0.00     0.029 A 
ATOM     42  N   UNL A   1      42.589  35.492  33.062  1.00  0.00    -0.354 N 
ATOM     43  C   UNL A   1      40.786  35.153  36.975  1.00  0.00     0.074 A 
ATOM     44  C   UNL A   1      39.718  34.179  36.980  1.00  0.00     0.031 C 
ATOM     45  C   UNL A   1      42.874  35.020  30.894  1.00  0.00     0.029 A 
ATOM     46  C   UNL A   1      43.340  35.880  31.976  1.00  0.00     0.049 A 
ATOM     47  H   UNL A   1      42.692  35.889  33.957  1.00  0.00     0.167 HD
ATOM     48  C   UNL A   1      41.174  35.863  38.061  1.00  0.00     0.031 A 
ATOM     49  C   UNL A   1      44.289  36.830  31.859  1.00  0.00     0.031 A 
ATOM     50  C   UNL A   1      42.236  36.834  38.052  1.00  0.00     0.049 A 
ATOM     51  C   UNL A   1      44.667  37.637  33.072  1.00  0.00     0.074 A 
ATOM     52  C   UNL A   1      42.731  37.575  39.111  1.00  0.00     0.029 A 
ATOM     53  N   UNL A   1      42.963  37.206  36.931  1.00  0.00    -0.354 N 
ATOM     54  N   UNL A   1      44.206  37.550  34.298  1.00  0.00    -0.248 NA
ATOM     55  C   UNL A   1      45.703  38.663  32.890  1.00  0.00     0.031 C 
ATOM     56  C   UNL A   1      43.707  38.446  38.617  1.00  0.00     0.029 A 
ATOM     57  C   UNL A   1      43.880  38.189  37.266  1.00  0.00     0.049 A 
ATOM     58  H   UNL A   1      42.845  36.827  36.029  1.00  0.00     0.167 HD
ATOM     59  C   UNL A   1      44.922  38.486  35.038  1.00  0.00     0.074 A 
ATOM     60  C   UNL A   1      45.858  39.111  34.128  1.00  0.00     0.031 C 
ATOM     61  C   UNL A   1      44.812  38.800  36.353  1.00  0.00     0.031 A 
BRANCH  48  62
ATOM     62  C   UNL A   1      40.442  35.623  39.358  1.00  0.00    -0.014 A 
ATOM     63  C   UNL A   1      40.879  34.645  40.270  1.00  0.00     0.010 A 
ATOM     64  C   UNL A   1      39.346  36.436  39.703  1.00  0.00     0.010 A 
ATOM     65  C   UNL A   1      40.218  34.466  41.488  1.00  0.00     0.020 A 
ATOM     66  C   UNL A   1      38.703  36.283  40.934  1.00  0.00     0.020 A 
ATOM     67  C   UNL A   1      39.138  35.291  41.815  1.00  0.00     0.054 A 
BRANCH  67  68
ATOM     68  S   UNL A   1      38.335  35.068  43.426  1.00  0.00     0.124 S 
ATOM     69  O   UNL A   1      38.906  33.800  43.875  1.00  0.00    -0.237 OA
ATOM     70  O   UNL A   1      38.771  36.250  44.164  1.00  0.00    -0.237 OA
ATOM     71  O   UNL A   1      36.911  35.027  43.104  1.00  0.00    -0.744 OA
ENDBRANCH  67  68
ENDBRANCH  48  62
BRANCH  49  72
ATOM     72  C   UNL A   1      44.943  37.082  30.543  1.00  0.00    -0.014 A 
ATOM     73  C   UNL A   1      44.403  38.012  29.635  1.00  0.00     0.010 A 
ATOM     74  C   UNL A   1      46.103  36.373  30.179  1.00  0.00     0.010 A 
ATOM     75  C   UNL A   1      44.988  38.201  28.380  1.00  0.00     0.020 A 
ATOM     76  C   UNL A   1      46.714  36.588  28.941  1.00  0.00     0.020 A 
ATOM     77  C   UNL A   1      46.142  37.488  28.042  1.00  0.00     0.054 A 
BRANCH  77  78
ATOM     78  S   UNL A   1      46.898  37.767  26.416  1.00  0.00     0.124 S 
ATOM     79  O   UNL A   1      46.722  36.470  25.771  1.00  0.00    -0.237 OA
ATOM     80  O   UNL A   1      46.089  38.858  25.877  1.00  0.00    -0.237 OA
ATOM     81  O   UNL A   1      48.278  38.124  26.737  1.00  0.00    -0.744 OA
ENDBRANCH  77  78
ENDBRANCH  49  72
BRANCH  61  82
ATOM     82  C   UNL A   1      45.760  39.834  36.905  1.00  0.00    -0.014 A 
ATOM     83  C   UNL A   1      45.447  41.206  36.885  1.00  0.00     0.010 A 
ATOM     84  C   UNL A   1      46.964  39.416  37.504  1.00  0.00     0.010 A 
ATOM     85  C   UNL A   1      46.337  42.141  37.421  1.00  0.00     0.020 A 
ATOM     86  C   UNL A   1      47.837  40.344  38.074  1.00  0.00     0.020 A 
ATOM     87  C   UNL A   1      47.525  41.703  38.016  1.00  0.00     0.054 A 
BRANCH  87  88
ATOM     88  S   UNL A   1      48.639  42.935  38.744  1.00  0.00     0.124 S 
ATOM     89  O   UNL A   1      48.536  42.636  40.169  1.00  0.00    -0.237 OA
ATOM     90  O   UNL A   1      49.921  42.611  38.123  1.00  0.00    -0.237 OA
ATOM     91  O   UNL A   1      48.059  44.213  38.333  1.00  0.00    -0.744 OA
ENDBRANCH  87  88
ENDBRANCH  61  82
ENDBRANCH  35  36
ENDBRANCH  27  30
ENDBRANCH  25  26
ENDBRANCH  24  25
ENDBRANCH  23  24
ENDBRANCH   1  23
TORSDOF 21
ENDMDL
