MODEL 1
REMARK VINA RESULT:     -10.4      0.000      0.000
REMARK SMILES CC[C@H](C)[C@H](NC(=O)N1CCCCC1)C(=O)NCCCCCCNC(=O)c1ccc(-c2c3nc(c(-c4ccc(S(=O)(=O)[O-])cc4)c4ccc([nH]4)c(-c4ccc(S(=O)(=O)[O-])cc4)c4nc(c(-c5ccc(S(=O)(=O)[O-])cc5)c5ccc2[nH]5)C=C4)C=C3)cc1
REMARK SMILES IDX 21 1 20 2 19 3 18 4 17 5 15 6 16 7 5 9 3 10 4 11 2 12 1 13
REMARK SMILES IDX 6 14 7 15 8 17 9 18 10 19 14 20 11 21 13 22 12 23 22 24
REMARK SMILES IDX 23 25 24 26 25 27 26 29 27 30 28 31 86 32 29 33 85 34 30 35
REMARK SMILES IDX 31 36 32 37 79 38 33 39 84 40 78 41 80 42 34 43 83 44 77 45
REMARK SMILES IDX 76 46 35 48 65 49 46 50 64 51 47 52 50 53 63 54 81 55 48 56
REMARK SMILES IDX 49 57 62 59 82 60 51 61 36 62 37 63 45 64 38 65 44 66 39 67
REMARK SMILES IDX 40 68 41 69 42 70 43 71 66 72 67 73 75 74 68 75 74 76 69 77
REMARK SMILES IDX 70 78 71 79 72 80 73 81 52 82 53 83 61 84 54 85 60 86 55 87
REMARK SMILES IDX 56 88 57 89 58 90 59 91
REMARK H PARENT 17 8 6 16 24 28 80 47 50 58
REMARK Flexibility Score: inf
ROOT
ATOM      1  C   UNL A   1      31.914  27.860  25.341  1.00  0.00     0.002 C 
ENDROOT
BRANCH   1   2
ATOM      2  C   UNL A   1      30.778  26.944  24.899  1.00  0.00     0.002 C 
BRANCH   2   3
ATOM      3  C   UNL A   1      30.956  26.163  23.607  1.00  0.00     0.021 C 
BRANCH   3   4
ATOM      4  C   UNL A   1      30.637  24.673  23.641  1.00  0.00     0.116 C 
BRANCH   4   5
ATOM      5  N   UNL A   1      31.490  23.799  22.860  1.00  0.00    -0.354 N 
ATOM      6  C   UNL A   1      32.400  22.854  23.171  1.00  0.00     0.242 C 
ATOM      7  O   UNL A   1      32.877  22.223  22.218  1.00  0.00    -0.273 OA
ATOM      8  H   UNL A   1      31.381  23.923  21.890  1.00  0.00     0.163 HD
BRANCH   6   9
ATOM      9  C   UNL A   1      32.781  22.477  24.602  1.00  0.00     0.176 C 
BRANCH   9  10
ATOM     10  C   UNL A   1      32.571  23.642  25.641  1.00  0.00     0.018 C 
ATOM     11  C   UNL A   1      31.821  23.309  26.938  1.00  0.00     0.010 C 
BRANCH  10  12
ATOM     12  C   UNL A   1      33.842  24.457  26.003  1.00  0.00     0.002 C 
ATOM     13  C   UNL A   1      34.458  25.330  24.914  1.00  0.00     0.004 C 
ENDBRANCH  10  12
ENDBRANCH   9  10
BRANCH   9  14
ATOM     14  N   UNL A   1      34.129  21.896  24.661  1.00  0.00    -0.326 N 
ATOM     15  C   UNL A   1      34.679  20.676  24.802  1.00  0.00     0.318 C 
ATOM     16  H   UNL A   1      34.821  22.591  24.576  1.00  0.00     0.166 HD
ATOM     17  O   UNL A   1      35.911  20.706  24.914  1.00  0.00    -0.249 OA
ATOM     18  N   UNL A   1      34.001  19.490  24.772  1.00  0.00    -0.325 N 
ATOM     19  C   UNL A   1      34.790  18.252  24.702  1.00  0.00     0.121 C 
ATOM     20  C   UNL A   1      32.571  19.202  24.824  1.00  0.00     0.121 C 
ATOM     21  C   UNL A   1      34.456  17.446  23.446  1.00  0.00     0.022 C 
ATOM     22  C   UNL A   1      32.109  18.507  23.544  1.00  0.00     0.022 C 
ATOM     23  C   UNL A   1      32.951  17.267  23.215  1.00  0.00     0.004 C 
ENDBRANCH   9  14
ENDBRANCH   6   9
ENDBRANCH   4   5
ENDBRANCH   3   4
ENDBRANCH   2   3
ENDBRANCH   1   2
BRANCH   1  24
ATOM     24  C   UNL A   1      32.260  27.776  26.814  1.00  0.00     0.021 C 
BRANCH  24  25
ATOM     25  C   UNL A   1      33.582  28.434  27.151  1.00  0.00     0.116 C 
BRANCH  25  26
ATOM     26  N   UNL A   1      33.451  29.829  27.565  1.00  0.00    -0.352 N 
ATOM     27  C   UNL A   1      34.433  30.611  28.121  1.00  0.00     0.251 C 
ATOM     28  H   UNL A   1      32.571  30.250  27.431  1.00  0.00     0.163 HD
ATOM     29  O   UNL A   1      34.215  31.755  28.501  1.00  0.00    -0.269 OA
BRANCH  27  30
ATOM     30  C   UNL A   1      35.752  29.983  28.281  1.00  0.00     0.039 A 
ATOM     31  C   UNL A   1      36.679  30.090  27.246  1.00  0.00     0.014 A 
ATOM     32  C   UNL A   1      36.114  29.500  29.541  1.00  0.00     0.014 A 
ATOM     33  C   UNL A   1      38.006  29.748  27.496  1.00  0.00     0.010 A 
ATOM     34  C   UNL A   1      37.451  29.269  29.814  1.00  0.00     0.010 A 
ATOM     35  C   UNL A   1      38.405  29.367  28.788  1.00  0.00    -0.014 A 
BRANCH  35  36
ATOM     36  C   UNL A   1      39.810  28.999  29.077  1.00  0.00     0.031 A 
ATOM     37  C   UNL A   1      40.695  29.995  29.774  1.00  0.00     0.074 A 
ATOM     38  C   UNL A   1      40.294  27.808  28.674  1.00  0.00     0.049 A 
ATOM     39  N   UNL A   1      41.956  29.891  30.101  1.00  0.00    -0.248 NA
ATOM     40  C   UNL A   1      40.096  31.299  30.109  1.00  0.00     0.031 C 
ATOM     41  C   UNL A   1      39.549  26.789  27.930  1.00  0.00     0.029 A 
ATOM     42  N   UNL A   1      41.536  27.250  28.843  1.00  0.00    -0.354 N 
ATOM     43  C   UNL A   1      42.303  31.123  30.643  1.00  0.00     0.074 A 
ATOM     44  C   UNL A   1      41.146  31.980  30.537  1.00  0.00     0.031 C 
ATOM     45  C   UNL A   1      40.332  25.711  27.753  1.00  0.00     0.029 A 
ATOM     46  C   UNL A   1      41.639  25.971  28.346  1.00  0.00     0.049 A 
ATOM     47  H   UNL A   1      42.283  27.720  29.279  1.00  0.00     0.167 HD
ATOM     48  C   UNL A   1      43.471  31.499  31.212  1.00  0.00     0.031 A 
ATOM     49  C   UNL A   1      42.669  25.103  28.388  1.00  0.00     0.031 A 
ATOM     50  C   UNL A   1      44.597  30.621  31.364  1.00  0.00     0.049 A 
ATOM     51  C   UNL A   1      43.937  25.519  29.084  1.00  0.00     0.074 A 
ATOM     52  C   UNL A   1      45.801  30.865  31.998  1.00  0.00     0.029 A 
ATOM     53  N   UNL A   1      44.647  29.320  30.886  1.00  0.00    -0.354 N 
ATOM     54  N   UNL A   1      44.224  26.663  29.661  1.00  0.00    -0.248 NA
ATOM     55  C   UNL A   1      45.012  24.520  29.153  1.00  0.00     0.031 C 
ATOM     56  C   UNL A   1      46.594  29.720  31.875  1.00  0.00     0.029 A 
ATOM     57  C   UNL A   1      45.865  28.748  31.204  1.00  0.00     0.049 A 
ATOM     58  H   UNL A   1      43.923  28.871  30.393  1.00  0.00     0.167 HD
ATOM     59  C   UNL A   1      45.499  26.509  30.193  1.00  0.00     0.074 A 
ATOM     60  C   UNL A   1      45.922  25.158  29.876  1.00  0.00     0.031 C 
ATOM     61  C   UNL A   1      46.253  27.400  30.883  1.00  0.00     0.031 A 
BRANCH  48  62
ATOM     62  C   UNL A   1      43.568  32.914  31.714  1.00  0.00    -0.014 A 
ATOM     63  C   UNL A   1      44.154  33.926  30.931  1.00  0.00     0.010 A 
ATOM     64  C   UNL A   1      43.075  33.235  32.991  1.00  0.00     0.010 A 
ATOM     65  C   UNL A   1      44.299  35.219  31.439  1.00  0.00     0.020 A 
ATOM     66  C   UNL A   1      43.189  34.537  33.490  1.00  0.00     0.020 A 
ATOM     67  C   UNL A   1      43.823  35.515  32.719  1.00  0.00     0.054 A 
BRANCH  67  68
ATOM     68  S   UNL A   1      44.020  37.201  33.354  1.00  0.00     0.124 S 
ATOM     69  O   UNL A   1      42.931  37.286  34.324  1.00  0.00    -0.237 OA
ATOM     70  O   UNL A   1      45.365  37.176  33.922  1.00  0.00    -0.237 OA
ATOM     71  O   UNL A   1      43.864  38.038  32.166  1.00  0.00    -0.744 OA
ENDBRANCH  67  68
ENDBRANCH  48  62
BRANCH  49  72
ATOM     72  C   UNL A   1      42.521  23.737  27.817  1.00  0.00    -0.014 A 
ATOM     73  C   UNL A   1      41.891  22.724  28.561  1.00  0.00     0.010 A 
ATOM     74  C   UNL A   1      42.998  23.440  26.527  1.00  0.00     0.010 A 
ATOM     75  C   UNL A   1      41.760  21.434  28.038  1.00  0.00     0.020 A 
ATOM     76  C   UNL A   1      42.849  22.157  25.991  1.00  0.00     0.020 A 
ATOM     77  C   UNL A   1      42.241  21.158  26.756  1.00  0.00     0.054 A 
BRANCH  77  78
ATOM     78  S   UNL A   1      42.017  19.490  26.076  1.00  0.00     0.124 S 
ATOM     79  O   UNL A   1      42.580  18.655  27.133  1.00  0.00    -0.237 OA
ATOM     80  O   UNL A   1      40.569  19.407  25.908  1.00  0.00    -0.237 OA
ATOM     81  O   UNL A   1      42.780  19.524  24.831  1.00  0.00    -0.744 OA
ENDBRANCH  77  78
ENDBRANCH  49  72
BRANCH  61  82
ATOM     82  C   UNL A   1      47.590  26.929  31.382  1.00  0.00    -0.014 A 
ATOM     83  C   UNL A   1      48.762  27.138  30.634  1.00  0.00     0.010 A 
ATOM     84  C   UNL A   1      47.678  26.317  32.646  1.00  0.00     0.010 A 
ATOM     85  C   UNL A   1      49.996  26.712  31.129  1.00  0.00     0.020 A 
ATOM     86  C   UNL A   1      48.914  25.913  33.154  1.00  0.00     0.020 A 
ATOM     87  C   UNL A   1      50.064  26.100  32.384  1.00  0.00     0.054 A 
BRANCH  87  88
ATOM     88  S   UNL A   1      51.682  25.589  33.022  1.00  0.00     0.124 S 
ATOM     89  O   UNL A   1      52.039  24.505  32.110  1.00  0.00    -0.237 OA
ATOM     90  O   UNL A   1      52.479  26.807  32.894  1.00  0.00    -0.237 OA
ATOM     91  O   UNL A   1      51.398  25.180  34.396  1.00  0.00    -0.744 OA
ENDBRANCH  87  88
ENDBRANCH  61  82
ENDBRANCH  35  36
ENDBRANCH  27  30
ENDBRANCH  25  26
ENDBRANCH  24  25
ENDBRANCH   1  24
TORSDOF 19
ENDMDL
MODEL 2
REMARK VINA RESULT:     -10.0      4.538      6.351
REMARK SMILES CC[C@H](C)[C@H](NC(=O)N1CCCCC1)C(=O)NCCCCCCNC(=O)c1ccc(-c2c3nc(c(-c4ccc(S(=O)(=O)[O-])cc4)c4ccc([nH]4)c(-c4ccc(S(=O)(=O)[O-])cc4)c4nc(c(-c5ccc(S(=O)(=O)[O-])cc5)c5ccc2[nH]5)C=C4)C=C3)cc1
REMARK SMILES IDX 21 1 20 2 19 3 18 4 17 5 15 6 16 7 5 9 3 10 4 11 2 12 1 13
REMARK SMILES IDX 6 14 7 15 8 17 9 18 10 19 14 20 11 21 13 22 12 23 22 24
REMARK SMILES IDX 23 25 24 26 25 27 26 29 27 30 28 31 86 32 29 33 85 34 30 35
REMARK SMILES IDX 31 36 32 37 79 38 33 39 84 40 78 41 80 42 34 43 83 44 77 45
REMARK SMILES IDX 76 46 35 48 65 49 46 50 64 51 47 52 50 53 63 54 81 55 48 56
REMARK SMILES IDX 49 57 62 59 82 60 51 61 36 62 37 63 45 64 38 65 44 66 39 67
REMARK SMILES IDX 40 68 41 69 42 70 43 71 66 72 67 73 75 74 68 75 74 76 69 77
REMARK SMILES IDX 70 78 71 79 72 80 73 81 52 82 53 83 61 84 54 85 60 86 55 87
REMARK SMILES IDX 56 88 57 89 58 90 59 91
REMARK H PARENT 17 8 6 16 24 28 80 47 50 58
REMARK Flexibility Score: inf
ROOT
ATOM      1  C   UNL A   1      34.659  32.274  27.644  1.00  0.00     0.002 C 
ENDROOT
BRANCH   1   2
ATOM      2  C   UNL A   1      35.013  31.119  28.573  1.00  0.00     0.002 C 
BRANCH   2   3
ATOM      3  C   UNL A   1      35.397  29.791  27.942  1.00  0.00     0.021 C 
BRANCH   3   4
ATOM      4  C   UNL A   1      34.360  29.111  27.056  1.00  0.00     0.116 C 
BRANCH   4   5
ATOM      5  N   UNL A   1      33.028  28.954  27.602  1.00  0.00    -0.354 N 
ATOM      6  C   UNL A   1      32.003  28.115  27.350  1.00  0.00     0.242 C 
ATOM      7  O   UNL A   1      31.021  28.212  28.100  1.00  0.00    -0.273 OA
ATOM      8  H   UNL A   1      32.826  29.603  28.314  1.00  0.00     0.163 HD
BRANCH   6   9
ATOM      9  C   UNL A   1      32.038  27.026  26.277  1.00  0.00     0.176 C 
BRANCH   9  10
ATOM     10  C   UNL A   1      31.357  27.451  24.922  1.00  0.00     0.018 C 
ATOM     11  C   UNL A   1      31.226  28.953  24.634  1.00  0.00     0.010 C 
BRANCH  10  12
ATOM     12  C   UNL A   1      31.905  26.752  23.648  1.00  0.00     0.002 C 
ATOM     13  C   UNL A   1      31.008  25.726  22.961  1.00  0.00     0.004 C 
ENDBRANCH  10  12
ENDBRANCH   9  10
BRANCH   9  14
ATOM     14  N   UNL A   1      31.532  25.749  26.795  1.00  0.00    -0.326 N 
ATOM     15  C   UNL A   1      31.809  24.440  26.652  1.00  0.00     0.318 C 
ATOM     16  H   UNL A   1      30.781  25.888  27.417  1.00  0.00     0.166 HD
ATOM     17  O   UNL A   1      30.997  23.704  27.228  1.00  0.00    -0.249 OA
ATOM     18  N   UNL A   1      32.893  23.923  26.000  1.00  0.00    -0.325 N 
ATOM     19  C   UNL A   1      33.161  22.486  26.150  1.00  0.00     0.121 C 
ATOM     20  C   UNL A   1      33.871  24.553  25.119  1.00  0.00     0.121 C 
ATOM     21  C   UNL A   1      34.537  22.234  26.766  1.00  0.00     0.022 C 
ATOM     22  C   UNL A   1      35.275  24.469  25.716  1.00  0.00     0.022 C 
ATOM     23  C   UNL A   1      35.662  23.035  26.101  1.00  0.00     0.004 C 
ENDBRANCH   9  14
ENDBRANCH   6   9
ENDBRANCH   4   5
ENDBRANCH   3   4
ENDBRANCH   2   3
ENDBRANCH   1   2
BRANCH   1  24
ATOM     24  C   UNL A   1      33.544  33.172  28.142  1.00  0.00     0.021 C 
BRANCH  24  25
ATOM     25  C   UNL A   1      34.050  34.398  28.873  1.00  0.00     0.116 C 
BRANCH  25  26
ATOM     26  N   UNL A   1      33.027  35.064  29.674  1.00  0.00    -0.352 N 
ATOM     27  C   UNL A   1      32.992  35.154  31.044  1.00  0.00     0.251 C 
ATOM     28  H   UNL A   1      32.288  35.491  29.183  1.00  0.00     0.163 HD
ATOM     29  O   UNL A   1      32.057  35.676  31.638  1.00  0.00    -0.269 OA
BRANCH  27  30
ATOM     30  C   UNL A   1      34.120  34.546  31.764  1.00  0.00     0.039 A 
ATOM     31  C   UNL A   1      34.035  33.207  32.143  1.00  0.00     0.014 A 
ATOM     32  C   UNL A   1      35.322  35.254  31.843  1.00  0.00     0.014 A 
ATOM     33  C   UNL A   1      35.190  32.555  32.565  1.00  0.00     0.010 A 
ATOM     34  C   UNL A   1      36.484  34.572  32.157  1.00  0.00     0.010 A 
ATOM     35  C   UNL A   1      36.426  33.223  32.545  1.00  0.00    -0.014 A 
BRANCH  35  36
ATOM     36  C   UNL A   1      37.667  32.550  32.991  1.00  0.00     0.031 A 
ATOM     37  C   UNL A   1      38.280  32.952  34.305  1.00  0.00     0.074 A 
ATOM     38  C   UNL A   1      38.259  31.630  32.205  1.00  0.00     0.049 A 
ATOM     39  N   UNL A   1      39.371  32.513  34.874  1.00  0.00    -0.248 NA
ATOM     40  C   UNL A   1      37.600  34.020  35.059  1.00  0.00     0.031 C 
ATOM     41  C   UNL A   1      37.793  31.209  30.881  1.00  0.00     0.029 A 
ATOM     42  N   UNL A   1      39.384  30.874  32.415  1.00  0.00    -0.354 N 
ATOM     43  C   UNL A   1      39.523  33.276  36.026  1.00  0.00     0.074 A 
ATOM     44  C   UNL A   1      38.456  34.249  36.041  1.00  0.00     0.031 C 
ATOM     45  C   UNL A   1      38.596  30.234  30.420  1.00  0.00     0.029 A 
ATOM     46  C   UNL A   1      39.645  29.980  31.402  1.00  0.00     0.049 A 
ATOM     47  H   UNL A   1      39.952  30.963  33.214  1.00  0.00     0.167 HD
ATOM     48  C   UNL A   1      40.448  33.154  37.006  1.00  0.00     0.031 A 
ATOM     49  C   UNL A   1      40.612  29.048  31.294  1.00  0.00     0.031 A 
ATOM     50  C   UNL A   1      41.470  32.147  37.011  1.00  0.00     0.049 A 
ATOM     51  C   UNL A   1      41.590  28.886  32.426  1.00  0.00     0.074 A 
ATOM     52  C   UNL A   1      42.408  31.875  37.989  1.00  0.00     0.029 A 
ATOM     53  N   UNL A   1      41.675  31.233  35.988  1.00  0.00    -0.354 N 
ATOM     54  N   UNL A   1      41.674  29.565  33.547  1.00  0.00    -0.248 NA
ATOM     55  C   UNL A   1      42.591  27.820  32.289  1.00  0.00     0.031 C 
ATOM     56  C   UNL A   1      43.204  30.815  37.542  1.00  0.00     0.029 A 
ATOM     57  C   UNL A   1      42.730  30.399  36.306  1.00  0.00     0.049 A 
ATOM     58  H   UNL A   1      41.147  31.186  35.158  1.00  0.00     0.167 HD
ATOM     59  C   UNL A   1      42.714  28.984  34.264  1.00  0.00     0.074 A 
ATOM     60  C   UNL A   1      43.221  27.894  33.452  1.00  0.00     0.031 C 
ATOM     61  C   UNL A   1      43.205  29.317  35.483  1.00  0.00     0.031 A 
BRANCH  48  62
ATOM     62  C   UNL A   1      40.374  34.133  38.147  1.00  0.00    -0.014 A 
ATOM     63  C   UNL A   1      39.533  33.902  39.252  1.00  0.00     0.010 A 
ATOM     64  C   UNL A   1      41.148  35.306  38.109  1.00  0.00     0.010 A 
ATOM     65  C   UNL A   1      39.423  34.853  40.269  1.00  0.00     0.020 A 
ATOM     66  C   UNL A   1      41.065  36.246  39.142  1.00  0.00     0.020 A 
ATOM     67  C   UNL A   1      40.184  36.023  40.203  1.00  0.00     0.054 A 
BRANCH  67  68
ATOM     68  S   UNL A   1      40.026  37.241  41.537  1.00  0.00     0.124 S 
ATOM     69  O   UNL A   1      39.453  36.435  42.612  1.00  0.00    -0.237 OA
ATOM     70  O   UNL A   1      41.405  37.673  41.744  1.00  0.00    -0.237 OA
ATOM     71  O   UNL A   1      39.136  38.255  40.975  1.00  0.00    -0.744 OA
ENDBRANCH  67  68
ENDBRANCH  48  62
BRANCH  49  72
ATOM     72  C   UNL A   1      40.658  28.151  30.107  1.00  0.00    -0.014 A 
ATOM     73  C   UNL A   1      41.604  28.371  29.090  1.00  0.00     0.010 A 
ATOM     74  C   UNL A   1      39.767  27.070  29.987  1.00  0.00     0.010 A 
ATOM     75  C   UNL A   1      41.646  27.543  27.965  1.00  0.00     0.020 A 
ATOM     76  C   UNL A   1      39.820  26.224  28.874  1.00  0.00     0.020 A 
ATOM     77  C   UNL A   1      40.752  26.474  27.864  1.00  0.00     0.054 A 
BRANCH  77  78
ATOM     78  S   UNL A   1      40.854  25.380  26.418  1.00  0.00     0.124 S 
ATOM     79  O   UNL A   1      41.234  26.312  25.361  1.00  0.00    -0.237 OA
ATOM     80  O   UNL A   1      41.881  24.422  26.817  1.00  0.00    -0.237 OA
ATOM     81  O   UNL A   1      39.505  24.828  26.313  1.00  0.00    -0.744 OA
ENDBRANCH  77  78
ENDBRANCH  49  72
BRANCH  61  82
ATOM     82  C   UNL A   1      44.316  28.467  36.033  1.00  0.00    -0.014 A 
ATOM     83  C   UNL A   1      45.657  28.704  35.683  1.00  0.00     0.010 A 
ATOM     84  C   UNL A   1      44.013  27.452  36.959  1.00  0.00     0.010 A 
ATOM     85  C   UNL A   1      46.673  27.915  36.225  1.00  0.00     0.020 A 
ATOM     86  C   UNL A   1      45.030  26.679  37.522  1.00  0.00     0.020 A 
ATOM     87  C   UNL A   1      46.354  26.906  37.139  1.00  0.00     0.054 A 
BRANCH  87  88
ATOM     88  S   UNL A   1      47.694  25.920  37.858  1.00  0.00     0.124 S 
ATOM     89  O   UNL A   1      48.734  26.035  36.840  1.00  0.00    -0.237 OA
ATOM     90  O   UNL A   1      47.965  26.613  39.116  1.00  0.00    -0.237 OA
ATOM     91  O   UNL A   1      47.105  24.591  38.002  1.00  0.00    -0.744 OA
ENDBRANCH  87  88
ENDBRANCH  61  82
ENDBRANCH  35  36
ENDBRANCH  27  30
ENDBRANCH  25  26
ENDBRANCH  24  25
ENDBRANCH   1  24
TORSDOF 19
ENDMDL
MODEL 3
REMARK VINA RESULT:      -9.8      2.794      3.636
REMARK SMILES CC[C@H](C)[C@H](NC(=O)N1CCCCC1)C(=O)NCCCCCCNC(=O)c1ccc(-c2c3nc(c(-c4ccc(S(=O)(=O)[O-])cc4)c4ccc([nH]4)c(-c4ccc(S(=O)(=O)[O-])cc4)c4nc(c(-c5ccc(S(=O)(=O)[O-])cc5)c5ccc2[nH]5)C=C4)C=C3)cc1
REMARK SMILES IDX 21 1 20 2 19 3 18 4 17 5 15 6 16 7 5 9 3 10 4 11 2 12 1 13
REMARK SMILES IDX 6 14 7 15 8 17 9 18 10 19 14 20 11 21 13 22 12 23 22 24
REMARK SMILES IDX 23 25 24 26 25 27 26 29 27 30 28 31 86 32 29 33 85 34 30 35
REMARK SMILES IDX 31 36 32 37 79 38 33 39 84 40 78 41 80 42 34 43 83 44 77 45
REMARK SMILES IDX 76 46 35 48 65 49 46 50 64 51 47 52 50 53 63 54 81 55 48 56
REMARK SMILES IDX 49 57 62 59 82 60 51 61 36 62 37 63 45 64 38 65 44 66 39 67
REMARK SMILES IDX 40 68 41 69 42 70 43 71 66 72 67 73 75 74 68 75 74 76 69 77
REMARK SMILES IDX 70 78 71 79 72 80 73 81 52 82 53 83 61 84 54 85 60 86 55 87
REMARK SMILES IDX 56 88 57 89 58 90 59 91
REMARK H PARENT 17 8 6 16 24 28 80 47 50 58
REMARK Flexibility Score: inf
ROOT
ATOM      1  C   UNL A   1      32.318  29.486  24.628  1.00  0.00     0.002 C 
ENDROOT
BRANCH   1   2
ATOM      2  C   UNL A   1      32.049  28.583  23.430  1.00  0.00     0.002 C 
BRANCH   2   3
ATOM      3  C   UNL A   1      33.246  27.988  22.705  1.00  0.00     0.021 C 
BRANCH   3   4
ATOM      4  C   UNL A   1      33.542  26.511  22.938  1.00  0.00     0.116 C 
BRANCH   4   5
ATOM      5  N   UNL A   1      33.836  26.104  24.297  1.00  0.00    -0.354 N 
ATOM      6  C   UNL A   1      33.324  25.174  25.129  1.00  0.00     0.242 C 
ATOM      7  O   UNL A   1      33.904  25.036  26.215  1.00  0.00    -0.273 OA
ATOM      8  H   UNL A   1      34.569  26.619  24.702  1.00  0.00     0.163 HD
BRANCH   6   9
ATOM      9  C   UNL A   1      32.161  24.252  24.764  1.00  0.00     0.176 C 
BRANCH   9  10
ATOM     10  C   UNL A   1      30.744  24.906  24.975  1.00  0.00     0.018 C 
ATOM     11  C   UNL A   1      30.610  25.969  26.074  1.00  0.00     0.010 C 
BRANCH  10  12
ATOM     12  C   UNL A   1      30.050  25.436  23.691  1.00  0.00     0.002 C 
ATOM     13  C   UNL A   1      28.929  26.457  23.860  1.00  0.00     0.004 C 
ENDBRANCH  10  12
ENDBRANCH   9  10
BRANCH   9  14
ATOM     14  N   UNL A   1      32.290  22.944  25.418  1.00  0.00    -0.326 N 
ATOM     15  C   UNL A   1      33.067  21.850  25.308  1.00  0.00     0.318 C 
ATOM     16  H   UNL A   1      31.622  22.835  26.134  1.00  0.00     0.166 HD
ATOM     17  O   UNL A   1      32.702  20.917  26.035  1.00  0.00    -0.249 OA
ATOM     18  N   UNL A   1      34.189  21.746  24.535  1.00  0.00    -0.325 N 
ATOM     19  C   UNL A   1      35.042  20.565  24.722  1.00  0.00     0.121 C 
ATOM     20  C   UNL A   1      34.715  22.617  23.488  1.00  0.00     0.121 C 
ATOM     21  C   UNL A   1      36.458  20.959  25.145  1.00  0.00     0.022 C 
ATOM     22  C   UNL A   1      36.084  23.172  23.879  1.00  0.00     0.022 C 
ATOM     23  C   UNL A   1      37.070  22.067  24.281  1.00  0.00     0.004 C 
ENDBRANCH   9  14
ENDBRANCH   6   9
ENDBRANCH   4   5
ENDBRANCH   3   4
ENDBRANCH   2   3
ENDBRANCH   1   2
BRANCH   1  24
ATOM     24  C   UNL A   1      32.792  28.765  25.874  1.00  0.00     0.021 C 
BRANCH  24  25
ATOM     25  C   UNL A   1      33.954  29.457  26.555  1.00  0.00     0.116 C 
BRANCH  25  26
ATOM     26  N   UNL A   1      33.614  30.769  27.101  1.00  0.00    -0.352 N 
ATOM     27  C   UNL A   1      34.368  31.509  27.978  1.00  0.00     0.251 C 
ATOM     28  H   UNL A   1      32.758  31.161  26.811  1.00  0.00     0.163 HD
ATOM     29  O   UNL A   1      33.972  32.573  28.438  1.00  0.00    -0.269 OA
BRANCH  27  30
ATOM     30  C   UNL A   1      35.659  30.930  28.374  1.00  0.00     0.039 A 
ATOM     31  C   UNL A   1      36.824  31.663  28.151  1.00  0.00     0.014 A 
ATOM     32  C   UNL A   1      35.661  29.774  29.160  1.00  0.00     0.014 A 
ATOM     33  C   UNL A   1      38.003  31.253  28.768  1.00  0.00     0.010 A 
ATOM     34  C   UNL A   1      36.808  29.438  29.857  1.00  0.00     0.010 A 
ATOM     35  C   UNL A   1      37.995  30.159  29.649  1.00  0.00    -0.014 A 
BRANCH  35  36
ATOM     36  C   UNL A   1      39.237  29.704  30.315  1.00  0.00     0.031 A 
ATOM     37  C   UNL A   1      39.653  30.360  31.604  1.00  0.00     0.074 A 
ATOM     38  C   UNL A   1      40.003  28.753  29.745  1.00  0.00     0.049 A 
ATOM     39  N   UNL A   1      40.710  30.136  32.339  1.00  0.00    -0.248 NA
ATOM     40  C   UNL A   1      38.790  31.442  32.110  1.00  0.00     0.031 C 
ATOM     41  C   UNL A   1      39.735  28.094  28.464  1.00  0.00     0.029 A 
ATOM     42  N   UNL A   1      41.165  28.170  30.180  1.00  0.00    -0.354 N 
ATOM     43  C   UNL A   1      40.654  31.071  33.366  1.00  0.00     0.074 A 
ATOM     44  C   UNL A   1      39.502  31.907  33.123  1.00  0.00     0.031 C 
ATOM     45  C   UNL A   1      40.677  27.161  28.243  1.00  0.00     0.029 A 
ATOM     46  C   UNL A   1      41.627  27.174  29.350  1.00  0.00     0.049 A 
ATOM     47  H   UNL A   1      41.626  28.438  31.007  1.00  0.00     0.167 HD
ATOM     48  C   UNL A   1      41.468  31.200  34.439  1.00  0.00     0.031 A 
ATOM     49  C   UNL A   1      42.686  26.353  29.485  1.00  0.00     0.031 A 
ATOM     50  C   UNL A   1      42.577  30.327  34.702  1.00  0.00     0.049 A 
ATOM     51  C   UNL A   1      43.540  26.470  30.719  1.00  0.00     0.074 A 
ATOM     52  C   UNL A   1      43.419  30.310  35.797  1.00  0.00     0.029 A 
ATOM     53  N   UNL A   1      42.986  29.304  33.859  1.00  0.00    -0.354 N 
ATOM     54  N   UNL A   1      43.428  27.310  31.722  1.00  0.00    -0.248 NA
ATOM     55  C   UNL A   1      44.650  25.517  30.849  1.00  0.00     0.031 C 
ATOM     56  C   UNL A   1      44.361  29.294  35.602  1.00  0.00     0.029 A 
ATOM     57  C   UNL A   1      44.075  28.651  34.406  1.00  0.00     0.049 A 
ATOM     58  H   UNL A   1      42.564  29.077  33.000  1.00  0.00     0.167 HD
ATOM     59  C   UNL A   1      44.432  26.962  32.619  1.00  0.00     0.074 A 
ATOM     60  C   UNL A   1      45.133  25.831  32.043  1.00  0.00     0.031 C 
ATOM     61  C   UNL A   1      44.745  27.523  33.814  1.00  0.00     0.031 A 
BRANCH  48  62
ATOM     62  C   UNL A   1      41.168  32.319  35.399  1.00  0.00    -0.014 A 
ATOM     63  C   UNL A   1      41.819  33.563  35.293  1.00  0.00     0.010 A 
ATOM     64  C   UNL A   1      40.230  32.123  36.427  1.00  0.00     0.010 A 
ATOM     65  C   UNL A   1      41.581  34.568  36.234  1.00  0.00     0.020 A 
ATOM     66  C   UNL A   1      39.965  33.138  37.352  1.00  0.00     0.020 A 
ATOM     67  C   UNL A   1      40.662  34.346  37.262  1.00  0.00     0.054 A 
BRANCH  67  68
ATOM     68  S   UNL A   1      40.369  35.667  38.468  1.00  0.00     0.124 S 
ATOM     69  O   UNL A   1      39.835  36.733  37.623  1.00  0.00    -0.237 OA
ATOM     70  O   UNL A   1      39.412  35.058  39.388  1.00  0.00    -0.237 OA
ATOM     71  O   UNL A   1      41.694  35.922  39.030  1.00  0.00    -0.744 OA
ENDBRANCH  67  68
ENDBRANCH  48  62
BRANCH  49  72
ATOM     72  C   UNL A   1      42.956  25.305  28.463  1.00  0.00    -0.014 A 
ATOM     73  C   UNL A   1      42.341  24.044  28.563  1.00  0.00     0.010 A 
ATOM     74  C   UNL A   1      43.820  25.559  27.383  1.00  0.00     0.010 A 
ATOM     75  C   UNL A   1      42.599  23.049  27.615  1.00  0.00     0.020 A 
ATOM     76  C   UNL A   1      44.064  24.574  26.419  1.00  0.00     0.020 A 
ATOM     77  C   UNL A   1      43.461  23.320  26.549  1.00  0.00     0.054 A 
BRANCH  77  78
ATOM     78  S   UNL A   1      43.746  22.031  25.303  1.00  0.00     0.124 S 
ATOM     79  O   UNL A   1      43.547  22.765  24.058  1.00  0.00    -0.237 OA
ATOM     80  O   UNL A   1      45.119  21.618  25.583  1.00  0.00    -0.237 OA
ATOM     81  O   UNL A   1      42.727  21.030  25.611  1.00  0.00    -0.744 OA
ENDBRANCH  77  78
ENDBRANCH  49  72
BRANCH  61  82
ATOM     82  C   UNL A   1      45.864  26.895  34.596  1.00  0.00    -0.014 A 
ATOM     83  C   UNL A   1      45.622  25.847  35.501  1.00  0.00     0.010 A 
ATOM     84  C   UNL A   1      47.185  27.326  34.376  1.00  0.00     0.010 A 
ATOM     85  C   UNL A   1      46.681  25.263  36.199  1.00  0.00     0.020 A 
ATOM     86  C   UNL A   1      48.248  26.726  35.054  1.00  0.00     0.020 A 
ATOM     87  C   UNL A   1      47.987  25.709  35.973  1.00  0.00     0.054 A 
BRANCH  87  88
ATOM     88  S   UNL A   1      49.350  24.911  36.863  1.00  0.00     0.124 S 
ATOM     89  O   UNL A   1      49.616  23.744  36.026  1.00  0.00    -0.237 OA
ATOM     90  O   UNL A   1      50.387  25.940  36.856  1.00  0.00    -0.237 OA
ATOM     91  O   UNL A   1      48.780  24.620  38.177  1.00  0.00    -0.744 OA
ENDBRANCH  87  88
ENDBRANCH  61  82
ENDBRANCH  35  36
ENDBRANCH  27  30
ENDBRANCH  25  26
ENDBRANCH  24  25
ENDBRANCH   1  24
TORSDOF 19
ENDMDL
