MODEL 1
REMARK VINA RESULT:     -10.6      0.000      0.000
REMARK SMILES CC(C)[C@H](NC(=O)OCc1ccccc1)C(=O)NCC(=O)NCCCCCCNC(=O)c1ccc(-c2c3nc(c(-c4ccc(S(=O)(=O)[O-])cc4)c4ccc([nH]4)c(-c4ccc(S(=O)(=O)[O-])cc4)c4nc(c(-c5ccc(S(=O)(=O)[O-])cc5)c5ccc2[nH]5)C=C4)C=C3)cc1
REMARK SMILES IDX 24 1 23 2 22 3 20 4 21 5 19 7 18 8 16 9 17 10 4 12 2 13 1 14
REMARK SMILES IDX 3 15 5 16 6 17 7 19 8 20 9 21 10 22 11 23 15 24 12 25 14 26
REMARK SMILES IDX 13 27 25 28 26 29 27 30 28 31 29 32 30 33 31 35 32 36 33 37
REMARK SMILES IDX 91 38 34 39 90 40 35 41 36 42 37 43 84 44 38 45 89 46 83 47
REMARK SMILES IDX 85 48 39 49 88 50 82 51 81 52 40 54 70 55 51 56 69 57 52 58
REMARK SMILES IDX 55 59 68 60 86 61 53 62 54 63 67 65 87 66 56 67 41 68 42 69
REMARK SMILES IDX 50 70 43 71 49 72 44 73 45 74 46 75 47 76 48 77 71 78 72 79
REMARK SMILES IDX 80 80 73 81 79 82 74 83 75 84 76 85 77 86 78 87 57 88 58 89
REMARK SMILES IDX 66 90 59 91 65 92 60 93 61 94 62 95 63 96 64 97
REMARK H PARENT 22 6 18 11 5 18 29 34 85 53 55 64
REMARK Flexibility Score: inf
ROOT
ATOM      1  C   UNL A   1      35.412  21.187  25.804  1.00  0.00     0.021 C 
ENDROOT
BRANCH   1   2
ATOM      2  C   UNL A   1      34.184  20.331  25.507  1.00  0.00     0.116 C 
BRANCH   2   3
ATOM      3  N   UNL A   1      33.570  20.730  24.249  1.00  0.00    -0.355 N 
ATOM      4  C   UNL A   1      32.755  21.808  24.014  1.00  0.00     0.239 C 
ATOM      5  O   UNL A   1      32.131  21.873  22.954  1.00  0.00    -0.273 OA
ATOM      6  H   UNL A   1      33.762  20.157  23.472  1.00  0.00     0.163 HD
BRANCH   4   7
ATOM      7  C   UNL A   1      32.635  22.895  25.084  1.00  0.00     0.216 C 
BRANCH   7   8
ATOM      8  N   UNL A   1      33.528  24.017  24.916  1.00  0.00    -0.345 N 
ATOM      9  C   UNL A   1      33.305  25.295  24.526  1.00  0.00     0.243 C 
ATOM     10  O   UNL A   1      34.251  26.073  24.713  1.00  0.00    -0.273 OA
ATOM     11  H   UNL A   1      34.469  23.815  25.122  1.00  0.00     0.164 HD
BRANCH   9  12
ATOM     12  C   UNL A   1      32.020  25.812  23.810  1.00  0.00     0.177 C 
BRANCH  12  13
ATOM     13  C   UNL A   1      32.103  26.999  22.799  1.00  0.00     0.015 C 
ATOM     14  C   UNL A   1      32.287  28.425  23.338  1.00  0.00     0.010 C 
ATOM     15  C   UNL A   1      33.106  26.736  21.676  1.00  0.00     0.010 C 
ENDBRANCH  12  13
BRANCH  12  16
ATOM     16  N   UNL A   1      30.854  25.922  24.690  1.00  0.00    -0.309 N 
ATOM     17  C   UNL A   1      30.865  26.304  26.001  1.00  0.00     0.408 C 
ATOM     18  H   UNL A   1      29.978  25.699  24.299  1.00  0.00     0.167 HD
ATOM     19  O   UNL A   1      29.913  25.982  26.725  1.00  0.00    -0.225 OA
BRANCH  17  20
ATOM     20  O   UNL A   1      31.915  27.063  26.382  1.00  0.00    -0.445 OA
BRANCH  20  21
ATOM     21  C   UNL A   1      31.623  28.431  26.745  1.00  0.00     0.270 C 
BRANCH  21  22
ATOM     22  C   UNL A   1      32.841  29.323  26.946  1.00  0.00    -0.011 A 
ATOM     23  C   UNL A   1      34.115  28.737  27.027  1.00  0.00     0.007 A 
ATOM     24  C   UNL A   1      32.743  30.690  27.208  1.00  0.00     0.007 A 
ATOM     25  C   UNL A   1      35.228  29.479  27.448  1.00  0.00     0.000 A 
ATOM     26  C   UNL A   1      33.844  31.426  27.666  1.00  0.00     0.000 A 
ATOM     27  C   UNL A   1      35.083  30.813  27.813  1.00  0.00     0.000 A 
ENDBRANCH  21  22
ENDBRANCH  20  21
ENDBRANCH  17  20
ENDBRANCH  12  16
ENDBRANCH   9  12
ENDBRANCH   7   8
ENDBRANCH   4   7
ENDBRANCH   2   3
ENDBRANCH   1   2
BRANCH   1  28
ATOM     28  C   UNL A   1      36.388  21.407  24.643  1.00  0.00     0.002 C 
BRANCH  28  29
ATOM     29  C   UNL A   1      37.234  22.697  24.642  1.00  0.00     0.002 C 
BRANCH  29  30
ATOM     30  C   UNL A   1      37.152  23.689  25.822  1.00  0.00     0.021 C 
BRANCH  30  31
ATOM     31  C   UNL A   1      38.418  24.050  26.623  1.00  0.00     0.116 C 
BRANCH  31  32
ATOM     32  N   UNL A   1      39.548  24.520  25.838  1.00  0.00    -0.352 N 
ATOM     33  C   UNL A   1      40.513  25.462  26.138  1.00  0.00     0.251 C 
ATOM     34  H   UNL A   1      39.639  24.101  24.953  1.00  0.00     0.163 HD
ATOM     35  O   UNL A   1      41.405  25.674  25.318  1.00  0.00    -0.269 OA
BRANCH  33  36
ATOM     36  C   UNL A   1      40.500  26.254  27.401  1.00  0.00     0.039 A 
ATOM     37  C   UNL A   1      41.421  27.293  27.562  1.00  0.00     0.014 A 
ATOM     38  C   UNL A   1      39.663  25.941  28.472  1.00  0.00     0.014 A 
ATOM     39  C   UNL A   1      41.444  28.053  28.745  1.00  0.00     0.010 A 
ATOM     40  C   UNL A   1      39.660  26.719  29.645  1.00  0.00     0.010 A 
ATOM     41  C   UNL A   1      40.533  27.807  29.790  1.00  0.00    -0.014 A 
BRANCH  41  42
ATOM     42  C   UNL A   1      40.421  28.754  30.949  1.00  0.00     0.031 A 
ATOM     43  C   UNL A   1      41.280  28.642  32.188  1.00  0.00     0.074 A 
ATOM     44  C   UNL A   1      39.480  29.724  30.905  1.00  0.00     0.049 A 
ATOM     45  N   UNL A   1      41.299  29.413  33.251  1.00  0.00    -0.248 NA
ATOM     46  C   UNL A   1      42.224  27.516  32.258  1.00  0.00     0.031 C 
ATOM     47  C   UNL A   1      38.525  29.921  29.812  1.00  0.00     0.029 A 
ATOM     48  N   UNL A   1      39.169  30.727  31.795  1.00  0.00    -0.354 N 
ATOM     49  C   UNL A   1      42.248  28.871  34.114  1.00  0.00     0.074 A 
ATOM     50  C   UNL A   1      42.753  27.676  33.466  1.00  0.00     0.031 C 
ATOM     51  C   UNL A   1      37.769  30.999  30.072  1.00  0.00     0.029 A 
ATOM     52  C   UNL A   1      38.149  31.549  31.369  1.00  0.00     0.049 A 
ATOM     53  H   UNL A   1      39.632  30.846  32.655  1.00  0.00     0.167 HD
ATOM     54  C   UNL A   1      42.675  29.328  35.320  1.00  0.00     0.031 A 
ATOM     55  C   UNL A   1      37.574  32.625  31.943  1.00  0.00     0.031 A 
ATOM     56  C   UNL A   1      42.180  30.518  35.972  1.00  0.00     0.049 A 
ATOM     57  C   UNL A   1      38.067  33.113  33.278  1.00  0.00     0.074 A 
ATOM     58  C   UNL A   1      42.605  31.084  37.165  1.00  0.00     0.029 A 
ATOM     59  N   UNL A   1      41.157  31.324  35.498  1.00  0.00    -0.354 N 
ATOM     60  N   UNL A   1      39.028  32.631  34.027  1.00  0.00    -0.248 NA
ATOM     61  C   UNL A   1      37.408  34.304  33.837  1.00  0.00     0.031 C 
ATOM     62  C   UNL A   1      41.804  32.198  37.438  1.00  0.00     0.029 A 
ATOM     63  C   UNL A   1      40.923  32.366  36.384  1.00  0.00     0.049 A 
ATOM     64  H   UNL A   1      40.667  31.178  34.657  1.00  0.00     0.167 HD
ATOM     65  C   UNL A   1      39.108  33.477  35.129  1.00  0.00     0.074 A 
ATOM     66  C   UNL A   1      38.112  34.510  34.941  1.00  0.00     0.031 C 
ATOM     67  C   UNL A   1      39.937  33.400  36.199  1.00  0.00     0.031 A 
BRANCH  54  68
ATOM     68  C   UNL A   1      43.757  28.551  36.034  1.00  0.00    -0.014 A 
ATOM     69  C   UNL A   1      43.429  27.522  36.938  1.00  0.00     0.010 A 
ATOM     70  C   UNL A   1      45.112  28.773  35.723  1.00  0.00     0.010 A 
ATOM     71  C   UNL A   1      44.434  26.758  37.539  1.00  0.00     0.020 A 
ATOM     72  C   UNL A   1      46.119  27.992  36.301  1.00  0.00     0.020 A 
ATOM     73  C   UNL A   1      45.774  26.997  37.218  1.00  0.00     0.054 A 
BRANCH  73  74
ATOM     74  S   UNL A   1      47.051  25.962  37.986  1.00  0.00     0.124 S 
ATOM     75  O   UNL A   1      47.488  26.801  39.100  1.00  0.00    -0.237 OA
ATOM     76  O   UNL A   1      46.307  24.761  38.361  1.00  0.00    -0.237 OA
ATOM     77  O   UNL A   1      48.036  25.775  36.924  1.00  0.00    -0.744 OA
ENDBRANCH  73  74
ENDBRANCH  54  68
BRANCH  55  78
ATOM     78  C   UNL A   1      36.461  33.334  31.249  1.00  0.00    -0.014 A 
ATOM     79  C   UNL A   1      36.601  33.749  29.911  1.00  0.00     0.010 A 
ATOM     80  C   UNL A   1      35.260  33.608  31.926  1.00  0.00     0.010 A 
ATOM     81  C   UNL A   1      35.572  34.452  29.276  1.00  0.00     0.020 A 
ATOM     82  C   UNL A   1      34.217  34.281  31.284  1.00  0.00     0.020 A 
ATOM     83  C   UNL A   1      34.386  34.714  29.969  1.00  0.00     0.054 A 
BRANCH  83  84
ATOM     84  S   UNL A   1      33.053  35.602  29.117  1.00  0.00     0.124 S 
ATOM     85  O   UNL A   1      33.791  36.633  28.393  1.00  0.00    -0.237 OA
ATOM     86  O   UNL A   1      32.451  34.556  28.294  1.00  0.00    -0.237 OA
ATOM     87  O   UNL A   1      32.211  36.085  30.211  1.00  0.00    -0.744 OA
ENDBRANCH  83  84
ENDBRANCH  55  78
BRANCH  67  88
ATOM     88  C   UNL A   1      39.840  34.487  37.240  1.00  0.00    -0.014 A 
ATOM     89  C   UNL A   1      40.437  35.746  37.046  1.00  0.00     0.010 A 
ATOM     90  C   UNL A   1      39.099  34.259  38.414  1.00  0.00     0.010 A 
ATOM     91  C   UNL A   1      40.324  36.743  38.020  1.00  0.00     0.020 A 
ATOM     92  C   UNL A   1      38.959  35.263  39.378  1.00  0.00     0.020 A 
ATOM     93  C   UNL A   1      39.583  36.495  39.180  1.00  0.00     0.054 A 
BRANCH  93  94
ATOM     94  S   UNL A   1      39.414  37.820  40.408  1.00  0.00     0.124 S 
ATOM     95  O   UNL A   1      40.709  38.490  40.316  1.00  0.00    -0.237 OA
ATOM     96  O   UNL A   1      38.276  38.582  39.903  1.00  0.00    -0.237 OA
ATOM     97  O   UNL A   1      39.172  37.105  41.660  1.00  0.00    -0.744 OA
ENDBRANCH  93  94
ENDBRANCH  67  88
ENDBRANCH  41  42
ENDBRANCH  33  36
ENDBRANCH  31  32
ENDBRANCH  30  31
ENDBRANCH  29  30
ENDBRANCH  28  29
ENDBRANCH   1  28
TORSDOF 23
ENDMDL
MODEL 2
REMARK VINA RESULT:     -10.1      0.645      7.962
REMARK SMILES CC(C)[C@H](NC(=O)OCc1ccccc1)C(=O)NCC(=O)NCCCCCCNC(=O)c1ccc(-c2c3nc(c(-c4ccc(S(=O)(=O)[O-])cc4)c4ccc([nH]4)c(-c4ccc(S(=O)(=O)[O-])cc4)c4nc(c(-c5ccc(S(=O)(=O)[O-])cc5)c5ccc2[nH]5)C=C4)C=C3)cc1
REMARK SMILES IDX 24 1 23 2 22 3 20 4 21 5 19 7 18 8 16 9 17 10 4 12 2 13 1 14
REMARK SMILES IDX 3 15 5 16 6 17 7 19 8 20 9 21 10 22 11 23 15 24 12 25 14 26
REMARK SMILES IDX 13 27 25 28 26 29 27 30 28 31 29 32 30 33 31 35 32 36 33 37
REMARK SMILES IDX 91 38 34 39 90 40 35 41 36 42 37 43 84 44 38 45 89 46 83 47
REMARK SMILES IDX 85 48 39 49 88 50 82 51 81 52 40 54 70 55 51 56 69 57 52 58
REMARK SMILES IDX 55 59 68 60 86 61 53 62 54 63 67 65 87 66 56 67 41 68 42 69
REMARK SMILES IDX 50 70 43 71 49 72 44 73 45 74 46 75 47 76 48 77 71 78 72 79
REMARK SMILES IDX 80 80 73 81 79 82 74 83 75 84 76 85 77 86 78 87 57 88 58 89
REMARK SMILES IDX 66 90 59 91 65 92 60 93 61 94 62 95 63 96 64 97
REMARK H PARENT 22 6 18 11 5 18 29 34 85 53 55 64
REMARK Flexibility Score: inf
ROOT
ATOM      1  C   UNL A   1      35.421  21.172  25.889  1.00  0.00     0.021 C 
ENDROOT
BRANCH   1   2
ATOM      2  C   UNL A   1      34.154  20.340  25.716  1.00  0.00     0.116 C 
BRANCH   2   3
ATOM      3  N   UNL A   1      33.621  20.486  24.369  1.00  0.00    -0.355 N 
ATOM      4  C   UNL A   1      32.786  21.464  23.895  1.00  0.00     0.239 C 
ATOM      5  O   UNL A   1      32.241  21.315  22.800  1.00  0.00    -0.273 OA
ATOM      6  H   UNL A   1      33.893  19.798  23.719  1.00  0.00     0.163 HD
BRANCH   4   7
ATOM      7  C   UNL A   1      32.543  22.712  24.748  1.00  0.00     0.216 C 
BRANCH   7   8
ATOM      8  N   UNL A   1      33.502  23.775  24.558  1.00  0.00    -0.345 N 
ATOM      9  C   UNL A   1      33.378  25.014  24.024  1.00  0.00     0.243 C 
ATOM     10  O   UNL A   1      34.338  25.770  24.224  1.00  0.00    -0.273 OA
ATOM     11  H   UNL A   1      34.408  23.560  24.873  1.00  0.00     0.164 HD
BRANCH   9  12
ATOM     12  C   UNL A   1      32.191  25.504  23.139  1.00  0.00     0.177 C 
BRANCH  12  13
ATOM     13  C   UNL A   1      32.445  26.486  21.952  1.00  0.00     0.015 C 
ATOM     14  C   UNL A   1      33.546  27.548  22.086  1.00  0.00     0.010 C 
ATOM     15  C   UNL A   1      32.587  25.759  20.616  1.00  0.00     0.010 C 
ENDBRANCH  12  13
BRANCH  12  16
ATOM     16  N   UNL A   1      30.991  25.861  23.899  1.00  0.00    -0.309 N 
ATOM     17  C   UNL A   1      30.947  26.647  25.015  1.00  0.00     0.408 C 
ATOM     18  H   UNL A   1      30.134  25.500  23.575  1.00  0.00     0.167 HD
ATOM     19  O   UNL A   1      29.973  26.551  25.775  1.00  0.00    -0.225 OA
BRANCH  17  20
ATOM     20  O   UNL A   1      31.970  27.517  25.161  1.00  0.00    -0.445 OA
BRANCH  20  21
ATOM     21  C   UNL A   1      31.671  28.752  25.849  1.00  0.00     0.270 C 
BRANCH  21  22
ATOM     22  C   UNL A   1      32.816  29.329  26.671  1.00  0.00    -0.011 A 
ATOM     23  C   UNL A   1      32.711  30.638  27.171  1.00  0.00     0.007 A 
ATOM     24  C   UNL A   1      34.040  28.676  26.828  1.00  0.00     0.007 A 
ATOM     25  C   UNL A   1      33.822  31.294  27.721  1.00  0.00     0.000 A 
ATOM     26  C   UNL A   1      35.162  29.341  27.340  1.00  0.00     0.000 A 
ATOM     27  C   UNL A   1      35.060  30.662  27.762  1.00  0.00     0.000 A 
ENDBRANCH  21  22
ENDBRANCH  20  21
ENDBRANCH  17  20
ENDBRANCH  12  16
ENDBRANCH   9  12
ENDBRANCH   7   8
ENDBRANCH   4   7
ENDBRANCH   2   3
ENDBRANCH   1   2
BRANCH   1  28
ATOM     28  C   UNL A   1      36.166  21.556  24.606  1.00  0.00     0.002 C 
BRANCH  28  29
ATOM     29  C   UNL A   1      37.060  22.813  24.636  1.00  0.00     0.002 C 
BRANCH  29  30
ATOM     30  C   UNL A   1      37.055  23.750  25.863  1.00  0.00     0.021 C 
BRANCH  30  31
ATOM     31  C   UNL A   1      38.353  24.001  26.653  1.00  0.00     0.116 C 
BRANCH  31  32
ATOM     32  N   UNL A   1      39.500  24.422  25.864  1.00  0.00    -0.352 N 
ATOM     33  C   UNL A   1      40.482  25.353  26.142  1.00  0.00     0.251 C 
ATOM     34  H   UNL A   1      39.591  23.971  24.994  1.00  0.00     0.163 HD
ATOM     35  O   UNL A   1      41.387  25.519  25.325  1.00  0.00    -0.269 OA
BRANCH  33  36
ATOM     36  C   UNL A   1      40.474  26.187  27.378  1.00  0.00     0.039 A 
ATOM     37  C   UNL A   1      41.421  27.206  27.517  1.00  0.00     0.014 A 
ATOM     38  C   UNL A   1      39.614  25.935  28.446  1.00  0.00     0.014 A 
ATOM     39  C   UNL A   1      41.449  28.004  28.674  1.00  0.00     0.010 A 
ATOM     40  C   UNL A   1      39.615  26.751  29.592  1.00  0.00     0.010 A 
ATOM     41  C   UNL A   1      40.517  27.819  29.714  1.00  0.00    -0.014 A 
BRANCH  41  42
ATOM     42  C   UNL A   1      40.415  28.807  30.838  1.00  0.00     0.031 A 
ATOM     43  C   UNL A   1      39.390  29.919  30.866  1.00  0.00     0.074 A 
ATOM     44  C   UNL A   1      41.307  28.732  31.851  1.00  0.00     0.049 A 
ATOM     45  N   UNL A   1      39.181  30.825  31.793  1.00  0.00    -0.248 NA
ATOM     46  C   UNL A   1      38.498  30.046  29.704  1.00  0.00     0.031 C 
ATOM     47  C   UNL A   1      42.403  27.762  31.936  1.00  0.00     0.029 A 
ATOM     48  N   UNL A   1      41.440  29.475  33.001  1.00  0.00    -0.354 N 
ATOM     49  C   UNL A   1      38.141  31.628  31.332  1.00  0.00     0.074 A 
ATOM     50  C   UNL A   1      37.791  31.126  30.017  1.00  0.00     0.031 C 
ATOM     51  C   UNL A   1      43.063  27.939  33.091  1.00  0.00     0.029 A 
ATOM     52  C   UNL A   1      42.473  29.062  33.813  1.00  0.00     0.049 A 
ATOM     53  H   UNL A   1      40.851  30.232  33.224  1.00  0.00     0.167 HD
ATOM     54  C   UNL A   1      37.523  32.671  31.944  1.00  0.00     0.031 A 
ATOM     55  C   UNL A   1      42.909  29.521  35.004  1.00  0.00     0.031 A 
ATOM     56  C   UNL A   1      37.863  33.177  33.253  1.00  0.00     0.049 A 
ATOM     57  C   UNL A   1      42.204  30.676  35.663  1.00  0.00     0.074 A 
ATOM     58  C   UNL A   1      37.243  34.189  33.971  1.00  0.00     0.029 A 
ATOM     59  N   UNL A   1      38.907  32.720  34.042  1.00  0.00    -0.354 N 
ATOM     60  N   UNL A   1      41.166  31.356  35.241  1.00  0.00    -0.248 NA
ATOM     61  C   UNL A   1      42.720  31.113  36.969  1.00  0.00     0.031 C 
ATOM     62  C   UNL A   1      37.944  34.379  35.166  1.00  0.00     0.029 A 
ATOM     63  C   UNL A   1      38.961  33.442  35.224  1.00  0.00     0.049 A 
ATOM     64  H   UNL A   1      39.520  31.990  33.798  1.00  0.00     0.167 HD
ATOM     65  C   UNL A   1      40.889  32.280  36.244  1.00  0.00     0.074 A 
ATOM     66  C   UNL A   1      41.854  32.060  37.299  1.00  0.00     0.031 C 
ATOM     67  C   UNL A   1      39.917  33.224  36.281  1.00  0.00     0.031 A 
BRANCH  54  68
ATOM     68  C   UNL A   1      36.384  33.350  31.218  1.00  0.00    -0.014 A 
ATOM     69  C   UNL A   1      35.178  33.643  31.882  1.00  0.00     0.010 A 
ATOM     70  C   UNL A   1      36.554  33.797  29.893  1.00  0.00     0.010 A 
ATOM     71  C   UNL A   1      34.156  34.337  31.227  1.00  0.00     0.020 A 
ATOM     72  C   UNL A   1      35.545  34.517  29.243  1.00  0.00     0.020 A 
ATOM     73  C   UNL A   1      34.345  34.770  29.911  1.00  0.00     0.054 A 
BRANCH  73  74
ATOM     74  S   UNL A   1      33.014  35.702  29.103  1.00  0.00     0.124 S 
ATOM     75  O   UNL A   1      33.762  36.735  28.388  1.00  0.00    -0.237 OA
ATOM     76  O   UNL A   1      32.381  34.691  28.260  1.00  0.00    -0.237 OA
ATOM     77  O   UNL A   1      32.198  36.183  30.215  1.00  0.00    -0.744 OA
ENDBRANCH  73  74
ENDBRANCH  54  68
BRANCH  55  78
ATOM     78  C   UNL A   1      44.078  28.877  35.668  1.00  0.00    -0.014 A 
ATOM     79  C   UNL A   1      43.892  27.821  36.579  1.00  0.00     0.010 A 
ATOM     80  C   UNL A   1      45.384  29.324  35.400  1.00  0.00     0.010 A 
ATOM     81  C   UNL A   1      44.987  27.248  37.233  1.00  0.00     0.020 A 
ATOM     82  C   UNL A   1      46.483  28.732  36.026  1.00  0.00     0.020 A 
ATOM     83  C   UNL A   1      46.277  27.709  36.952  1.00  0.00     0.054 A 
BRANCH  83  84
ATOM     84  S   UNL A   1      47.686  26.932  37.790  1.00  0.00     0.124 S 
ATOM     85  O   UNL A   1      48.748  27.909  37.564  1.00  0.00    -0.237 OA
ATOM     86  O   UNL A   1      47.212  26.818  39.167  1.00  0.00    -0.237 OA
ATOM     87  O   UNL A   1      47.844  25.661  37.086  1.00  0.00    -0.744 OA
ENDBRANCH  83  84
ENDBRANCH  55  78
BRANCH  67  88
ATOM     88  C   UNL A   1      39.811  34.072  37.525  1.00  0.00    -0.014 A 
ATOM     89  C   UNL A   1      40.443  35.325  37.616  1.00  0.00     0.010 A 
ATOM     90  C   UNL A   1      39.029  33.623  38.605  1.00  0.00     0.010 A 
ATOM     91  C   UNL A   1      40.321  36.098  38.775  1.00  0.00     0.020 A 
ATOM     92  C   UNL A   1      38.880  34.406  39.754  1.00  0.00     0.020 A 
ATOM     93  C   UNL A   1      39.539  35.634  39.837  1.00  0.00     0.054 A 
BRANCH  93  94
ATOM     94  S   UNL A   1      39.361  36.676  41.312  1.00  0.00     0.124 S 
ATOM     95  O   UNL A   1      40.712  36.655  41.865  1.00  0.00    -0.237 OA
ATOM     96  O   UNL A   1      38.931  37.954  40.751  1.00  0.00    -0.237 OA
ATOM     97  O   UNL A   1      38.352  35.981  42.109  1.00  0.00    -0.744 OA
ENDBRANCH  93  94
ENDBRANCH  67  88
ENDBRANCH  41  42
ENDBRANCH  33  36
ENDBRANCH  31  32
ENDBRANCH  30  31
ENDBRANCH  29  30
ENDBRANCH  28  29
ENDBRANCH   1  28
TORSDOF 23
ENDMDL
MODEL 3
REMARK VINA RESULT:     -10.0      2.748      8.983
REMARK SMILES CC(C)[C@H](NC(=O)OCc1ccccc1)C(=O)NCC(=O)NCCCCCCNC(=O)c1ccc(-c2c3nc(c(-c4ccc(S(=O)(=O)[O-])cc4)c4ccc([nH]4)c(-c4ccc(S(=O)(=O)[O-])cc4)c4nc(c(-c5ccc(S(=O)(=O)[O-])cc5)c5ccc2[nH]5)C=C4)C=C3)cc1
REMARK SMILES IDX 24 1 23 2 22 3 20 4 21 5 19 7 18 8 16 9 17 10 4 12 2 13 1 14
REMARK SMILES IDX 3 15 5 16 6 17 7 19 8 20 9 21 10 22 11 23 15 24 12 25 14 26
REMARK SMILES IDX 13 27 25 28 26 29 27 30 28 31 29 32 30 33 31 35 32 36 33 37
REMARK SMILES IDX 91 38 34 39 90 40 35 41 36 42 37 43 84 44 38 45 89 46 83 47
REMARK SMILES IDX 85 48 39 49 88 50 82 51 81 52 40 54 70 55 51 56 69 57 52 58
REMARK SMILES IDX 55 59 68 60 86 61 53 62 54 63 67 65 87 66 56 67 41 68 42 69
REMARK SMILES IDX 50 70 43 71 49 72 44 73 45 74 46 75 47 76 48 77 71 78 72 79
REMARK SMILES IDX 80 80 73 81 79 82 74 83 75 84 76 85 77 86 78 87 57 88 58 89
REMARK SMILES IDX 66 90 59 91 65 92 60 93 61 94 62 95 63 96 64 97
REMARK H PARENT 22 6 18 11 5 18 29 34 85 53 55 64
REMARK Flexibility Score: inf
ROOT
ATOM      1  C   UNL A   1      31.583  27.266  25.296  1.00  0.00     0.021 C 
ENDROOT
BRANCH   1   2
ATOM      2  C   UNL A   1      30.516  26.318  25.836  1.00  0.00     0.116 C 
BRANCH   2   3
ATOM      3  N   UNL A   1      31.113  25.305  26.694  1.00  0.00    -0.355 N 
ATOM      4  C   UNL A   1      31.212  23.957  26.464  1.00  0.00     0.239 C 
ATOM      5  O   UNL A   1      31.532  23.209  27.388  1.00  0.00    -0.273 OA
ATOM      6  H   UNL A   1      31.491  25.627  27.545  1.00  0.00     0.163 HD
BRANCH   4   7
ATOM      7  C   UNL A   1      30.909  23.420  25.063  1.00  0.00     0.216 C 
BRANCH   7   8
ATOM      8  N   UNL A   1      31.817  23.862  24.031  1.00  0.00    -0.345 N 
ATOM      9  C   UNL A   1      33.145  23.662  23.854  1.00  0.00     0.243 C 
ATOM     10  O   UNL A   1      33.579  23.980  22.738  1.00  0.00    -0.273 OA
ATOM     11  H   UNL A   1      31.393  24.408  23.331  1.00  0.00     0.164 HD
BRANCH   9  12
ATOM     12  C   UNL A   1      34.138  23.157  24.944  1.00  0.00     0.177 C 
BRANCH  12  13
ATOM     13  C   UNL A   1      35.043  24.167  25.717  1.00  0.00     0.015 C 
ATOM     14  C   UNL A   1      36.568  24.070  25.565  1.00  0.00     0.010 C 
ATOM     15  C   UNL A   1      34.595  25.615  25.521  1.00  0.00     0.010 C 
ENDBRANCH  12  13
BRANCH  12  16
ATOM     16  N   UNL A   1      34.869  21.945  24.565  1.00  0.00    -0.309 N 
ATOM     17  C   UNL A   1      34.789  20.729  25.181  1.00  0.00     0.408 C 
ATOM     18  H   UNL A   1      35.476  22.013  23.793  1.00  0.00     0.167 HD
ATOM     19  O   UNL A   1      35.717  19.922  25.033  1.00  0.00    -0.225 OA
BRANCH  17  20
ATOM     20  O   UNL A   1      33.650  20.492  25.868  1.00  0.00    -0.445 OA
BRANCH  20  21
ATOM     21  C   UNL A   1      32.569  19.877  25.132  1.00  0.00     0.270 C 
BRANCH  21  22
ATOM     22  C   UNL A   1      32.781  18.413  24.773  1.00  0.00    -0.011 A 
ATOM     23  C   UNL A   1      32.682  17.437  25.779  1.00  0.00     0.007 A 
ATOM     24  C   UNL A   1      33.220  17.997  23.515  1.00  0.00     0.007 A 
ATOM     25  C   UNL A   1      33.099  16.118  25.553  1.00  0.00     0.000 A 
ATOM     26  C   UNL A   1      33.675  16.690  23.296  1.00  0.00     0.000 A 
ATOM     27  C   UNL A   1      33.641  15.756  24.325  1.00  0.00     0.000 A 
ENDBRANCH  21  22
ENDBRANCH  20  21
ENDBRANCH  17  20
ENDBRANCH  12  16
ENDBRANCH   9  12
ENDBRANCH   7   8
ENDBRANCH   4   7
ENDBRANCH   2   3
ENDBRANCH   1   2
BRANCH   1  28
ATOM     28  C   UNL A   1      31.096  28.634  24.805  1.00  0.00     0.002 C 
BRANCH  28  29
ATOM     29  C   UNL A   1      31.951  29.872  25.145  1.00  0.00     0.002 C 
BRANCH  29  30
ATOM     30  C   UNL A   1      31.756  30.616  26.483  1.00  0.00     0.021 C 
BRANCH  30  31
ATOM     31  C   UNL A   1      32.976  31.031  27.326  1.00  0.00     0.116 C 
BRANCH  31  32
ATOM     32  N   UNL A   1      33.176  32.463  27.484  1.00  0.00    -0.352 N 
ATOM     33  C   UNL A   1      34.245  33.163  28.009  1.00  0.00     0.251 C 
ATOM     34  H   UNL A   1      32.431  33.022  27.166  1.00  0.00     0.163 HD
ATOM     35  O   UNL A   1      34.203  34.393  28.008  1.00  0.00    -0.269 OA
BRANCH  33  36
ATOM     36  C   UNL A   1      35.434  32.489  28.605  1.00  0.00     0.039 A 
ATOM     37  C   UNL A   1      36.703  33.035  28.392  1.00  0.00     0.014 A 
ATOM     38  C   UNL A   1      35.342  31.281  29.295  1.00  0.00     0.014 A 
ATOM     39  C   UNL A   1      37.847  32.419  28.931  1.00  0.00     0.010 A 
ATOM     40  C   UNL A   1      36.480  30.678  29.864  1.00  0.00     0.010 A 
ATOM     41  C   UNL A   1      37.750  31.253  29.714  1.00  0.00    -0.014 A 
BRANCH  41  42
ATOM     42  C   UNL A   1      38.942  30.729  30.460  1.00  0.00     0.031 A 
ATOM     43  C   UNL A   1      39.785  29.577  29.959  1.00  0.00     0.074 A 
ATOM     44  C   UNL A   1      39.252  31.279  31.655  1.00  0.00     0.049 A 
ATOM     45  N   UNL A   1      40.856  29.044  30.498  1.00  0.00    -0.248 NA
ATOM     46  C   UNL A   1      39.366  28.927  28.708  1.00  0.00     0.031 C 
ATOM     47  C   UNL A   1      38.496  32.349  32.311  1.00  0.00     0.029 A 
ATOM     48  N   UNL A   1      40.279  31.021  32.534  1.00  0.00    -0.354 N 
ATOM     49  C   UNL A   1      41.241  28.000  29.661  1.00  0.00     0.074 A 
ATOM     50  C   UNL A   1      40.257  27.948  28.597  1.00  0.00     0.031 C 
ATOM     51  C   UNL A   1      39.106  32.685  33.458  1.00  0.00     0.029 A 
ATOM     52  C   UNL A   1      40.272  31.829  33.649  1.00  0.00     0.049 A 
ATOM     53  H   UNL A   1      40.957  30.324  32.380  1.00  0.00     0.167 HD
ATOM     54  C   UNL A   1      42.315  27.174  29.753  1.00  0.00     0.031 A 
ATOM     55  C   UNL A   1      41.100  31.888  34.713  1.00  0.00     0.031 A 
ATOM     56  C   UNL A   1      43.302  27.220  30.807  1.00  0.00     0.049 A 
ATOM     57  C   UNL A   1      42.285  30.964  34.789  1.00  0.00     0.074 A 
ATOM     58  C   UNL A   1      44.455  26.461  30.938  1.00  0.00     0.029 A 
ATOM     59  N   UNL A   1      43.259  28.062  31.907  1.00  0.00    -0.354 N 
ATOM     60  N   UNL A   1      42.671  30.048  33.935  1.00  0.00    -0.248 NA
ATOM     61  C   UNL A   1      43.157  31.096  35.966  1.00  0.00     0.031 C 
ATOM     62  C   UNL A   1      45.078  26.805  32.142  1.00  0.00     0.029 A 
ATOM     63  C   UNL A   1      44.351  27.825  32.730  1.00  0.00     0.049 A 
ATOM     64  H   UNL A   1      42.557  28.730  32.079  1.00  0.00     0.167 HD
ATOM     65  C   UNL A   1      43.846  29.518  34.458  1.00  0.00     0.074 A 
ATOM     66  C   UNL A   1      44.117  30.225  35.691  1.00  0.00     0.031 C 
ATOM     67  C   UNL A   1      44.628  28.530  33.955  1.00  0.00     0.031 A 
BRANCH  54  68
ATOM     68  C   UNL A   1      42.512  26.137  28.671  1.00  0.00    -0.014 A 
ATOM     69  C   UNL A   1      43.338  26.400  27.562  1.00  0.00     0.010 A 
ATOM     70  C   UNL A   1      41.956  24.851  28.812  1.00  0.00     0.010 A 
ATOM     71  C   UNL A   1      43.575  25.411  26.601  1.00  0.00     0.020 A 
ATOM     72  C   UNL A   1      42.214  23.850  27.869  1.00  0.00     0.020 A 
ATOM     73  C   UNL A   1      43.012  24.141  26.760  1.00  0.00     0.054 A 
BRANCH  73  74
ATOM     74  S   UNL A   1      43.370  22.869  25.517  1.00  0.00     0.124 S 
ATOM     75  O   UNL A   1      43.712  23.679  24.349  1.00  0.00    -0.237 OA
ATOM     76  O   UNL A   1      44.482  22.137  26.119  1.00  0.00    -0.237 OA
ATOM     77  O   UNL A   1      42.120  22.121  25.411  1.00  0.00    -0.744 OA
ENDBRANCH  73  74
ENDBRANCH  54  68
BRANCH  55  78
ATOM     78  C   UNL A   1      40.845  32.875  35.801  1.00  0.00    -0.014 A 
ATOM     79  C   UNL A   1      40.096  32.511  36.936  1.00  0.00     0.010 A 
ATOM     80  C   UNL A   1      41.341  34.187  35.702  1.00  0.00     0.010 A 
ATOM     81  C   UNL A   1      39.822  33.451  37.934  1.00  0.00     0.020 A 
ATOM     82  C   UNL A   1      41.097  35.119  36.714  1.00  0.00     0.020 A 
ATOM     83  C   UNL A   1      40.324  34.751  37.815  1.00  0.00     0.054 A 
BRANCH  83  84
ATOM     84  S   UNL A   1      39.981  35.947  39.136  1.00  0.00     0.124 S 
ATOM     85  O   UNL A   1      38.995  35.233  39.941  1.00  0.00    -0.237 OA
ATOM     86  O   UNL A   1      41.294  36.123  39.751  1.00  0.00    -0.237 OA
ATOM     87  O   UNL A   1      39.477  37.114  38.416  1.00  0.00    -0.744 OA
ENDBRANCH  83  84
ENDBRANCH  55  78
BRANCH  67  88
ATOM     88  C   UNL A   1      45.885  28.179  34.712  1.00  0.00    -0.014 A 
ATOM     89  C   UNL A   1      47.102  28.839  34.465  1.00  0.00     0.010 A 
ATOM     90  C   UNL A   1      45.835  27.199  35.721  1.00  0.00     0.010 A 
ATOM     91  C   UNL A   1      48.251  28.503  35.187  1.00  0.00     0.020 A 
ATOM     92  C   UNL A   1      46.975  26.880  36.466  1.00  0.00     0.020 A 
ATOM     93  C   UNL A   1      48.179  27.526  36.185  1.00  0.00     0.054 A 
BRANCH  93  94
ATOM     94  S   UNL A   1      49.674  27.141  37.139  1.00  0.00     0.124 S 
ATOM     95  O   UNL A   1      50.115  28.466  37.565  1.00  0.00    -0.237 OA
ATOM     96  O   UNL A   1      49.162  26.279  38.202  1.00  0.00    -0.237 OA
ATOM     97  O   UNL A   1      50.543  26.477  36.171  1.00  0.00    -0.744 OA
ENDBRANCH  93  94
ENDBRANCH  67  88
ENDBRANCH  41  42
ENDBRANCH  33  36
ENDBRANCH  31  32
ENDBRANCH  30  31
ENDBRANCH  29  30
ENDBRANCH  28  29
ENDBRANCH   1  28
TORSDOF 23
ENDMDL
