MODEL 1
REMARK VINA RESULT:     -10.5      0.000      0.000
REMARK SMILES O=C(NCCCCCCNC(=O)c1cc(-c2cncnc2)cc(S(=O)(=O)N2CCCC2)c1)c1ccc(-c2c3nc(c(-c4ccc(S(=O)(=O)[O-])cc4)c4ccc([nH]4)c(-c4ccc(S(=O)(=O)[O-])cc4)c4nc(c(-c5ccc(S(=O)(=O)[O-])cc5)c5ccc2[nH]5)C=C4)C=C3)cc1
REMARK SMILES IDX 6 1 5 2 4 3 3 4 1 5 2 6 33 8 34 9 92 10 35 11 91 12 36 13
REMARK SMILES IDX 37 14 38 15 85 16 39 17 90 18 84 19 86 20 40 21 89 22 83 23
REMARK SMILES IDX 82 24 41 26 71 27 52 28 70 29 53 30 56 31 69 32 87 33 54 34
REMARK SMILES IDX 55 35 68 37 88 38 57 39 42 40 43 41 51 42 44 43 50 44 45 45
REMARK SMILES IDX 46 46 47 47 48 48 49 49 72 50 73 51 81 52 74 53 80 54 75 55
REMARK SMILES IDX 76 56 77 57 78 58 79 59 58 60 59 61 67 62 60 63 66 64 61 65
REMARK SMILES IDX 62 66 63 67 64 68 65 69 7 70 8 71 9 72 10 73 11 74 12 76
REMARK SMILES IDX 13 77 14 78 32 79 15 80 23 81 22 82 16 83 17 84 21 85 18 86
REMARK SMILES IDX 20 87 19 88 24 89 25 90 26 91 27 92 28 93 31 94 29 95 30 96
REMARK H PARENT 3 7 86 25 56 36 10 75
REMARK Flexibility Score: inf
ROOT
ATOM      1  C   UNL A   1      40.075  25.909  26.840  1.00  0.00     0.002 C 
ENDROOT
BRANCH   1   2
ATOM      2  C   UNL A   1      40.962  25.397  25.703  1.00  0.00     0.021 C 
BRANCH   2   3
ATOM      3  C   UNL A   1      42.227  26.203  25.428  1.00  0.00     0.116 C 
BRANCH   3   4
ATOM      4  N   UNL A   1      43.445  25.503  25.791  1.00  0.00    -0.352 N 
ATOM      5  O   UNL A   1      45.298  25.047  26.985  1.00  0.00    -0.269 OA
ATOM      6  C   UNL A   1      44.239  25.664  26.901  1.00  0.00     0.251 C 
ATOM      7  H   UNL A   1      43.744  24.817  25.152  1.00  0.00     0.163 HD
BRANCH   6   8
ATOM      8  C   UNL A   1      43.840  26.602  27.977  1.00  0.00     0.039 A 
ATOM      9  C   UNL A   1      43.073  26.176  29.064  1.00  0.00     0.014 A 
ATOM     10  C   UNL A   1      44.264  27.933  27.902  1.00  0.00     0.014 A 
ATOM     11  C   UNL A   1      42.630  27.101  30.007  1.00  0.00     0.010 A 
ATOM     12  C   UNL A   1      43.878  28.846  28.888  1.00  0.00     0.010 A 
ATOM     13  C   UNL A   1      43.036  28.443  29.935  1.00  0.00    -0.014 A 
BRANCH  13  14
ATOM     14  C   UNL A   1      42.626  29.391  31.003  1.00  0.00     0.031 A 
ATOM     15  C   UNL A   1      41.338  30.162  30.912  1.00  0.00     0.074 A 
ATOM     16  C   UNL A   1      43.427  29.541  32.077  1.00  0.00     0.049 A 
ATOM     17  N   UNL A   1      40.823  31.004  31.772  1.00  0.00    -0.248 NA
ATOM     18  C   UNL A   1      40.524  29.968  29.702  1.00  0.00     0.031 C 
ATOM     19  C   UNL A   1      44.708  28.858  32.272  1.00  0.00     0.029 A 
ATOM     20  N   UNL A   1      43.278  30.299  33.208  1.00  0.00    -0.354 N 
ATOM     21  C   UNL A   1      39.637  31.454  31.205  1.00  0.00     0.074 A 
ATOM     22  C   UNL A   1      39.517  30.805  29.916  1.00  0.00     0.031 C 
ATOM     23  C   UNL A   1      45.206  29.194  33.472  1.00  0.00     0.029 A 
ATOM     24  C   UNL A   1      44.309  30.154  34.106  1.00  0.00     0.049 A 
ATOM     25  H   UNL A   1      42.507  30.891  33.365  1.00  0.00     0.167 HD
ATOM     26  C   UNL A   1      38.730  32.325  31.712  1.00  0.00     0.031 A 
ATOM     27  C   UNL A   1      44.519  30.731  35.303  1.00  0.00     0.031 A 
ATOM     28  C   UNL A   1      38.854  32.972  32.992  1.00  0.00     0.049 A 
ATOM     29  C   UNL A   1      43.509  31.705  35.834  1.00  0.00     0.074 A 
ATOM     30  C   UNL A   1      37.971  33.847  33.604  1.00  0.00     0.029 A 
ATOM     31  N   UNL A   1      39.928  32.821  33.856  1.00  0.00    -0.354 N 
ATOM     32  N   UNL A   1      42.378  32.091  35.294  1.00  0.00    -0.248 NA
ATOM     33  C   UNL A   1      43.804  32.322  37.133  1.00  0.00     0.031 C 
ATOM     34  C   UNL A   1      38.532  34.257  34.819  1.00  0.00     0.029 A 
ATOM     35  C   UNL A   1      39.743  33.603  34.985  1.00  0.00     0.049 A 
ATOM     36  H   UNL A   1      40.707  32.242  33.692  1.00  0.00     0.167 HD
ATOM     37  C   UNL A   1      41.822  32.992  36.191  1.00  0.00     0.074 A 
ATOM     38  C   UNL A   1      42.730  33.077  37.319  1.00  0.00     0.031 C 
ATOM     39  C   UNL A   1      40.663  33.688  36.089  1.00  0.00     0.031 A 
BRANCH  26  40
ATOM     40  C   UNL A   1      37.530  32.651  30.862  1.00  0.00    -0.014 A 
ATOM     41  C   UNL A   1      36.306  31.982  31.045  1.00  0.00     0.010 A 
ATOM     42  C   UNL A   1      37.617  33.666  29.892  1.00  0.00     0.010 A 
ATOM     43  C   UNL A   1      35.204  32.293  30.243  1.00  0.00     0.020 A 
ATOM     44  C   UNL A   1      36.511  33.994  29.103  1.00  0.00     0.020 A 
ATOM     45  C   UNL A   1      35.317  33.291  29.271  1.00  0.00     0.054 A 
BRANCH  45  46
ATOM     46  S   UNL A   1      33.870  33.678  28.244  1.00  0.00     0.124 S 
ATOM     47  O   UNL A   1      34.443  34.584  27.252  1.00  0.00    -0.237 OA
ATOM     48  O   UNL A   1      33.472  32.366  27.739  1.00  0.00    -0.237 OA
ATOM     49  O   UNL A   1      32.935  34.292  29.182  1.00  0.00    -0.744 OA
ENDBRANCH  45  46
ENDBRANCH  26  40
BRANCH  27  50
ATOM     50  C   UNL A   1      45.748  30.396  36.070  1.00  0.00    -0.014 A 
ATOM     51  C   UNL A   1      45.754  29.318  36.970  1.00  0.00     0.010 A 
ATOM     52  C   UNL A   1      46.932  31.127  35.863  1.00  0.00     0.010 A 
ATOM     53  C   UNL A   1      46.926  28.975  37.652  1.00  0.00     0.020 A 
ATOM     54  C   UNL A   1      48.110  30.772  36.523  1.00  0.00     0.020 A 
ATOM     55  C   UNL A   1      48.098  29.701  37.420  1.00  0.00     0.054 A 
BRANCH  55  56
ATOM     56  S   UNL A   1      49.628  29.190  38.249  1.00  0.00     0.124 S 
ATOM     57  O   UNL A   1      49.700  27.773  37.905  1.00  0.00    -0.237 OA
ATOM     58  O   UNL A   1      50.632  30.046  37.622  1.00  0.00    -0.237 OA
ATOM     59  O   UNL A   1      49.364  29.482  39.656  1.00  0.00    -0.744 OA
ENDBRANCH  55  56
ENDBRANCH  27  50
BRANCH  39  60
ATOM     60  C   UNL A   1      40.311  34.598  37.235  1.00  0.00    -0.014 A 
ATOM     61  C   UNL A   1      39.546  34.131  38.318  1.00  0.00     0.010 A 
ATOM     62  C   UNL A   1      40.779  35.923  37.242  1.00  0.00     0.010 A 
ATOM     63  C   UNL A   1      39.227  34.986  39.376  1.00  0.00     0.020 A 
ATOM     64  C   UNL A   1      40.480  36.775  38.309  1.00  0.00     0.020 A 
ATOM     65  C   UNL A   1      39.693  36.304  39.362  1.00  0.00     0.054 A 
BRANCH  65  66
ATOM     66  S   UNL A   1      39.297  37.388  40.762  1.00  0.00     0.124 S 
ATOM     67  O   UNL A   1      38.743  36.444  41.729  1.00  0.00    -0.237 OA
ATOM     68  O   UNL A   1      40.598  37.955  41.110  1.00  0.00    -0.237 OA
ATOM     69  O   UNL A   1      38.341  38.340  40.200  1.00  0.00    -0.744 OA
ENDBRANCH  65  66
ENDBRANCH  39  60
ENDBRANCH  13  14
ENDBRANCH   6   8
ENDBRANCH   3   4
ENDBRANCH   2   3
ENDBRANCH   1   2
BRANCH   1  70
ATOM     70  C   UNL A   1      39.225  24.860  27.561  1.00  0.00     0.002 C 
BRANCH  70  71
ATOM     71  C   UNL A   1      38.789  23.645  26.733  1.00  0.00     0.021 C 
BRANCH  71  72
ATOM     72  C   UNL A   1      37.396  23.726  26.116  1.00  0.00     0.116 C 
BRANCH  72  73
ATOM     73  N   UNL A   1      37.426  23.646  24.668  1.00  0.00    -0.352 N 
ATOM     74  C   UNL A   1      36.534  23.076  23.796  1.00  0.00     0.251 C 
ATOM     75  H   UNL A   1      38.209  24.067  24.245  1.00  0.00     0.163 HD
ATOM     76  O   UNL A   1      36.829  22.981  22.608  1.00  0.00    -0.269 OA
BRANCH  74  77
ATOM     77  C   UNL A   1      35.211  22.581  24.249  1.00  0.00     0.041 A 
ATOM     78  C   UNL A   1      35.046  21.203  24.435  1.00  0.00     0.022 A 
ATOM     79  C   UNL A   1      34.113  23.431  24.359  1.00  0.00     0.035 A 
ATOM     80  C   UNL A   1      33.791  20.656  24.753  1.00  0.00    -0.013 A 
ATOM     81  C   UNL A   1      32.861  22.912  24.679  1.00  0.00     0.084 A 
ATOM     82  C   UNL A   1      32.700  21.531  24.875  1.00  0.00     0.030 A 
BRANCH  80  83
ATOM     83  C   UNL A   1      33.633  19.209  24.906  1.00  0.00     0.018 A 
ATOM     84  C   UNL A   1      34.571  18.293  24.456  1.00  0.00     0.123 A 
ATOM     85  C   UNL A   1      32.550  18.627  25.549  1.00  0.00     0.123 A 
ATOM     86  N   UNL A   1      34.477  16.956  24.621  1.00  0.00    -0.244 NA
ATOM     87  N   UNL A   1      32.398  17.299  25.745  1.00  0.00    -0.244 NA
ATOM     88  C   UNL A   1      33.383  16.526  25.266  1.00  0.00     0.221 A 
ENDBRANCH  80  83
BRANCH  81  89
ATOM     89  S   UNL A   1      31.405  23.938  24.791  1.00  0.00     0.243 S 
ATOM     90  O   UNL A   1      30.730  23.790  23.518  1.00  0.00    -0.207 OA
ATOM     91  O   UNL A   1      30.772  23.585  26.040  1.00  0.00    -0.207 OA
BRANCH  89  92
ATOM     92  N   UNL A   1      31.931  25.522  24.897  1.00  0.00    -0.198 NA
ATOM     93  C   UNL A   1      31.726  26.328  26.107  1.00  0.00     0.102 C 
ATOM     94  C   UNL A   1      32.070  26.370  23.706  1.00  0.00     0.102 C 
ATOM     95  C   UNL A   1      31.322  27.698  25.580  1.00  0.00     0.018 C 
ATOM     96  C   UNL A   1      32.035  27.799  24.241  1.00  0.00     0.018 C 
ENDBRANCH  89  92
ENDBRANCH  81  89
ENDBRANCH  74  77
ENDBRANCH  72  73
ENDBRANCH  71  72
ENDBRANCH  70  71
ENDBRANCH   1  70
TORSDOF 19
ENDMDL
MODEL 2
REMARK VINA RESULT:     -10.2      2.107      8.451
REMARK SMILES O=C(NCCCCCCNC(=O)c1cc(-c2cncnc2)cc(S(=O)(=O)N2CCCC2)c1)c1ccc(-c2c3nc(c(-c4ccc(S(=O)(=O)[O-])cc4)c4ccc([nH]4)c(-c4ccc(S(=O)(=O)[O-])cc4)c4nc(c(-c5ccc(S(=O)(=O)[O-])cc5)c5ccc2[nH]5)C=C4)C=C3)cc1
REMARK SMILES IDX 6 1 5 2 4 3 3 4 1 5 2 6 33 8 34 9 92 10 35 11 91 12 36 13
REMARK SMILES IDX 37 14 38 15 85 16 39 17 90 18 84 19 86 20 40 21 89 22 83 23
REMARK SMILES IDX 82 24 41 26 71 27 52 28 70 29 53 30 56 31 69 32 87 33 54 34
REMARK SMILES IDX 55 35 68 37 88 38 57 39 42 40 43 41 51 42 44 43 50 44 45 45
REMARK SMILES IDX 46 46 47 47 48 48 49 49 72 50 73 51 81 52 74 53 80 54 75 55
REMARK SMILES IDX 76 56 77 57 78 58 79 59 58 60 59 61 67 62 60 63 66 64 61 65
REMARK SMILES IDX 62 66 63 67 64 68 65 69 7 70 8 71 9 72 10 73 11 74 12 76
REMARK SMILES IDX 13 77 14 78 32 79 15 80 23 81 22 82 16 83 17 84 21 85 18 86
REMARK SMILES IDX 20 87 19 88 24 89 25 90 26 91 27 92 28 93 31 94 29 95 30 96
REMARK H PARENT 3 7 86 25 56 36 10 75
REMARK Flexibility Score: inf
ROOT
ATOM      1  C   UNL A   1      37.478  22.721  24.742  1.00  0.00     0.002 C 
ENDROOT
BRANCH   1   2
ATOM      2  C   UNL A   1      37.403  23.774  25.849  1.00  0.00     0.021 C 
BRANCH   2   3
ATOM      3  C   UNL A   1      38.662  23.948  26.692  1.00  0.00     0.116 C 
BRANCH   3   4
ATOM      4  N   UNL A   1      39.840  24.262  25.906  1.00  0.00    -0.352 N 
ATOM      5  O   UNL A   1      41.624  25.456  25.229  1.00  0.00    -0.269 OA
ATOM      6  C   UNL A   1      40.738  25.291  26.063  1.00  0.00     0.251 C 
ATOM      7  H   UNL A   1      40.023  23.652  25.155  1.00  0.00     0.163 HD
BRANCH   6   8
ATOM      8  C   UNL A   1      40.620  26.219  27.213  1.00  0.00     0.039 A 
ATOM      9  C   UNL A   1      41.327  27.423  27.249  1.00  0.00     0.014 A 
ATOM     10  C   UNL A   1      39.765  25.880  28.266  1.00  0.00     0.014 A 
ATOM     11  C   UNL A   1      41.273  28.226  28.387  1.00  0.00     0.010 A 
ATOM     12  C   UNL A   1      39.656  26.722  29.377  1.00  0.00     0.010 A 
ATOM     13  C   UNL A   1      40.429  27.891  29.458  1.00  0.00    -0.014 A 
BRANCH  13  14
ATOM     14  C   UNL A   1      40.319  28.809  30.620  1.00  0.00     0.031 A 
ATOM     15  C   UNL A   1      41.236  28.686  31.804  1.00  0.00     0.074 A 
ATOM     16  C   UNL A   1      39.382  29.778  30.590  1.00  0.00     0.049 A 
ATOM     17  N   UNL A   1      41.289  29.426  32.883  1.00  0.00    -0.248 NA
ATOM     18  C   UNL A   1      42.219  27.591  31.781  1.00  0.00     0.031 C 
ATOM     19  C   UNL A   1      38.425  29.990  29.502  1.00  0.00     0.029 A 
ATOM     20  N   UNL A   1      39.092  30.773  31.487  1.00  0.00    -0.354 N 
ATOM     21  C   UNL A   1      42.293  28.882  33.673  1.00  0.00     0.074 A 
ATOM     22  C   UNL A   1      42.813  27.734  32.958  1.00  0.00     0.031 C 
ATOM     23  C   UNL A   1      37.683  31.075  29.774  1.00  0.00     0.029 A 
ATOM     24  C   UNL A   1      38.075  31.602  31.077  1.00  0.00     0.049 A 
ATOM     25  H   UNL A   1      39.566  30.884  32.343  1.00  0.00     0.167 HD
ATOM     26  C   UNL A   1      42.744  29.300  34.882  1.00  0.00     0.031 A 
ATOM     27  C   UNL A   1      37.511  32.664  31.680  1.00  0.00     0.031 A 
ATOM     28  C   UNL A   1      42.223  30.439  35.592  1.00  0.00     0.049 A 
ATOM     29  C   UNL A   1      38.016  33.096  33.026  1.00  0.00     0.074 A 
ATOM     30  C   UNL A   1      42.636  30.957  36.808  1.00  0.00     0.029 A 
ATOM     31  N   UNL A   1      41.173  31.233  35.156  1.00  0.00    -0.354 N 
ATOM     32  N   UNL A   1      38.989  32.585  33.740  1.00  0.00    -0.248 NA
ATOM     33  C   UNL A   1      37.346  34.247  33.645  1.00  0.00     0.031 C 
ATOM     34  C   UNL A   1      41.807  32.040  37.127  1.00  0.00     0.029 A 
ATOM     35  C   UNL A   1      40.908  32.223  36.088  1.00  0.00     0.049 A 
ATOM     36  H   UNL A   1      40.688  31.111  34.309  1.00  0.00     0.167 HD
ATOM     37  C   UNL A   1      39.054  33.356  34.892  1.00  0.00     0.074 A 
ATOM     38  C   UNL A   1      38.035  34.381  34.770  1.00  0.00     0.031 C 
ATOM     39  C   UNL A   1      39.881  33.224  35.958  1.00  0.00     0.031 A 
BRANCH  26  40
ATOM     40  C   UNL A   1      43.844  28.499  35.527  1.00  0.00    -0.014 A 
ATOM     41  C   UNL A   1      43.552  27.419  36.381  1.00  0.00     0.010 A 
ATOM     42  C   UNL A   1      45.187  28.806  35.246  1.00  0.00     0.010 A 
ATOM     43  C   UNL A   1      44.586  26.690  36.976  1.00  0.00     0.020 A 
ATOM     44  C   UNL A   1      46.223  28.066  35.823  1.00  0.00     0.020 A 
ATOM     45  C   UNL A   1      45.915  27.024  36.700  1.00  0.00     0.054 A 
BRANCH  45  46
ATOM     46  S   UNL A   1      47.239  26.060  37.483  1.00  0.00     0.124 S 
ATOM     47  O   UNL A   1      47.154  26.510  38.871  1.00  0.00    -0.237 OA
ATOM     48  O   UNL A   1      46.820  24.682  37.245  1.00  0.00    -0.237 OA
ATOM     49  O   UNL A   1      48.441  26.477  36.767  1.00  0.00    -0.744 OA
ENDBRANCH  45  46
ENDBRANCH  26  40
BRANCH  27  50
ATOM     50  C   UNL A   1      36.399  33.383  31.005  1.00  0.00    -0.014 A 
ATOM     51  C   UNL A   1      35.122  33.431  31.588  1.00  0.00     0.010 A 
ATOM     52  C   UNL A   1      36.629  34.066  29.796  1.00  0.00     0.010 A 
ATOM     53  C   UNL A   1      34.092  34.151  30.975  1.00  0.00     0.020 A 
ATOM     54  C   UNL A   1      35.610  34.805  29.193  1.00  0.00     0.020 A 
ATOM     55  C   UNL A   1      34.345  34.837  29.783  1.00  0.00     0.054 A 
BRANCH  55  56
ATOM     56  S   UNL A   1      33.020  35.833  29.045  1.00  0.00     0.124 S 
ATOM     57  O   UNL A   1      32.257  36.241  30.220  1.00  0.00    -0.237 OA
ATOM     58  O   UNL A   1      33.760  36.897  28.369  1.00  0.00    -0.237 OA
ATOM     59  O   UNL A   1      32.346  34.893  28.153  1.00  0.00    -0.744 OA
ENDBRANCH  55  56
ENDBRANCH  27  50
BRANCH  39  60
ATOM     60  C   UNL A   1      39.720  34.221  37.073  1.00  0.00    -0.014 A 
ATOM     61  C   UNL A   1      39.196  33.833  38.319  1.00  0.00     0.010 A 
ATOM     62  C   UNL A   1      40.129  35.552  36.882  1.00  0.00     0.010 A 
ATOM     63  C   UNL A   1      39.054  34.769  39.347  1.00  0.00     0.020 A 
ATOM     64  C   UNL A   1      40.008  36.486  37.915  1.00  0.00     0.020 A 
ATOM     65  C   UNL A   1      39.458  36.090  39.136  1.00  0.00     0.054 A 
BRANCH  65  66
ATOM     66  S   UNL A   1      39.296  37.283  40.495  1.00  0.00     0.124 S 
ATOM     67  O   UNL A   1      38.393  36.584  41.405  1.00  0.00    -0.237 OA
ATOM     68  O   UNL A   1      40.673  37.427  40.963  1.00  0.00    -0.237 OA
ATOM     69  O   UNL A   1      38.738  38.468  39.848  1.00  0.00    -0.744 OA
ENDBRANCH  65  66
ENDBRANCH  39  60
ENDBRANCH  13  14
ENDBRANCH   6   8
ENDBRANCH   3   4
ENDBRANCH   2   3
ENDBRANCH   1   2
BRANCH   1  70
ATOM     70  C   UNL A   1      38.020  21.348  25.147  1.00  0.00     0.002 C 
BRANCH  70  71
ATOM     71  C   UNL A   1      37.109  20.145  24.877  1.00  0.00     0.021 C 
BRANCH  71  72
ATOM     72  C   UNL A   1      35.644  20.319  25.269  1.00  0.00     0.116 C 
BRANCH  72  73
ATOM     73  N   UNL A   1      34.771  19.392  24.576  1.00  0.00    -0.352 N 
ATOM     74  C   UNL A   1      33.468  19.537  24.174  1.00  0.00     0.251 C 
ATOM     75  H   UNL A   1      35.177  18.521  24.360  1.00  0.00     0.163 HD
ATOM     76  O   UNL A   1      32.858  18.565  23.738  1.00  0.00    -0.269 OA
BRANCH  74  77
ATOM     77  C   UNL A   1      32.776  20.847  24.239  1.00  0.00     0.041 A 
ATOM     78  C   UNL A   1      32.837  21.686  23.120  1.00  0.00     0.022 A 
ATOM     79  C   UNL A   1      32.192  21.307  25.418  1.00  0.00     0.035 A 
ATOM     80  C   UNL A   1      32.300  22.986  23.152  1.00  0.00    -0.013 A 
ATOM     81  C   UNL A   1      31.649  22.589  25.471  1.00  0.00     0.084 A 
ATOM     82  C   UNL A   1      31.703  23.424  24.345  1.00  0.00     0.030 A 
BRANCH  80  83
ATOM     83  C   UNL A   1      32.409  23.860  21.983  1.00  0.00     0.018 A 
ATOM     84  C   UNL A   1      31.955  25.170  21.973  1.00  0.00     0.123 A 
ATOM     85  C   UNL A   1      33.009  23.469  20.796  1.00  0.00     0.123 A 
ATOM     86  N   UNL A   1      32.081  26.016  20.928  1.00  0.00    -0.244 NA
ATOM     87  N   UNL A   1      33.165  24.266  19.717  1.00  0.00    -0.244 NA
ATOM     88  C   UNL A   1      32.688  25.512  19.844  1.00  0.00     0.221 A 
ENDBRANCH  80  83
BRANCH  81  89
ATOM     89  S   UNL A   1      30.928  23.255  26.961  1.00  0.00     0.243 S 
ATOM     90  O   UNL A   1      29.597  22.686  27.034  1.00  0.00    -0.207 OA
ATOM     91  O   UNL A   1      31.909  23.046  28.000  1.00  0.00    -0.207 OA
BRANCH  89  92
ATOM     92  N   UNL A   1      30.754  24.902  26.726  1.00  0.00    -0.198 NA
ATOM     93  C   UNL A   1      29.593  25.468  26.028  1.00  0.00     0.102 C 
ATOM     94  C   UNL A   1      31.917  25.797  26.643  1.00  0.00     0.102 C 
ATOM     95  C   UNL A   1      30.183  26.558  25.144  1.00  0.00     0.018 C 
ATOM     96  C   UNL A   1      31.401  27.036  25.918  1.00  0.00     0.018 C 
ENDBRANCH  89  92
ENDBRANCH  81  89
ENDBRANCH  74  77
ENDBRANCH  72  73
ENDBRANCH  71  72
ENDBRANCH  70  71
ENDBRANCH   1  70
TORSDOF 19
ENDMDL
MODEL 3
REMARK VINA RESULT:      -9.9      2.089      3.546
REMARK SMILES O=C(NCCCCCCNC(=O)c1cc(-c2cncnc2)cc(S(=O)(=O)N2CCCC2)c1)c1ccc(-c2c3nc(c(-c4ccc(S(=O)(=O)[O-])cc4)c4ccc([nH]4)c(-c4ccc(S(=O)(=O)[O-])cc4)c4nc(c(-c5ccc(S(=O)(=O)[O-])cc5)c5ccc2[nH]5)C=C4)C=C3)cc1
REMARK SMILES IDX 6 1 5 2 4 3 3 4 1 5 2 6 33 8 34 9 92 10 35 11 91 12 36 13
REMARK SMILES IDX 37 14 38 15 85 16 39 17 90 18 84 19 86 20 40 21 89 22 83 23
REMARK SMILES IDX 82 24 41 26 71 27 52 28 70 29 53 30 56 31 69 32 87 33 54 34
REMARK SMILES IDX 55 35 68 37 88 38 57 39 42 40 43 41 51 42 44 43 50 44 45 45
REMARK SMILES IDX 46 46 47 47 48 48 49 49 72 50 73 51 81 52 74 53 80 54 75 55
REMARK SMILES IDX 76 56 77 57 78 58 79 59 58 60 59 61 67 62 60 63 66 64 61 65
REMARK SMILES IDX 62 66 63 67 64 68 65 69 7 70 8 71 9 72 10 73 11 74 12 76
REMARK SMILES IDX 13 77 14 78 32 79 15 80 23 81 22 82 16 83 17 84 21 85 18 86
REMARK SMILES IDX 20 87 19 88 24 89 25 90 26 91 27 92 28 93 31 94 29 95 30 96
REMARK H PARENT 3 7 86 25 56 36 10 75
REMARK Flexibility Score: inf
ROOT
ATOM      1  C   UNL A   1      37.370  22.893  24.882  1.00  0.00     0.002 C 
ENDROOT
BRANCH   1   2
ATOM      2  C   UNL A   1      37.275  23.810  26.102  1.00  0.00     0.021 C 
BRANCH   2   3
ATOM      3  C   UNL A   1      38.583  24.077  26.840  1.00  0.00     0.116 C 
BRANCH   3   4
ATOM      4  N   UNL A   1      39.671  24.462  25.961  1.00  0.00    -0.352 N 
ATOM      5  O   UNL A   1      41.340  25.747  25.166  1.00  0.00    -0.269 OA
ATOM      6  C   UNL A   1      40.542  25.520  26.071  1.00  0.00     0.251 C 
ATOM      7  H   UNL A   1      39.804  23.884  25.175  1.00  0.00     0.163 HD
BRANCH   6   8
ATOM      8  C   UNL A   1      40.499  26.404  27.260  1.00  0.00     0.039 A 
ATOM      9  C   UNL A   1      39.732  26.076  28.381  1.00  0.00     0.014 A 
ATOM     10  C   UNL A   1      41.260  27.577  27.255  1.00  0.00     0.014 A 
ATOM     11  C   UNL A   1      39.632  26.975  29.441  1.00  0.00     0.010 A 
ATOM     12  C   UNL A   1      41.215  28.445  28.351  1.00  0.00     0.010 A 
ATOM     13  C   UNL A   1      40.380  28.163  29.443  1.00  0.00    -0.014 A 
BRANCH  13  14
ATOM     14  C   UNL A   1      40.327  29.060  30.625  1.00  0.00     0.031 A 
ATOM     15  C   UNL A   1      39.308  30.161  30.727  1.00  0.00     0.074 A 
ATOM     16  C   UNL A   1      41.208  28.862  31.627  1.00  0.00     0.049 A 
ATOM     17  N   UNL A   1      39.111  31.010  31.704  1.00  0.00    -0.248 NA
ATOM     18  C   UNL A   1      38.394  30.336  29.588  1.00  0.00     0.031 C 
ATOM     19  C   UNL A   1      42.253  27.835  31.637  1.00  0.00     0.029 A 
ATOM     20  N   UNL A   1      41.355  29.499  32.831  1.00  0.00    -0.354 N 
ATOM     21  C   UNL A   1      38.067  31.830  31.295  1.00  0.00     0.074 A 
ATOM     22  C   UNL A   1      37.682  31.389  29.970  1.00  0.00     0.031 C 
ATOM     23  C   UNL A   1      42.904  27.883  32.809  1.00  0.00     0.029 A 
ATOM     24  C   UNL A   1      42.360  28.975  33.609  1.00  0.00     0.049 A 
ATOM     25  H   UNL A   1      40.796  30.259  33.112  1.00  0.00     0.167 HD
ATOM     26  C   UNL A   1      37.480  32.854  31.962  1.00  0.00     0.031 A 
ATOM     27  C   UNL A   1      42.804  29.334  34.828  1.00  0.00     0.031 A 
ATOM     28  C   UNL A   1      37.867  33.293  33.278  1.00  0.00     0.049 A 
ATOM     29  C   UNL A   1      42.150  30.482  35.538  1.00  0.00     0.074 A 
ATOM     30  C   UNL A   1      37.311  34.303  34.046  1.00  0.00     0.029 A 
ATOM     31  N   UNL A   1      38.909  32.756  34.018  1.00  0.00    -0.354 N 
ATOM     32  N   UNL A   1      41.141  31.222  35.144  1.00  0.00    -0.248 NA
ATOM     33  C   UNL A   1      42.693  30.843  36.853  1.00  0.00     0.031 C 
ATOM     34  C   UNL A   1      38.045  34.403  35.235  1.00  0.00     0.029 A 
ATOM     35  C   UNL A   1      39.028  33.426  35.225  1.00  0.00     0.049 A 
ATOM     36  H   UNL A   1      39.479  32.008  33.730  1.00  0.00     0.167 HD
ATOM     37  C   UNL A   1      40.924  32.134  36.168  1.00  0.00     0.074 A 
ATOM     38  C   UNL A   1      41.891  31.839  37.207  1.00  0.00     0.031 C 
ATOM     39  C   UNL A   1      40.007  33.130  36.240  1.00  0.00     0.031 A 
BRANCH  26  40
ATOM     40  C   UNL A   1      36.368  33.591  31.263  1.00  0.00    -0.014 A 
ATOM     41  C   UNL A   1      36.435  33.869  29.885  1.00  0.00     0.010 A 
ATOM     42  C   UNL A   1      35.225  33.977  31.985  1.00  0.00     0.010 A 
ATOM     43  C   UNL A   1      35.396  34.559  29.253  1.00  0.00     0.020 A 
ATOM     44  C   UNL A   1      34.175  34.649  31.352  1.00  0.00     0.020 A 
ATOM     45  C   UNL A   1      34.277  34.952  29.993  1.00  0.00     0.054 A 
BRANCH  45  46
ATOM     46  S   UNL A   1      32.941  35.845  29.148  1.00  0.00     0.124 S 
ATOM     47  O   UNL A   1      32.415  34.816  28.253  1.00  0.00    -0.237 OA
ATOM     48  O   UNL A   1      32.061  36.228  30.248  1.00  0.00    -0.237 OA
ATOM     49  O   UNL A   1      33.628  36.952  28.488  1.00  0.00    -0.744 OA
ENDBRANCH  45  46
ENDBRANCH  26  40
BRANCH  27  50
ATOM     50  C   UNL A   1      43.935  28.589  35.441  1.00  0.00    -0.014 A 
ATOM     51  C   UNL A   1      45.260  29.003  35.229  1.00  0.00     0.010 A 
ATOM     52  C   UNL A   1      43.685  27.490  36.283  1.00  0.00     0.010 A 
ATOM     53  C   UNL A   1      46.318  28.331  35.849  1.00  0.00     0.020 A 
ATOM     54  C   UNL A   1      44.736  26.832  36.923  1.00  0.00     0.020 A 
ATOM     55  C   UNL A   1      46.048  27.252  36.696  1.00  0.00     0.054 A 
BRANCH  55  56
ATOM     56  S   UNL A   1      47.426  26.444  37.557  1.00  0.00     0.124 S 
ATOM     57  O   UNL A   1      47.284  25.058  37.122  1.00  0.00    -0.237 OA
ATOM     58  O   UNL A   1      48.589  27.157  37.035  1.00  0.00    -0.237 OA
ATOM     59  O   UNL A   1      47.136  26.693  38.967  1.00  0.00    -0.744 OA
ENDBRANCH  55  56
ENDBRANCH  27  50
BRANCH  39  60
ATOM     60  C   UNL A   1      40.004  33.966  37.490  1.00  0.00    -0.014 A 
ATOM     61  C   UNL A   1      40.751  35.155  37.565  1.00  0.00     0.010 A 
ATOM     62  C   UNL A   1      39.220  33.575  38.589  1.00  0.00     0.010 A 
ATOM     63  C   UNL A   1      40.738  35.924  38.732  1.00  0.00     0.020 A 
ATOM     64  C   UNL A   1      39.188  34.353  39.750  1.00  0.00     0.020 A 
ATOM     65  C   UNL A   1      39.960  35.515  39.818  1.00  0.00     0.054 A 
BRANCH  65  66
ATOM     66  S   UNL A   1      39.931  36.545  41.312  1.00  0.00     0.124 S 
ATOM     67  O   UNL A   1      41.163  36.139  41.983  1.00  0.00    -0.237 OA
ATOM     68  O   UNL A   1      39.928  37.901  40.769  1.00  0.00    -0.237 OA
ATOM     69  O   UNL A   1      38.694  36.147  41.980  1.00  0.00    -0.744 OA
ENDBRANCH  65  66
ENDBRANCH  39  60
ENDBRANCH  13  14
ENDBRANCH   6   8
ENDBRANCH   3   4
ENDBRANCH   2   3
ENDBRANCH   1   2
BRANCH   1  70
ATOM     70  C   UNL A   1      37.917  21.485  25.132  1.00  0.00     0.002 C 
BRANCH  70  71
ATOM     71  C   UNL A   1      37.037  20.317  24.674  1.00  0.00     0.021 C 
BRANCH  71  72
ATOM     72  C   UNL A   1      35.653  20.236  25.310  1.00  0.00     0.116 C 
BRANCH  72  73
ATOM     73  N   UNL A   1      34.775  19.315  24.615  1.00  0.00    -0.352 N 
ATOM     74  C   UNL A   1      33.475  19.470  24.210  1.00  0.00     0.251 C 
ATOM     75  H   UNL A   1      35.176  18.442  24.400  1.00  0.00     0.163 HD
ATOM     76  O   UNL A   1      32.859  18.501  23.772  1.00  0.00    -0.269 OA
BRANCH  74  77
ATOM     77  C   UNL A   1      32.791  20.784  24.273  1.00  0.00     0.041 A 
ATOM     78  C   UNL A   1      32.853  21.619  23.151  1.00  0.00     0.022 A 
ATOM     79  C   UNL A   1      32.215  21.252  25.453  1.00  0.00     0.035 A 
ATOM     80  C   UNL A   1      32.325  22.922  23.181  1.00  0.00    -0.013 A 
ATOM     81  C   UNL A   1      31.681  22.537  25.504  1.00  0.00     0.084 A 
ATOM     82  C   UNL A   1      31.736  23.369  24.374  1.00  0.00     0.030 A 
BRANCH  80  83
ATOM     83  C   UNL A   1      32.435  23.792  22.008  1.00  0.00     0.018 A 
ATOM     84  C   UNL A   1      31.990  25.105  21.996  1.00  0.00     0.123 A 
ATOM     85  C   UNL A   1      33.028  23.393  20.821  1.00  0.00     0.123 A 
ATOM     86  N   UNL A   1      32.117  25.946  20.947  1.00  0.00    -0.244 NA
ATOM     87  N   UNL A   1      33.186  24.185  19.738  1.00  0.00    -0.244 NA
ATOM     88  C   UNL A   1      32.717  25.435  19.862  1.00  0.00     0.221 A 
ENDBRANCH  80  83
BRANCH  81  89
ATOM     89  S   UNL A   1      30.969  23.213  26.994  1.00  0.00     0.243 S 
ATOM     90  O   UNL A   1      29.627  22.671  27.062  1.00  0.00    -0.207 OA
ATOM     91  O   UNL A   1      31.944  22.982  28.034  1.00  0.00    -0.207 OA
BRANCH  89  92
ATOM     92  N   UNL A   1      30.829  24.864  26.763  1.00  0.00    -0.198 NA
ATOM     93  C   UNL A   1      29.650  25.460  26.122  1.00  0.00     0.102 C 
ATOM     94  C   UNL A   1      32.010  25.727  26.621  1.00  0.00     0.102 C 
ATOM     95  C   UNL A   1      30.225  26.533  25.207  1.00  0.00     0.018 C 
ATOM     96  C   UNL A   1      31.492  26.979  25.918  1.00  0.00     0.018 C 
ENDBRANCH  89  92
ENDBRANCH  81  89
ENDBRANCH  74  77
ENDBRANCH  72  73
ENDBRANCH  71  72
ENDBRANCH  70  71
ENDBRANCH   1  70
TORSDOF 19
ENDMDL
