MODEL 1
REMARK VINA RESULT:     -11.5      0.000      0.000
REMARK SMILES COc1cc(/C=N/c2cccc(F)c2)ccc1OCc1cccc(C(=O)NCCCCCCNC(=O)c2ccc(-c3c4nc(c(-c5ccc(S(=O)(=O)[O-])cc5)c5ccc([nH]5)c(-c5ccc(S(=O)(=O)[O-])cc5)c5nc(c(-c6ccc(S(=O)(=O)[O-])cc6)c6ccc3[nH]6)C=C5)C=C4)cc2)c1
REMARK SMILES IDX 29 1 28 2 27 3 25 4 26 5 24 7 20 8 21 9 97 10 22 11 23 12
REMARK SMILES IDX 19 13 18 14 17 15 3 16 4 17 5 18 16 19 15 20 2 21 1 22 6 23
REMARK SMILES IDX 7 24 8 25 9 26 14 27 10 28 12 29 11 30 13 31 30 32 31 33
REMARK SMILES IDX 32 34 33 35 34 36 35 37 36 39 37 40 38 41 96 42 39 43 95 44
REMARK SMILES IDX 40 45 41 46 42 47 89 48 43 49 94 50 88 51 90 52 44 53 93 54
REMARK SMILES IDX 87 55 86 56 45 58 75 59 56 60 74 61 57 62 60 63 73 64 91 65
REMARK SMILES IDX 58 66 59 67 72 69 92 70 61 71 46 72 47 73 55 74 48 75 54 76
REMARK SMILES IDX 49 77 50 78 51 79 52 80 53 81 76 82 77 83 85 84 78 85 84 86
REMARK SMILES IDX 79 87 80 88 81 89 82 90 83 91 62 92 63 93 71 94 64 95 70 96
REMARK SMILES IDX 65 97 66 98 67 99 68 100 69 101
REMARK H PARENT 27 6 34 38 90 57 60 68
REMARK Flexibility Score: inf
ROOT
ATOM      1  C   UNL A   1      39.254  23.151  26.451  1.00  0.00     0.021 C 
ENDROOT
BRANCH   1   2
ATOM      2  C   UNL A   1      37.757  23.280  26.161  1.00  0.00     0.116 C 
BRANCH   2   3
ATOM      3  N   UNL A   1      37.528  23.249  24.729  1.00  0.00    -0.352 N 
ATOM      4  C   UNL A   1      36.534  22.714  23.951  1.00  0.00     0.251 C 
ATOM      5  O   UNL A   1      36.659  22.817  22.729  1.00  0.00    -0.269 OA
ATOM      6  H   UNL A   1      38.229  23.705  24.210  1.00  0.00     0.163 HD
BRANCH   4   7
ATOM      7  C   UNL A   1      35.293  22.099  24.502  1.00  0.00     0.040 A 
ATOM      8  C   UNL A   1      32.910  22.077  25.039  1.00  0.00    -0.010 A 
ATOM      9  C   UNL A   1      33.005  20.720  25.365  1.00  0.00     0.007 A 
ATOM     10  C   UNL A   1      34.088  22.774  24.714  1.00  0.00     0.021 A 
ATOM     11  C   UNL A   1      34.219  20.047  25.243  1.00  0.00     0.001 A 
ATOM     12  C   UNL A   1      35.348  20.727  24.788  1.00  0.00     0.014 A 
BRANCH   8  13
ATOM     13  C   UNL A   1      31.586  22.821  24.942  1.00  0.00     0.265 C 
BRANCH  13  14
ATOM     14  O   UNL A   1      31.192  23.276  23.645  1.00  0.00    -0.485 OA
BRANCH  14  15
ATOM     15  C   UNL A   1      31.001  24.609  23.397  1.00  0.00     0.161 A 
ATOM     16  C   UNL A   1      31.610  25.416  22.423  1.00  0.00     0.161 A 
ATOM     17  C   UNL A   1      31.181  26.743  22.253  1.00  0.00     0.060 A 
ATOM     18  C   UNL A   1      30.159  27.261  23.058  1.00  0.00    -0.003 A 
ATOM     19  C   UNL A   1      30.009  25.159  24.221  1.00  0.00     0.051 A 
ATOM     20  C   UNL A   1      29.581  26.474  24.053  1.00  0.00     0.014 A 
BRANCH  16  21
ATOM     21  O   UNL A   1      32.683  24.926  21.726  1.00  0.00    -0.493 OA
ATOM     22  C   UNL A   1      33.948  25.148  22.344  1.00  0.00     0.278 C 
ENDBRANCH  16  21
BRANCH  18  23
ATOM     23  C   UNL A   1      29.721  28.667  22.949  1.00  0.00     0.120 C 
ATOM     24  N   UNL A   1      28.708  29.024  22.225  1.00  0.00    -0.256 NA
BRANCH  24  25
ATOM     25  C   UNL A   1      28.474  30.401  22.060  1.00  0.00     0.066 A 
ATOM     26  C   UNL A   1      27.950  30.868  20.849  1.00  0.00     0.028 A 
ATOM     27  C   UNL A   1      28.872  31.333  23.024  1.00  0.00     0.067 A 
ATOM     28  C   UNL A   1      27.826  32.241  20.602  1.00  0.00     0.005 A 
ATOM     29  C   UNL A   1      28.740  32.694  22.776  1.00  0.00     0.125 A 
ATOM     30  C   UNL A   1      28.228  33.157  21.570  1.00  0.00     0.039 A 
ATOM     31  F   UNL A   1      29.132  33.574  23.706  1.00  0.00    -0.207 F 
ENDBRANCH  24  25
ENDBRANCH  18  23
ENDBRANCH  14  15
ENDBRANCH  13  14
ENDBRANCH   8  13
ENDBRANCH   4   7
ENDBRANCH   2   3
ENDBRANCH   1   2
BRANCH   1  32
ATOM     32  C   UNL A   1      39.748  21.699  26.415  1.00  0.00     0.002 C 
BRANCH  32  33
ATOM     33  C   UNL A   1      41.194  21.504  26.886  1.00  0.00     0.002 C 
BRANCH  33  34
ATOM     34  C   UNL A   1      41.563  22.271  28.158  1.00  0.00     0.021 C 
BRANCH  34  35
ATOM     35  C   UNL A   1      42.777  23.182  28.006  1.00  0.00     0.116 C 
BRANCH  35  36
ATOM     36  N   UNL A   1      42.758  23.893  26.737  1.00  0.00    -0.352 N 
ATOM     37  C   UNL A   1      42.305  25.157  26.462  1.00  0.00     0.251 C 
ATOM     38  H   UNL A   1      43.122  23.397  25.968  1.00  0.00     0.163 HD
ATOM     39  O   UNL A   1      42.144  25.513  25.295  1.00  0.00    -0.269 OA
BRANCH  37  40
ATOM     40  C   UNL A   1      41.999  26.083  27.571  1.00  0.00     0.039 A 
ATOM     41  C   UNL A   1      40.803  25.931  28.277  1.00  0.00     0.014 A 
ATOM     42  C   UNL A   1      42.895  27.102  27.913  1.00  0.00     0.014 A 
ATOM     43  C   UNL A   1      40.532  26.767  29.362  1.00  0.00     0.010 A 
ATOM     44  C   UNL A   1      42.658  27.881  29.041  1.00  0.00     0.010 A 
ATOM     45  C   UNL A   1      41.472  27.727  29.773  1.00  0.00    -0.014 A 
BRANCH  45  46
ATOM     46  C   UNL A   1      41.233  28.577  30.967  1.00  0.00     0.031 A 
ATOM     47  C   UNL A   1      40.134  29.604  30.956  1.00  0.00     0.074 A 
ATOM     48  C   UNL A   1      42.046  28.468  32.037  1.00  0.00     0.049 A 
ATOM     49  N   UNL A   1      39.808  30.474  31.878  1.00  0.00    -0.248 NA
ATOM     50  C   UNL A   1      39.304  29.681  29.741  1.00  0.00     0.031 C 
ATOM     51  C   UNL A   1      43.169  27.535  32.156  1.00  0.00     0.029 A 
ATOM     52  N   UNL A   1      42.055  29.150  33.227  1.00  0.00    -0.354 N 
ATOM     53  C   UNL A   1      38.752  31.208  31.351  1.00  0.00     0.074 A 
ATOM     54  C   UNL A   1      38.526  30.719  30.008  1.00  0.00     0.031 C 
ATOM     55  C   UNL A   1      43.738  27.684  33.362  1.00  0.00     0.029 A 
ATOM     56  C   UNL A   1      43.055  28.751  34.085  1.00  0.00     0.049 A 
ATOM     57  H   UNL A   1      41.407  29.858  33.448  1.00  0.00     0.167 HD
ATOM     58  C   UNL A   1      38.022  32.187  31.936  1.00  0.00     0.031 A 
ATOM     59  C   UNL A   1      43.389  29.199  35.310  1.00  0.00     0.031 A 
ATOM     60  C   UNL A   1      38.251  32.670  33.274  1.00  0.00     0.049 A 
ATOM     61  C   UNL A   1      42.582  30.307  35.931  1.00  0.00     0.074 A 
ATOM     62  C   UNL A   1      37.536  33.622  33.978  1.00  0.00     0.029 A 
ATOM     63  N   UNL A   1      39.273  32.241  34.108  1.00  0.00    -0.354 N 
ATOM     64  N   UNL A   1      41.544  30.943  35.442  1.00  0.00    -0.248 NA
ATOM     65  C   UNL A   1      42.983  30.747  37.274  1.00  0.00     0.031 C 
ATOM     66  C   UNL A   1      38.162  33.814  35.212  1.00  0.00     0.029 A 
ATOM     67  C   UNL A   1      39.226  32.930  35.307  1.00  0.00     0.049 A 
ATOM     68  H   UNL A   1      39.934  31.547  33.880  1.00  0.00     0.167 HD
ATOM     69  C   UNL A   1      41.150  31.839  36.429  1.00  0.00     0.074 A 
ATOM     70  C   UNL A   1      42.051  31.651  37.548  1.00  0.00     0.031 C 
ATOM     71  C   UNL A   1      40.131  32.734  36.413  1.00  0.00     0.031 A 
BRANCH  58  72
ATOM     72  C   UNL A   1      36.915  32.812  31.127  1.00  0.00    -0.014 A 
ATOM     73  C   UNL A   1      37.194  33.726  30.093  1.00  0.00     0.010 A 
ATOM     74  C   UNL A   1      35.577  32.455  31.377  1.00  0.00     0.010 A 
ATOM     75  C   UNL A   1      36.156  34.306  29.359  1.00  0.00     0.020 A 
ATOM     76  C   UNL A   1      34.537  33.008  30.623  1.00  0.00     0.020 A 
ATOM     77  C   UNL A   1      34.833  33.944  29.631  1.00  0.00     0.054 A 
BRANCH  77  78
ATOM     78  S   UNL A   1      33.508  34.701  28.652  1.00  0.00     0.124 S 
ATOM     79  O   UNL A   1      34.163  35.899  28.133  1.00  0.00    -0.237 OA
ATOM     80  O   UNL A   1      33.212  33.669  27.662  1.00  0.00    -0.237 OA
ATOM     81  O   UNL A   1      32.449  34.945  29.628  1.00  0.00    -0.744 OA
ENDBRANCH  77  78
ENDBRANCH  58  72
BRANCH  59  82
ATOM     82  C   UNL A   1      44.539  28.589  36.036  1.00  0.00    -0.014 A 
ATOM     83  C   UNL A   1      45.832  29.124  35.903  1.00  0.00     0.010 A 
ATOM     84  C   UNL A   1      44.343  27.477  36.876  1.00  0.00     0.010 A 
ATOM     85  C   UNL A   1      46.910  28.550  36.584  1.00  0.00     0.020 A 
ATOM     86  C   UNL A   1      45.411  26.920  37.582  1.00  0.00     0.020 A 
ATOM     87  C   UNL A   1      46.692  27.453  37.422  1.00  0.00     0.054 A 
BRANCH  87  88
ATOM     88  S   UNL A   1      48.097  26.760  38.338  1.00  0.00     0.124 S 
ATOM     89  O   UNL A   1      47.467  26.335  39.584  1.00  0.00    -0.237 OA
ATOM     90  O   UNL A   1      48.548  25.686  37.456  1.00  0.00    -0.237 OA
ATOM     91  O   UNL A   1      49.019  27.889  38.453  1.00  0.00    -0.744 OA
ENDBRANCH  87  88
ENDBRANCH  59  82
BRANCH  71  92
ATOM     92  C   UNL A   1      39.908  33.557  37.654  1.00  0.00    -0.014 A 
ATOM     93  C   UNL A   1      40.547  34.796  37.837  1.00  0.00     0.010 A 
ATOM     94  C   UNL A   1      38.994  33.108  38.627  1.00  0.00     0.010 A 
ATOM     95  C   UNL A   1      40.299  35.557  38.983  1.00  0.00     0.020 A 
ATOM     96  C   UNL A   1      38.720  33.880  39.758  1.00  0.00     0.020 A 
ATOM     97  C   UNL A   1      39.385  35.094  39.935  1.00  0.00     0.054 A 
BRANCH  97  98
ATOM     98  S   UNL A   1      39.043  36.123  41.389  1.00  0.00     0.124 S 
ATOM     99  O   UNL A   1      37.820  35.518  41.910  1.00  0.00    -0.237 OA
ATOM    100  O   UNL A   1      40.239  35.927  42.207  1.00  0.00    -0.237 OA
ATOM    101  O   UNL A   1      38.886  37.466  40.836  1.00  0.00    -0.744 OA
ENDBRANCH  97  98
ENDBRANCH  71  92
ENDBRANCH  45  46
ENDBRANCH  37  40
ENDBRANCH  35  36
ENDBRANCH  34  35
ENDBRANCH  33  34
ENDBRANCH  32  33
ENDBRANCH   1  32
TORSDOF 22
ENDMDL
MODEL 2
REMARK VINA RESULT:     -11.4      0.755      7.780
REMARK SMILES COc1cc(/C=N/c2cccc(F)c2)ccc1OCc1cccc(C(=O)NCCCCCCNC(=O)c2ccc(-c3c4nc(c(-c5ccc(S(=O)(=O)[O-])cc5)c5ccc([nH]5)c(-c5ccc(S(=O)(=O)[O-])cc5)c5nc(c(-c6ccc(S(=O)(=O)[O-])cc6)c6ccc3[nH]6)C=C5)C=C4)cc2)c1
REMARK SMILES IDX 29 1 28 2 27 3 25 4 26 5 24 7 20 8 21 9 97 10 22 11 23 12
REMARK SMILES IDX 19 13 18 14 17 15 3 16 4 17 5 18 16 19 15 20 2 21 1 22 6 23
REMARK SMILES IDX 7 24 8 25 9 26 14 27 10 28 12 29 11 30 13 31 30 32 31 33
REMARK SMILES IDX 32 34 33 35 34 36 35 37 36 39 37 40 38 41 96 42 39 43 95 44
REMARK SMILES IDX 40 45 41 46 42 47 89 48 43 49 94 50 88 51 90 52 44 53 93 54
REMARK SMILES IDX 87 55 86 56 45 58 75 59 56 60 74 61 57 62 60 63 73 64 91 65
REMARK SMILES IDX 58 66 59 67 72 69 92 70 61 71 46 72 47 73 55 74 48 75 54 76
REMARK SMILES IDX 49 77 50 78 51 79 52 80 53 81 76 82 77 83 85 84 78 85 84 86
REMARK SMILES IDX 79 87 80 88 81 89 82 90 83 91 62 92 63 93 71 94 64 95 70 96
REMARK SMILES IDX 65 97 66 98 67 99 68 100 69 101
REMARK H PARENT 27 6 34 38 90 57 60 68
REMARK Flexibility Score: inf
ROOT
ATOM      1  C   UNL A   1      39.335  23.127  26.563  1.00  0.00     0.021 C 
ENDROOT
BRANCH   1   2
ATOM      2  C   UNL A   1      37.840  23.176  26.237  1.00  0.00     0.116 C 
BRANCH   2   3
ATOM      3  N   UNL A   1      37.653  23.324  24.806  1.00  0.00    -0.352 N 
ATOM      4  C   UNL A   1      36.702  22.862  23.933  1.00  0.00     0.251 C 
ATOM      5  O   UNL A   1      36.858  23.127  22.740  1.00  0.00    -0.269 OA
ATOM      6  H   UNL A   1      38.352  23.866  24.374  1.00  0.00     0.163 HD
BRANCH   4   7
ATOM      7  C   UNL A   1      35.469  22.141  24.360  1.00  0.00     0.040 A 
ATOM      8  C   UNL A   1      33.055  21.910  24.650  1.00  0.00    -0.010 A 
ATOM      9  C   UNL A   1      33.234  20.567  24.996  1.00  0.00     0.007 A 
ATOM     10  C   UNL A   1      34.195  22.708  24.441  1.00  0.00     0.021 A 
ATOM     11  C   UNL A   1      34.507  20.003  25.005  1.00  0.00     0.001 A 
ATOM     12  C   UNL A   1      35.614  20.779  24.662  1.00  0.00     0.014 A 
BRANCH   8  13
ATOM     13  C   UNL A   1      31.688  22.536  24.412  1.00  0.00     0.265 C 
BRANCH  13  14
ATOM     14  O   UNL A   1      31.453  23.107  23.123  1.00  0.00    -0.485 OA
BRANCH  14  15
ATOM     15  C   UNL A   1      31.317  24.462  22.969  1.00  0.00     0.161 A 
ATOM     16  C   UNL A   1      31.927  25.303  22.025  1.00  0.00     0.161 A 
ATOM     17  C   UNL A   1      31.556  26.656  21.960  1.00  0.00     0.060 A 
ATOM     18  C   UNL A   1      30.592  27.166  22.837  1.00  0.00    -0.003 A 
ATOM     19  C   UNL A   1      30.385  25.000  23.868  1.00  0.00     0.051 A 
ATOM     20  C   UNL A   1      30.015  26.341  23.803  1.00  0.00     0.014 A 
BRANCH  16  21
ATOM     21  O   UNL A   1      32.948  24.812  21.255  1.00  0.00    -0.493 OA
ATOM     22  C   UNL A   1      32.842  25.110  19.865  1.00  0.00     0.278 C 
ENDBRANCH  16  21
BRANCH  18  23
ATOM     23  C   UNL A   1      30.218  28.594  22.838  1.00  0.00     0.120 C 
ATOM     24  N   UNL A   1      29.044  29.004  22.472  1.00  0.00    -0.256 NA
BRANCH  24  25
ATOM     25  C   UNL A   1      28.843  30.391  22.354  1.00  0.00     0.066 A 
ATOM     26  C   UNL A   1      28.966  31.202  23.488  1.00  0.00     0.028 A 
ATOM     27  C   UNL A   1      28.396  30.968  21.161  1.00  0.00     0.067 A 
ATOM     28  C   UNL A   1      28.646  32.565  23.434  1.00  0.00     0.005 A 
ATOM     29  C   UNL A   1      28.087  32.321  21.112  1.00  0.00     0.125 A 
ATOM     30  C   UNL A   1      28.201  33.125  22.239  1.00  0.00     0.039 A 
ATOM     31  F   UNL A   1      27.654  32.857  19.963  1.00  0.00    -0.207 F 
ENDBRANCH  24  25
ENDBRANCH  18  23
ENDBRANCH  14  15
ENDBRANCH  13  14
ENDBRANCH   8  13
ENDBRANCH   4   7
ENDBRANCH   2   3
ENDBRANCH   1   2
BRANCH   1  32
ATOM     32  C   UNL A   1      39.936  21.724  26.403  1.00  0.00     0.002 C 
BRANCH  32  33
ATOM     33  C   UNL A   1      41.433  21.631  26.718  1.00  0.00     0.002 C 
BRANCH  33  34
ATOM     34  C   UNL A   1      41.860  22.322  28.015  1.00  0.00     0.021 C 
BRANCH  34  35
ATOM     35  C   UNL A   1      42.924  23.398  27.827  1.00  0.00     0.116 C 
BRANCH  35  36
ATOM     36  N   UNL A   1      42.820  24.032  26.521  1.00  0.00    -0.352 N 
ATOM     37  C   UNL A   1      42.299  25.257  26.194  1.00  0.00     0.251 C 
ATOM     38  H   UNL A   1      43.176  23.507  25.767  1.00  0.00     0.163 HD
ATOM     39  O   UNL A   1      42.075  25.535  25.017  1.00  0.00    -0.269 OA
BRANCH  37  40
ATOM     40  C   UNL A   1      41.996  26.232  27.260  1.00  0.00     0.039 A 
ATOM     41  C   UNL A   1      40.936  25.980  28.134  1.00  0.00     0.014 A 
ATOM     42  C   UNL A   1      42.760  27.396  27.396  1.00  0.00     0.014 A 
ATOM     43  C   UNL A   1      40.677  26.870  29.178  1.00  0.00     0.010 A 
ATOM     44  C   UNL A   1      42.550  28.239  28.482  1.00  0.00     0.010 A 
ATOM     45  C   UNL A   1      41.502  27.989  29.381  1.00  0.00    -0.014 A 
BRANCH  45  46
ATOM     46  C   UNL A   1      41.287  28.908  30.528  1.00  0.00     0.031 A 
ATOM     47  C   UNL A   1      42.164  28.814  31.747  1.00  0.00     0.074 A 
ATOM     48  C   UNL A   1      40.264  29.785  30.496  1.00  0.00     0.049 A 
ATOM     49  N   UNL A   1      42.096  29.489  32.866  1.00  0.00    -0.248 NA
ATOM     50  C   UNL A   1      43.245  27.813  31.716  1.00  0.00     0.031 C 
ATOM     51  C   UNL A   1      39.322  29.948  29.387  1.00  0.00     0.029 A 
ATOM     52  N   UNL A   1      39.842  30.701  31.426  1.00  0.00    -0.354 N 
ATOM     53  C   UNL A   1      43.109  28.987  33.674  1.00  0.00     0.074 A 
ATOM     54  C   UNL A   1      43.743  27.914  32.938  1.00  0.00     0.031 C 
ATOM     55  C   UNL A   1      38.452  30.925  29.688  1.00  0.00     0.029 A 
ATOM     56  C   UNL A   1      38.742  31.426  31.027  1.00  0.00     0.049 A 
ATOM     57  H   UNL A   1      40.284  30.828  32.297  1.00  0.00     0.167 HD
ATOM     58  C   UNL A   1      43.493  29.394  34.907  1.00  0.00     0.031 A 
ATOM     59  C   UNL A   1      38.041  32.380  31.670  1.00  0.00     0.031 A 
ATOM     60  C   UNL A   1      42.859  30.464  35.634  1.00  0.00     0.049 A 
ATOM     61  C   UNL A   1      38.467  32.798  33.051  1.00  0.00     0.074 A 
ATOM     62  C   UNL A   1      43.202  30.987  36.868  1.00  0.00     0.029 A 
ATOM     63  N   UNL A   1      41.749  31.171  35.196  1.00  0.00    -0.354 N 
ATOM     64  N   UNL A   1      39.470  32.357  33.772  1.00  0.00    -0.248 NA
ATOM     65  C   UNL A   1      37.675  33.851  33.700  1.00  0.00     0.031 C 
ATOM     66  C   UNL A   1      42.264  31.966  37.204  1.00  0.00     0.029 A 
ATOM     67  C   UNL A   1      41.377  32.105  36.148  1.00  0.00     0.049 A 
ATOM     68  H   UNL A   1      41.293  31.030  34.334  1.00  0.00     0.167 HD
ATOM     69  C   UNL A   1      39.447  33.098  34.947  1.00  0.00     0.074 A 
ATOM     70  C   UNL A   1      38.341  34.026  34.833  1.00  0.00     0.031 C 
ATOM     71  C   UNL A   1      40.271  33.022  36.022  1.00  0.00     0.031 A 
BRANCH  58  72
ATOM     72  C   UNL A   1      44.644  28.669  35.556  1.00  0.00    -0.014 A 
ATOM     73  C   UNL A   1      44.511  27.341  36.004  1.00  0.00     0.010 A 
ATOM     74  C   UNL A   1      45.890  29.310  35.687  1.00  0.00     0.010 A 
ATOM     75  C   UNL A   1      45.584  26.687  36.614  1.00  0.00     0.020 A 
ATOM     76  C   UNL A   1      46.976  28.648  36.267  1.00  0.00     0.020 A 
ATOM     77  C   UNL A   1      46.810  27.346  36.744  1.00  0.00     0.054 A 
BRANCH  77  78
ATOM     78  S   UNL A   1      48.190  26.466  37.525  1.00  0.00     0.124 S 
ATOM     79  O   UNL A   1      49.164  27.539  37.712  1.00  0.00    -0.237 OA
ATOM     80  O   UNL A   1      47.586  25.947  38.749  1.00  0.00    -0.237 OA
ATOM     81  O   UNL A   1      48.560  25.454  36.539  1.00  0.00    -0.744 OA
ENDBRANCH  77  78
ENDBRANCH  58  72
BRANCH  59  82
ATOM     82  C   UNL A   1      36.867  33.013  31.005  1.00  0.00    -0.014 A 
ATOM     83  C   UNL A   1      35.559  32.644  31.362  1.00  0.00     0.010 A 
ATOM     84  C   UNL A   1      37.053  34.002  30.021  1.00  0.00     0.010 A 
ATOM     85  C   UNL A   1      34.459  33.240  30.738  1.00  0.00     0.020 A 
ATOM     86  C   UNL A   1      35.956  34.621  29.416  1.00  0.00     0.020 A 
ATOM     87  C   UNL A   1      34.665  34.227  29.771  1.00  0.00     0.054 A 
BRANCH  87  88
ATOM     88  S   UNL A   1      33.220  35.023  29.013  1.00  0.00     0.124 S 
ATOM     89  O   UNL A   1      32.336  35.201  30.161  1.00  0.00    -0.237 OA
ATOM     90  O   UNL A   1      33.792  36.246  28.457  1.00  0.00    -0.237 OA
ATOM     91  O   UNL A   1      32.773  34.046  28.022  1.00  0.00    -0.744 OA
ENDBRANCH  87  88
ENDBRANCH  59  82
BRANCH  71  92
ATOM     92  C   UNL A   1      40.033  33.990  37.151  1.00  0.00    -0.014 A 
ATOM     93  C   UNL A   1      39.057  33.747  38.133  1.00  0.00     0.010 A 
ATOM     94  C   UNL A   1      40.845  35.135  37.262  1.00  0.00     0.010 A 
ATOM     95  C   UNL A   1      38.878  34.645  39.189  1.00  0.00     0.020 A 
ATOM     96  C   UNL A   1      40.691  36.018  38.333  1.00  0.00     0.020 A 
ATOM     97  C   UNL A   1      39.698  35.774  39.283  1.00  0.00     0.054 A 
BRANCH  97  98
ATOM     98  S   UNL A   1      39.478  36.898  40.690  1.00  0.00     0.124 S 
ATOM     99  O   UNL A   1      38.265  37.620  40.315  1.00  0.00    -0.237 OA
ATOM    100  O   UNL A   1      39.337  35.976  41.815  1.00  0.00    -0.237 OA
ATOM    101  O   UNL A   1      40.702  37.695  40.693  1.00  0.00    -0.744 OA
ENDBRANCH  97  98
ENDBRANCH  71  92
ENDBRANCH  45  46
ENDBRANCH  37  40
ENDBRANCH  35  36
ENDBRANCH  34  35
ENDBRANCH  33  34
ENDBRANCH  32  33
ENDBRANCH   1  32
TORSDOF 22
ENDMDL
MODEL 3
REMARK VINA RESULT:     -11.1      2.944      9.939
REMARK SMILES COc1cc(/C=N/c2cccc(F)c2)ccc1OCc1cccc(C(=O)NCCCCCCNC(=O)c2ccc(-c3c4nc(c(-c5ccc(S(=O)(=O)[O-])cc5)c5ccc([nH]5)c(-c5ccc(S(=O)(=O)[O-])cc5)c5nc(c(-c6ccc(S(=O)(=O)[O-])cc6)c6ccc3[nH]6)C=C5)C=C4)cc2)c1
REMARK SMILES IDX 29 1 28 2 27 3 25 4 26 5 24 7 20 8 21 9 97 10 22 11 23 12
REMARK SMILES IDX 19 13 18 14 17 15 3 16 4 17 5 18 16 19 15 20 2 21 1 22 6 23
REMARK SMILES IDX 7 24 8 25 9 26 14 27 10 28 12 29 11 30 13 31 30 32 31 33
REMARK SMILES IDX 32 34 33 35 34 36 35 37 36 39 37 40 38 41 96 42 39 43 95 44
REMARK SMILES IDX 40 45 41 46 42 47 89 48 43 49 94 50 88 51 90 52 44 53 93 54
REMARK SMILES IDX 87 55 86 56 45 58 75 59 56 60 74 61 57 62 60 63 73 64 91 65
REMARK SMILES IDX 58 66 59 67 72 69 92 70 61 71 46 72 47 73 55 74 48 75 54 76
REMARK SMILES IDX 49 77 50 78 51 79 52 80 53 81 76 82 77 83 85 84 78 85 84 86
REMARK SMILES IDX 79 87 80 88 81 89 82 90 83 91 62 92 63 93 71 94 64 95 70 96
REMARK SMILES IDX 65 97 66 98 67 99 68 100 69 101
REMARK H PARENT 27 6 34 38 90 57 60 68
REMARK Flexibility Score: inf
ROOT
ATOM      1  C   UNL A   1      32.493  28.900  26.172  1.00  0.00     0.021 C 
ENDROOT
BRANCH   1   2
ATOM      2  C   UNL A   1      32.751  27.562  26.869  1.00  0.00     0.116 C 
BRANCH   2   3
ATOM      3  N   UNL A   1      31.534  26.772  26.884  1.00  0.00    -0.352 N 
ATOM      4  C   UNL A   1      30.778  26.197  25.895  1.00  0.00     0.251 C 
ATOM      5  O   UNL A   1      29.746  25.619  26.240  1.00  0.00    -0.269 OA
ATOM      6  H   UNL A   1      31.179  26.617  27.789  1.00  0.00     0.163 HD
BRANCH   4   7
ATOM      7  C   UNL A   1      31.180  26.167  24.460  1.00  0.00     0.040 A 
ATOM      8  C   UNL A   1      32.239  25.164  22.500  1.00  0.00    -0.010 A 
ATOM      9  C   UNL A   1      31.658  26.148  21.694  1.00  0.00     0.007 A 
ATOM     10  C   UNL A   1      32.075  25.256  23.895  1.00  0.00     0.021 A 
ATOM     11  C   UNL A   1      30.829  27.119  22.250  1.00  0.00     0.001 A 
ATOM     12  C   UNL A   1      30.570  27.111  23.620  1.00  0.00     0.014 A 
BRANCH   8  13
ATOM     13  C   UNL A   1      32.975  23.954  21.943  1.00  0.00     0.265 C 
BRANCH  13  14
ATOM     14  O   UNL A   1      32.895  22.743  22.698  1.00  0.00    -0.485 OA
BRANCH  14  15
ATOM     15  C   UNL A   1      33.921  22.361  23.521  1.00  0.00     0.161 A 
ATOM     16  C   UNL A   1      33.925  21.365  24.511  1.00  0.00     0.161 A 
ATOM     17  C   UNL A   1      35.126  21.043  25.167  1.00  0.00     0.060 A 
ATOM     18  C   UNL A   1      36.308  21.720  24.843  1.00  0.00    -0.003 A 
ATOM     19  C   UNL A   1      35.105  23.056  23.242  1.00  0.00     0.051 A 
ATOM     20  C   UNL A   1      36.297  22.737  23.889  1.00  0.00     0.014 A 
BRANCH  16  21
ATOM     21  O   UNL A   1      32.738  20.797  24.892  1.00  0.00    -0.493 OA
ATOM     22  C   UNL A   1      32.797  19.392  25.123  1.00  0.00     0.278 C 
ENDBRANCH  16  21
BRANCH  18  23
ATOM     23  C   UNL A   1      37.577  21.451  25.550  1.00  0.00     0.120 C 
ATOM     24  N   UNL A   1      38.350  22.401  25.972  1.00  0.00    -0.256 NA
BRANCH  24  25
ATOM     25  C   UNL A   1      39.609  22.041  26.485  1.00  0.00     0.066 A 
ATOM     26  C   UNL A   1      40.157  20.797  26.150  1.00  0.00     0.028 A 
ATOM     27  C   UNL A   1      40.271  22.835  27.427  1.00  0.00     0.067 A 
ATOM     28  C   UNL A   1      41.344  20.353  26.744  1.00  0.00     0.005 A 
ATOM     29  C   UNL A   1      41.452  22.391  28.008  1.00  0.00     0.125 A 
ATOM     30  C   UNL A   1      41.992  21.153  27.682  1.00  0.00     0.039 A 
ATOM     31  F   UNL A   1      42.071  23.161  28.913  1.00  0.00    -0.207 F 
ENDBRANCH  24  25
ENDBRANCH  18  23
ENDBRANCH  14  15
ENDBRANCH  13  14
ENDBRANCH   8  13
ENDBRANCH   4   7
ENDBRANCH   2   3
ENDBRANCH   1   2
BRANCH   1  32
ATOM     32  C   UNL A   1      31.720  29.892  27.051  1.00  0.00     0.002 C 
BRANCH  32  33
ATOM     33  C   UNL A   1      32.251  31.330  27.009  1.00  0.00     0.002 C 
BRANCH  33  34
ATOM     34  C   UNL A   1      33.543  31.560  27.798  1.00  0.00     0.021 C 
BRANCH  34  35
ATOM     35  C   UNL A   1      34.142  32.951  27.621  1.00  0.00     0.116 C 
BRANCH  35  36
ATOM     36  N   UNL A   1      33.451  33.939  28.436  1.00  0.00    -0.352 N 
ATOM     37  C   UNL A   1      33.636  34.250  29.758  1.00  0.00     0.251 C 
ATOM     38  H   UNL A   1      32.754  34.458  27.972  1.00  0.00     0.163 HD
ATOM     39  O   UNL A   1      32.807  34.942  30.349  1.00  0.00    -0.269 OA
BRANCH  37  40
ATOM     40  C   UNL A   1      34.824  33.741  30.471  1.00  0.00     0.039 A 
ATOM     41  C   UNL A   1      34.706  32.595  31.262  1.00  0.00     0.014 A 
ATOM     42  C   UNL A   1      36.055  34.396  30.359  1.00  0.00     0.014 A 
ATOM     43  C   UNL A   1      35.837  32.075  31.894  1.00  0.00     0.010 A 
ATOM     44  C   UNL A   1      37.193  33.833  30.927  1.00  0.00     0.010 A 
ATOM     45  C   UNL A   1      37.096  32.670  31.706  1.00  0.00    -0.014 A 
BRANCH  45  46
ATOM     46  C   UNL A   1      38.321  32.092  32.313  1.00  0.00     0.031 A 
ATOM     47  C   UNL A   1      38.718  32.465  33.716  1.00  0.00     0.074 A 
ATOM     48  C   UNL A   1      39.108  31.279  31.581  1.00  0.00     0.049 A 
ATOM     49  N   UNL A   1      39.778  32.109  34.395  1.00  0.00    -0.248 NA
ATOM     50  C   UNL A   1      37.819  33.378  34.443  1.00  0.00     0.031 C 
ATOM     51  C   UNL A   1      38.851  30.871  30.198  1.00  0.00     0.029 A 
ATOM     52  N   UNL A   1      40.289  30.655  31.896  1.00  0.00    -0.354 N 
ATOM     53  C   UNL A   1      39.682  32.762  35.619  1.00  0.00     0.074 A 
ATOM     54  C   UNL A   1      38.489  33.579  35.568  1.00  0.00     0.031 C 
ATOM     55  C   UNL A   1      39.826  30.042  29.795  1.00  0.00     0.029 A 
ATOM     56  C   UNL A   1      40.803  29.896  30.869  1.00  0.00     0.049 A 
ATOM     57  H   UNL A   1      40.727  30.742  32.773  1.00  0.00     0.167 HD
ATOM     58  C   UNL A   1      40.500  32.676  36.694  1.00  0.00     0.031 A 
ATOM     59  C   UNL A   1      41.937  29.172  30.797  1.00  0.00     0.031 A 
ATOM     60  C   UNL A   1      41.685  31.859  36.739  1.00  0.00     0.049 A 
ATOM     61  C   UNL A   1      42.845  29.112  31.995  1.00  0.00     0.074 A 
ATOM     62  C   UNL A   1      42.554  31.662  37.798  1.00  0.00     0.029 A 
ATOM     63  N   UNL A   1      42.172  31.108  35.680  1.00  0.00    -0.354 N 
ATOM     64  N   UNL A   1      42.703  29.685  33.166  1.00  0.00    -0.248 NA
ATOM     65  C   UNL A   1      44.061  28.298  31.865  1.00  0.00     0.031 C 
ATOM     66  C   UNL A   1      43.598  30.843  37.360  1.00  0.00     0.029 A 
ATOM     67  C   UNL A   1      43.343  30.471  36.050  1.00  0.00     0.049 A 
ATOM     68  H   UNL A   1      41.745  31.038  34.795  1.00  0.00     0.167 HD
ATOM     69  C   UNL A   1      43.795  29.277  33.923  1.00  0.00     0.074 A 
ATOM     70  C   UNL A   1      44.580  28.397  33.081  1.00  0.00     0.031 C 
ATOM     71  C   UNL A   1      44.117  29.598  35.201  1.00  0.00     0.031 A 
BRANCH  58  72
ATOM     72  C   UNL A   1      40.148  33.497  37.908  1.00  0.00    -0.014 A 
ATOM     73  C   UNL A   1      40.649  34.802  38.076  1.00  0.00     0.010 A 
ATOM     74  C   UNL A   1      39.272  32.974  38.877  1.00  0.00     0.010 A 
ATOM     75  C   UNL A   1      40.323  35.546  39.213  1.00  0.00     0.020 A 
ATOM     76  C   UNL A   1      38.916  33.728  40.000  1.00  0.00     0.020 A 
ATOM     77  C   UNL A   1      39.459  35.003  40.169  1.00  0.00     0.054 A 
BRANCH  77  78
ATOM     78  S   UNL A   1      39.040  35.999  41.625  1.00  0.00     0.124 S 
ATOM     79  O   UNL A   1      40.147  35.693  42.528  1.00  0.00    -0.237 OA
ATOM     80  O   UNL A   1      39.025  37.358  41.090  1.00  0.00    -0.237 OA
ATOM     81  O   UNL A   1      37.739  35.481  42.038  1.00  0.00    -0.744 OA
ENDBRANCH  77  78
ENDBRANCH  58  72
BRANCH  59  82
ATOM     82  C   UNL A   1      42.268  28.435  29.545  1.00  0.00    -0.014 A 
ATOM     83  C   UNL A   1      42.987  29.066  28.515  1.00  0.00     0.010 A 
ATOM     84  C   UNL A   1      41.880  27.093  29.384  1.00  0.00     0.010 A 
ATOM     85  C   UNL A   1      43.298  28.373  27.340  1.00  0.00     0.020 A 
ATOM     86  C   UNL A   1      42.215  26.388  28.225  1.00  0.00     0.020 A 
ATOM     87  C   UNL A   1      42.912  27.037  27.204  1.00  0.00     0.054 A 
BRANCH  87  88
ATOM     88  S   UNL A   1      43.374  26.144  25.694  1.00  0.00     0.124 S 
ATOM     89  O   UNL A   1      43.209  24.752  26.102  1.00  0.00    -0.237 OA
ATOM     90  O   UNL A   1      42.401  26.640  24.725  1.00  0.00    -0.237 OA
ATOM     91  O   UNL A   1      44.752  26.568  25.454  1.00  0.00    -0.744 OA
ENDBRANCH  87  88
ENDBRANCH  59  82
BRANCH  71  92
ATOM     92  C   UNL A   1      45.353  28.968  35.786  1.00  0.00    -0.014 A 
ATOM     93  C   UNL A   1      45.315  27.696  36.385  1.00  0.00     0.010 A 
ATOM     94  C   UNL A   1      46.587  29.638  35.680  1.00  0.00     0.010 A 
ATOM     95  C   UNL A   1      46.483  27.119  36.893  1.00  0.00     0.020 A 
ATOM     96  C   UNL A   1      47.761  29.051  36.157  1.00  0.00     0.020 A 
ATOM     97  C   UNL A   1      47.698  27.800  36.774  1.00  0.00     0.054 A 
BRANCH  97  98
ATOM     98  S   UNL A   1      49.206  27.008  37.396  1.00  0.00     0.124 S 
ATOM     99  O   UNL A   1      49.078  25.652  36.869  1.00  0.00    -0.237 OA
ATOM    100  O   UNL A   1      50.264  27.818  36.795  1.00  0.00    -0.237 OA
ATOM    101  O   UNL A   1      49.088  27.125  38.848  1.00  0.00    -0.744 OA
ENDBRANCH  97  98
ENDBRANCH  71  92
ENDBRANCH  45  46
ENDBRANCH  37  40
ENDBRANCH  35  36
ENDBRANCH  34  35
ENDBRANCH  33  34
ENDBRANCH  32  33
ENDBRANCH   1  32
TORSDOF 22
ENDMDL
