MODEL 1
REMARK VINA RESULT:     -11.3      0.000      0.000
REMARK SMILES CC1(C)[C@@]2(CC[C@@H]2C(=O)NCc2ccco2)[C@]1(C)C(=O)NCCCCCCNC(=O)c1ccc(-c2c3nc(c(-c4ccc(S(=O)(=O)[O-])cc4)c4ccc([nH]4)c(-c4ccc(S(=O)(=O)[O-])cc4)c4nc(c(-c5ccc(S(=O)(=O)[O-])cc5)c5ccc2[nH]5)C=C4)C=C3)cc1
REMARK SMILES IDX 24 1 23 2 22 3 21 4 19 5 20 6 17 8 1 9 2 10 3 11 4 12 18 13
REMARK SMILES IDX 5 14 7 15 6 16 8 17 9 18 10 19 11 21 12 22 13 23 16 24 14 25
REMARK SMILES IDX 15 26 25 27 26 28 27 29 28 30 29 31 30 33 31 34 32 35 90 36
REMARK SMILES IDX 33 37 89 38 34 39 35 40 36 41 83 42 37 43 88 44 82 45 84 46
REMARK SMILES IDX 38 47 87 48 81 49 80 50 39 52 69 53 50 54 68 55 51 56 54 57
REMARK SMILES IDX 67 58 85 59 52 60 53 61 66 63 86 64 55 65 40 66 41 67 49 68
REMARK SMILES IDX 42 69 48 70 43 71 44 72 45 73 46 74 47 75 70 76 71 77 79 78
REMARK SMILES IDX 72 79 78 80 73 81 74 82 75 83 76 84 77 85 56 86 57 87 65 88
REMARK SMILES IDX 58 89 64 90 59 91 60 92 61 93 62 94 63 95
REMARK H PARENT 21 7 10 20 28 32 84 51 54 62
REMARK Flexibility Score: inf
ROOT
ATOM      1  C   UNL A   1      39.039  21.977  26.140  1.00  0.00     0.002 C 
ENDROOT
BRANCH   1   2
ATOM      2  C   UNL A   1      38.091  21.057  25.367  1.00  0.00     0.021 C 
BRANCH   2   3
ATOM      3  C   UNL A   1      36.653  21.528  25.192  1.00  0.00     0.116 C 
BRANCH   3   4
ATOM      4  N   UNL A   1      35.689  20.493  24.915  1.00  0.00    -0.356 N 
ATOM      5  C   UNL A   1      34.321  20.550  25.008  1.00  0.00     0.227 C 
ATOM      6  O   UNL A   1      33.658  19.594  24.618  1.00  0.00    -0.274 OA
ATOM      7  H   UNL A   1      36.061  19.630  24.619  1.00  0.00     0.163 HD
BRANCH   5   8
ATOM      8  C   UNL A   1      33.638  21.685  25.742  1.00  0.00     0.059 C 
ATOM      9  C   UNL A   1      31.859  21.678  23.807  1.00  0.00     0.013 C 
ATOM     10  C   UNL A   1      32.314  22.241  25.144  1.00  0.00    -0.013 C 
ATOM     11  C   UNL A   1      31.136  22.585  26.024  1.00  0.00     0.013 C 
ATOM     12  C   UNL A   1      33.530  23.129  25.204  1.00  0.00     0.003 C 
ATOM     13  C   UNL A   1      33.655  21.456  27.250  1.00  0.00     0.023 C 
ATOM     14  C   UNL A   1      33.861  24.267  26.115  1.00  0.00     0.010 C 
ATOM     15  C   UNL A   1      34.156  23.807  24.017  1.00  0.00     0.086 C 
ATOM     16  C   UNL A   1      34.775  24.793  25.010  1.00  0.00     0.015 C 
BRANCH  15  17
ATOM     17  C   UNL A   1      33.315  24.279  22.818  1.00  0.00     0.224 C 
ATOM     18  O   UNL A   1      33.613  23.934  21.660  1.00  0.00    -0.275 OA
ATOM     19  N   UNL A   1      32.239  25.126  22.891  1.00  0.00    -0.349 N 
ATOM     20  H   UNL A   1      31.890  25.399  22.012  1.00  0.00     0.163 HD
BRANCH  19  21
ATOM     21  C   UNL A   1      31.521  25.694  24.005  1.00  0.00     0.191 C 
BRANCH  21  22
ATOM     22  C   UNL A   1      31.095  27.087  23.722  1.00  0.00     0.122 A 
ATOM     23  C   UNL A   1      31.033  28.257  24.454  1.00  0.00     0.047 A 
ATOM     24  O   UNL A   1      30.647  27.319  22.451  1.00  0.00    -0.467 OA
ATOM     25  C   UNL A   1      30.511  29.250  23.588  1.00  0.00     0.042 A 
ATOM     26  C   UNL A   1      30.302  28.631  22.381  1.00  0.00     0.195 A 
ENDBRANCH  21  22
ENDBRANCH  19  21
ENDBRANCH  15  17
ENDBRANCH   5   8
ENDBRANCH   3   4
ENDBRANCH   2   3
ENDBRANCH   1   2
BRANCH   1  27
ATOM     27  C   UNL A   1      40.480  21.509  26.355  1.00  0.00     0.002 C 
BRANCH  27  28
ATOM     28  C   UNL A   1      41.227  22.028  27.587  1.00  0.00     0.021 C 
BRANCH  28  29
ATOM     29  C   UNL A   1      42.340  23.044  27.351  1.00  0.00     0.116 C 
BRANCH  29  30
ATOM     30  N   UNL A   1      42.117  23.889  26.194  1.00  0.00    -0.352 N 
ATOM     31  C   UNL A   1      41.736  25.206  26.110  1.00  0.00     0.251 C 
ATOM     32  H   UNL A   1      42.261  23.446  25.326  1.00  0.00     0.163 HD
ATOM     33  O   UNL A   1      41.526  25.694  25.001  1.00  0.00    -0.269 OA
BRANCH  31  34
ATOM     34  C   UNL A   1      41.541  26.039  27.323  1.00  0.00     0.039 A 
ATOM     35  C   UNL A   1      42.491  27.027  27.603  1.00  0.00     0.014 A 
ATOM     36  C   UNL A   1      40.476  25.841  28.209  1.00  0.00     0.014 A 
ATOM     37  C   UNL A   1      42.345  27.849  28.724  1.00  0.00     0.010 A 
ATOM     38  C   UNL A   1      40.299  26.700  29.298  1.00  0.00     0.010 A 
ATOM     39  C   UNL A   1      41.230  27.716  29.566  1.00  0.00    -0.014 A 
BRANCH  39  40
ATOM     40  C   UNL A   1      41.024  28.650  30.706  1.00  0.00     0.031 A 
ATOM     41  C   UNL A   1      41.864  28.548  31.952  1.00  0.00     0.074 A 
ATOM     42  C   UNL A   1      40.043  29.573  30.634  1.00  0.00     0.049 A 
ATOM     43  N   UNL A   1      41.813  29.274  33.040  1.00  0.00    -0.248 NA
ATOM     44  C   UNL A   1      42.882  27.485  31.989  1.00  0.00     0.031 C 
ATOM     45  C   UNL A   1      39.124  29.749  29.507  1.00  0.00     0.029 A 
ATOM     46  N   UNL A   1      39.653  30.538  31.531  1.00  0.00    -0.354 N 
ATOM     47  C   UNL A   1      42.774  28.750  33.897  1.00  0.00     0.074 A 
ATOM     48  C   UNL A   1      43.373  27.623  33.214  1.00  0.00     0.031 C 
ATOM     49  C   UNL A   1      38.294  30.771  29.769  1.00  0.00     0.029 A 
ATOM     50  C   UNL A   1      38.599  31.306  31.092  1.00  0.00     0.049 A 
ATOM     51  H   UNL A   1      40.086  30.667  32.406  1.00  0.00     0.167 HD
ATOM     52  C   UNL A   1      43.135  29.174  35.131  1.00  0.00     0.031 A 
ATOM     53  C   UNL A   1      37.949  32.326  31.685  1.00  0.00     0.031 A 
ATOM     54  C   UNL A   1      42.560  30.310  35.803  1.00  0.00     0.049 A 
ATOM     55  C   UNL A   1      38.387  32.789  33.048  1.00  0.00     0.074 A 
ATOM     56  C   UNL A   1      42.918  30.858  37.024  1.00  0.00     0.029 A 
ATOM     57  N   UNL A   1      41.511  31.073  35.316  1.00  0.00    -0.354 N 
ATOM     58  N   UNL A   1      39.352  32.325  33.804  1.00  0.00    -0.248 NA
ATOM     59  C   UNL A   1      37.654  33.923  33.629  1.00  0.00     0.031 C 
ATOM     60  C   UNL A   1      42.056  31.927  37.295  1.00  0.00     0.029 A 
ATOM     61  C   UNL A   1      41.193  32.072  36.222  1.00  0.00     0.049 A 
ATOM     62  H   UNL A   1      41.059  30.927  34.454  1.00  0.00     0.167 HD
ATOM     63  C   UNL A   1      39.354  33.125  34.942  1.00  0.00     0.074 A 
ATOM     64  C   UNL A   1      38.311  34.113  34.765  1.00  0.00     0.031 C 
ATOM     65  C   UNL A   1      40.150  33.047  36.036  1.00  0.00     0.031 A 
BRANCH  52  66
ATOM     66  C   UNL A   1      44.214  28.409  35.851  1.00  0.00    -0.014 A 
ATOM     67  C   UNL A   1      43.898  27.325  36.688  1.00  0.00     0.010 A 
ATOM     68  C   UNL A   1      45.565  28.726  35.620  1.00  0.00     0.010 A 
ATOM     69  C   UNL A   1      44.913  26.585  37.300  1.00  0.00     0.020 A 
ATOM     70  C   UNL A   1      46.584  27.975  36.214  1.00  0.00     0.020 A 
ATOM     71  C   UNL A   1      46.251  26.915  37.060  1.00  0.00     0.054 A 
BRANCH  71  72
ATOM     72  S   UNL A   1      47.549  25.907  37.826  1.00  0.00     0.124 S 
ATOM     73  O   UNL A   1      46.836  25.301  38.948  1.00  0.00    -0.237 OA
ATOM     74  O   UNL A   1      47.921  24.989  36.750  1.00  0.00    -0.237 OA
ATOM     75  O   UNL A   1      48.575  26.880  38.192  1.00  0.00    -0.744 OA
ENDBRANCH  71  72
ENDBRANCH  52  66
BRANCH  53  76
ATOM     76  C   UNL A   1      36.813  32.993  30.995  1.00  0.00    -0.014 A 
ATOM     77  C   UNL A   1      35.489  32.762  31.409  1.00  0.00     0.010 A 
ATOM     78  C   UNL A   1      37.050  33.846  29.901  1.00  0.00     0.010 A 
ATOM     79  C   UNL A   1      34.421  33.343  30.722  1.00  0.00     0.020 A 
ATOM     80  C   UNL A   1      35.985  34.450  29.228  1.00  0.00     0.020 A 
ATOM     81  C   UNL A   1      34.675  34.179  29.632  1.00  0.00     0.054 A 
BRANCH  81  82
ATOM     82  S   UNL A   1      33.279  34.945  28.763  1.00  0.00     0.124 S 
ATOM     83  O   UNL A   1      33.934  36.027  28.034  1.00  0.00    -0.237 OA
ATOM     84  O   UNL A   1      32.770  33.848  27.945  1.00  0.00    -0.237 OA
ATOM     85  O   UNL A   1      32.394  35.365  29.847  1.00  0.00    -0.744 OA
ENDBRANCH  81  82
ENDBRANCH  53  76
BRANCH  65  86
ATOM     86  C   UNL A   1      39.938  34.074  37.115  1.00  0.00    -0.014 A 
ATOM     87  C   UNL A   1      40.554  35.335  37.046  1.00  0.00     0.010 A 
ATOM     88  C   UNL A   1      39.091  33.780  38.199  1.00  0.00     0.010 A 
ATOM     89  C   UNL A   1      40.361  36.272  38.065  1.00  0.00     0.020 A 
ATOM     90  C   UNL A   1      38.876  34.724  39.208  1.00  0.00     0.020 A 
ATOM     91  C   UNL A   1      39.527  35.957  39.142  1.00  0.00     0.054 A 
BRANCH  91  92
ATOM     92  S   UNL A   1      39.271  37.195  40.445  1.00  0.00     0.124 S 
ATOM     93  O   UNL A   1      38.516  38.225  39.738  1.00  0.00    -0.237 OA
ATOM     94  O   UNL A   1      38.525  36.451  41.457  1.00  0.00    -0.237 OA
ATOM     95  O   UNL A   1      40.629  37.571  40.834  1.00  0.00    -0.744 OA
ENDBRANCH  91  92
ENDBRANCH  65  86
ENDBRANCH  39  40
ENDBRANCH  31  34
ENDBRANCH  29  30
ENDBRANCH  28  29
ENDBRANCH  27  28
ENDBRANCH   1  27
TORSDOF 19
ENDMDL
MODEL 2
REMARK VINA RESULT:     -11.2      6.341     11.545
REMARK SMILES CC1(C)[C@@]2(CC[C@@H]2C(=O)NCc2ccco2)[C@]1(C)C(=O)NCCCCCCNC(=O)c1ccc(-c2c3nc(c(-c4ccc(S(=O)(=O)[O-])cc4)c4ccc([nH]4)c(-c4ccc(S(=O)(=O)[O-])cc4)c4nc(c(-c5ccc(S(=O)(=O)[O-])cc5)c5ccc2[nH]5)C=C4)C=C3)cc1
REMARK SMILES IDX 24 1 23 2 22 3 21 4 19 5 20 6 17 8 1 9 2 10 3 11 4 12 18 13
REMARK SMILES IDX 5 14 7 15 6 16 8 17 9 18 10 19 11 21 12 22 13 23 16 24 14 25
REMARK SMILES IDX 15 26 25 27 26 28 27 29 28 30 29 31 30 33 31 34 32 35 90 36
REMARK SMILES IDX 33 37 89 38 34 39 35 40 36 41 83 42 37 43 88 44 82 45 84 46
REMARK SMILES IDX 38 47 87 48 81 49 80 50 39 52 69 53 50 54 68 55 51 56 54 57
REMARK SMILES IDX 67 58 85 59 52 60 53 61 66 63 86 64 55 65 40 66 41 67 49 68
REMARK SMILES IDX 42 69 48 70 43 71 44 72 45 73 46 74 47 75 70 76 71 77 79 78
REMARK SMILES IDX 72 79 78 80 73 81 74 82 75 83 76 84 77 85 56 86 57 87 65 88
REMARK SMILES IDX 58 89 64 90 59 91 60 92 61 93 62 94 63 95
REMARK H PARENT 21 7 10 20 28 32 84 51 54 62
REMARK Flexibility Score: inf
ROOT
ATOM      1  C   UNL A   1      32.270  29.103  27.260  1.00  0.00     0.002 C 
ENDROOT
BRANCH   1   2
ATOM      2  C   UNL A   1      31.237  27.975  27.316  1.00  0.00     0.021 C 
BRANCH   2   3
ATOM      3  C   UNL A   1      31.693  26.591  26.872  1.00  0.00     0.116 C 
BRANCH   3   4
ATOM      4  N   UNL A   1      31.225  26.168  25.576  1.00  0.00    -0.356 N 
ATOM      5  C   UNL A   1      31.144  24.896  25.068  1.00  0.00     0.227 C 
ATOM      6  O   UNL A   1      30.609  24.723  23.977  1.00  0.00    -0.274 OA
ATOM      7  H   UNL A   1      30.923  26.887  24.974  1.00  0.00     0.163 HD
BRANCH   5   8
ATOM      8  C   UNL A   1      31.858  23.743  25.742  1.00  0.00     0.059 C 
ATOM      9  C   UNL A   1      34.097  25.034  25.265  1.00  0.00     0.013 C 
ATOM     10  C   UNL A   1      33.403  23.839  25.897  1.00  0.00    -0.013 C 
ATOM     11  C   UNL A   1      34.094  23.414  27.172  1.00  0.00     0.013 C 
ATOM     12  C   UNL A   1      32.812  22.768  25.017  1.00  0.00     0.003 C 
ATOM     13  C   UNL A   1      31.085  23.252  26.962  1.00  0.00     0.023 C 
ATOM     14  C   UNL A   1      32.655  21.298  25.243  1.00  0.00     0.010 C 
ATOM     15  C   UNL A   1      33.138  22.579  23.562  1.00  0.00     0.086 C 
ATOM     16  C   UNL A   1      32.651  21.136  23.724  1.00  0.00     0.015 C 
BRANCH  15  17
ATOM     17  C   UNL A   1      34.530  22.909  22.994  1.00  0.00     0.224 C 
ATOM     18  O   UNL A   1      34.649  23.635  21.990  1.00  0.00    -0.275 OA
ATOM     19  N   UNL A   1      35.717  22.422  23.477  1.00  0.00    -0.349 N 
ATOM     20  H   UNL A   1      36.496  22.658  22.923  1.00  0.00     0.163 HD
BRANCH  19  21
ATOM     21  C   UNL A   1      36.045  21.631  24.637  1.00  0.00     0.191 C 
BRANCH  21  22
ATOM     22  C   UNL A   1      37.227  22.177  25.349  1.00  0.00     0.122 A 
ATOM     23  C   UNL A   1      37.571  23.411  25.868  1.00  0.00     0.047 A 
ATOM     24  O   UNL A   1      38.245  21.291  25.566  1.00  0.00    -0.467 OA
ATOM     25  C   UNL A   1      38.869  23.271  26.418  1.00  0.00     0.042 A 
ATOM     26  C   UNL A   1      39.230  21.962  26.217  1.00  0.00     0.195 A 
ENDBRANCH  21  22
ENDBRANCH  19  21
ENDBRANCH  15  17
ENDBRANCH   5   8
ENDBRANCH   3   4
ENDBRANCH   2   3
ENDBRANCH   1   2
BRANCH   1  27
ATOM     27  C   UNL A   1      33.477  28.930  26.336  1.00  0.00     0.002 C 
BRANCH  27  28
ATOM     28  C   UNL A   1      34.860  28.795  26.978  1.00  0.00     0.021 C 
BRANCH  28  29
ATOM     29  C   UNL A   1      35.442  30.034  27.650  1.00  0.00     0.116 C 
BRANCH  29  30
ATOM     30  N   UNL A   1      35.420  29.972  29.098  1.00  0.00    -0.352 N 
ATOM     31  C   UNL A   1      36.428  29.712  29.995  1.00  0.00     0.251 C 
ATOM     32  H   UNL A   1      34.540  30.142  29.506  1.00  0.00     0.163 HD
ATOM     33  O   UNL A   1      36.152  29.629  31.191  1.00  0.00    -0.269 OA
BRANCH  31  34
ATOM     34  C   UNL A   1      37.829  29.499  29.553  1.00  0.00     0.039 A 
ATOM     35  C   UNL A   1      38.783  29.176  30.525  1.00  0.00     0.014 A 
ATOM     36  C   UNL A   1      38.230  29.652  28.222  1.00  0.00     0.014 A 
ATOM     37  C   UNL A   1      40.113  28.949  30.159  1.00  0.00     0.010 A 
ATOM     38  C   UNL A   1      39.547  29.369  27.848  1.00  0.00     0.010 A 
ATOM     39  C   UNL A   1      40.503  29.012  28.811  1.00  0.00    -0.014 A 
BRANCH  39  40
ATOM     40  C   UNL A   1      41.897  28.679  28.409  1.00  0.00     0.031 A 
ATOM     41  C   UNL A   1      42.262  27.288  27.962  1.00  0.00     0.074 A 
ATOM     42  C   UNL A   1      42.850  29.630  28.484  1.00  0.00     0.049 A 
ATOM     43  N   UNL A   1      43.427  26.825  27.586  1.00  0.00    -0.248 NA
ATOM     44  C   UNL A   1      41.187  26.282  27.953  1.00  0.00     0.031 C 
ATOM     45  C   UNL A   1      42.643  31.005  28.946  1.00  0.00     0.029 A 
ATOM     46  N   UNL A   1      44.188  29.584  28.176  1.00  0.00    -0.354 N 
ATOM     47  C   UNL A   1      43.233  25.476  27.311  1.00  0.00     0.074 A 
ATOM     48  C   UNL A   1      41.843  25.187  27.595  1.00  0.00     0.031 C 
ATOM     49  C   UNL A   1      43.804  31.675  28.870  1.00  0.00     0.029 A 
ATOM     50  C   UNL A   1      44.844  30.776  28.383  1.00  0.00     0.049 A 
ATOM     51  H   UNL A   1      44.636  28.774  27.840  1.00  0.00     0.167 HD
ATOM     52  C   UNL A   1      44.125  24.565  26.853  1.00  0.00     0.031 A 
ATOM     53  C   UNL A   1      46.137  31.110  28.203  1.00  0.00     0.031 A 
ATOM     54  C   UNL A   1      45.501  24.855  26.544  1.00  0.00     0.049 A 
ATOM     55  C   UNL A   1      47.098  30.082  27.671  1.00  0.00     0.074 A 
ATOM     56  C   UNL A   1      46.456  24.010  26.002  1.00  0.00     0.029 A 
ATOM     57  N   UNL A   1      46.119  26.077  26.747  1.00  0.00    -0.354 N 
ATOM     58  N   UNL A   1      46.871  28.833  27.345  1.00  0.00    -0.248 NA
ATOM     59  C   UNL A   1      48.488  30.517  27.472  1.00  0.00     0.031 C 
ATOM     60  C   UNL A   1      47.664  24.711  25.917  1.00  0.00     0.029 A 
ATOM     61  C   UNL A   1      47.449  26.004  26.364  1.00  0.00     0.049 A 
ATOM     62  H   UNL A   1      45.679  26.879  27.110  1.00  0.00     0.167 HD
ATOM     63  C   UNL A   1      48.086  28.339  26.883  1.00  0.00     0.074 A 
ATOM     64  C   UNL A   1      49.038  29.428  26.952  1.00  0.00     0.031 C 
ATOM     65  C   UNL A   1      48.386  27.093  26.441  1.00  0.00     0.031 A 
BRANCH  52  66
ATOM     66  C   UNL A   1      43.644  23.152  26.646  1.00  0.00    -0.014 A 
ATOM     67  C   UNL A   1      43.924  22.458  25.457  1.00  0.00     0.010 A 
ATOM     68  C   UNL A   1      42.976  22.485  27.689  1.00  0.00     0.010 A 
ATOM     69  C   UNL A   1      43.525  21.128  25.304  1.00  0.00     0.020 A 
ATOM     70  C   UNL A   1      42.595  21.147  27.548  1.00  0.00     0.020 A 
ATOM     71  C   UNL A   1      42.862  20.480  26.351  1.00  0.00     0.054 A 
BRANCH  71  72
ATOM     72  S   UNL A   1      42.402  18.738  26.147  1.00  0.00     0.124 S 
ATOM     73  O   UNL A   1      42.606  18.213  27.495  1.00  0.00    -0.237 OA
ATOM     74  O   UNL A   1      41.009  18.821  25.711  1.00  0.00    -0.237 OA
ATOM     75  O   UNL A   1      43.338  18.247  25.138  1.00  0.00    -0.744 OA
ENDBRANCH  71  72
ENDBRANCH  52  66
BRANCH  53  76
ATOM     76  C   UNL A   1      46.606  32.485  28.520  1.00  0.00    -0.014 A 
ATOM     77  C   UNL A   1      47.074  32.802  29.807  1.00  0.00     0.010 A 
ATOM     78  C   UNL A   1      46.566  33.492  27.538  1.00  0.00     0.010 A 
ATOM     79  C   UNL A   1      47.460  34.107  30.119  1.00  0.00     0.020 A 
ATOM     80  C   UNL A   1      46.975  34.793  27.839  1.00  0.00     0.020 A 
ATOM     81  C   UNL A   1      47.402  35.097  29.134  1.00  0.00     0.054 A 
BRANCH  81  82
ATOM     82  S   UNL A   1      47.927  36.784  29.547  1.00  0.00     0.124 S 
ATOM     83  O   UNL A   1      47.209  37.575  28.553  1.00  0.00    -0.237 OA
ATOM     84  O   UNL A   1      47.470  36.933  30.925  1.00  0.00    -0.237 OA
ATOM     85  O   UNL A   1      49.379  36.737  29.382  1.00  0.00    -0.744 OA
ENDBRANCH  81  82
ENDBRANCH  53  76
BRANCH  65  86
ATOM     86  C   UNL A   1      49.796  26.851  25.975  1.00  0.00    -0.014 A 
ATOM     87  C   UNL A   1      50.788  26.406  26.868  1.00  0.00     0.010 A 
ATOM     88  C   UNL A   1      50.127  27.047  24.623  1.00  0.00     0.010 A 
ATOM     89  C   UNL A   1      52.097  26.202  26.424  1.00  0.00     0.020 A 
ATOM     90  C   UNL A   1      51.430  26.820  24.170  1.00  0.00     0.020 A 
ATOM     91  C   UNL A   1      52.410  26.417  25.079  1.00  0.00     0.054 A 
BRANCH  91  92
ATOM     92  S   UNL A   1      54.111  26.125  24.517  1.00  0.00     0.124 S 
ATOM     93  O   UNL A   1      54.020  26.446  23.096  1.00  0.00    -0.237 OA
ATOM     94  O   UNL A   1      54.885  27.064  25.326  1.00  0.00    -0.237 OA
ATOM     95  O   UNL A   1      54.338  24.715  24.827  1.00  0.00    -0.744 OA
ENDBRANCH  91  92
ENDBRANCH  65  86
ENDBRANCH  39  40
ENDBRANCH  31  34
ENDBRANCH  29  30
ENDBRANCH  28  29
ENDBRANCH  27  28
ENDBRANCH   1  27
TORSDOF 19
ENDMDL
MODEL 3
REMARK VINA RESULT:     -11.1      6.114     10.586
REMARK SMILES CC1(C)[C@@]2(CC[C@@H]2C(=O)NCc2ccco2)[C@]1(C)C(=O)NCCCCCCNC(=O)c1ccc(-c2c3nc(c(-c4ccc(S(=O)(=O)[O-])cc4)c4ccc([nH]4)c(-c4ccc(S(=O)(=O)[O-])cc4)c4nc(c(-c5ccc(S(=O)(=O)[O-])cc5)c5ccc2[nH]5)C=C4)C=C3)cc1
REMARK SMILES IDX 24 1 23 2 22 3 21 4 19 5 20 6 17 8 1 9 2 10 3 11 4 12 18 13
REMARK SMILES IDX 5 14 7 15 6 16 8 17 9 18 10 19 11 21 12 22 13 23 16 24 14 25
REMARK SMILES IDX 15 26 25 27 26 28 27 29 28 30 29 31 30 33 31 34 32 35 90 36
REMARK SMILES IDX 33 37 89 38 34 39 35 40 36 41 83 42 37 43 88 44 82 45 84 46
REMARK SMILES IDX 38 47 87 48 81 49 80 50 39 52 69 53 50 54 68 55 51 56 54 57
REMARK SMILES IDX 67 58 85 59 52 60 53 61 66 63 86 64 55 65 40 66 41 67 49 68
REMARK SMILES IDX 42 69 48 70 43 71 44 72 45 73 46 74 47 75 70 76 71 77 79 78
REMARK SMILES IDX 72 79 78 80 73 81 74 82 75 83 76 84 77 85 56 86 57 87 65 88
REMARK SMILES IDX 58 89 64 90 59 91 60 92 61 93 62 94 63 95
REMARK H PARENT 21 7 10 20 28 32 84 51 54 62
REMARK Flexibility Score: inf
ROOT
ATOM      1  C   UNL A   1      38.678  23.653  26.500  1.00  0.00     0.002 C 
ENDROOT
BRANCH   1   2
ATOM      2  C   UNL A   1      37.317  23.106  26.061  1.00  0.00     0.021 C 
BRANCH   2   3
ATOM      3  C   UNL A   1      36.269  24.119  25.620  1.00  0.00     0.116 C 
BRANCH   3   4
ATOM      4  N   UNL A   1      35.762  23.946  24.283  1.00  0.00    -0.356 N 
ATOM      5  C   UNL A   1      34.769  23.104  23.845  1.00  0.00     0.227 C 
ATOM      6  O   UNL A   1      34.396  23.181  22.678  1.00  0.00    -0.274 OA
ATOM      7  H   UNL A   1      36.182  24.506  23.590  1.00  0.00     0.163 HD
BRANCH   5   8
ATOM      8  C   UNL A   1      34.264  21.977  24.719  1.00  0.00     0.059 C 
ATOM      9  C   UNL A   1      31.840  22.702  24.011  1.00  0.00     0.013 C 
ATOM     10  C   UNL A   1      32.729  21.727  24.764  1.00  0.00    -0.013 C 
ATOM     11  C   UNL A   1      32.158  20.329  24.736  1.00  0.00     0.013 C 
ATOM     12  C   UNL A   1      33.442  22.179  26.012  1.00  0.00     0.003 C 
ATOM     13  C   UNL A   1      35.147  20.739  24.589  1.00  0.00     0.023 C 
ATOM     14  C   UNL A   1      33.829  21.422  27.242  1.00  0.00     0.010 C 
ATOM     15  C   UNL A   1      33.096  23.413  26.797  1.00  0.00     0.086 C 
ATOM     16  C   UNL A   1      33.802  22.755  27.986  1.00  0.00     0.015 C 
BRANCH  15  17
ATOM     17  C   UNL A   1      31.650  23.932  26.894  1.00  0.00     0.224 C 
ATOM     18  O   UNL A   1      30.749  23.210  27.359  1.00  0.00    -0.275 OA
ATOM     19  N   UNL A   1      31.217  25.155  26.454  1.00  0.00    -0.349 N 
ATOM     20  H   UNL A   1      30.241  25.272  26.504  1.00  0.00     0.163 HD
BRANCH  19  21
ATOM     21  C   UNL A   1      31.914  26.305  25.933  1.00  0.00     0.191 C 
BRANCH  21  22
ATOM     22  C   UNL A   1      31.136  26.970  24.859  1.00  0.00     0.122 A 
ATOM     23  C   UNL A   1      30.329  26.535  23.825  1.00  0.00     0.047 A 
ATOM     24  O   UNL A   1      31.200  28.335  24.844  1.00  0.00    -0.467 OA
ATOM     25  C   UNL A   1      29.889  27.694  23.139  1.00  0.00     0.042 A 
ATOM     26  C   UNL A   1      30.439  28.762  23.803  1.00  0.00     0.195 A 
ENDBRANCH  21  22
ENDBRANCH  19  21
ENDBRANCH  15  17
ENDBRANCH   5   8
ENDBRANCH   3   4
ENDBRANCH   2   3
ENDBRANCH   1   2
BRANCH   1  27
ATOM     27  C   UNL A   1      39.831  22.662  26.673  1.00  0.00     0.002 C 
BRANCH  27  28
ATOM     28  C   UNL A   1      39.681  21.270  26.054  1.00  0.00     0.021 C 
BRANCH  28  29
ATOM     29  C   UNL A   1      40.283  20.097  26.821  1.00  0.00     0.116 C 
BRANCH  29  30
ATOM     30  N   UNL A   1      41.289  19.369  26.070  1.00  0.00    -0.352 N 
ATOM     31  C   UNL A   1      42.532  19.758  25.636  1.00  0.00     0.251 C 
ATOM     32  H   UNL A   1      41.039  18.447  25.832  1.00  0.00     0.163 HD
ATOM     33  O   UNL A   1      43.184  18.987  24.934  1.00  0.00    -0.269 OA
BRANCH  31  34
ATOM     34  C   UNL A   1      43.091  21.094  25.965  1.00  0.00     0.039 A 
ATOM     35  C   UNL A   1      43.341  21.980  24.912  1.00  0.00     0.014 A 
ATOM     36  C   UNL A   1      43.413  21.473  27.273  1.00  0.00     0.014 A 
ATOM     37  C   UNL A   1      43.851  23.256  25.170  1.00  0.00     0.010 A 
ATOM     38  C   UNL A   1      43.868  22.769  27.536  1.00  0.00     0.010 A 
ATOM     39  C   UNL A   1      44.090  23.676  26.488  1.00  0.00    -0.014 A 
BRANCH  39  40
ATOM     40  C   UNL A   1      44.544  25.065  26.772  1.00  0.00     0.031 A 
ATOM     41  C   UNL A   1      43.583  26.103  27.287  1.00  0.00     0.074 A 
ATOM     42  C   UNL A   1      45.826  25.403  26.525  1.00  0.00     0.049 A 
ATOM     43  N   UNL A   1      43.808  27.359  27.578  1.00  0.00    -0.248 NA
ATOM     44  C   UNL A   1      42.186  25.684  27.485  1.00  0.00     0.031 C 
ATOM     45  C   UNL A   1      46.850  24.509  25.979  1.00  0.00     0.029 A 
ATOM     46  N   UNL A   1      46.488  26.595  26.697  1.00  0.00    -0.354 N 
ATOM     47  C   UNL A   1      42.585  27.886  27.977  1.00  0.00     0.074 A 
ATOM     48  C   UNL A   1      41.612  26.819  27.860  1.00  0.00     0.031 C 
ATOM     49  C   UNL A   1      48.012  25.175  25.883  1.00  0.00     0.029 A 
ATOM     50  C   UNL A   1      47.813  26.549  26.331  1.00  0.00     0.049 A 
ATOM     51  H   UNL A   1      46.054  27.405  27.049  1.00  0.00     0.167 HD
ATOM     52  C   UNL A   1      42.298  29.136  28.413  1.00  0.00     0.031 A 
ATOM     53  C   UNL A   1      48.763  27.504  26.352  1.00  0.00     0.031 A 
ATOM     54  C   UNL A   1      43.267  30.191  28.556  1.00  0.00     0.049 A 
ATOM     55  C   UNL A   1      48.421  28.877  26.862  1.00  0.00     0.074 A 
ATOM     56  C   UNL A   1      43.080  31.466  29.062  1.00  0.00     0.029 A 
ATOM     57  N   UNL A   1      44.601  30.098  28.194  1.00  0.00    -0.354 N 
ATOM     58  N   UNL A   1      47.273  29.327  27.307  1.00  0.00    -0.248 NA
ATOM     59  C   UNL A   1      49.508  29.866  26.883  1.00  0.00     0.031 C 
ATOM     60  C   UNL A   1      44.293  32.159  28.968  1.00  0.00     0.029 A 
ATOM     61  C   UNL A   1      45.244  31.299  28.445  1.00  0.00     0.049 A 
ATOM     62  H   UNL A   1      45.030  29.296  27.816  1.00  0.00     0.167 HD
ATOM     63  C   UNL A   1      47.506  30.646  27.681  1.00  0.00     0.074 A 
ATOM     64  C   UNL A   1      48.907  30.913  27.429  1.00  0.00     0.031 C 
ATOM     65  C   UNL A   1      46.637  31.554  28.187  1.00  0.00     0.031 A 
BRANCH  52  66
ATOM     66  C   UNL A   1      40.870  29.444  28.778  1.00  0.00    -0.014 A 
ATOM     67  C   UNL A   1      39.883  29.581  27.787  1.00  0.00     0.010 A 
ATOM     68  C   UNL A   1      40.497  29.515  30.133  1.00  0.00     0.010 A 
ATOM     69  C   UNL A   1      38.550  29.805  28.143  1.00  0.00     0.020 A 
ATOM     70  C   UNL A   1      39.162  29.718  30.493  1.00  0.00     0.020 A 
ATOM     71  C   UNL A   1      38.198  29.873  29.494  1.00  0.00     0.054 A 
BRANCH  71  72
ATOM     72  S   UNL A   1      36.453  30.114  29.930  1.00  0.00     0.124 S 
ATOM     73  O   UNL A   1      36.343  29.340  31.164  1.00  0.00    -0.237 OA
ATOM     74  O   UNL A   1      36.357  31.563  30.088  1.00  0.00    -0.237 OA
ATOM     75  O   UNL A   1      35.730  29.566  28.785  1.00  0.00    -0.744 OA
ENDBRANCH  71  72
ENDBRANCH  52  66
BRANCH  53  76
ATOM     76  C   UNL A   1      50.141  27.199  25.881  1.00  0.00    -0.014 A 
ATOM     77  C   UNL A   1      51.129  26.775  26.786  1.00  0.00     0.010 A 
ATOM     78  C   UNL A   1      50.476  27.355  24.523  1.00  0.00     0.010 A 
ATOM     79  C   UNL A   1      52.436  26.545  26.351  1.00  0.00     0.020 A 
ATOM     80  C   UNL A   1      51.776  27.102  24.080  1.00  0.00     0.020 A 
ATOM     81  C   UNL A   1      52.753  26.716  25.000  1.00  0.00     0.054 A 
BRANCH  81  82
ATOM     82  S   UNL A   1      54.450  26.393  24.446  1.00  0.00     0.124 S 
ATOM     83  O   UNL A   1      55.210  27.376  25.211  1.00  0.00    -0.237 OA
ATOM     84  O   UNL A   1      54.652  24.998  24.828  1.00  0.00    -0.237 OA
ATOM     85  O   UNL A   1      54.387  26.632  23.005  1.00  0.00    -0.744 OA
ENDBRANCH  81  82
ENDBRANCH  53  76
BRANCH  65  86
ATOM     86  C   UNL A   1      47.184  32.915  28.524  1.00  0.00    -0.014 A 
ATOM     87  C   UNL A   1      47.727  33.183  29.793  1.00  0.00     0.010 A 
ATOM     88  C   UNL A   1      47.175  33.930  27.551  1.00  0.00     0.010 A 
ATOM     89  C   UNL A   1      48.215  34.457  30.097  1.00  0.00     0.020 A 
ATOM     90  C   UNL A   1      47.686  35.198  27.843  1.00  0.00     0.020 A 
ATOM     91  C   UNL A   1      48.185  35.457  29.121  1.00  0.00     0.054 A 
BRANCH  91  92
ATOM     92  S   UNL A   1      48.845  37.099  29.528  1.00  0.00     0.124 S 
ATOM     93  O   UNL A   1      49.193  36.945  30.937  1.00  0.00    -0.237 OA
ATOM     94  O   UNL A   1      49.975  37.230  28.611  1.00  0.00    -0.237 OA
ATOM     95  O   UNL A   1      47.724  37.997  29.255  1.00  0.00    -0.744 OA
ENDBRANCH  91  92
ENDBRANCH  65  86
ENDBRANCH  39  40
ENDBRANCH  31  34
ENDBRANCH  29  30
ENDBRANCH  28  29
ENDBRANCH  27  28
ENDBRANCH   1  27
TORSDOF 19
ENDMDL
