MODEL 1
REMARK VINA RESULT:     -10.1      0.000      0.000
REMARK SMILES O=C(NCCCCCCNC(=O)[C@H]1CC[C@@H](CNC(=O)c2ccc(CO)cc2)O1)c1ccc(-c2c3nc(c(-c4ccc(S(=O)(=O)[O-])cc4)c4ccc([nH]4)c(-c4ccc(S(=O)(=O)[O-])cc4)c4nc(c(-c5ccc(S(=O)(=O)[O-])cc5)c5ccc2[nH]5)C=C4)C=C3)cc1
REMARK SMILES IDX 7 1 6 2 5 3 4 4 3 5 1 6 2 7 30 9 31 10 89 11 32 12 88 13
REMARK SMILES IDX 33 14 34 15 35 16 82 17 36 18 87 19 81 20 83 21 37 22 86 23
REMARK SMILES IDX 80 24 79 25 38 27 68 28 49 29 67 30 50 31 53 32 66 33 84 34
REMARK SMILES IDX 51 35 52 36 65 38 85 39 54 40 39 41 40 42 48 43 41 44 47 45
REMARK SMILES IDX 42 46 43 47 44 48 45 49 46 50 69 51 70 52 78 53 71 54 77 55
REMARK SMILES IDX 72 56 73 57 74 58 75 59 76 60 55 61 56 62 64 63 57 64 63 65
REMARK SMILES IDX 58 66 59 67 60 68 61 69 62 70 8 71 9 72 10 73 11 74 12 76
REMARK SMILES IDX 13 77 14 78 29 79 15 80 16 81 17 82 18 83 19 84 20 86 21 87
REMARK SMILES IDX 22 88 28 89 23 90 27 91 24 92 25 93 26 94
REMARK H PARENT 3 8 83 26 53 37 10 75 18 85 26 95
REMARK Flexibility Score: inf
ROOT
ATOM      1  C   UNL A   1      38.359  23.619  26.761  1.00  0.00     0.002 C 
ENDROOT
BRANCH   1   2
ATOM      2  C   UNL A   1      39.669  22.826  26.836  1.00  0.00     0.002 C 
BRANCH   2   3
ATOM      3  C   UNL A   1      39.655  21.468  26.137  1.00  0.00     0.021 C 
BRANCH   3   4
ATOM      4  C   UNL A   1      40.355  20.349  26.894  1.00  0.00     0.116 C 
BRANCH   4   5
ATOM      5  N   UNL A   1      41.376  19.687  26.102  1.00  0.00    -0.352 N 
ATOM      6  O   UNL A   1      43.244  19.548  24.841  1.00  0.00    -0.269 OA
ATOM      7  C   UNL A   1      42.561  20.198  25.626  1.00  0.00     0.251 C 
ATOM      8  H   UNL A   1      41.196  18.746  25.874  1.00  0.00     0.163 HD
BRANCH   7   9
ATOM      9  C   UNL A   1      42.995  21.550  26.048  1.00  0.00     0.039 A 
ATOM     10  C   UNL A   1      43.000  22.607  25.137  1.00  0.00     0.014 A 
ATOM     11  C   UNL A   1      43.410  21.759  27.367  1.00  0.00     0.014 A 
ATOM     12  C   UNL A   1      43.554  23.829  25.501  1.00  0.00     0.010 A 
ATOM     13  C   UNL A   1      43.886  23.017  27.756  1.00  0.00     0.010 A 
ATOM     14  C   UNL A   1      43.990  24.055  26.819  1.00  0.00    -0.014 A 
BRANCH  14  15
ATOM     15  C   UNL A   1      44.477  25.410  27.186  1.00  0.00     0.031 A 
ATOM     16  C   UNL A   1      45.866  25.871  26.840  1.00  0.00     0.074 A 
ATOM     17  C   UNL A   1      43.613  26.256  27.783  1.00  0.00     0.049 A 
ATOM     18  N   UNL A   1      46.402  27.054  27.010  1.00  0.00    -0.248 NA
ATOM     19  C   UNL A   1      46.774  24.885  26.232  1.00  0.00     0.031 C 
ATOM     20  C   UNL A   1      42.246  25.914  28.188  1.00  0.00     0.029 A 
ATOM     21  N   UNL A   1      43.736  27.579  28.119  1.00  0.00    -0.354 N 
ATOM     22  C   UNL A   1      47.707  26.956  26.541  1.00  0.00     0.074 A 
ATOM     23  C   UNL A   1      47.892  25.587  26.104  1.00  0.00     0.031 C 
ATOM     24  C   UNL A   1      41.638  27.013  28.657  1.00  0.00     0.029 A 
ATOM     25  C   UNL A   1      42.585  28.120  28.641  1.00  0.00     0.049 A 
ATOM     26  H   UNL A   1      44.567  28.091  27.998  1.00  0.00     0.167 HD
ATOM     27  C   UNL A   1      48.659  27.918  26.474  1.00  0.00     0.031 A 
ATOM     28  C   UNL A   1      42.316  29.369  29.064  1.00  0.00     0.031 A 
ATOM     29  C   UNL A   1      48.473  29.276  26.918  1.00  0.00     0.049 A 
ATOM     30  C   UNL A   1      43.387  30.415  28.973  1.00  0.00     0.074 A 
ATOM     31  C   UNL A   1      49.379  30.324  26.892  1.00  0.00     0.029 A 
ATOM     32  N   UNL A   1      47.302  29.779  27.464  1.00  0.00    -0.354 N 
ATOM     33  N   UNL A   1      44.609  30.301  28.509  1.00  0.00    -0.248 NA
ATOM     34  C   UNL A   1      43.042  31.757  29.455  1.00  0.00     0.031 C 
ATOM     35  C   UNL A   1      48.767  31.450  27.454  1.00  0.00     0.029 A 
ATOM     36  C   UNL A   1      47.464  31.117  27.787  1.00  0.00     0.049 A 
ATOM     37  H   UNL A   1      46.476  29.262  27.601  1.00  0.00     0.167 HD
ATOM     38  C   UNL A   1      45.181  31.559  28.648  1.00  0.00     0.074 A 
ATOM     39  C   UNL A   1      44.159  32.425  29.201  1.00  0.00     0.031 C 
ATOM     40  C   UNL A   1      46.442  31.959  28.353  1.00  0.00     0.031 A 
BRANCH  27  41
ATOM     41  C   UNL A   1      50.001  27.535  25.908  1.00  0.00    -0.014 A 
ATOM     42  C   UNL A   1      50.993  26.965  26.726  1.00  0.00     0.010 A 
ATOM     43  C   UNL A   1      50.254  27.687  24.532  1.00  0.00     0.010 A 
ATOM     44  C   UNL A   1      52.224  26.581  26.184  1.00  0.00     0.020 A 
ATOM     45  C   UNL A   1      51.475  27.285  23.983  1.00  0.00     0.020 A 
ATOM     46  C   UNL A   1      52.459  26.747  24.816  1.00  0.00     0.054 A 
BRANCH  46  47
ATOM     47  S   UNL A   1      54.053  26.213  24.134  1.00  0.00     0.124 S 
ATOM     48  O   UNL A   1      54.952  27.259  24.620  1.00  0.00    -0.237 OA
ATOM     49  O   UNL A   1      54.238  24.897  24.743  1.00  0.00    -0.237 OA
ATOM     50  O   UNL A   1      53.829  26.203  22.692  1.00  0.00    -0.744 OA
ENDBRANCH  46  47
ENDBRANCH  27  41
BRANCH  28  51
ATOM     51  C   UNL A   1      40.977  29.681  29.629  1.00  0.00    -0.014 A 
ATOM     52  C   UNL A   1      40.771  29.724  31.019  1.00  0.00     0.010 A 
ATOM     53  C   UNL A   1      39.903  29.968  28.766  1.00  0.00     0.010 A 
ATOM     54  C   UNL A   1      39.509  30.031  31.535  1.00  0.00     0.020 A 
ATOM     55  C   UNL A   1      38.648  30.303  29.279  1.00  0.00     0.020 A 
ATOM     56  C   UNL A   1      38.456  30.320  30.661  1.00  0.00     0.054 A 
BRANCH  56  57
ATOM     57  S   UNL A   1      36.839  30.774  31.348  1.00  0.00     0.124 S 
ATOM     58  O   UNL A   1      37.214  31.664  32.441  1.00  0.00    -0.237 OA
ATOM     59  O   UNL A   1      36.176  31.409  30.212  1.00  0.00    -0.237 OA
ATOM     60  O   UNL A   1      36.271  29.489  31.750  1.00  0.00    -0.744 OA
ENDBRANCH  56  57
ENDBRANCH  28  51
BRANCH  40  61
ATOM     61  C   UNL A   1      46.774  33.400  28.623  1.00  0.00    -0.014 A 
ATOM     62  C   UNL A   1      47.330  33.795  29.854  1.00  0.00     0.010 A 
ATOM     63  C   UNL A   1      46.535  34.370  27.633  1.00  0.00     0.010 A 
ATOM     64  C   UNL A   1      47.594  35.143  30.108  1.00  0.00     0.020 A 
ATOM     65  C   UNL A   1      46.821  35.715  27.875  1.00  0.00     0.020 A 
ATOM     66  C   UNL A   1      47.331  36.096  29.118  1.00  0.00     0.054 A 
BRANCH  66  67
ATOM     67  S   UNL A   1      47.690  37.839  29.465  1.00  0.00     0.124 S 
ATOM     68  O   UNL A   1      46.756  38.131  30.549  1.00  0.00    -0.237 OA
ATOM     69  O   UNL A   1      49.101  37.811  29.842  1.00  0.00    -0.237 OA
ATOM     70  O   UNL A   1      47.402  38.508  28.197  1.00  0.00    -0.744 OA
ENDBRANCH  66  67
ENDBRANCH  40  61
ENDBRANCH  14  15
ENDBRANCH   7   9
ENDBRANCH   4   5
ENDBRANCH   3   4
ENDBRANCH   2   3
ENDBRANCH   1   2
BRANCH   1  71
ATOM     71  C   UNL A   1      37.719  23.718  25.370  1.00  0.00     0.021 C 
BRANCH  71  72
ATOM     72  C   UNL A   1      36.198  23.873  25.381  1.00  0.00     0.116 C 
BRANCH  72  73
ATOM     73  N   UNL A   1      35.594  23.021  26.384  1.00  0.00    -0.354 N 
ATOM     74  C   UNL A   1      34.783  21.935  26.215  1.00  0.00     0.249 C 
ATOM     75  H   UNL A   1      35.794  23.258  27.319  1.00  0.00     0.163 HD
ATOM     76  O   UNL A   1      34.284  21.421  27.218  1.00  0.00    -0.272 OA
BRANCH  74  77
ATOM     77  C   UNL A   1      34.568  21.377  24.793  1.00  0.00     0.207 C 
ATOM     78  C   UNL A   1      33.750  20.096  24.851  1.00  0.00     0.045 C 
ATOM     79  O   UNL A   1      33.821  22.283  23.971  1.00  0.00    -0.363 OA
ATOM     80  C   UNL A   1      32.338  20.636  24.823  1.00  0.00     0.037 C 
ATOM     81  C   UNL A   1      32.468  21.798  23.848  1.00  0.00     0.138 C 
BRANCH  81  82
ATOM     82  C   UNL A   1      31.480  22.972  23.995  1.00  0.00     0.148 C 
BRANCH  82  83
ATOM     83  N   UNL A   1      30.729  22.982  25.241  1.00  0.00    -0.349 N 
ATOM     84  C   UNL A   1      30.796  23.868  26.286  1.00  0.00     0.251 C 
ATOM     85  H   UNL A   1      30.080  22.249  25.350  1.00  0.00     0.163 HD
ATOM     86  O   UNL A   1      30.268  23.583  27.359  1.00  0.00    -0.269 OA
BRANCH  84  87
ATOM     87  C   UNL A   1      31.456  25.181  26.129  1.00  0.00     0.039 A 
ATOM     88  C   UNL A   1      30.680  26.289  25.779  1.00  0.00     0.014 A 
ATOM     89  C   UNL A   1      32.848  25.297  26.202  1.00  0.00     0.014 A 
ATOM     90  C   UNL A   1      31.293  27.521  25.536  1.00  0.00     0.007 A 
ATOM     91  C   UNL A   1      33.459  26.530  25.961  1.00  0.00     0.007 A 
ATOM     92  C   UNL A   1      32.686  27.653  25.633  1.00  0.00    -0.023 A 
BRANCH  92  93
ATOM     93  C   UNL A   1      33.343  28.972  25.325  1.00  0.00     0.191 C 
BRANCH  93  94
ATOM     94  O   UNL A   1      32.505  29.768  24.495  1.00  0.00    -0.392 OA
ATOM     95  H   UNL A   1      31.990  29.192  23.908  1.00  0.00     0.211 HD
ENDBRANCH  93  94
ENDBRANCH  92  93
ENDBRANCH  84  87
ENDBRANCH  82  83
ENDBRANCH  81  82
ENDBRANCH  74  77
ENDBRANCH  72  73
ENDBRANCH  71  72
ENDBRANCH   1  71
TORSDOF 21
ENDMDL
MODEL 2
REMARK VINA RESULT:     -10.0      1.578      2.307
REMARK SMILES O=C(NCCCCCCNC(=O)[C@H]1CC[C@@H](CNC(=O)c2ccc(CO)cc2)O1)c1ccc(-c2c3nc(c(-c4ccc(S(=O)(=O)[O-])cc4)c4ccc([nH]4)c(-c4ccc(S(=O)(=O)[O-])cc4)c4nc(c(-c5ccc(S(=O)(=O)[O-])cc5)c5ccc2[nH]5)C=C4)C=C3)cc1
REMARK SMILES IDX 7 1 6 2 5 3 4 4 3 5 1 6 2 7 30 9 31 10 89 11 32 12 88 13
REMARK SMILES IDX 33 14 34 15 35 16 82 17 36 18 87 19 81 20 83 21 37 22 86 23
REMARK SMILES IDX 80 24 79 25 38 27 68 28 49 29 67 30 50 31 53 32 66 33 84 34
REMARK SMILES IDX 51 35 52 36 65 38 85 39 54 40 39 41 40 42 48 43 41 44 47 45
REMARK SMILES IDX 42 46 43 47 44 48 45 49 46 50 69 51 70 52 78 53 71 54 77 55
REMARK SMILES IDX 72 56 73 57 74 58 75 59 76 60 55 61 56 62 64 63 57 64 63 65
REMARK SMILES IDX 58 66 59 67 60 68 61 69 62 70 8 71 9 72 10 73 11 74 12 76
REMARK SMILES IDX 13 77 14 78 29 79 15 80 16 81 17 82 18 83 19 84 20 86 21 87
REMARK SMILES IDX 22 88 28 89 23 90 27 91 24 92 25 93 26 94
REMARK H PARENT 3 8 83 26 53 37 10 75 18 85 26 95
REMARK Flexibility Score: inf
ROOT
ATOM      1  C   UNL A   1      35.674  20.235  24.694  1.00  0.00     0.002 C 
ENDROOT
BRANCH   1   2
ATOM      2  C   UNL A   1      37.048  20.857  24.970  1.00  0.00     0.002 C 
BRANCH   2   3
ATOM      3  C   UNL A   1      38.202  19.865  25.112  1.00  0.00     0.021 C 
BRANCH   3   4
ATOM      4  C   UNL A   1      39.386  20.371  25.921  1.00  0.00     0.116 C 
BRANCH   4   5
ATOM      5  N   UNL A   1      40.462  19.398  26.012  1.00  0.00    -0.352 N 
ATOM      6  O   UNL A   1      42.604  18.694  26.125  1.00  0.00    -0.269 OA
ATOM      7  C   UNL A   1      41.803  19.618  26.227  1.00  0.00     0.251 C 
ATOM      8  H   UNL A   1      40.195  18.456  25.906  1.00  0.00     0.163 HD
BRANCH   7   9
ATOM      9  C   UNL A   1      42.276  20.982  26.556  1.00  0.00     0.039 A 
ATOM     10  C   UNL A   1      42.543  21.902  25.541  1.00  0.00     0.014 A 
ATOM     11  C   UNL A   1      42.464  21.341  27.895  1.00  0.00     0.014 A 
ATOM     12  C   UNL A   1      43.133  23.121  25.853  1.00  0.00     0.010 A 
ATOM     13  C   UNL A   1      42.976  22.605  28.211  1.00  0.00     0.010 A 
ATOM     14  C   UNL A   1      43.343  23.495  27.192  1.00  0.00    -0.014 A 
BRANCH  14  15
ATOM     15  C   UNL A   1      43.879  24.851  27.477  1.00  0.00     0.031 A 
ATOM     16  C   UNL A   1      45.308  25.214  27.182  1.00  0.00     0.074 A 
ATOM     17  C   UNL A   1      43.028  25.785  27.948  1.00  0.00     0.049 A 
ATOM     18  N   UNL A   1      45.895  26.380  27.289  1.00  0.00    -0.248 NA
ATOM     19  C   UNL A   1      46.196  24.139  26.715  1.00  0.00     0.031 C 
ATOM     20  C   UNL A   1      41.623  25.545  28.294  1.00  0.00     0.029 A 
ATOM     21  N   UNL A   1      43.201  27.124  28.183  1.00  0.00    -0.354 N 
ATOM     22  C   UNL A   1      47.218  26.180  26.912  1.00  0.00     0.074 A 
ATOM     23  C   UNL A   1      47.356  24.773  26.600  1.00  0.00     0.031 C 
ATOM     24  C   UNL A   1      41.048  26.707  28.633  1.00  0.00     0.029 A 
ATOM     25  C   UNL A   1      42.052  27.762  28.586  1.00  0.00     0.049 A 
ATOM     26  H   UNL A   1      44.064  27.584  28.073  1.00  0.00     0.167 HD
ATOM     27  C   UNL A   1      48.222  27.087  26.827  1.00  0.00     0.031 A 
ATOM     28  C   UNL A   1      41.825  29.054  28.889  1.00  0.00     0.031 A 
ATOM     29  C   UNL A   1      48.083  28.485  27.146  1.00  0.00     0.049 A 
ATOM     30  C   UNL A   1      42.953  30.036  28.780  1.00  0.00     0.074 A 
ATOM     31  C   UNL A   1      49.043  29.482  27.092  1.00  0.00     0.029 A 
ATOM     32  N   UNL A   1      46.910  29.088  27.576  1.00  0.00    -0.354 N 
ATOM     33  N   UNL A   1      44.193  29.825  28.405  1.00  0.00    -0.248 NA
ATOM     34  C   UNL A   1      42.653  31.429  29.129  1.00  0.00     0.031 C 
ATOM     35  C   UNL A   1      48.460  30.679  27.521  1.00  0.00     0.029 A 
ATOM     36  C   UNL A   1      47.124  30.439  27.798  1.00  0.00     0.049 A 
ATOM     37  H   UNL A   1      46.051  28.624  27.702  1.00  0.00     0.167 HD
ATOM     38  C   UNL A   1      44.821  31.061  28.476  1.00  0.00     0.074 A 
ATOM     39  C   UNL A   1      43.816  32.018  28.892  1.00  0.00     0.031 C 
ATOM     40  C   UNL A   1      46.117  31.374  28.229  1.00  0.00     0.031 A 
BRANCH  27  41
ATOM     41  C   UNL A   1      49.573  26.593  26.379  1.00  0.00    -0.014 A 
ATOM     42  C   UNL A   1      50.397  25.857  27.248  1.00  0.00     0.010 A 
ATOM     43  C   UNL A   1      49.999  26.812  25.055  1.00  0.00     0.010 A 
ATOM     44  C   UNL A   1      51.635  25.374  26.812  1.00  0.00     0.020 A 
ATOM     45  C   UNL A   1      51.226  26.313  24.609  1.00  0.00     0.020 A 
ATOM     46  C   UNL A   1      52.044  25.608  25.496  1.00  0.00     0.054 A 
BRANCH  46  47
ATOM     47  S   UNL A   1      53.641  24.944  24.948  1.00  0.00     0.124 S 
ATOM     48  O   UNL A   1      53.481  23.517  25.222  1.00  0.00    -0.237 OA
ATOM     49  O   UNL A   1      53.673  25.310  23.534  1.00  0.00    -0.237 OA
ATOM     50  O   UNL A   1      54.612  25.636  25.790  1.00  0.00    -0.744 OA
ENDBRANCH  46  47
ENDBRANCH  27  41
BRANCH  28  51
ATOM     51  C   UNL A   1      40.474  29.476  29.341  1.00  0.00    -0.014 A 
ATOM     52  C   UNL A   1      40.209  29.714  30.701  1.00  0.00     0.010 A 
ATOM     53  C   UNL A   1      39.448  29.671  28.398  1.00  0.00     0.010 A 
ATOM     54  C   UNL A   1      38.936  30.124  31.111  1.00  0.00     0.020 A 
ATOM     55  C   UNL A   1      38.185  30.108  28.800  1.00  0.00     0.020 A 
ATOM     56  C   UNL A   1      37.933  30.319  30.157  1.00  0.00     0.054 A 
BRANCH  56  57
ATOM     57  S   UNL A   1      36.303  30.905  30.697  1.00  0.00     0.124 S 
ATOM     58  O   UNL A   1      35.512  30.761  29.480  1.00  0.00    -0.237 OA
ATOM     59  O   UNL A   1      35.975  29.983  31.781  1.00  0.00    -0.237 OA
ATOM     60  O   UNL A   1      36.563  32.280  31.119  1.00  0.00    -0.744 OA
ENDBRANCH  56  57
ENDBRANCH  28  51
BRANCH  40  61
ATOM     61  C   UNL A   1      46.509  32.814  28.401  1.00  0.00    -0.014 A 
ATOM     62  C   UNL A   1      46.952  33.299  29.646  1.00  0.00     0.010 A 
ATOM     63  C   UNL A   1      46.440  33.693  27.306  1.00  0.00     0.010 A 
ATOM     64  C   UNL A   1      47.273  34.650  29.803  1.00  0.00     0.020 A 
ATOM     65  C   UNL A   1      46.783  35.039  27.453  1.00  0.00     0.020 A 
ATOM     66  C   UNL A   1      47.179  35.513  28.706  1.00  0.00     0.054 A 
BRANCH  66  67
ATOM     67  S   UNL A   1      47.608  37.260  28.930  1.00  0.00     0.124 S 
ATOM     68  O   UNL A   1      46.361  37.927  28.567  1.00  0.00    -0.237 OA
ATOM     69  O   UNL A   1      47.968  37.328  30.343  1.00  0.00    -0.237 OA
ATOM     70  O   UNL A   1      48.717  37.463  27.999  1.00  0.00    -0.744 OA
ENDBRANCH  66  67
ENDBRANCH  40  61
ENDBRANCH  14  15
ENDBRANCH   7   9
ENDBRANCH   4   5
ENDBRANCH   3   4
ENDBRANCH   2   3
ENDBRANCH   1   2
BRANCH   1  71
ATOM     71  C   UNL A   1      34.597  20.501  25.754  1.00  0.00     0.021 C 
BRANCH  71  72
ATOM     72  C   UNL A   1      33.214  19.951  25.404  1.00  0.00     0.116 C 
BRANCH  72  73
ATOM     73  N   UNL A   1      32.189  20.957  25.594  1.00  0.00    -0.354 N 
ATOM     74  C   UNL A   1      32.047  22.166  24.975  1.00  0.00     0.249 C 
ATOM     75  H   UNL A   1      31.499  20.740  26.262  1.00  0.00     0.163 HD
ATOM     76  O   UNL A   1      31.158  22.921  25.374  1.00  0.00    -0.272 OA
BRANCH  74  77
ATOM     77  C   UNL A   1      32.966  22.510  23.785  1.00  0.00     0.207 C 
ATOM     78  C   UNL A   1      32.133  22.945  22.589  1.00  0.00     0.045 C 
ATOM     79  O   UNL A   1      33.833  23.613  24.081  1.00  0.00    -0.363 OA
ATOM     80  C   UNL A   1      31.969  24.425  22.854  1.00  0.00     0.037 C 
ATOM     81  C   UNL A   1      33.335  24.793  23.418  1.00  0.00     0.138 C 
BRANCH  81  82
ATOM     82  C   UNL A   1      33.414  25.999  24.375  1.00  0.00     0.148 C 
BRANCH  82  83
ATOM     83  N   UNL A   1      32.608  25.873  25.580  1.00  0.00    -0.349 N 
ATOM     84  C   UNL A   1      31.530  26.619  25.984  1.00  0.00     0.251 C 
ATOM     85  H   UNL A   1      32.874  25.150  26.193  1.00  0.00     0.163 HD
ATOM     86  O   UNL A   1      31.129  26.529  27.142  1.00  0.00    -0.269 OA
BRANCH  84  87
ATOM     87  C   UNL A   1      30.814  27.498  25.035  1.00  0.00     0.039 A 
ATOM     88  C   UNL A   1      29.825  26.944  24.218  1.00  0.00     0.014 A 
ATOM     89  C   UNL A   1      31.201  28.830  24.860  1.00  0.00     0.014 A 
ATOM     90  C   UNL A   1      29.198  27.733  23.250  1.00  0.00     0.007 A 
ATOM     91  C   UNL A   1      30.572  29.618  23.893  1.00  0.00     0.007 A 
ATOM     92  C   UNL A   1      29.561  29.078  23.085  1.00  0.00    -0.023 A 
BRANCH  92  93
ATOM     93  C   UNL A   1      28.913  29.910  22.011  1.00  0.00     0.191 C 
BRANCH  93  94
ATOM     94  O   UNL A   1      27.558  29.520  21.823  1.00  0.00    -0.392 OA
ATOM     95  H   UNL A   1      27.030  30.295  21.574  1.00  0.00     0.211 HD
ENDBRANCH  93  94
ENDBRANCH  92  93
ENDBRANCH  84  87
ENDBRANCH  82  83
ENDBRANCH  81  82
ENDBRANCH  74  77
ENDBRANCH  72  73
ENDBRANCH  71  72
ENDBRANCH   1  71
TORSDOF 21
ENDMDL
MODEL 3
REMARK VINA RESULT:      -9.9      1.567      8.345
REMARK SMILES O=C(NCCCCCCNC(=O)[C@H]1CC[C@@H](CNC(=O)c2ccc(CO)cc2)O1)c1ccc(-c2c3nc(c(-c4ccc(S(=O)(=O)[O-])cc4)c4ccc([nH]4)c(-c4ccc(S(=O)(=O)[O-])cc4)c4nc(c(-c5ccc(S(=O)(=O)[O-])cc5)c5ccc2[nH]5)C=C4)C=C3)cc1
REMARK SMILES IDX 7 1 6 2 5 3 4 4 3 5 1 6 2 7 30 9 31 10 89 11 32 12 88 13
REMARK SMILES IDX 33 14 34 15 35 16 82 17 36 18 87 19 81 20 83 21 37 22 86 23
REMARK SMILES IDX 80 24 79 25 38 27 68 28 49 29 67 30 50 31 53 32 66 33 84 34
REMARK SMILES IDX 51 35 52 36 65 38 85 39 54 40 39 41 40 42 48 43 41 44 47 45
REMARK SMILES IDX 42 46 43 47 44 48 45 49 46 50 69 51 70 52 78 53 71 54 77 55
REMARK SMILES IDX 72 56 73 57 74 58 75 59 76 60 55 61 56 62 64 63 57 64 63 65
REMARK SMILES IDX 58 66 59 67 60 68 61 69 62 70 8 71 9 72 10 73 11 74 12 76
REMARK SMILES IDX 13 77 14 78 29 79 15 80 16 81 17 82 18 83 19 84 20 86 21 87
REMARK SMILES IDX 22 88 28 89 23 90 27 91 24 92 25 93 26 94
REMARK H PARENT 3 8 83 26 53 37 10 75 18 85 26 95
REMARK Flexibility Score: inf
ROOT
ATOM      1  C   UNL A   1      35.544  20.052  24.943  1.00  0.00     0.002 C 
ENDROOT
BRANCH   1   2
ATOM      2  C   UNL A   1      36.810  20.911  25.041  1.00  0.00     0.002 C 
BRANCH   2   3
ATOM      3  C   UNL A   1      38.130  20.151  24.912  1.00  0.00     0.021 C 
BRANCH   3   4
ATOM      4  C   UNL A   1      39.239  20.633  25.835  1.00  0.00     0.116 C 
BRANCH   4   5
ATOM      5  N   UNL A   1      40.277  19.635  26.035  1.00  0.00    -0.352 N 
ATOM      6  O   UNL A   1      42.386  18.875  26.301  1.00  0.00    -0.269 OA
ATOM      7  C   UNL A   1      41.611  19.826  26.310  1.00  0.00     0.251 C 
ATOM      8  H   UNL A   1      39.986  18.697  25.964  1.00  0.00     0.163 HD
BRANCH   7   9
ATOM      9  C   UNL A   1      42.110  21.192  26.593  1.00  0.00     0.039 A 
ATOM     10  C   UNL A   1      42.239  22.124  25.562  1.00  0.00     0.014 A 
ATOM     11  C   UNL A   1      42.462  21.539  27.901  1.00  0.00     0.014 A 
ATOM     12  C   UNL A   1      42.852  23.347  25.812  1.00  0.00     0.010 A 
ATOM     13  C   UNL A   1      42.998  22.805  28.165  1.00  0.00     0.010 A 
ATOM     14  C   UNL A   1      43.226  23.709  27.118  1.00  0.00    -0.014 A 
BRANCH  14  15
ATOM     15  C   UNL A   1      43.781  25.068  27.349  1.00  0.00     0.031 A 
ATOM     16  C   UNL A   1      42.972  26.151  28.007  1.00  0.00     0.074 A 
ATOM     17  C   UNL A   1      45.068  25.294  27.015  1.00  0.00     0.049 A 
ATOM     18  N   UNL A   1      43.348  27.354  28.360  1.00  0.00    -0.248 NA
ATOM     19  C   UNL A   1      41.561  25.856  28.303  1.00  0.00     0.031 C 
ATOM     20  C   UNL A   1      45.947  24.327  26.350  1.00  0.00     0.029 A 
ATOM     21  N   UNL A   1      45.872  26.385  27.219  1.00  0.00    -0.354 N 
ATOM     22  C   UNL A   1      42.227  27.963  28.911  1.00  0.00     0.074 A 
ATOM     23  C   UNL A   1      41.144  27.005  28.819  1.00  0.00     0.031 C 
ATOM     24  C   UNL A   1      47.181  24.842  26.259  1.00  0.00     0.029 A 
ATOM     25  C   UNL A   1      47.169  26.193  26.805  1.00  0.00     0.049 A 
ATOM     26  H   UNL A   1      45.552  27.223  27.622  1.00  0.00     0.167 HD
ATOM     27  C   UNL A   1      42.111  29.202  29.448  1.00  0.00     0.031 A 
ATOM     28  C   UNL A   1      48.235  27.012  26.853  1.00  0.00     0.031 A 
ATOM     29  C   UNL A   1      43.188  30.155  29.529  1.00  0.00     0.049 A 
ATOM     30  C   UNL A   1      48.080  28.375  27.459  1.00  0.00     0.074 A 
ATOM     31  C   UNL A   1      43.168  31.437  30.056  1.00  0.00     0.029 A 
ATOM     32  N   UNL A   1      44.480  29.934  29.076  1.00  0.00    -0.354 N 
ATOM     33  N   UNL A   1      47.011  28.921  27.989  1.00  0.00    -0.248 NA
ATOM     34  C   UNL A   1      49.273  29.230  27.479  1.00  0.00     0.031 C 
ATOM     35  C   UNL A   1      44.437  32.001  29.890  1.00  0.00     0.029 A 
ATOM     36  C   UNL A   1      45.262  31.055  29.302  1.00  0.00     0.049 A 
ATOM     37  H   UNL A   1      44.795  29.101  28.657  1.00  0.00     0.167 HD
ATOM     38  C   UNL A   1      47.404  30.187  28.404  1.00  0.00     0.074 A 
ATOM     39  C   UNL A   1      48.815  30.309  28.098  1.00  0.00     0.031 C 
ATOM     40  C   UNL A   1      46.660  31.165  28.976  1.00  0.00     0.031 A 
BRANCH  27  41
ATOM     41  C   UNL A   1      40.763  29.607  29.985  1.00  0.00    -0.014 A 
ATOM     42  C   UNL A   1      40.470  29.496  31.356  1.00  0.00     0.010 A 
ATOM     43  C   UNL A   1      39.800  30.163  29.123  1.00  0.00     0.010 A 
ATOM     44  C   UNL A   1      39.228  29.907  31.851  1.00  0.00     0.020 A 
ATOM     45  C   UNL A   1      38.565  30.594  29.617  1.00  0.00     0.020 A 
ATOM     46  C   UNL A   1      38.281  30.450  30.977  1.00  0.00     0.054 A 
BRANCH  46  47
ATOM     47  S   UNL A   1      36.690  31.002  31.650  1.00  0.00     0.124 S 
ATOM     48  O   UNL A   1      37.027  31.250  33.051  1.00  0.00    -0.237 OA
ATOM     49  O   UNL A   1      36.401  32.194  30.856  1.00  0.00    -0.237 OA
ATOM     50  O   UNL A   1      35.800  29.869  31.414  1.00  0.00    -0.744 OA
ENDBRANCH  46  47
ENDBRANCH  27  41
BRANCH  28  51
ATOM     51  C   UNL A   1      49.536  26.560  26.291  1.00  0.00    -0.014 A 
ATOM     52  C   UNL A   1      49.929  26.929  24.992  1.00  0.00     0.010 A 
ATOM     53  C   UNL A   1      50.403  25.777  27.074  1.00  0.00     0.010 A 
ATOM     54  C   UNL A   1      51.160  26.507  24.482  1.00  0.00     0.020 A 
ATOM     55  C   UNL A   1      51.645  25.378  26.578  1.00  0.00     0.020 A 
ATOM     56  C   UNL A   1      52.011  25.735  25.279  1.00  0.00     0.054 A 
BRANCH  56  57
ATOM     57  S   UNL A   1      53.629  25.243  24.623  1.00  0.00     0.124 S 
ATOM     58  O   UNL A   1      53.615  23.800  24.837  1.00  0.00    -0.237 OA
ATOM     59  O   UNL A   1      53.555  25.679  23.231  1.00  0.00    -0.237 OA
ATOM     60  O   UNL A   1      54.570  25.993  25.452  1.00  0.00    -0.744 OA
ENDBRANCH  56  57
ENDBRANCH  28  51
BRANCH  40  61
ATOM     61  C   UNL A   1      47.371  32.447  29.310  1.00  0.00    -0.014 A 
ATOM     62  C   UNL A   1      48.023  32.610  30.546  1.00  0.00     0.010 A 
ATOM     63  C   UNL A   1      47.394  33.497  28.376  1.00  0.00     0.010 A 
ATOM     64  C   UNL A   1      48.643  33.822  30.861  1.00  0.00     0.020 A 
ATOM     65  C   UNL A   1      48.034  34.702  28.678  1.00  0.00     0.020 A 
ATOM     66  C   UNL A   1      48.638  34.863  29.927  1.00  0.00     0.054 A 
BRANCH  66  67
ATOM     67  S   UNL A   1      49.457  36.424  30.352  1.00  0.00     0.124 S 
ATOM     68  O   UNL A   1      49.727  36.246  31.776  1.00  0.00    -0.237 OA
ATOM     69  O   UNL A   1      50.632  36.421  29.484  1.00  0.00    -0.237 OA
ATOM     70  O   UNL A   1      48.454  37.437  30.029  1.00  0.00    -0.744 OA
ENDBRANCH  66  67
ENDBRANCH  40  61
ENDBRANCH  14  15
ENDBRANCH   7   9
ENDBRANCH   4   5
ENDBRANCH   3   4
ENDBRANCH   2   3
ENDBRANCH   1   2
BRANCH   1  71
ATOM     71  C   UNL A   1      34.238  20.738  25.369  1.00  0.00     0.021 C 
BRANCH  71  72
ATOM     72  C   UNL A   1      33.158  20.774  24.288  1.00  0.00     0.116 C 
BRANCH  72  73
ATOM     73  N   UNL A   1      32.149  21.768  24.590  1.00  0.00    -0.354 N 
ATOM     74  C   UNL A   1      32.229  23.128  24.502  1.00  0.00     0.249 C 
ATOM     75  H   UNL A   1      31.286  21.414  24.905  1.00  0.00     0.163 HD
ATOM     76  O   UNL A   1      31.281  23.794  24.922  1.00  0.00    -0.272 OA
BRANCH  74  77
ATOM     77  C   UNL A   1      33.471  23.763  23.843  1.00  0.00     0.207 C 
ATOM     78  C   UNL A   1      33.316  23.771  22.330  1.00  0.00     0.045 C 
ATOM     79  O   UNL A   1      33.638  25.134  24.228  1.00  0.00    -0.363 OA
ATOM     80  C   UNL A   1      32.570  25.067  22.108  1.00  0.00     0.037 C 
ATOM     81  C   UNL A   1      33.221  25.981  23.137  1.00  0.00     0.138 C 
BRANCH  81  82
ATOM     82  C   UNL A   1      32.385  27.156  23.683  1.00  0.00     0.148 C 
BRANCH  82  83
ATOM     83  N   UNL A   1      31.439  26.796  24.727  1.00  0.00    -0.349 N 
ATOM     84  C   UNL A   1      31.458  27.113  26.061  1.00  0.00     0.251 C 
ATOM     85  H   UNL A   1      30.675  26.247  24.435  1.00  0.00     0.163 HD
ATOM     86  O   UNL A   1      30.712  26.519  26.837  1.00  0.00    -0.269 OA
BRANCH  84  87
ATOM     87  C   UNL A   1      32.331  28.189  26.576  1.00  0.00     0.039 A 
ATOM     88  C   UNL A   1      31.822  29.488  26.659  1.00  0.00     0.014 A 
ATOM     89  C   UNL A   1      33.679  27.947  26.853  1.00  0.00     0.014 A 
ATOM     90  C   UNL A   1      32.654  30.538  27.055  1.00  0.00     0.007 A 
ATOM     91  C   UNL A   1      34.510  28.998  27.251  1.00  0.00     0.007 A 
ATOM     92  C   UNL A   1      34.002  30.301  27.362  1.00  0.00    -0.023 A 
BRANCH  92  93
ATOM     93  C   UNL A   1      34.904  31.444  27.744  1.00  0.00     0.191 C 
BRANCH  93  94
ATOM     94  O   UNL A   1      34.321  32.214  28.789  1.00  0.00    -0.392 OA
ATOM     95  H   UNL A   1      34.925  32.932  29.037  1.00  0.00     0.211 HD
ENDBRANCH  93  94
ENDBRANCH  92  93
ENDBRANCH  84  87
ENDBRANCH  82  83
ENDBRANCH  81  82
ENDBRANCH  74  77
ENDBRANCH  72  73
ENDBRANCH  71  72
ENDBRANCH   1  71
TORSDOF 21
ENDMDL
