MODEL 1
REMARK VINA RESULT:     -10.9      0.000      0.000
REMARK SMILES [NH3+][C@@H](CCS[C@@H]1CCO[C@@]2(CCOC2)C1)C(=O)NCCCCCCNC(=O)c1ccc(-c2c3nc(c(-c4ccc(S(=O)(=O)[O-])cc4)c4ccc([nH]4)c(-c4ccc(S(=O)(=O)[O-])cc4)c4nc(c(-c5ccc(S(=O)(=O)[O-])cc5)c5ccc2[nH]5)C=C4)C=C3)cc1
REMARK SMILES IDX 21 1 20 2 19 3 18 4 16 5 17 6 2 8 1 9 3 13 4 14 5 15 6 16
REMARK SMILES IDX 7 17 15 18 8 19 10 20 9 21 11 22 14 23 12 24 13 25 22 26
REMARK SMILES IDX 23 27 24 28 25 29 26 30 27 32 28 33 29 34 87 35 30 36 86 37
REMARK SMILES IDX 31 38 32 39 33 40 80 41 34 42 85 43 79 44 81 45 35 46 84 47
REMARK SMILES IDX 78 48 77 49 36 51 66 52 47 53 65 54 48 55 51 56 64 57 82 58
REMARK SMILES IDX 49 59 50 60 63 62 83 63 52 64 37 65 38 66 46 67 39 68 45 69
REMARK SMILES IDX 40 70 41 71 42 72 43 73 44 74 67 75 68 76 76 77 69 78 75 79
REMARK SMILES IDX 70 80 71 81 72 82 73 83 74 84 53 85 54 86 62 87 55 88 61 89
REMARK SMILES IDX 56 90 57 91 58 92 59 93 60 94
REMARK H PARENT 18 7 1 10 1 11 1 12 25 31 81 50 51 61
REMARK Flexibility Score: inf
ROOT
ATOM      1  C   UNL A   1      36.616  23.245  25.049  1.00  0.00     0.002 C 
ENDROOT
BRANCH   1   2
ATOM      2  C   UNL A   1      36.178  23.335  23.562  1.00  0.00     0.021 C 
BRANCH   2   3
ATOM      3  C   UNL A   1      34.662  23.437  23.253  1.00  0.00     0.116 C 
BRANCH   3   4
ATOM      4  N   UNL A   1      34.300  24.818  22.940  1.00  0.00    -0.351 N 
ATOM      5  C   UNL A   1      33.204  25.646  22.926  1.00  0.00     0.278 C 
ATOM      6  O   UNL A   1      33.215  26.755  22.399  1.00  0.00    -0.268 OA
ATOM      7  H   UNL A   1      35.096  25.312  22.642  1.00  0.00     0.163 HD
BRANCH   5   8
ATOM      8  C   UNL A   1      32.047  25.385  23.790  1.00  0.00     0.271 C 
BRANCH   8   9
ATOM      9  N   UNL A   1      31.308  24.224  23.285  1.00  0.00    -0.347 N 
ATOM     10  H   UNL A   1      31.915  23.674  22.677  1.00  0.00     0.345 HD
ATOM     11  H   UNL A   1      30.496  24.541  22.757  1.00  0.00     0.345 HD
ATOM     12  H   UNL A   1      31.002  23.649  24.069  1.00  0.00     0.345 HD
ENDBRANCH   8   9
BRANCH   8  13
ATOM     13  C   UNL A   1      32.654  25.452  25.168  1.00  0.00     0.086 C 
BRANCH  13  14
ATOM     14  C   UNL A   1      32.478  24.168  26.110  1.00  0.00     0.076 C 
BRANCH  14  15
ATOM     15  S   UNL A   1      32.114  22.177  26.052  1.00  0.00    -0.158 SA
BRANCH  15  16
ATOM     16  C   UNL A   1      32.967  20.817  24.761  1.00  0.00     0.052 C 
ATOM     17  C   UNL A   1      32.250  20.766  23.421  1.00  0.00     0.043 C 
ATOM     18  C   UNL A   1      33.908  19.546  24.900  1.00  0.00     0.052 C 
ATOM     19  C   UNL A   1      32.180  19.376  22.764  1.00  0.00     0.162 C 
ATOM     20  C   UNL A   1      33.381  18.128  24.513  1.00  0.00     0.095 C 
ATOM     21  O   UNL A   1      32.312  18.213  23.567  1.00  0.00    -0.372 OA
ATOM     22  C   UNL A   1      34.501  17.234  23.933  1.00  0.00     0.066 C 
ATOM     23  C   UNL A   1      32.898  17.197  25.675  1.00  0.00     0.195 C 
ATOM     24  C   UNL A   1      34.771  16.171  24.982  1.00  0.00     0.163 C 
ATOM     25  O   UNL A   1      33.490  15.898  25.522  1.00  0.00    -0.378 OA
ENDBRANCH  15  16
ENDBRANCH  14  15
ENDBRANCH  13  14
ENDBRANCH   8  13
ENDBRANCH   5   8
ENDBRANCH   3   4
ENDBRANCH   2   3
ENDBRANCH   1   2
BRANCH   1  26
ATOM     26  C   UNL A   1      36.773  21.861  25.666  1.00  0.00     0.002 C 
BRANCH  26  27
ATOM     27  C   UNL A   1      37.968  21.078  25.147  1.00  0.00     0.021 C 
BRANCH  27  28
ATOM     28  C   UNL A   1      39.213  21.175  26.021  1.00  0.00     0.116 C 
BRANCH  28  29
ATOM     29  N   UNL A   1      40.014  19.962  26.001  1.00  0.00    -0.352 N 
ATOM     30  C   UNL A   1      41.381  19.864  26.097  1.00  0.00     0.251 C 
ATOM     31  H   UNL A   1      39.521  19.114  25.907  1.00  0.00     0.163 HD
ATOM     32  O   UNL A   1      41.956  18.795  25.904  1.00  0.00    -0.269 OA
BRANCH  30  33
ATOM     33  C   UNL A   1      42.149  21.087  26.407  1.00  0.00     0.039 A 
ATOM     34  C   UNL A   1      42.480  21.961  25.373  1.00  0.00     0.014 A 
ATOM     35  C   UNL A   1      42.441  21.409  27.738  1.00  0.00     0.014 A 
ATOM     36  C   UNL A   1      43.055  23.195  25.682  1.00  0.00     0.010 A 
ATOM     37  C   UNL A   1      42.931  22.673  28.046  1.00  0.00     0.010 A 
ATOM     38  C   UNL A   1      43.250  23.576  27.022  1.00  0.00    -0.014 A 
BRANCH  38  39
ATOM     39  C   UNL A   1      43.776  24.925  27.354  1.00  0.00     0.031 A 
ATOM     40  C   UNL A   1      45.228  25.251  27.133  1.00  0.00     0.074 A 
ATOM     41  C   UNL A   1      42.948  25.848  27.884  1.00  0.00     0.049 A 
ATOM     42  N   UNL A   1      45.852  26.388  27.312  1.00  0.00    -0.248 NA
ATOM     43  C   UNL A   1      46.098  24.155  26.677  1.00  0.00     0.031 C 
ATOM     44  C   UNL A   1      41.532  25.634  28.199  1.00  0.00     0.029 A 
ATOM     45  N   UNL A   1      43.171  27.155  28.238  1.00  0.00    -0.354 N 
ATOM     46  C   UNL A   1      47.184  26.140  27.000  1.00  0.00     0.074 A 
ATOM     47  C   UNL A   1      47.289  24.733  26.682  1.00  0.00     0.031 C 
ATOM     48  C   UNL A   1      41.002  26.785  28.644  1.00  0.00     0.029 A 
ATOM     49  C   UNL A   1      42.045  27.805  28.685  1.00  0.00     0.049 A 
ATOM     50  H   UNL A   1      44.054  27.586  28.179  1.00  0.00     0.167 HD
ATOM     51  C   UNL A   1      48.223  27.009  26.961  1.00  0.00     0.031 A 
ATOM     52  C   UNL A   1      41.866  29.083  29.073  1.00  0.00     0.031 A 
ATOM     53  C   UNL A   1      48.111  28.408  27.281  1.00  0.00     0.049 A 
ATOM     54  C   UNL A   1      43.035  30.028  29.027  1.00  0.00     0.074 A 
ATOM     55  C   UNL A   1      49.085  29.387  27.208  1.00  0.00     0.029 A 
ATOM     56  N   UNL A   1      46.960  29.024  27.749  1.00  0.00    -0.354 N 
ATOM     57  N   UNL A   1      44.267  29.798  28.638  1.00  0.00    -0.248 NA
ATOM     58  C   UNL A   1      42.784  31.409  29.460  1.00  0.00     0.031 C 
ATOM     59  C   UNL A   1      48.541  30.580  27.698  1.00  0.00     0.029 A 
ATOM     60  C   UNL A   1      47.208  30.361  28.009  1.00  0.00     0.049 A 
ATOM     61  H   UNL A   1      46.093  28.575  27.879  1.00  0.00     0.167 HD
ATOM     62  C   UNL A   1      44.934  31.012  28.761  1.00  0.00     0.074 A 
ATOM     63  C   UNL A   1      43.961  31.976  29.235  1.00  0.00     0.031 C 
ATOM     64  C   UNL A   1      46.235  31.302  28.504  1.00  0.00     0.031 A 
BRANCH  51  65
ATOM     65  C   UNL A   1      49.573  26.459  26.577  1.00  0.00    -0.014 A 
ATOM     66  C   UNL A   1      50.439  25.902  27.538  1.00  0.00     0.010 A 
ATOM     67  C   UNL A   1      49.979  26.486  25.230  1.00  0.00     0.010 A 
ATOM     68  C   UNL A   1      51.704  25.435  27.167  1.00  0.00     0.020 A 
ATOM     69  C   UNL A   1      51.230  25.989  24.851  1.00  0.00     0.020 A 
ATOM     70  C   UNL A   1      52.093  25.486  25.826  1.00  0.00     0.054 A 
BRANCH  70  71
ATOM     71  S   UNL A   1      53.738  24.872  25.375  1.00  0.00     0.124 S 
ATOM     72  O   UNL A   1      53.463  23.470  25.073  1.00  0.00    -0.237 OA
ATOM     73  O   UNL A   1      54.085  25.704  24.224  1.00  0.00    -0.237 OA
ATOM     74  O   UNL A   1      54.539  25.107  26.573  1.00  0.00    -0.744 OA
ENDBRANCH  70  71
ENDBRANCH  51  65
BRANCH  52  75
ATOM     75  C   UNL A   1      40.518  29.547  29.499  1.00  0.00    -0.014 A 
ATOM     76  C   UNL A   1      40.169  29.573  30.862  1.00  0.00     0.010 A 
ATOM     77  C   UNL A   1      39.581  29.993  28.547  1.00  0.00     0.010 A 
ATOM     78  C   UNL A   1      38.910  30.030  31.264  1.00  0.00     0.020 A 
ATOM     79  C   UNL A   1      38.333  30.478  28.948  1.00  0.00     0.020 A 
ATOM     80  C   UNL A   1      38.002  30.486  30.304  1.00  0.00     0.054 A 
BRANCH  80  81
ATOM     81  S   UNL A   1      36.402  31.139  30.856  1.00  0.00     0.124 S 
ATOM     82  O   UNL A   1      35.579  30.982  29.661  1.00  0.00    -0.237 OA
ATOM     83  O   UNL A   1      36.073  30.259  31.973  1.00  0.00    -0.237 OA
ATOM     84  O   UNL A   1      36.708  32.518  31.230  1.00  0.00    -0.744 OA
ENDBRANCH  80  81
ENDBRANCH  52  75
BRANCH  64  85
ATOM     85  C   UNL A   1      46.674  32.728  28.722  1.00  0.00    -0.014 A 
ATOM     86  C   UNL A   1      47.226  33.143  29.947  1.00  0.00     0.010 A 
ATOM     87  C   UNL A   1      46.554  33.660  27.675  1.00  0.00     0.010 A 
ATOM     88  C   UNL A   1      47.600  34.476  30.139  1.00  0.00     0.020 A 
ATOM     89  C   UNL A   1      46.958  34.986  27.851  1.00  0.00     0.020 A 
ATOM     90  C   UNL A   1      47.460  35.389  29.090  1.00  0.00     0.054 A 
BRANCH  90  91
ATOM     91  S   UNL A   1      47.964  37.110  29.360  1.00  0.00     0.124 S 
ATOM     92  O   UNL A   1      46.735  37.838  29.059  1.00  0.00    -0.237 OA
ATOM     93  O   UNL A   1      48.367  37.109  30.764  1.00  0.00    -0.237 OA
ATOM     94  O   UNL A   1      49.054  37.305  28.406  1.00  0.00    -0.744 OA
ENDBRANCH  90  91
ENDBRANCH  64  85
ENDBRANCH  38  39
ENDBRANCH  30  33
ENDBRANCH  28  29
ENDBRANCH  27  28
ENDBRANCH  26  27
ENDBRANCH   1  26
TORSDOF 21
ENDMDL
MODEL 2
REMARK VINA RESULT:     -10.5      5.796      9.174
REMARK SMILES [NH3+][C@@H](CCS[C@@H]1CCO[C@@]2(CCOC2)C1)C(=O)NCCCCCCNC(=O)c1ccc(-c2c3nc(c(-c4ccc(S(=O)(=O)[O-])cc4)c4ccc([nH]4)c(-c4ccc(S(=O)(=O)[O-])cc4)c4nc(c(-c5ccc(S(=O)(=O)[O-])cc5)c5ccc2[nH]5)C=C4)C=C3)cc1
REMARK SMILES IDX 21 1 20 2 19 3 18 4 16 5 17 6 2 8 1 9 3 13 4 14 5 15 6 16
REMARK SMILES IDX 7 17 15 18 8 19 10 20 9 21 11 22 14 23 12 24 13 25 22 26
REMARK SMILES IDX 23 27 24 28 25 29 26 30 27 32 28 33 29 34 87 35 30 36 86 37
REMARK SMILES IDX 31 38 32 39 33 40 80 41 34 42 85 43 79 44 81 45 35 46 84 47
REMARK SMILES IDX 78 48 77 49 36 51 66 52 47 53 65 54 48 55 51 56 64 57 82 58
REMARK SMILES IDX 49 59 50 60 63 62 83 63 52 64 37 65 38 66 46 67 39 68 45 69
REMARK SMILES IDX 40 70 41 71 42 72 43 73 44 74 67 75 68 76 76 77 69 78 75 79
REMARK SMILES IDX 70 80 71 81 72 82 73 83 74 84 53 85 54 86 62 87 55 88 61 89
REMARK SMILES IDX 56 90 57 91 58 92 59 93 60 94
REMARK H PARENT 18 7 1 10 1 11 1 12 25 31 81 50 51 61
REMARK Flexibility Score: inf
ROOT
ATOM      1  C   UNL A   1      46.299  23.298  24.520  1.00  0.00     0.002 C 
ENDROOT
BRANCH   1   2
ATOM      2  C   UNL A   1      46.031  21.771  24.615  1.00  0.00     0.021 C 
BRANCH   2   3
ATOM      3  C   UNL A   1      45.288  21.238  25.868  1.00  0.00     0.116 C 
BRANCH   3   4
ATOM      4  N   UNL A   1      44.164  20.392  25.469  1.00  0.00    -0.351 N 
ATOM      5  C   UNL A   1      42.831  20.209  25.742  1.00  0.00     0.278 C 
ATOM      6  O   UNL A   1      42.198  19.234  25.347  1.00  0.00    -0.268 OA
ATOM      7  H   UNL A   1      44.458  19.746  24.788  1.00  0.00     0.163 HD
BRANCH   5   8
ATOM      8  C   UNL A   1      42.009  21.305  26.269  1.00  0.00     0.271 C 
BRANCH   8   9
ATOM      9  N   UNL A   1      42.067  22.448  25.354  1.00  0.00    -0.347 N 
ATOM     10  H   UNL A   1      42.652  22.212  24.552  1.00  0.00     0.345 HD
ATOM     11  H   UNL A   1      42.465  23.252  25.839  1.00  0.00     0.345 HD
ATOM     12  H   UNL A   1      41.127  22.676  25.033  1.00  0.00     0.345 HD
ENDBRANCH   8   9
BRANCH   8  13
ATOM     13  C   UNL A   1      40.730  20.597  26.637  1.00  0.00     0.086 C 
BRANCH  13  14
ATOM     14  C   UNL A   1      39.360  21.228  26.094  1.00  0.00     0.076 C 
BRANCH  14  15
ATOM     15  S   UNL A   1      38.297  22.950  26.049  1.00  0.00    -0.158 SA
BRANCH  15  16
ATOM     16  C   UNL A   1      36.247  23.117  25.928  1.00  0.00     0.052 C 
ATOM     17  C   UNL A   1      35.536  21.880  26.456  1.00  0.00     0.043 C 
ATOM     18  C   UNL A   1      35.220  23.996  25.097  1.00  0.00     0.052 C 
ATOM     19  C   UNL A   1      34.242  21.499  25.716  1.00  0.00     0.162 C 
ATOM     20  C   UNL A   1      34.261  23.323  24.064  1.00  0.00     0.095 C 
ATOM     21  O   UNL A   1      34.037  21.948  24.386  1.00  0.00    -0.372 OA
ATOM     22  C   UNL A   1      32.901  24.053  23.979  1.00  0.00     0.066 C 
ATOM     23  C   UNL A   1      34.670  23.385  22.554  1.00  0.00     0.195 C 
ATOM     24  C   UNL A   1      32.879  24.737  22.624  1.00  0.00     0.163 C 
ATOM     25  O   UNL A   1      33.547  23.822  21.773  1.00  0.00    -0.378 OA
ENDBRANCH  15  16
ENDBRANCH  14  15
ENDBRANCH  13  14
ENDBRANCH   8  13
ENDBRANCH   5   8
ENDBRANCH   3   4
ENDBRANCH   2   3
ENDBRANCH   1   2
BRANCH   1  26
ATOM     26  C   UNL A   1      45.238  24.246  25.064  1.00  0.00     0.002 C 
BRANCH  26  27
ATOM     27  C   UNL A   1      45.725  25.669  25.281  1.00  0.00     0.021 C 
BRANCH  27  28
ATOM     28  C   UNL A   1      44.613  26.710  25.357  1.00  0.00     0.116 C 
BRANCH  28  29
ATOM     29  N   UNL A   1      43.342  26.217  24.853  1.00  0.00    -0.352 N 
ATOM     30  C   UNL A   1      42.142  26.174  25.521  1.00  0.00     0.251 C 
ATOM     31  H   UNL A   1      43.340  25.876  23.929  1.00  0.00     0.163 HD
ATOM     32  O   UNL A   1      41.173  25.584  25.046  1.00  0.00    -0.269 OA
BRANCH  30  33
ATOM     33  C   UNL A   1      42.053  26.826  26.843  1.00  0.00     0.039 A 
ATOM     34  C   UNL A   1      42.549  28.120  26.997  1.00  0.00     0.014 A 
ATOM     35  C   UNL A   1      41.381  26.187  27.892  1.00  0.00     0.014 A 
ATOM     36  C   UNL A   1      42.316  28.800  28.192  1.00  0.00     0.010 A 
ATOM     37  C   UNL A   1      41.076  26.900  29.046  1.00  0.00     0.010 A 
ATOM     38  C   UNL A   1      41.546  28.211  29.212  1.00  0.00    -0.014 A 
BRANCH  38  39
ATOM     39  C   UNL A   1      41.220  28.969  30.446  1.00  0.00     0.031 A 
ATOM     40  C   UNL A   1      42.049  28.792  31.689  1.00  0.00     0.074 A 
ATOM     41  C   UNL A   1      40.156  29.797  30.455  1.00  0.00     0.049 A 
ATOM     42  N   UNL A   1      41.949  29.408  32.840  1.00  0.00    -0.248 NA
ATOM     43  C   UNL A   1      43.112  27.774  31.645  1.00  0.00     0.031 C 
ATOM     44  C   UNL A   1      39.241  30.012  29.331  1.00  0.00     0.029 A 
ATOM     45  N   UNL A   1      39.672  30.625  31.437  1.00  0.00    -0.354 N 
ATOM     46  C   UNL A   1      42.925  28.847  33.655  1.00  0.00     0.074 A 
ATOM     47  C   UNL A   1      43.565  27.800  32.889  1.00  0.00     0.031 C 
ATOM     48  C   UNL A   1      38.343  30.953  29.667  1.00  0.00     0.029 A 
ATOM     49  C   UNL A   1      38.592  31.378  31.040  1.00  0.00     0.049 A 
ATOM     50  H   UNL A   1      40.060  30.674  32.340  1.00  0.00     0.167 HD
ATOM     51  C   UNL A   1      43.275  29.186  34.919  1.00  0.00     0.031 A 
ATOM     52  C   UNL A   1      37.888  32.317  31.702  1.00  0.00     0.031 A 
ATOM     53  C   UNL A   1      42.632  30.229  35.676  1.00  0.00     0.049 A 
ATOM     54  C   UNL A   1      38.288  32.673  33.107  1.00  0.00     0.074 A 
ATOM     55  C   UNL A   1      42.952  30.697  36.938  1.00  0.00     0.029 A 
ATOM     56  N   UNL A   1      41.530  30.954  35.248  1.00  0.00    -0.354 N 
ATOM     57  N   UNL A   1      39.276  32.197  33.829  1.00  0.00    -0.248 NA
ATOM     58  C   UNL A   1      37.487  33.702  33.781  1.00  0.00     0.031 C 
ATOM     59  C   UNL A   1      42.000  31.658  37.300  1.00  0.00     0.029 A 
ATOM     60  C   UNL A   1      41.131  31.839  36.236  1.00  0.00     0.049 A 
ATOM     61  H   UNL A   1      41.095  30.854  34.371  1.00  0.00     0.167 HD
ATOM     62  C   UNL A   1      39.227  32.886  35.036  1.00  0.00     0.074 A 
ATOM     63  C   UNL A   1      38.129  33.826  34.934  1.00  0.00     0.031 C 
ATOM     64  C   UNL A   1      40.020  32.751  36.129  1.00  0.00     0.031 A 
BRANCH  51  65
ATOM     65  C   UNL A   1      44.389  28.404  35.566  1.00  0.00    -0.014 A 
ATOM     66  C   UNL A   1      45.739  28.768  35.392  1.00  0.00     0.010 A 
ATOM     67  C   UNL A   1      44.084  27.293  36.373  1.00  0.00     0.010 A 
ATOM     68  C   UNL A   1      46.759  28.005  35.966  1.00  0.00     0.020 A 
ATOM     69  C   UNL A   1      45.100  26.548  36.977  1.00  0.00     0.020 A 
ATOM     70  C   UNL A   1      46.433  26.895  36.751  1.00  0.00     0.054 A 
BRANCH  70  71
ATOM     71  S   UNL A   1      47.777  25.925  37.485  1.00  0.00     0.124 S 
ATOM     72  O   UNL A   1      48.927  26.358  36.695  1.00  0.00    -0.237 OA
ATOM     73  O   UNL A   1      47.770  26.370  38.877  1.00  0.00    -0.237 OA
ATOM     74  O   UNL A   1      47.362  24.540  37.275  1.00  0.00    -0.744 OA
ENDBRANCH  70  71
ENDBRANCH  51  65
BRANCH  52  75
ATOM     75  C   UNL A   1      36.757  33.010  31.026  1.00  0.00    -0.014 A 
ATOM     76  C   UNL A   1      35.427  32.663  31.321  1.00  0.00     0.010 A 
ATOM     77  C   UNL A   1      37.003  34.043  30.101  1.00  0.00     0.010 A 
ATOM     78  C   UNL A   1      34.365  33.329  30.701  1.00  0.00     0.020 A 
ATOM     79  C   UNL A   1      35.944  34.731  29.502  1.00  0.00     0.020 A 
ATOM     80  C   UNL A   1      34.631  34.364  29.801  1.00  0.00     0.054 A 
BRANCH  80  81
ATOM     81  S   UNL A   1      33.236  35.260  29.064  1.00  0.00     0.124 S 
ATOM     82  O   UNL A   1      33.913  36.251  28.234  1.00  0.00    -0.237 OA
ATOM     83  O   UNL A   1      32.531  34.204  28.342  1.00  0.00    -0.237 OA
ATOM     84  O   UNL A   1      32.523  35.794  30.222  1.00  0.00    -0.744 OA
ENDBRANCH  80  81
ENDBRANCH  52  75
BRANCH  64  85
ATOM     85  C   UNL A   1      39.730  33.655  37.300  1.00  0.00    -0.014 A 
ATOM     86  C   UNL A   1      40.293  34.941  37.388  1.00  0.00     0.010 A 
ATOM     87  C   UNL A   1      38.862  33.218  38.318  1.00  0.00     0.010 A 
ATOM     88  C   UNL A   1      40.035  35.752  38.496  1.00  0.00     0.020 A 
ATOM     89  C   UNL A   1      38.574  34.040  39.411  1.00  0.00     0.020 A 
ATOM     90  C   UNL A   1      39.179  35.294  39.502  1.00  0.00     0.054 A 
BRANCH  90  91
ATOM     91  S   UNL A   1      38.851  36.371  40.923  1.00  0.00     0.124 S 
ATOM     92  O   UNL A   1      37.755  35.671  41.588  1.00  0.00    -0.237 OA
ATOM     93  O   UNL A   1      40.126  36.362  41.634  1.00  0.00    -0.237 OA
ATOM     94  O   UNL A   1      38.493  37.650  40.314  1.00  0.00    -0.744 OA
ENDBRANCH  90  91
ENDBRANCH  64  85
ENDBRANCH  38  39
ENDBRANCH  30  33
ENDBRANCH  28  29
ENDBRANCH  27  28
ENDBRANCH  26  27
ENDBRANCH   1  26
TORSDOF 21
ENDMDL
MODEL 3
REMARK VINA RESULT:     -10.5      6.094      9.136
REMARK SMILES [NH3+][C@@H](CCS[C@@H]1CCO[C@@]2(CCOC2)C1)C(=O)NCCCCCCNC(=O)c1ccc(-c2c3nc(c(-c4ccc(S(=O)(=O)[O-])cc4)c4ccc([nH]4)c(-c4ccc(S(=O)(=O)[O-])cc4)c4nc(c(-c5ccc(S(=O)(=O)[O-])cc5)c5ccc2[nH]5)C=C4)C=C3)cc1
REMARK SMILES IDX 21 1 20 2 19 3 18 4 16 5 17 6 2 8 1 9 3 13 4 14 5 15 6 16
REMARK SMILES IDX 7 17 15 18 8 19 10 20 9 21 11 22 14 23 12 24 13 25 22 26
REMARK SMILES IDX 23 27 24 28 25 29 26 30 27 32 28 33 29 34 87 35 30 36 86 37
REMARK SMILES IDX 31 38 32 39 33 40 80 41 34 42 85 43 79 44 81 45 35 46 84 47
REMARK SMILES IDX 78 48 77 49 36 51 66 52 47 53 65 54 48 55 51 56 64 57 82 58
REMARK SMILES IDX 49 59 50 60 63 62 83 63 52 64 37 65 38 66 46 67 39 68 45 69
REMARK SMILES IDX 40 70 41 71 42 72 43 73 44 74 67 75 68 76 76 77 69 78 75 79
REMARK SMILES IDX 70 80 71 81 72 82 73 83 74 84 53 85 54 86 62 87 55 88 61 89
REMARK SMILES IDX 56 90 57 91 58 92 59 93 60 94
REMARK H PARENT 18 7 1 10 1 11 1 12 25 31 81 50 51 61
REMARK Flexibility Score: inf
ROOT
ATOM      1  C   UNL A   1      37.592  23.113  25.745  1.00  0.00     0.002 C 
ENDROOT
BRANCH   1   2
ATOM      2  C   UNL A   1      36.069  22.889  25.541  1.00  0.00     0.021 C 
BRANCH   2   3
ATOM      3  C   UNL A   1      35.350  21.874  26.468  1.00  0.00     0.116 C 
BRANCH   3   4
ATOM      4  N   UNL A   1      34.884  20.724  25.696  1.00  0.00    -0.351 N 
ATOM      5  C   UNL A   1      33.827  20.337  24.908  1.00  0.00     0.278 C 
ATOM      6  O   UNL A   1      33.651  19.175  24.554  1.00  0.00    -0.268 OA
ATOM      7  H   UNL A   1      35.537  19.990  25.763  1.00  0.00     0.163 HD
BRANCH   5   8
ATOM      8  C   UNL A   1      33.009  21.329  24.200  1.00  0.00     0.271 C 
BRANCH   8   9
ATOM      9  N   UNL A   1      32.320  20.687  23.077  1.00  0.00    -0.347 N 
ATOM     10  H   UNL A   1      32.352  19.674  23.194  1.00  0.00     0.345 HD
ATOM     11  H   UNL A   1      32.781  20.942  22.204  1.00  0.00     0.345 HD
ATOM     12  H   UNL A   1      31.349  20.995  23.052  1.00  0.00     0.345 HD
ENDBRANCH   8   9
BRANCH   8  13
ATOM     13  C   UNL A   1      32.293  22.020  25.332  1.00  0.00     0.086 C 
BRANCH  13  14
ATOM     14  C   UNL A   1      31.869  23.549  25.106  1.00  0.00     0.076 C 
BRANCH  14  15
ATOM     15  S   UNL A   1      30.626  24.723  24.021  1.00  0.00    -0.158 SA
BRANCH  15  16
ATOM     16  C   UNL A   1      30.990  26.660  23.422  1.00  0.00     0.052 C 
ATOM     17  C   UNL A   1      31.815  27.433  24.439  1.00  0.00     0.043 C 
ATOM     18  C   UNL A   1      30.339  27.679  22.395  1.00  0.00     0.052 C 
ATOM     19  C   UNL A   1      31.463  28.924  24.577  1.00  0.00     0.162 C 
ATOM     20  C   UNL A   1      29.656  28.988  22.907  1.00  0.00     0.095 C 
ATOM     21  O   UNL A   1      30.180  29.381  24.178  1.00  0.00    -0.372 OA
ATOM     22  C   UNL A   1      29.821  30.154  21.907  1.00  0.00     0.066 C 
ATOM     23  C   UNL A   1      28.095  28.985  23.030  1.00  0.00     0.195 C 
ATOM     24  C   UNL A   1      28.443  30.399  21.320  1.00  0.00     0.163 C 
ATOM     25  O   UNL A   1      27.567  30.168  22.410  1.00  0.00    -0.378 OA
ENDBRANCH  15  16
ENDBRANCH  14  15
ENDBRANCH  13  14
ENDBRANCH   8  13
ENDBRANCH   5   8
ENDBRANCH   3   4
ENDBRANCH   2   3
ENDBRANCH   1   2
BRANCH   1  26
ATOM     26  C   UNL A   1      38.492  21.886  25.816  1.00  0.00     0.002 C 
BRANCH  26  27
ATOM     27  C   UNL A   1      39.748  22.080  26.648  1.00  0.00     0.021 C 
BRANCH  27  28
ATOM     28  C   UNL A   1      40.031  23.528  27.034  1.00  0.00     0.116 C 
BRANCH  28  29
ATOM     29  N   UNL A   1      40.731  24.264  25.994  1.00  0.00    -0.352 N 
ATOM     30  C   UNL A   1      41.197  25.555  26.057  1.00  0.00     0.251 C 
ATOM     31  H   UNL A   1      40.888  23.784  25.148  1.00  0.00     0.163 HD
ATOM     32  O   UNL A   1      41.628  26.123  25.055  1.00  0.00    -0.269 OA
BRANCH  30  33
ATOM     33  C   UNL A   1      41.136  26.258  27.354  1.00  0.00     0.039 A 
ATOM     34  C   UNL A   1      42.115  27.203  27.661  1.00  0.00     0.014 A 
ATOM     35  C   UNL A   1      40.049  26.050  28.210  1.00  0.00     0.014 A 
ATOM     36  C   UNL A   1      41.969  27.987  28.805  1.00  0.00     0.010 A 
ATOM     37  C   UNL A   1      39.863  26.894  29.300  1.00  0.00     0.010 A 
ATOM     38  C   UNL A   1      40.823  27.866  29.613  1.00  0.00    -0.014 A 
BRANCH  38  39
ATOM     39  C   UNL A   1      40.623  28.764  30.778  1.00  0.00     0.031 A 
ATOM     40  C   UNL A   1      41.485  28.625  32.004  1.00  0.00     0.074 A 
ATOM     41  C   UNL A   1      39.641  29.687  30.743  1.00  0.00     0.049 A 
ATOM     42  N   UNL A   1      41.492  29.352  33.091  1.00  0.00    -0.248 NA
ATOM     43  C   UNL A   1      42.446  27.510  32.021  1.00  0.00     0.031 C 
ATOM     44  C   UNL A   1      38.701  29.882  29.636  1.00  0.00     0.029 A 
ATOM     45  N   UNL A   1      39.278  30.645  31.657  1.00  0.00    -0.354 N 
ATOM     46  C   UNL A   1      42.447  28.779  33.923  1.00  0.00     0.074 A 
ATOM     47  C   UNL A   1      42.954  27.608  33.241  1.00  0.00     0.031 C 
ATOM     48  C   UNL A   1      37.909  30.932  29.910  1.00  0.00     0.029 A 
ATOM     49  C   UNL A   1      38.255  31.458  31.226  1.00  0.00     0.049 A 
ATOM     50  H   UNL A   1      39.708  30.741  32.537  1.00  0.00     0.167 HD
ATOM     51  C   UNL A   1      42.881  29.199  35.136  1.00  0.00     0.031 A 
ATOM     52  C   UNL A   1      37.670  32.518  31.818  1.00  0.00     0.031 A 
ATOM     53  C   UNL A   1      42.370  30.365  35.810  1.00  0.00     0.049 A 
ATOM     54  C   UNL A   1      38.163  32.964  33.167  1.00  0.00     0.074 A 
ATOM     55  C   UNL A   1      42.786  30.916  37.008  1.00  0.00     0.029 A 
ATOM     56  N   UNL A   1      41.322  31.149  35.352  1.00  0.00    -0.354 N 
ATOM     57  N   UNL A   1      39.133  32.465  33.897  1.00  0.00    -0.248 NA
ATOM     58  C   UNL A   1      37.490  34.123  33.765  1.00  0.00     0.031 C 
ATOM     59  C   UNL A   1      41.944  31.993  37.309  1.00  0.00     0.029 A 
ATOM     60  C   UNL A   1      41.049  32.156  36.262  1.00  0.00     0.049 A 
ATOM     61  H   UNL A   1      40.842  31.010  34.504  1.00  0.00     0.167 HD
ATOM     62  C   UNL A   1      39.200  33.264  35.033  1.00  0.00     0.074 A 
ATOM     63  C   UNL A   1      38.189  34.292  34.878  1.00  0.00     0.031 C 
ATOM     64  C   UNL A   1      40.024  33.157  36.106  1.00  0.00     0.031 A 
BRANCH  51  65
ATOM     65  C   UNL A   1      43.946  28.377  35.816  1.00  0.00    -0.014 A 
ATOM     66  C   UNL A   1      43.614  27.339  36.708  1.00  0.00     0.010 A 
ATOM     67  C   UNL A   1      45.302  28.636  35.549  1.00  0.00     0.010 A 
ATOM     68  C   UNL A   1      44.617  26.615  37.359  1.00  0.00     0.020 A 
ATOM     69  C   UNL A   1      46.308  27.892  36.173  1.00  0.00     0.020 A 
ATOM     70  C   UNL A   1      45.958  26.901  37.092  1.00  0.00     0.054 A 
BRANCH  70  71
ATOM     71  S   UNL A   1      47.238  25.946  37.950  1.00  0.00     0.124 S 
ATOM     72  O   UNL A   1      48.180  25.665  36.868  1.00  0.00    -0.237 OA
ATOM     73  O   UNL A   1      47.711  26.884  38.965  1.00  0.00    -0.237 OA
ATOM     74  O   UNL A   1      46.519  24.784  38.467  1.00  0.00    -0.744 OA
ENDBRANCH  70  71
ENDBRANCH  51  65
BRANCH  52  75
ATOM     75  C   UNL A   1      36.580  33.250  31.117  1.00  0.00    -0.014 A 
ATOM     76  C   UNL A   1      36.858  34.023  29.975  1.00  0.00     0.010 A 
ATOM     77  C   UNL A   1      35.251  33.159  31.571  1.00  0.00     0.010 A 
ATOM     78  C   UNL A   1      35.831  34.694  29.304  1.00  0.00     0.020 A 
ATOM     79  C   UNL A   1      34.217  33.804  30.886  1.00  0.00     0.020 A 
ATOM     80  C   UNL A   1      34.515  34.574  29.761  1.00  0.00     0.054 A 
BRANCH  80  81
ATOM     81  S   UNL A   1      33.190  35.396  28.833  1.00  0.00     0.124 S 
ATOM     82  O   UNL A   1      32.595  34.284  28.099  1.00  0.00    -0.237 OA
ATOM     83  O   UNL A   1      32.369  35.965  29.898  1.00  0.00    -0.237 OA
ATOM     84  O   UNL A   1      33.903  36.377  28.017  1.00  0.00    -0.744 OA
ENDBRANCH  80  81
ENDBRANCH  52  75
BRANCH  64  85
ATOM     85  C   UNL A   1      39.869  34.190  37.193  1.00  0.00    -0.014 A 
ATOM     86  C   UNL A   1      39.101  33.931  38.342  1.00  0.00     0.010 A 
ATOM     87  C   UNL A   1      40.522  35.430  37.072  1.00  0.00     0.010 A 
ATOM     88  C   UNL A   1      38.946  34.913  39.325  1.00  0.00     0.020 A 
ATOM     89  C   UNL A   1      40.398  36.401  38.069  1.00  0.00     0.020 A 
ATOM     90  C   UNL A   1      39.593  36.143  39.179  1.00  0.00     0.054 A 
BRANCH  90  91
ATOM     91  S   UNL A   1      39.387  37.395  40.475  1.00  0.00     0.124 S 
ATOM     92  O   UNL A   1      38.709  36.638  41.524  1.00  0.00    -0.237 OA
ATOM     93  O   UNL A   1      40.764  37.781  40.770  1.00  0.00    -0.237 OA
ATOM     94  O   UNL A   1      38.580  38.429  39.832  1.00  0.00    -0.744 OA
ENDBRANCH  90  91
ENDBRANCH  64  85
ENDBRANCH  38  39
ENDBRANCH  30  33
ENDBRANCH  28  29
ENDBRANCH  27  28
ENDBRANCH  26  27
ENDBRANCH   1  26
TORSDOF 21
ENDMDL
