MODEL 1
REMARK VINA RESULT:     -10.0      0.000      0.000
REMARK SMILES C#CCN(CC(=O)NCCCCCCNC(=O)c1ccc(-c2c3nc(c(-c4ccc(S(=O)(=O)[O-])cc4)c4ccc([nH]4)c(-c4ccc(S(=O)(=O)[O-])cc4)c4nc(c(-c5ccc(S(=O)(=O)[O-])cc5)c5ccc2[nH]5)C=C4)C=C3)cc1)C(=O)NCc1ccnc(C)n1
REMARK SMILES IDX 11 1 10 2 9 3 8 4 6 5 7 6 5 8 4 9 3 10 2 11 1 12 78 13 79 14
REMARK SMILES IDX 80 15 81 17 82 18 83 19 88 20 84 21 86 22 85 23 87 24 12 25
REMARK SMILES IDX 13 26 14 27 15 28 16 29 17 31 18 32 19 33 77 34 20 35 76 36
REMARK SMILES IDX 21 37 22 38 23 39 70 40 24 41 75 42 69 43 71 44 25 45 74 46
REMARK SMILES IDX 68 47 67 48 26 50 56 51 37 52 55 53 38 54 41 55 54 56 72 57
REMARK SMILES IDX 39 58 40 59 53 61 73 62 42 63 27 64 28 65 36 66 29 67 35 68
REMARK SMILES IDX 30 69 31 70 32 71 33 72 34 73 57 74 58 75 66 76 59 77 65 78
REMARK SMILES IDX 60 79 61 80 62 81 63 82 64 83 43 84 44 85 52 86 45 87 51 88
REMARK SMILES IDX 46 89 47 90 48 91 49 92 50 93
REMARK H PARENT 8 7 80 16 15 30 71 49 41 60
REMARK Flexibility Score: inf
ROOT
ATOM      1  C   UNL A   1      37.498  22.134  24.818  1.00  0.00     0.002 C 
ENDROOT
BRANCH   1   2
ATOM      2  C   UNL A   1      36.473  21.011  25.020  1.00  0.00     0.021 C 
BRANCH   2   3
ATOM      3  C   UNL A   1      35.136  21.469  25.598  1.00  0.00     0.116 C 
BRANCH   3   4
ATOM      4  N   UNL A   1      34.034  20.606  25.235  1.00  0.00    -0.355 N 
ATOM      5  C   UNL A   1      33.062  20.796  24.297  1.00  0.00     0.239 C 
ATOM      6  O   UNL A   1      32.487  19.789  23.871  1.00  0.00    -0.273 OA
ATOM      7  H   UNL A   1      33.978  19.761  25.735  1.00  0.00     0.163 HD
BRANCH   5   8
ATOM      8  C   UNL A   1      32.791  22.168  23.658  1.00  0.00     0.222 C 
BRANCH   8   9
ATOM      9  N   UNL A   1      31.848  23.033  24.360  1.00  0.00    -0.304 N 
BRANCH   9  10
ATOM     10  C   UNL A   1      30.794  23.635  23.539  1.00  0.00     0.211 C 
BRANCH  10  11
ATOM     11  C   UNL A   1      31.313  24.789  22.697  1.00  0.00    -0.085 C 
ATOM     12  C   UNL A   1      31.757  25.780  21.974  1.00  0.00     0.006 C 
ENDBRANCH  10  11
ENDBRANCH   9  10
BRANCH   9  13
ATOM     13  C   UNL A   1      31.783  23.281  25.698  1.00  0.00     0.318 C 
ATOM     14  O   UNL A   1      30.925  22.753  26.415  1.00  0.00    -0.249 OA
ATOM     15  N   UNL A   1      32.604  24.104  26.362  1.00  0.00    -0.332 N 
ATOM     16  H   UNL A   1      32.455  24.031  27.333  1.00  0.00     0.165 HD
BRANCH  15  17
ATOM     17  C   UNL A   1      33.650  25.073  26.077  1.00  0.00     0.174 C 
BRANCH  17  18
ATOM     18  C   UNL A   1      33.140  26.414  25.587  1.00  0.00     0.063 A 
ATOM     19  C   UNL A   1      32.039  27.040  26.141  1.00  0.00     0.046 A 
ATOM     20  N   UNL A   1      33.836  26.976  24.572  1.00  0.00    -0.236 NA
ATOM     21  C   UNL A   1      31.683  28.252  25.596  1.00  0.00     0.115 A 
ATOM     22  C   UNL A   1      33.394  28.155  24.092  1.00  0.00     0.125 A 
ATOM     23  N   UNL A   1      32.335  28.828  24.573  1.00  0.00    -0.242 NA
ATOM     24  C   UNL A   1      34.121  28.740  22.922  1.00  0.00     0.089 C 
ENDBRANCH  17  18
ENDBRANCH  15  17
ENDBRANCH   9  13
ENDBRANCH   8   9
ENDBRANCH   5   8
ENDBRANCH   3   4
ENDBRANCH   2   3
ENDBRANCH   1   2
BRANCH   1  25
ATOM     25  C   UNL A   1      38.179  22.643  26.094  1.00  0.00     0.002 C 
BRANCH  25  26
ATOM     26  C   UNL A   1      39.613  22.153  26.319  1.00  0.00     0.021 C 
BRANCH  26  27
ATOM     27  C   UNL A   1      40.546  23.170  26.966  1.00  0.00     0.116 C 
BRANCH  27  28
ATOM     28  N   UNL A   1      41.343  23.878  25.979  1.00  0.00    -0.352 N 
ATOM     29  C   UNL A   1      41.730  25.191  25.954  1.00  0.00     0.251 C 
ATOM     30  H   UNL A   1      41.648  23.334  25.218  1.00  0.00     0.163 HD
ATOM     31  O   UNL A   1      42.224  25.652  24.920  1.00  0.00    -0.269 OA
BRANCH  29  32
ATOM     32  C   UNL A   1      41.561  26.059  27.140  1.00  0.00     0.039 A 
ATOM     33  C   UNL A   1      40.486  25.818  28.000  1.00  0.00     0.014 A 
ATOM     34  C   UNL A   1      42.409  27.145  27.375  1.00  0.00     0.014 A 
ATOM     35  C   UNL A   1      40.273  26.651  29.102  1.00  0.00     0.010 A 
ATOM     36  C   UNL A   1      42.236  27.934  28.511  1.00  0.00     0.010 A 
ATOM     37  C   UNL A   1      41.150  27.712  29.372  1.00  0.00    -0.014 A 
BRANCH  37  38
ATOM     38  C   UNL A   1      40.908  28.632  30.513  1.00  0.00     0.031 A 
ATOM     39  C   UNL A   1      41.738  28.508  31.766  1.00  0.00     0.074 A 
ATOM     40  C   UNL A   1      39.927  29.553  30.441  1.00  0.00     0.049 A 
ATOM     41  N   UNL A   1      41.660  29.194  32.878  1.00  0.00    -0.248 NA
ATOM     42  C   UNL A   1      42.775  27.461  31.783  1.00  0.00     0.031 C 
ATOM     43  C   UNL A   1      39.025  29.745  29.302  1.00  0.00     0.029 A 
ATOM     44  N   UNL A   1      39.520  30.500  31.348  1.00  0.00    -0.354 N 
ATOM     45  C   UNL A   1      42.613  28.647  33.731  1.00  0.00     0.074 A 
ATOM     46  C   UNL A   1      43.231  27.547  33.024  1.00  0.00     0.031 C 
ATOM     47  C   UNL A   1      38.186  30.760  29.572  1.00  0.00     0.029 A 
ATOM     48  C   UNL A   1      38.470  31.272  30.909  1.00  0.00     0.049 A 
ATOM     49  H   UNL A   1      39.941  30.615  32.230  1.00  0.00     0.167 HD
ATOM     50  C   UNL A   1      42.958  29.036  34.981  1.00  0.00     0.031 A 
ATOM     51  C   UNL A   1      37.812  32.280  31.514  1.00  0.00     0.031 A 
ATOM     52  C   UNL A   1      42.374  30.157  35.667  1.00  0.00     0.049 A 
ATOM     53  C   UNL A   1      38.248  32.720  32.888  1.00  0.00     0.074 A 
ATOM     54  C   UNL A   1      42.703  30.672  36.909  1.00  0.00     0.029 A 
ATOM     55  N   UNL A   1      41.349  30.943  35.166  1.00  0.00    -0.354 N 
ATOM     56  N   UNL A   1      39.198  32.230  33.647  1.00  0.00    -0.248 NA
ATOM     57  C   UNL A   1      37.538  33.866  33.472  1.00  0.00     0.031 C 
ATOM     58  C   UNL A   1      41.851  31.749  37.175  1.00  0.00     0.029 A 
ATOM     59  C   UNL A   1      41.029  31.935  36.077  1.00  0.00     0.049 A 
ATOM     60  H   UNL A   1      40.914  30.815  34.292  1.00  0.00     0.167 HD
ATOM     61  C   UNL A   1      39.227  33.036  34.781  1.00  0.00     0.074 A 
ATOM     62  C   UNL A   1      38.208  34.049  34.602  1.00  0.00     0.031 C 
ATOM     63  C   UNL A   1      40.026  32.948  35.872  1.00  0.00     0.031 A 
BRANCH  50  64
ATOM     64  C   UNL A   1      44.026  28.250  35.696  1.00  0.00    -0.014 A 
ATOM     65  C   UNL A   1      43.700  27.136  36.490  1.00  0.00     0.010 A 
ATOM     66  C   UNL A   1      45.379  28.584  35.507  1.00  0.00     0.010 A 
ATOM     67  C   UNL A   1      44.706  26.381  37.097  1.00  0.00     0.020 A 
ATOM     68  C   UNL A   1      46.391  27.816  36.091  1.00  0.00     0.020 A 
ATOM     69  C   UNL A   1      46.047  26.724  36.891  1.00  0.00     0.054 A 
BRANCH  69  70
ATOM     70  S   UNL A   1      47.335  25.690  37.641  1.00  0.00     0.124 S 
ATOM     71  O   UNL A   1      48.510  26.054  36.852  1.00  0.00    -0.237 OA
ATOM     72  O   UNL A   1      47.345  26.145  39.029  1.00  0.00    -0.237 OA
ATOM     73  O   UNL A   1      46.847  24.328  37.439  1.00  0.00    -0.744 OA
ENDBRANCH  69  70
ENDBRANCH  50  64
BRANCH  51  74
ATOM     74  C   UNL A   1      36.680  32.961  30.828  1.00  0.00    -0.014 A 
ATOM     75  C   UNL A   1      36.920  33.907  29.815  1.00  0.00     0.010 A 
ATOM     76  C   UNL A   1      35.354  32.694  31.213  1.00  0.00     0.010 A 
ATOM     77  C   UNL A   1      35.859  34.607  29.232  1.00  0.00     0.020 A 
ATOM     78  C   UNL A   1      34.289  33.369  30.611  1.00  0.00     0.020 A 
ATOM     79  C   UNL A   1      34.550  34.338  29.640  1.00  0.00     0.054 A 
BRANCH  79  80
ATOM     80  S   UNL A   1      33.184  35.251  28.870  1.00  0.00     0.124 S 
ATOM     81  O   UNL A   1      32.430  35.704  30.034  1.00  0.00    -0.237 OA
ATOM     82  O   UNL A   1      33.880  36.295  28.122  1.00  0.00    -0.237 OA
ATOM     83  O   UNL A   1      32.522  34.241  28.046  1.00  0.00    -0.744 OA
ENDBRANCH  79  80
ENDBRANCH  51  74
BRANCH  63  84
ATOM     84  C   UNL A   1      39.880  34.013  36.925  1.00  0.00    -0.014 A 
ATOM     85  C   UNL A   1      40.598  35.220  36.855  1.00  0.00     0.010 A 
ATOM     86  C   UNL A   1      38.983  33.808  37.989  1.00  0.00     0.010 A 
ATOM     87  C   UNL A   1      40.456  36.183  37.858  1.00  0.00     0.020 A 
ATOM     88  C   UNL A   1      38.816  34.780  38.977  1.00  0.00     0.020 A 
ATOM     89  C   UNL A   1      39.571  35.954  38.916  1.00  0.00     0.054 A 
BRANCH  89  90
ATOM     90  S   UNL A   1      39.392  37.222  40.200  1.00  0.00     0.124 S 
ATOM     91  O   UNL A   1      38.727  38.299  39.472  1.00  0.00    -0.237 OA
ATOM     92  O   UNL A   1      38.577  36.549  41.208  1.00  0.00    -0.237 OA
ATOM     93  O   UNL A   1      40.768  37.500  40.605  1.00  0.00    -0.744 OA
ENDBRANCH  89  90
ENDBRANCH  63  84
ENDBRANCH  37  38
ENDBRANCH  29  32
ENDBRANCH  27  28
ENDBRANCH  26  27
ENDBRANCH  25  26
ENDBRANCH   1  25
TORSDOF 22
ENDMDL
MODEL 2
REMARK VINA RESULT:     -10.0      6.118     12.010
REMARK SMILES C#CCN(CC(=O)NCCCCCCNC(=O)c1ccc(-c2c3nc(c(-c4ccc(S(=O)(=O)[O-])cc4)c4ccc([nH]4)c(-c4ccc(S(=O)(=O)[O-])cc4)c4nc(c(-c5ccc(S(=O)(=O)[O-])cc5)c5ccc2[nH]5)C=C4)C=C3)cc1)C(=O)NCc1ccnc(C)n1
REMARK SMILES IDX 11 1 10 2 9 3 8 4 6 5 7 6 5 8 4 9 3 10 2 11 1 12 78 13 79 14
REMARK SMILES IDX 80 15 81 17 82 18 83 19 88 20 84 21 86 22 85 23 87 24 12 25
REMARK SMILES IDX 13 26 14 27 15 28 16 29 17 31 18 32 19 33 77 34 20 35 76 36
REMARK SMILES IDX 21 37 22 38 23 39 70 40 24 41 75 42 69 43 71 44 25 45 74 46
REMARK SMILES IDX 68 47 67 48 26 50 56 51 37 52 55 53 38 54 41 55 54 56 72 57
REMARK SMILES IDX 39 58 40 59 53 61 73 62 42 63 27 64 28 65 36 66 29 67 35 68
REMARK SMILES IDX 30 69 31 70 32 71 33 72 34 73 57 74 58 75 66 76 59 77 65 78
REMARK SMILES IDX 60 79 61 80 62 81 63 82 64 83 43 84 44 85 52 86 45 87 51 88
REMARK SMILES IDX 46 89 47 90 48 91 49 92 50 93
REMARK H PARENT 8 7 80 16 15 30 71 49 41 60
REMARK Flexibility Score: inf
ROOT
ATOM      1  C   UNL A   1      33.065  31.340  27.306  1.00  0.00     0.002 C 
ENDROOT
BRANCH   1   2
ATOM      2  C   UNL A   1      32.439  29.986  26.954  1.00  0.00     0.021 C 
BRANCH   2   3
ATOM      3  C   UNL A   1      32.109  29.804  25.475  1.00  0.00     0.116 C 
BRANCH   3   4
ATOM      4  N   UNL A   1      33.283  29.664  24.643  1.00  0.00    -0.355 N 
ATOM      5  C   UNL A   1      33.715  28.582  23.933  1.00  0.00     0.239 C 
ATOM      6  O   UNL A   1      34.483  28.797  22.990  1.00  0.00    -0.273 OA
ATOM      7  H   UNL A   1      33.852  30.465  24.578  1.00  0.00     0.163 HD
BRANCH   5   8
ATOM      8  C   UNL A   1      33.154  27.169  24.165  1.00  0.00     0.222 C 
BRANCH   8   9
ATOM      9  N   UNL A   1      32.378  26.595  23.070  1.00  0.00    -0.304 N 
BRANCH   9  10
ATOM     10  C   UNL A   1      31.075  27.213  22.813  1.00  0.00     0.211 C 
BRANCH  10  11
ATOM     11  C   UNL A   1      30.001  26.703  23.759  1.00  0.00    -0.085 C 
ATOM     12  C   UNL A   1      29.079  26.265  24.571  1.00  0.00     0.006 C 
ENDBRANCH  10  11
ENDBRANCH   9  10
BRANCH   9  13
ATOM     13  C   UNL A   1      32.755  25.608  22.210  1.00  0.00     0.318 C 
ATOM     14  O   UNL A   1      33.545  25.823  21.283  1.00  0.00    -0.249 OA
ATOM     15  N   UNL A   1      32.320  24.343  22.262  1.00  0.00    -0.332 N 
ATOM     16  H   UNL A   1      32.820  23.779  21.627  1.00  0.00     0.165 HD
BRANCH  15  17
ATOM     17  C   UNL A   1      31.330  23.553  22.976  1.00  0.00     0.174 C 
BRANCH  17  18
ATOM     18  C   UNL A   1      31.815  22.995  24.299  1.00  0.00     0.063 A 
ATOM     19  C   UNL A   1      31.918  23.768  25.442  1.00  0.00     0.046 A 
ATOM     20  N   UNL A   1      32.137  21.681  24.304  1.00  0.00    -0.236 NA
ATOM     21  C   UNL A   1      32.377  23.135  26.573  1.00  0.00     0.115 A 
ATOM     22  C   UNL A   1      32.599  21.158  25.457  1.00  0.00     0.125 A 
ATOM     23  N   UNL A   1      32.729  21.839  26.609  1.00  0.00    -0.242 NA
ATOM     24  C   UNL A   1      33.023  19.723  25.442  1.00  0.00     0.089 C 
ENDBRANCH  17  18
ENDBRANCH  15  17
ENDBRANCH   9  13
ENDBRANCH   8   9
ENDBRANCH   5   8
ENDBRANCH   3   4
ENDBRANCH   2   3
ENDBRANCH   1   2
BRANCH   1  25
ATOM     25  C   UNL A   1      34.586  31.332  27.508  1.00  0.00     0.002 C 
BRANCH  25  26
ATOM     26  C   UNL A   1      35.166  32.563  28.210  1.00  0.00     0.021 C 
BRANCH  26  27
ATOM     27  C   UNL A   1      36.376  32.288  29.096  1.00  0.00     0.116 C 
BRANCH  27  28
ATOM     28  N   UNL A   1      36.023  31.500  30.263  1.00  0.00    -0.352 N 
ATOM     29  C   UNL A   1      36.610  30.365  30.756  1.00  0.00     0.251 C 
ATOM     30  H   UNL A   1      35.250  31.830  30.774  1.00  0.00     0.163 HD
ATOM     31  O   UNL A   1      36.030  29.723  31.637  1.00  0.00    -0.269 OA
BRANCH  29  32
ATOM     32  C   UNL A   1      37.917  29.899  30.245  1.00  0.00     0.039 A 
ATOM     33  C   UNL A   1      38.913  29.551  31.163  1.00  0.00     0.014 A 
ATOM     34  C   UNL A   1      38.193  29.864  28.874  1.00  0.00     0.014 A 
ATOM     35  C   UNL A   1      40.173  29.153  30.709  1.00  0.00     0.010 A 
ATOM     36  C   UNL A   1      39.428  29.401  28.422  1.00  0.00     0.010 A 
ATOM     37  C   UNL A   1      40.440  29.067  29.334  1.00  0.00    -0.014 A 
BRANCH  37  38
ATOM     38  C   UNL A   1      41.789  28.689  28.840  1.00  0.00     0.031 A 
ATOM     39  C   UNL A   1      42.878  29.730  28.761  1.00  0.00     0.074 A 
ATOM     40  C   UNL A   1      42.030  27.428  28.432  1.00  0.00     0.049 A 
ATOM     41  N   UNL A   1      44.108  29.606  28.330  1.00  0.00    -0.248 NA
ATOM     42  C   UNL A   1      42.534  31.094  29.200  1.00  0.00     0.031 C 
ATOM     43  C   UNL A   1      41.049  26.339  28.416  1.00  0.00     0.029 A 
ATOM     44  N   UNL A   1      43.176  26.847  27.946  1.00  0.00    -0.354 N 
ATOM     45  C   UNL A   1      44.672  30.874  28.420  1.00  0.00     0.074 A 
ATOM     46  C   UNL A   1      43.641  31.762  28.909  1.00  0.00     0.031 C 
ATOM     47  C   UNL A   1      41.641  25.220  27.965  1.00  0.00     0.029 A 
ATOM     48  C   UNL A   1      43.032  25.516  27.633  1.00  0.00     0.049 A 
ATOM     49  H   UNL A   1      44.020  27.339  27.833  1.00  0.00     0.167 HD
ATOM     50  C   UNL A   1      45.939  31.262  28.141  1.00  0.00     0.031 A 
ATOM     51  C   UNL A   1      43.921  24.633  27.138  1.00  0.00     0.031 A 
ATOM     52  C   UNL A   1      46.976  30.370  27.697  1.00  0.00     0.049 A 
ATOM     53  C   UNL A   1      45.335  25.083  26.878  1.00  0.00     0.074 A 
ATOM     54  C   UNL A   1      48.308  30.654  27.453  1.00  0.00     0.029 A 
ATOM     55  N   UNL A   1      46.801  29.019  27.441  1.00  0.00    -0.354 N 
ATOM     56  N   UNL A   1      45.863  26.273  27.036  1.00  0.00    -0.248 NA
ATOM     57  C   UNL A   1      46.278  24.062  26.401  1.00  0.00     0.031 C 
ATOM     58  C   UNL A   1      48.932  29.482  27.014  1.00  0.00     0.029 A 
ATOM     59  C   UNL A   1      47.999  28.458  27.036  1.00  0.00     0.049 A 
ATOM     60  H   UNL A   1      45.951  28.532  27.535  1.00  0.00     0.167 HD
ATOM     61  C   UNL A   1      47.210  26.132  26.717  1.00  0.00     0.074 A 
ATOM     62  C   UNL A   1      47.416  24.742  26.369  1.00  0.00     0.031 C 
ATOM     63  C   UNL A   1      48.190  27.068  26.713  1.00  0.00     0.031 A 
BRANCH  50  64
ATOM     64  C   UNL A   1      46.287  32.717  28.314  1.00  0.00    -0.014 A 
ATOM     65  C   UNL A   1      46.246  33.608  27.227  1.00  0.00     0.010 A 
ATOM     66  C   UNL A   1      46.579  33.214  29.596  1.00  0.00     0.010 A 
ATOM     67  C   UNL A   1      46.513  34.967  27.415  1.00  0.00     0.020 A 
ATOM     68  C   UNL A   1      46.821  34.577  29.795  1.00  0.00     0.020 A 
ATOM     69  C   UNL A   1      46.795  35.444  28.700  1.00  0.00     0.054 A 
BRANCH  69  70
ATOM     70  S   UNL A   1      47.076  37.222  28.925  1.00  0.00     0.124 S 
ATOM     71  O   UNL A   1      45.758  37.681  29.358  1.00  0.00    -0.237 OA
ATOM     72  O   UNL A   1      48.119  37.255  29.947  1.00  0.00    -0.237 OA
ATOM     73  O   UNL A   1      47.489  37.678  27.601  1.00  0.00    -0.744 OA
ENDBRANCH  69  70
ENDBRANCH  50  64
BRANCH  51  74
ATOM     74  C   UNL A   1      43.515  23.227  26.865  1.00  0.00    -0.014 A 
ATOM     75  C   UNL A   1      43.075  22.392  27.907  1.00  0.00     0.010 A 
ATOM     76  C   UNL A   1      43.603  22.704  25.561  1.00  0.00     0.010 A 
ATOM     77  C   UNL A   1      42.776  21.049  27.662  1.00  0.00     0.020 A 
ATOM     78  C   UNL A   1      43.275  21.370  25.307  1.00  0.00     0.020 A 
ATOM     79  C   UNL A   1      42.885  20.544  26.363  1.00  0.00     0.054 A 
BRANCH  79  80
ATOM     80  S   UNL A   1      42.488  18.800  26.061  1.00  0.00     0.124 S 
ATOM     81  O   UNL A   1      41.085  18.874  25.666  1.00  0.00    -0.237 OA
ATOM     82  O   UNL A   1      43.426  18.438  25.000  1.00  0.00    -0.237 OA
ATOM     83  O   UNL A   1      42.744  18.164  27.352  1.00  0.00    -0.744 OA
ENDBRANCH  79  80
ENDBRANCH  51  74
BRANCH  63  84
ATOM     84  C   UNL A   1      49.586  26.608  26.390  1.00  0.00    -0.014 A 
ATOM     85  C   UNL A   1      50.093  26.660  25.080  1.00  0.00     0.010 A 
ATOM     86  C   UNL A   1      50.413  26.141  27.428  1.00  0.00     0.010 A 
ATOM     87  C   UNL A   1      51.387  26.207  24.807  1.00  0.00     0.020 A 
ATOM     88  C   UNL A   1      51.716  25.716  27.165  1.00  0.00     0.020 A 
ATOM     89  C   UNL A   1      52.187  25.732  25.850  1.00  0.00     0.054 A 
BRANCH  89  90
ATOM     90  S   UNL A   1      53.868  25.162  25.476  1.00  0.00     0.124 S 
ATOM     91  O   UNL A   1      54.426  26.310  24.767  1.00  0.00    -0.237 OA
ATOM     92  O   UNL A   1      54.427  24.911  26.803  1.00  0.00    -0.237 OA
ATOM     93  O   UNL A   1      53.655  23.968  24.661  1.00  0.00    -0.744 OA
ENDBRANCH  89  90
ENDBRANCH  63  84
ENDBRANCH  37  38
ENDBRANCH  29  32
ENDBRANCH  27  28
ENDBRANCH  26  27
ENDBRANCH  25  26
ENDBRANCH   1  25
TORSDOF 22
ENDMDL
MODEL 3
REMARK VINA RESULT:      -9.8      2.474      8.088
REMARK SMILES C#CCN(CC(=O)NCCCCCCNC(=O)c1ccc(-c2c3nc(c(-c4ccc(S(=O)(=O)[O-])cc4)c4ccc([nH]4)c(-c4ccc(S(=O)(=O)[O-])cc4)c4nc(c(-c5ccc(S(=O)(=O)[O-])cc5)c5ccc2[nH]5)C=C4)C=C3)cc1)C(=O)NCc1ccnc(C)n1
REMARK SMILES IDX 11 1 10 2 9 3 8 4 6 5 7 6 5 8 4 9 3 10 2 11 1 12 78 13 79 14
REMARK SMILES IDX 80 15 81 17 82 18 83 19 88 20 84 21 86 22 85 23 87 24 12 25
REMARK SMILES IDX 13 26 14 27 15 28 16 29 17 31 18 32 19 33 77 34 20 35 76 36
REMARK SMILES IDX 21 37 22 38 23 39 70 40 24 41 75 42 69 43 71 44 25 45 74 46
REMARK SMILES IDX 68 47 67 48 26 50 56 51 37 52 55 53 38 54 41 55 54 56 72 57
REMARK SMILES IDX 39 58 40 59 53 61 73 62 42 63 27 64 28 65 36 66 29 67 35 68
REMARK SMILES IDX 30 69 31 70 32 71 33 72 34 73 57 74 58 75 66 76 59 77 65 78
REMARK SMILES IDX 60 79 61 80 62 81 63 82 64 83 43 84 44 85 52 86 45 87 51 88
REMARK SMILES IDX 46 89 47 90 48 91 49 92 50 93
REMARK H PARENT 8 7 80 16 15 30 71 49 41 60
REMARK Flexibility Score: inf
ROOT
ATOM      1  C   UNL A   1      32.881  28.745  26.803  1.00  0.00     0.002 C 
ENDROOT
BRANCH   1   2
ATOM      2  C   UNL A   1      33.834  27.850  26.003  1.00  0.00     0.021 C 
BRANCH   2   3
ATOM      3  C   UNL A   1      33.572  26.353  26.151  1.00  0.00     0.116 C 
BRANCH   3   4
ATOM      4  N   UNL A   1      34.253  25.555  25.157  1.00  0.00    -0.355 N 
ATOM      5  C   UNL A   1      34.232  24.204  24.972  1.00  0.00     0.239 C 
ATOM      6  O   UNL A   1      34.535  23.784  23.850  1.00  0.00    -0.273 OA
ATOM      7  H   UNL A   1      34.812  26.058  24.522  1.00  0.00     0.163 HD
BRANCH   5   8
ATOM      8  C   UNL A   1      33.696  23.235  26.038  1.00  0.00     0.222 C 
BRANCH   8   9
ATOM      9  N   UNL A   1      32.336  22.742  25.837  1.00  0.00    -0.304 N 
BRANCH   9  10
ATOM     10  C   UNL A   1      32.214  21.336  25.446  1.00  0.00     0.211 C 
BRANCH  10  11
ATOM     11  C   UNL A   1      32.164  21.163  23.936  1.00  0.00    -0.085 C 
ATOM     12  C   UNL A   1      32.121  21.014  22.642  1.00  0.00     0.006 C 
ENDBRANCH  10  11
ENDBRANCH   9  10
BRANCH   9  13
ATOM     13  C   UNL A   1      31.168  23.411  26.049  1.00  0.00     0.318 C 
ATOM     14  O   UNL A   1      30.573  23.350  27.131  1.00  0.00    -0.249 OA
ATOM     15  N   UNL A   1      30.549  24.172  25.138  1.00  0.00    -0.332 N 
ATOM     16  H   UNL A   1      29.796  24.657  25.548  1.00  0.00     0.165 HD
BRANCH  15  17
ATOM     17  C   UNL A   1      30.658  24.497  23.725  1.00  0.00     0.174 C 
BRANCH  17  18
ATOM     18  C   UNL A   1      30.905  25.964  23.440  1.00  0.00     0.063 A 
ATOM     19  C   UNL A   1      29.946  26.938  23.657  1.00  0.00     0.046 A 
ATOM     20  N   UNL A   1      32.133  26.276  22.965  1.00  0.00    -0.236 NA
ATOM     21  C   UNL A   1      30.302  28.230  23.351  1.00  0.00     0.115 A 
ATOM     22  C   UNL A   1      32.377  27.569  22.674  1.00  0.00     0.125 A 
ATOM     23  N   UNL A   1      31.502  28.573  22.855  1.00  0.00    -0.242 NA
ATOM     24  C   UNL A   1      33.710  27.901  22.080  1.00  0.00     0.089 C 
ENDBRANCH  17  18
ENDBRANCH  15  17
ENDBRANCH   9  13
ENDBRANCH   8   9
ENDBRANCH   5   8
ENDBRANCH   3   4
ENDBRANCH   2   3
ENDBRANCH   1   2
BRANCH   1  25
ATOM     25  C   UNL A   1      32.285  29.929  26.031  1.00  0.00     0.002 C 
BRANCH  25  26
ATOM     26  C   UNL A   1      32.003  31.185  26.862  1.00  0.00     0.021 C 
BRANCH  26  27
ATOM     27  C   UNL A   1      33.242  31.951  27.310  1.00  0.00     0.116 C 
BRANCH  27  28
ATOM     28  N   UNL A   1      32.912  33.288  27.773  1.00  0.00    -0.352 N 
ATOM     29  C   UNL A   1      33.470  34.020  28.787  1.00  0.00     0.251 C 
ATOM     30  H   UNL A   1      32.182  33.732  27.287  1.00  0.00     0.163 HD
ATOM     31  O   UNL A   1      32.907  35.051  29.165  1.00  0.00    -0.269 OA
BRANCH  29  32
ATOM     32  C   UNL A   1      34.728  33.588  29.436  1.00  0.00     0.039 A 
ATOM     33  C   UNL A   1      34.669  32.608  30.431  1.00  0.00     0.014 A 
ATOM     34  C   UNL A   1      35.953  34.185  29.120  1.00  0.00     0.014 A 
ATOM     35  C   UNL A   1      35.834  32.215  31.094  1.00  0.00     0.010 A 
ATOM     36  C   UNL A   1      37.124  33.743  29.734  1.00  0.00     0.010 A 
ATOM     37  C   UNL A   1      37.074  32.773  30.747  1.00  0.00    -0.014 A 
BRANCH  37  38
ATOM     38  C   UNL A   1      38.312  32.397  31.476  1.00  0.00     0.031 A 
ATOM     39  C   UNL A   1      39.245  31.368  30.890  1.00  0.00     0.074 A 
ATOM     40  C   UNL A   1      38.584  32.950  32.674  1.00  0.00     0.049 A 
ATOM     41  N   UNL A   1      40.356  30.884  31.385  1.00  0.00    -0.248 NA
ATOM     42  C   UNL A   1      38.870  30.786  29.589  1.00  0.00     0.031 C 
ATOM     43  C   UNL A   1      37.740  33.925  33.371  1.00  0.00     0.029 A 
ATOM     44  N   UNL A   1      39.648  32.768  33.524  1.00  0.00    -0.354 N 
ATOM     45  C   UNL A   1      40.794  29.928  30.474  1.00  0.00     0.074 A 
ATOM     46  C   UNL A   1      39.812  29.870  29.416  1.00  0.00     0.031 C 
ATOM     47  C   UNL A   1      38.329  34.269  34.529  1.00  0.00     0.029 A 
ATOM     48  C   UNL A   1      39.575  33.522  34.672  1.00  0.00     0.049 A 
ATOM     49  H   UNL A   1      40.392  32.155  33.328  1.00  0.00     0.167 HD
ATOM     50  C   UNL A   1      41.922  29.180  30.505  1.00  0.00     0.031 A 
ATOM     51  C   UNL A   1      40.418  33.603  35.719  1.00  0.00     0.031 A 
ATOM     52  C   UNL A   1      42.921  29.269  31.536  1.00  0.00     0.049 A 
ATOM     53  C   UNL A   1      41.687  32.792  35.705  1.00  0.00     0.074 A 
ATOM     54  C   UNL A   1      44.132  28.602  31.620  1.00  0.00     0.029 A 
ATOM     55  N   UNL A   1      42.832  30.082  32.654  1.00  0.00    -0.354 N 
ATOM     56  N   UNL A   1      42.113  31.945  34.799  1.00  0.00    -0.248 NA
ATOM     57  C   UNL A   1      42.600  32.971  36.842  1.00  0.00     0.031 C 
ATOM     58  C   UNL A   1      44.759  28.986  32.811  1.00  0.00     0.029 A 
ATOM     59  C   UNL A   1      43.963  29.929  33.438  1.00  0.00     0.049 A 
ATOM     60  H   UNL A   1      42.079  30.680  32.860  1.00  0.00     0.167 HD
ATOM     61  C   UNL A   1      43.364  31.522  35.238  1.00  0.00     0.074 A 
ATOM     62  C   UNL A   1      43.628  32.214  36.482  1.00  0.00     0.031 C 
ATOM     63  C   UNL A   1      44.219  30.642  34.663  1.00  0.00     0.031 A 
BRANCH  50  64
ATOM     64  C   UNL A   1      42.150  28.198  29.386  1.00  0.00    -0.014 A 
ATOM     65  C   UNL A   1      41.590  26.909  29.425  1.00  0.00     0.010 A 
ATOM     66  C   UNL A   1      42.866  28.600  28.244  1.00  0.00     0.010 A 
ATOM     67  C   UNL A   1      41.760  26.031  28.351  1.00  0.00     0.020 A 
ATOM     68  C   UNL A   1      43.016  27.734  27.156  1.00  0.00     0.020 A 
ATOM     69  C   UNL A   1      42.470  26.451  27.221  1.00  0.00     0.054 A 
BRANCH  69  70
ATOM     70  S   UNL A   1      42.621  25.313  25.816  1.00  0.00     0.124 S 
ATOM     71  O   UNL A   1      42.346  26.195  24.684  1.00  0.00    -0.237 OA
ATOM     72  O   UNL A   1      44.001  24.846  25.928  1.00  0.00    -0.237 OA
ATOM     73  O   UNL A   1      41.601  24.301  26.079  1.00  0.00    -0.744 OA
ENDBRANCH  69  70
ENDBRANCH  50  64
BRANCH  51  74
ATOM     74  C   UNL A   1      40.107  34.496  36.870  1.00  0.00    -0.014 A 
ATOM     75  C   UNL A   1      39.399  34.011  37.983  1.00  0.00     0.010 A 
ATOM     76  C   UNL A   1      40.487  35.851  36.839  1.00  0.00     0.010 A 
ATOM     77  C   UNL A   1      39.035  34.872  39.023  1.00  0.00     0.020 A 
ATOM     78  C   UNL A   1      40.151  36.708  37.890  1.00  0.00     0.020 A 
ATOM     79  C   UNL A   1      39.407  36.218  38.966  1.00  0.00     0.054 A 
BRANCH  79  80
ATOM     80  S   UNL A   1      38.932  37.321  40.325  1.00  0.00     0.124 S 
ATOM     81  O   UNL A   1      38.225  38.384  39.618  1.00  0.00    -0.237 OA
ATOM     82  O   UNL A   1      38.102  36.457  41.162  1.00  0.00    -0.237 OA
ATOM     83  O   UNL A   1      40.212  37.704  40.916  1.00  0.00    -0.744 OA
ENDBRANCH  79  80
ENDBRANCH  51  74
BRANCH  63  84
ATOM     84  C   UNL A   1      45.549  30.428  35.334  1.00  0.00    -0.014 A 
ATOM     85  C   UNL A   1      46.642  31.277  35.088  1.00  0.00     0.010 A 
ATOM     86  C   UNL A   1      45.692  29.372  36.252  1.00  0.00     0.010 A 
ATOM     87  C   UNL A   1      47.870  31.042  35.711  1.00  0.00     0.020 A 
ATOM     88  C   UNL A   1      46.909  29.152  36.900  1.00  0.00     0.020 A 
ATOM     89  C   UNL A   1      47.998  29.977  36.608  1.00  0.00     0.054 A 
BRANCH  89  90
ATOM     90  S   UNL A   1      49.597  29.699  37.418  1.00  0.00     0.124 S 
ATOM     91  O   UNL A   1      49.242  29.793  38.831  1.00  0.00    -0.237 OA
ATOM     92  O   UNL A   1      49.967  28.364  36.951  1.00  0.00    -0.237 OA
ATOM     93  O   UNL A   1      50.434  30.784  36.911  1.00  0.00    -0.744 OA
ENDBRANCH  89  90
ENDBRANCH  63  84
ENDBRANCH  37  38
ENDBRANCH  29  32
ENDBRANCH  27  28
ENDBRANCH  26  27
ENDBRANCH  25  26
ENDBRANCH   1  25
TORSDOF 22
ENDMDL
