MODEL 1
REMARK VINA RESULT:     -10.9      0.000      0.000
REMARK SMILES CS(=O)(=O)c1ccc(/C=C(/C(=O)NCCCCCCNC(=O)c2ccc(-c3c4nc(c(-c5ccc(S(=O)(=O)[O-])cc5)c5ccc([nH]5)c(-c5ccc(S(=O)(=O)[O-])cc5)c5nc(c(-c6ccc(S(=O)(=O)[O-])cc6)c6ccc3[nH]6)C=C5)C=C4)cc2)c2cccc(Br)c2)cc1
REMARK SMILES IDX 17 1 16 2 15 3 14 4 13 5 11 6 12 7 10 9 9 10 8 11 5 12 6 13
REMARK SMILES IDX 91 14 7 15 90 16 2 17 1 18 3 19 4 20 83 21 84 22 89 23 85 24
REMARK SMILES IDX 87 25 86 26 88 27 18 28 19 29 20 30 21 31 22 33 23 34 24 35
REMARK SMILES IDX 82 36 25 37 81 38 26 39 27 40 28 41 75 42 29 43 80 44 74 45
REMARK SMILES IDX 76 46 30 47 79 48 73 49 72 50 31 52 61 53 42 54 60 55 43 56
REMARK SMILES IDX 46 57 59 58 77 59 44 60 45 61 58 63 78 64 47 65 32 66 33 67
REMARK SMILES IDX 41 68 34 69 40 70 35 71 36 72 37 73 38 74 39 75 62 76 63 77
REMARK SMILES IDX 71 78 64 79 70 80 65 81 66 82 67 83 68 84 69 85 48 86 49 87
REMARK SMILES IDX 57 88 50 89 56 90 51 91 52 92 53 93 54 94 55 95
REMARK H PARENT 13 8 20 32 76 51 46 62
REMARK Flexibility Score: inf
ROOT
ATOM      1  C   UNL A   1      37.295  21.742  24.162  1.00  0.00     0.002 C 
ENDROOT
BRANCH   1   2
ATOM      2  C   UNL A   1      35.882  22.318  24.315  1.00  0.00     0.002 C 
BRANCH   2   3
ATOM      3  C   UNL A   1      35.151  21.917  25.608  1.00  0.00     0.021 C 
BRANCH   3   4
ATOM      4  C   UNL A   1      34.757  23.111  26.484  1.00  0.00     0.116 C 
BRANCH   4   5
ATOM      5  N   UNL A   1      33.483  22.844  27.121  1.00  0.00    -0.352 N 
ATOM      6  C   UNL A   1      32.228  23.347  26.995  1.00  0.00     0.251 C 
ATOM      7  O   UNL A   1      31.399  22.923  27.805  1.00  0.00    -0.269 OA
ATOM      8  H   UNL A   1      33.540  22.136  27.803  1.00  0.00     0.163 HD
BRANCH   6   9
ATOM      9  C   UNL A   1      31.799  24.284  25.887  1.00  0.00     0.047 C 
ATOM     10  C   UNL A   1      30.970  25.335  26.092  1.00  0.00     0.022 C 
BRANCH  10  11
ATOM     11  C   UNL A   1      30.571  26.416  25.159  1.00  0.00    -0.025 A 
ATOM     12  C   UNL A   1      29.584  28.432  23.457  1.00  0.00     0.067 A 
ATOM     13  C   UNL A   1      30.735  28.654  24.218  1.00  0.00     0.021 A 
ATOM     14  C   UNL A   1      28.944  27.195  23.504  1.00  0.00     0.021 A 
ATOM     15  C   UNL A   1      31.241  27.639  25.037  1.00  0.00     0.009 A 
ATOM     16  C   UNL A   1      29.438  26.198  24.356  1.00  0.00     0.009 A 
BRANCH  12  17
ATOM     17  S   UNL A   1      28.973  29.780  22.474  1.00  0.00     0.175 S 
ATOM     18  C   UNL A   1      29.078  31.246  23.462  1.00  0.00     0.163 C 
ATOM     19  O   UNL A   1      27.573  29.505  22.226  1.00  0.00    -0.224 OA
ATOM     20  O   UNL A   1      29.909  29.946  21.375  1.00  0.00    -0.224 OA
ENDBRANCH  12  17
ENDBRANCH  10  11
BRANCH   9  21
ATOM     21  C   UNL A   1      32.195  23.893  24.508  1.00  0.00    -0.012 A 
ATOM     22  C   UNL A   1      33.039  24.758  23.788  1.00  0.00     0.009 A 
ATOM     23  C   UNL A   1      31.830  22.668  23.938  1.00  0.00     0.024 A 
ATOM     24  C   UNL A   1      33.534  24.399  22.535  1.00  0.00     0.002 A 
ATOM     25  C   UNL A   1      32.349  22.305  22.694  1.00  0.00     0.018 A 
ATOM     26  C   UNL A   1      33.201  23.161  21.993  1.00  0.00     0.016 A 
ATOM     27  Br  UNL A   1      31.937  20.609  21.966  1.00  0.00    -0.051 Br
ENDBRANCH   9  21
ENDBRANCH   6   9
ENDBRANCH   4   5
ENDBRANCH   3   4
ENDBRANCH   2   3
ENDBRANCH   1   2
BRANCH   1  28
ATOM     28  C   UNL A   1      37.770  20.878  25.333  1.00  0.00     0.021 C 
BRANCH  28  29
ATOM     29  C   UNL A   1      39.138  21.267  25.888  1.00  0.00     0.116 C 
BRANCH  29  30
ATOM     30  N   UNL A   1      40.026  20.120  25.984  1.00  0.00    -0.352 N 
ATOM     31  C   UNL A   1      41.387  20.092  26.162  1.00  0.00     0.251 C 
ATOM     32  H   UNL A   1      39.591  19.239  25.912  1.00  0.00     0.163 HD
ATOM     33  O   UNL A   1      42.007  19.045  26.001  1.00  0.00    -0.269 OA
BRANCH  31  34
ATOM     34  C   UNL A   1      42.103  21.332  26.531  1.00  0.00     0.039 A 
ATOM     35  C   UNL A   1      42.367  22.284  25.543  1.00  0.00     0.014 A 
ATOM     36  C   UNL A   1      42.525  21.547  27.847  1.00  0.00     0.014 A 
ATOM     37  C   UNL A   1      43.010  23.476  25.886  1.00  0.00     0.010 A 
ATOM     38  C   UNL A   1      43.105  22.764  28.198  1.00  0.00     0.010 A 
ATOM     39  C   UNL A   1      43.359  23.738  27.221  1.00  0.00    -0.014 A 
BRANCH  39  40
ATOM     40  C   UNL A   1      44.000  25.019  27.612  1.00  0.00     0.031 A 
ATOM     41  C   UNL A   1      43.171  26.130  28.196  1.00  0.00     0.074 A 
ATOM     42  C   UNL A   1      45.315  25.204  27.383  1.00  0.00     0.049 A 
ATOM     43  N   UNL A   1      43.539  27.337  28.544  1.00  0.00    -0.248 NA
ATOM     44  C   UNL A   1      41.738  25.858  28.394  1.00  0.00     0.031 C 
ATOM     45  C   UNL A   1      46.218  24.217  26.787  1.00  0.00     0.029 A 
ATOM     46  N   UNL A   1      46.119  26.291  27.619  1.00  0.00    -0.354 N 
ATOM     47  C   UNL A   1      42.383  27.972  28.983  1.00  0.00     0.074 A 
ATOM     48  C   UNL A   1      41.295  27.034  28.813  1.00  0.00     0.031 C 
ATOM     49  C   UNL A   1      47.456  24.734  26.729  1.00  0.00     0.029 A 
ATOM     50  C   UNL A   1      47.428  26.100  27.245  1.00  0.00     0.049 A 
ATOM     51  H   UNL A   1      45.790  27.128  28.018  1.00  0.00     0.167 HD
ATOM     52  C   UNL A   1      42.241  29.217  29.499  1.00  0.00     0.031 A 
ATOM     53  C   UNL A   1      48.486  26.930  27.305  1.00  0.00     0.031 A 
ATOM     54  C   UNL A   1      43.328  30.144  29.676  1.00  0.00     0.049 A 
ATOM     55  C   UNL A   1      48.305  28.310  27.876  1.00  0.00     0.074 A 
ATOM     56  C   UNL A   1      43.296  31.409  30.240  1.00  0.00     0.029 A 
ATOM     57  N   UNL A   1      44.639  29.909  29.293  1.00  0.00    -0.354 N 
ATOM     58  N   UNL A   1      47.215  28.872  28.340  1.00  0.00    -0.248 NA
ATOM     59  C   UNL A   1      49.500  29.164  27.939  1.00  0.00     0.031 C 
ATOM     60  C   UNL A   1      44.581  31.956  30.152  1.00  0.00     0.029 A 
ATOM     61  C   UNL A   1      45.423  31.013  29.586  1.00  0.00     0.049 A 
ATOM     62  H   UNL A   1      44.965  29.080  28.875  1.00  0.00     0.167 HD
ATOM     63  C   UNL A   1      47.597  30.136  28.774  1.00  0.00     0.074 A 
ATOM     64  C   UNL A   1      49.020  30.250  28.529  1.00  0.00     0.031 C 
ATOM     65  C   UNL A   1      46.838  31.112  29.330  1.00  0.00     0.031 A 
BRANCH  52  66
ATOM     66  C   UNL A   1      40.854  29.648  29.900  1.00  0.00    -0.014 A 
ATOM     67  C   UNL A   1      40.461  29.667  31.251  1.00  0.00     0.010 A 
ATOM     68  C   UNL A   1      39.938  30.059  28.916  1.00  0.00     0.010 A 
ATOM     69  C   UNL A   1      39.162  30.038  31.606  1.00  0.00     0.020 A 
ATOM     70  C   UNL A   1      38.645  30.461  29.270  1.00  0.00     0.020 A 
ATOM     71  C   UNL A   1      38.260  30.427  30.611  1.00  0.00     0.054 A 
BRANCH  71  72
ATOM     72  S   UNL A   1      36.581  30.908  31.100  1.00  0.00     0.124 S 
ATOM     73  O   UNL A   1      35.843  30.733  29.851  1.00  0.00    -0.237 OA
ATOM     74  O   UNL A   1      36.266  29.948  32.155  1.00  0.00    -0.237 OA
ATOM     75  O   UNL A   1      36.733  32.291  31.545  1.00  0.00    -0.744 OA
ENDBRANCH  71  72
ENDBRANCH  52  66
BRANCH  53  76
ATOM     76  C   UNL A   1      49.817  26.467  26.828  1.00  0.00    -0.014 A 
ATOM     77  C   UNL A   1      50.737  25.897  27.727  1.00  0.00     0.010 A 
ATOM     78  C   UNL A   1      50.162  26.570  25.469  1.00  0.00     0.010 A 
ATOM     79  C   UNL A   1      51.981  25.446  27.275  1.00  0.00     0.020 A 
ATOM     80  C   UNL A   1      51.395  26.098  25.009  1.00  0.00     0.020 A 
ATOM     81  C   UNL A   1      52.300  25.546  25.919  1.00  0.00     0.054 A 
BRANCH  81  82
ATOM     82  S   UNL A   1      53.894  24.897  25.343  1.00  0.00     0.124 S 
ATOM     83  O   UNL A   1      53.497  23.657  24.685  1.00  0.00    -0.237 OA
ATOM     84  O   UNL A   1      54.368  25.960  24.460  1.00  0.00    -0.237 OA
ATOM     85  O   UNL A   1      54.661  24.734  26.576  1.00  0.00    -0.744 OA
ENDBRANCH  81  82
ENDBRANCH  53  76
BRANCH  65  86
ATOM     86  C   UNL A   1      47.535  32.382  29.737  1.00  0.00    -0.014 A 
ATOM     87  C   UNL A   1      48.121  32.516  31.008  1.00  0.00     0.010 A 
ATOM     88  C   UNL A   1      47.652  33.437  28.812  1.00  0.00     0.010 A 
ATOM     89  C   UNL A   1      48.787  33.694  31.357  1.00  0.00     0.020 A 
ATOM     90  C   UNL A   1      48.339  34.606  29.149  1.00  0.00     0.020 A 
ATOM     91  C   UNL A   1      48.891  34.732  30.425  1.00  0.00     0.054 A 
BRANCH  91  92
ATOM     92  S   UNL A   1      49.798  36.233  30.887  1.00  0.00     0.124 S 
ATOM     93  O   UNL A   1      48.863  36.883  31.801  1.00  0.00    -0.237 OA
ATOM     94  O   UNL A   1      51.010  35.699  31.503  1.00  0.00    -0.237 OA
ATOM     95  O   UNL A   1      50.005  36.919  29.614  1.00  0.00    -0.744 OA
ENDBRANCH  91  92
ENDBRANCH  65  86
ENDBRANCH  39  40
ENDBRANCH  31  34
ENDBRANCH  29  30
ENDBRANCH  28  29
ENDBRANCH   1  28
TORSDOF 19
ENDMDL
MODEL 2
REMARK VINA RESULT:     -10.7      0.754      7.998
REMARK SMILES CS(=O)(=O)c1ccc(/C=C(/C(=O)NCCCCCCNC(=O)c2ccc(-c3c4nc(c(-c5ccc(S(=O)(=O)[O-])cc5)c5ccc([nH]5)c(-c5ccc(S(=O)(=O)[O-])cc5)c5nc(c(-c6ccc(S(=O)(=O)[O-])cc6)c6ccc3[nH]6)C=C5)C=C4)cc2)c2cccc(Br)c2)cc1
REMARK SMILES IDX 17 1 16 2 15 3 14 4 13 5 11 6 12 7 10 9 9 10 8 11 5 12 6 13
REMARK SMILES IDX 91 14 7 15 90 16 2 17 1 18 3 19 4 20 83 21 84 22 89 23 85 24
REMARK SMILES IDX 87 25 86 26 88 27 18 28 19 29 20 30 21 31 22 33 23 34 24 35
REMARK SMILES IDX 82 36 25 37 81 38 26 39 27 40 28 41 75 42 29 43 80 44 74 45
REMARK SMILES IDX 76 46 30 47 79 48 73 49 72 50 31 52 61 53 42 54 60 55 43 56
REMARK SMILES IDX 46 57 59 58 77 59 44 60 45 61 58 63 78 64 47 65 32 66 33 67
REMARK SMILES IDX 41 68 34 69 40 70 35 71 36 72 37 73 38 74 39 75 62 76 63 77
REMARK SMILES IDX 71 78 64 79 70 80 65 81 66 82 67 83 68 84 69 85 48 86 49 87
REMARK SMILES IDX 57 88 50 89 56 90 51 91 52 92 53 93 54 94 55 95
REMARK H PARENT 13 8 20 32 76 51 46 62
REMARK Flexibility Score: inf
ROOT
ATOM      1  C   UNL A   1      37.234  21.675  24.185  1.00  0.00     0.002 C 
ENDROOT
BRANCH   1   2
ATOM      2  C   UNL A   1      36.519  22.743  25.021  1.00  0.00     0.002 C 
BRANCH   2   3
ATOM      3  C   UNL A   1      35.341  22.229  25.866  1.00  0.00     0.021 C 
BRANCH   3   4
ATOM      4  C   UNL A   1      34.763  23.284  26.815  1.00  0.00     0.116 C 
BRANCH   4   5
ATOM      5  N   UNL A   1      33.486  22.828  27.327  1.00  0.00    -0.352 N 
ATOM      6  C   UNL A   1      32.193  23.187  27.124  1.00  0.00     0.251 C 
ATOM      7  O   UNL A   1      31.361  22.616  27.836  1.00  0.00    -0.269 OA
ATOM      8  H   UNL A   1      33.577  22.087  27.969  1.00  0.00     0.163 HD
BRANCH   6   9
ATOM      9  C   UNL A   1      31.738  24.140  26.039  1.00  0.00     0.047 C 
ATOM     10  C   UNL A   1      30.842  25.131  26.259  1.00  0.00     0.022 C 
BRANCH  10  11
ATOM     11  C   UNL A   1      30.405  26.223  25.355  1.00  0.00    -0.025 A 
ATOM     12  C   UNL A   1      29.810  28.324  23.577  1.00  0.00     0.067 A 
ATOM     13  C   UNL A   1      29.012  27.178  23.605  1.00  0.00     0.021 A 
ATOM     14  C   UNL A   1      30.879  28.452  24.461  1.00  0.00     0.021 A 
ATOM     15  C   UNL A   1      29.291  26.150  24.512  1.00  0.00     0.009 A 
ATOM     16  C   UNL A   1      31.173  27.401  25.341  1.00  0.00     0.009 A 
BRANCH  12  17
ATOM     17  S   UNL A   1      29.424  29.569  22.369  1.00  0.00     0.175 S 
ATOM     18  C   UNL A   1      29.141  31.083  23.241  1.00  0.00     0.163 C 
ATOM     19  O   UNL A   1      28.178  29.166  21.749  1.00  0.00    -0.224 OA
ATOM     20  O   UNL A   1      30.626  29.758  21.575  1.00  0.00    -0.224 OA
ENDBRANCH  12  17
ENDBRANCH  10  11
BRANCH   9  21
ATOM     21  C   UNL A   1      32.194  23.826  24.660  1.00  0.00    -0.012 A 
ATOM     22  C   UNL A   1      33.134  24.683  24.059  1.00  0.00     0.009 A 
ATOM     23  C   UNL A   1      31.789  22.674  23.976  1.00  0.00     0.024 A 
ATOM     24  C   UNL A   1      33.683  24.385  22.813  1.00  0.00     0.002 A 
ATOM     25  C   UNL A   1      32.361  22.370  22.739  1.00  0.00     0.018 A 
ATOM     26  C   UNL A   1      33.307  23.217  22.157  1.00  0.00     0.016 A 
ATOM     27  Br  UNL A   1      31.889  20.765  21.858  1.00  0.00    -0.051 Br
ENDBRANCH   9  21
ENDBRANCH   6   9
ENDBRANCH   4   5
ENDBRANCH   3   4
ENDBRANCH   2   3
ENDBRANCH   1   2
BRANCH   1  28
ATOM     28  C   UNL A   1      37.894  20.556  24.996  1.00  0.00     0.021 C 
BRANCH  28  29
ATOM     29  C   UNL A   1      39.062  21.013  25.866  1.00  0.00     0.116 C 
BRANCH  29  30
ATOM     30  N   UNL A   1      40.046  19.958  26.043  1.00  0.00    -0.352 N 
ATOM     31  C   UNL A   1      41.403  20.062  26.225  1.00  0.00     0.251 C 
ATOM     32  H   UNL A   1      39.690  19.039  26.034  1.00  0.00     0.163 HD
ATOM     33  O   UNL A   1      42.113  19.065  26.140  1.00  0.00    -0.269 OA
BRANCH  31  34
ATOM     34  C   UNL A   1      42.006  21.384  26.506  1.00  0.00     0.039 A 
ATOM     35  C   UNL A   1      42.285  22.242  25.441  1.00  0.00     0.014 A 
ATOM     36  C   UNL A   1      42.307  21.766  27.817  1.00  0.00     0.014 A 
ATOM     37  C   UNL A   1      42.819  23.508  25.695  1.00  0.00     0.010 A 
ATOM     38  C   UNL A   1      42.776  23.052  28.072  1.00  0.00     0.010 A 
ATOM     39  C   UNL A   1      43.043  23.934  27.014  1.00  0.00    -0.014 A 
BRANCH  39  40
ATOM     40  C   UNL A   1      43.566  25.292  27.307  1.00  0.00     0.031 A 
ATOM     41  C   UNL A   1      45.017  25.610  27.070  1.00  0.00     0.074 A 
ATOM     42  C   UNL A   1      42.750  26.219  27.845  1.00  0.00     0.049 A 
ATOM     43  N   UNL A   1      45.670  26.717  27.319  1.00  0.00    -0.248 NA
ATOM     44  C   UNL A   1      45.849  24.537  26.502  1.00  0.00     0.031 C 
ATOM     45  C   UNL A   1      41.332  26.021  28.157  1.00  0.00     0.029 A 
ATOM     46  N   UNL A   1      42.997  27.512  28.231  1.00  0.00    -0.354 N 
ATOM     47  C   UNL A   1      46.988  26.468  26.955  1.00  0.00     0.074 A 
ATOM     48  C   UNL A   1      47.052  25.093  26.515  1.00  0.00     0.031 C 
ATOM     49  C   UNL A   1      40.830  27.160  28.661  1.00  0.00     0.029 A 
ATOM     50  C   UNL A   1      41.896  28.155  28.745  1.00  0.00     0.049 A 
ATOM     51  H   UNL A   1      43.879  27.940  28.147  1.00  0.00     0.167 HD
ATOM     52  C   UNL A   1      48.047  27.314  26.968  1.00  0.00     0.031 A 
ATOM     53  C   UNL A   1      41.758  29.402  29.235  1.00  0.00     0.031 A 
ATOM     54  C   UNL A   1      47.977  28.686  27.398  1.00  0.00     0.049 A 
ATOM     55  C   UNL A   1      42.948  30.322  29.246  1.00  0.00     0.074 A 
ATOM     56  C   UNL A   1      48.981  29.639  27.398  1.00  0.00     0.029 A 
ATOM     57  N   UNL A   1      46.842  29.300  27.903  1.00  0.00    -0.354 N 
ATOM     58  N   UNL A   1      44.174  30.087  28.843  1.00  0.00    -0.248 NA
ATOM     59  C   UNL A   1      42.733  31.678  29.769  1.00  0.00     0.031 C 
ATOM     60  C   UNL A   1      48.464  30.816  27.950  1.00  0.00     0.029 A 
ATOM     61  C   UNL A   1      47.125  30.613  28.241  1.00  0.00     0.049 A 
ATOM     62  H   UNL A   1      45.964  28.867  28.007  1.00  0.00     0.167 HD
ATOM     63  C   UNL A   1      44.871  31.273  29.040  1.00  0.00     0.074 A 
ATOM     64  C   UNL A   1      43.927  32.227  29.585  1.00  0.00     0.031 C 
ATOM     65  C   UNL A   1      46.174  31.548  28.788  1.00  0.00     0.031 A 
BRANCH  52  66
ATOM     66  C   UNL A   1      49.375  26.769  26.511  1.00  0.00    -0.014 A 
ATOM     67  C   UNL A   1      49.770  26.853  25.163  1.00  0.00     0.010 A 
ATOM     68  C   UNL A   1      50.250  26.184  27.444  1.00  0.00     0.010 A 
ATOM     69  C   UNL A   1      50.990  26.314  24.747  1.00  0.00     0.020 A 
ATOM     70  C   UNL A   1      51.486  25.671  27.037  1.00  0.00     0.020 A 
ATOM     71  C   UNL A   1      51.838  25.721  25.687  1.00  0.00     0.054 A 
BRANCH  71  72
ATOM     72  S   UNL A   1      53.418  25.034  25.121  1.00  0.00     0.124 S 
ATOM     73  O   UNL A   1      54.360  25.629  26.066  1.00  0.00    -0.237 OA
ATOM     74  O   UNL A   1      53.212  23.595  25.262  1.00  0.00    -0.237 OA
ATOM     75  O   UNL A   1      53.531  25.513  23.745  1.00  0.00    -0.744 OA
ENDBRANCH  71  72
ENDBRANCH  52  66
BRANCH  53  76
ATOM     76  C   UNL A   1      40.434  29.857  29.736  1.00  0.00    -0.014 A 
ATOM     77  C   UNL A   1      40.170  29.897  31.117  1.00  0.00     0.010 A 
ATOM     78  C   UNL A   1      39.438  30.279  28.837  1.00  0.00     0.010 A 
ATOM     79  C   UNL A   1      38.931  30.340  31.589  1.00  0.00     0.020 A 
ATOM     80  C   UNL A   1      38.207  30.747  29.307  1.00  0.00     0.020 A 
ATOM     81  C   UNL A   1      37.959  30.766  30.681  1.00  0.00     0.054 A 
BRANCH  81  82
ATOM     82  S   UNL A   1      36.382  31.399  31.317  1.00  0.00     0.124 S 
ATOM     83  O   UNL A   1      36.052  30.414  32.342  1.00  0.00    -0.237 OA
ATOM     84  O   UNL A   1      36.748  32.726  31.807  1.00  0.00    -0.237 OA
ATOM     85  O   UNL A   1      35.514  31.396  30.141  1.00  0.00    -0.744 OA
ENDBRANCH  81  82
ENDBRANCH  53  76
BRANCH  65  86
ATOM     86  C   UNL A   1      46.653  32.946  29.074  1.00  0.00    -0.014 A 
ATOM     87  C   UNL A   1      46.755  33.427  30.391  1.00  0.00     0.010 A 
ATOM     88  C   UNL A   1      47.059  33.772  28.009  1.00  0.00     0.010 A 
ATOM     89  C   UNL A   1      47.227  34.719  30.636  1.00  0.00     0.020 A 
ATOM     90  C   UNL A   1      47.555  35.055  28.252  1.00  0.00     0.020 A 
ATOM     91  C   UNL A   1      47.623  35.526  29.564  1.00  0.00     0.054 A 
BRANCH  91  92
ATOM     92  S   UNL A   1      48.273  37.183  29.912  1.00  0.00     0.124 S 
ATOM     93  O   UNL A   1      47.050  37.947  30.136  1.00  0.00    -0.237 OA
ATOM     94  O   UNL A   1      49.102  36.961  31.094  1.00  0.00    -0.237 OA
ATOM     95  O   UNL A   1      49.010  37.527  28.698  1.00  0.00    -0.744 OA
ENDBRANCH  91  92
ENDBRANCH  65  86
ENDBRANCH  39  40
ENDBRANCH  31  34
ENDBRANCH  29  30
ENDBRANCH  28  29
ENDBRANCH   1  28
TORSDOF 19
ENDMDL
MODEL 3
REMARK VINA RESULT:     -10.7      6.489     10.633
REMARK SMILES CS(=O)(=O)c1ccc(/C=C(/C(=O)NCCCCCCNC(=O)c2ccc(-c3c4nc(c(-c5ccc(S(=O)(=O)[O-])cc5)c5ccc([nH]5)c(-c5ccc(S(=O)(=O)[O-])cc5)c5nc(c(-c6ccc(S(=O)(=O)[O-])cc6)c6ccc3[nH]6)C=C5)C=C4)cc2)c2cccc(Br)c2)cc1
REMARK SMILES IDX 17 1 16 2 15 3 14 4 13 5 11 6 12 7 10 9 9 10 8 11 5 12 6 13
REMARK SMILES IDX 91 14 7 15 90 16 2 17 1 18 3 19 4 20 83 21 84 22 89 23 85 24
REMARK SMILES IDX 87 25 86 26 88 27 18 28 19 29 20 30 21 31 22 33 23 34 24 35
REMARK SMILES IDX 82 36 25 37 81 38 26 39 27 40 28 41 75 42 29 43 80 44 74 45
REMARK SMILES IDX 76 46 30 47 79 48 73 49 72 50 31 52 61 53 42 54 60 55 43 56
REMARK SMILES IDX 46 57 59 58 77 59 44 60 45 61 58 63 78 64 47 65 32 66 33 67
REMARK SMILES IDX 41 68 34 69 40 70 35 71 36 72 37 73 38 74 39 75 62 76 63 77
REMARK SMILES IDX 71 78 64 79 70 80 65 81 66 82 67 83 68 84 69 85 48 86 49 87
REMARK SMILES IDX 57 88 50 89 56 90 51 91 52 92 53 93 54 94 55 95
REMARK H PARENT 13 8 20 32 76 51 46 62
REMARK Flexibility Score: inf
ROOT
ATOM      1  C   UNL A   1      35.568  33.895  27.923  1.00  0.00     0.002 C 
ENDROOT
BRANCH   1   2
ATOM      2  C   UNL A   1      35.631  32.627  28.782  1.00  0.00     0.002 C 
BRANCH   2   3
ATOM      3  C   UNL A   1      36.135  31.370  28.053  1.00  0.00     0.021 C 
BRANCH   3   4
ATOM      4  C   UNL A   1      35.101  30.241  27.993  1.00  0.00     0.116 C 
BRANCH   4   5
ATOM      5  N   UNL A   1      33.793  30.797  27.709  1.00  0.00    -0.352 N 
ATOM      6  C   UNL A   1      32.744  30.423  26.933  1.00  0.00     0.251 C 
ATOM      7  O   UNL A   1      31.811  31.229  26.870  1.00  0.00    -0.269 OA
ATOM      8  H   UNL A   1      33.627  31.641  28.189  1.00  0.00     0.163 HD
BRANCH   6   9
ATOM      9  C   UNL A   1      32.630  29.074  26.256  1.00  0.00     0.047 C 
ATOM     10  C   UNL A   1      33.083  27.928  26.817  1.00  0.00     0.022 C 
BRANCH  10  11
ATOM     11  C   UNL A   1      32.923  26.528  26.358  1.00  0.00    -0.025 A 
ATOM     12  C   UNL A   1      32.840  23.821  25.583  1.00  0.00     0.067 A 
ATOM     13  C   UNL A   1      31.714  24.427  26.144  1.00  0.00     0.021 A 
ATOM     14  C   UNL A   1      33.997  24.565  25.364  1.00  0.00     0.021 A 
ATOM     15  C   UNL A   1      31.748  25.781  26.498  1.00  0.00     0.009 A 
ATOM     16  C   UNL A   1      34.034  25.910  25.755  1.00  0.00     0.009 A 
BRANCH  12  17
ATOM     17  S   UNL A   1      32.739  22.089  25.200  1.00  0.00     0.175 S 
ATOM     18  C   UNL A   1      33.654  21.218  26.441  1.00  0.00     0.163 C 
ATOM     19  O   UNL A   1      33.415  21.908  23.932  1.00  0.00    -0.224 OA
ATOM     20  O   UNL A   1      31.345  21.712  25.365  1.00  0.00    -0.224 OA
ENDBRANCH  12  17
ENDBRANCH  10  11
BRANCH   9  21
ATOM     21  C   UNL A   1      32.148  29.087  24.850  1.00  0.00    -0.012 A 
ATOM     22  C   UNL A   1      33.096  28.940  23.820  1.00  0.00     0.009 A 
ATOM     23  C   UNL A   1      30.791  29.155  24.518  1.00  0.00     0.024 A 
ATOM     24  C   UNL A   1      32.699  28.834  22.488  1.00  0.00     0.002 A 
ATOM     25  C   UNL A   1      30.399  29.024  23.185  1.00  0.00     0.018 A 
ATOM     26  C   UNL A   1      31.345  28.861  22.170  1.00  0.00     0.016 A 
ATOM     27  Br  UNL A   1      28.560  29.017  22.744  1.00  0.00    -0.051 Br
ENDBRANCH   9  21
ENDBRANCH   6   9
ENDBRANCH   4   5
ENDBRANCH   3   4
ENDBRANCH   2   3
ENDBRANCH   1   2
BRANCH   1  28
ATOM     28  C   UNL A   1      34.365  34.802  28.197  1.00  0.00     0.021 C 
BRANCH  28  29
ATOM     29  C   UNL A   1      33.294  34.177  29.085  1.00  0.00     0.116 C 
BRANCH  29  30
ATOM     30  N   UNL A   1      32.750  35.137  30.031  1.00  0.00    -0.352 N 
ATOM     31  C   UNL A   1      33.069  35.325  31.353  1.00  0.00     0.251 C 
ATOM     32  H   UNL A   1      32.057  35.739  29.674  1.00  0.00     0.163 HD
ATOM     33  O   UNL A   1      32.360  36.033  32.062  1.00  0.00    -0.269 OA
BRANCH  31  34
ATOM     34  C   UNL A   1      34.260  34.658  31.922  1.00  0.00     0.039 A 
ATOM     35  C   UNL A   1      34.112  33.414  32.538  1.00  0.00     0.014 A 
ATOM     36  C   UNL A   1      35.517  35.268  31.860  1.00  0.00     0.014 A 
ATOM     37  C   UNL A   1      35.235  32.755  33.046  1.00  0.00     0.010 A 
ATOM     38  C   UNL A   1      36.643  34.581  32.307  1.00  0.00     0.010 A 
ATOM     39  C   UNL A   1      36.513  33.321  32.910  1.00  0.00    -0.014 A 
BRANCH  39  40
ATOM     40  C   UNL A   1      37.723  32.615  33.401  1.00  0.00     0.031 A 
ATOM     41  C   UNL A   1      38.333  32.993  34.724  1.00  0.00     0.074 A 
ATOM     42  C   UNL A   1      38.310  31.681  32.628  1.00  0.00     0.049 A 
ATOM     43  N   UNL A   1      39.418  32.533  35.292  1.00  0.00    -0.248 NA
ATOM     44  C   UNL A   1      37.646  34.039  35.498  1.00  0.00     0.031 C 
ATOM     45  C   UNL A   1      37.837  31.253  31.309  1.00  0.00     0.029 A 
ATOM     46  N   UNL A   1      39.436  30.925  32.838  1.00  0.00    -0.354 N 
ATOM     47  C   UNL A   1      39.554  33.245  36.479  1.00  0.00     0.074 A 
ATOM     48  C   UNL A   1      38.468  34.199  36.525  1.00  0.00     0.031 C 
ATOM     49  C   UNL A   1      38.652  30.293  30.841  1.00  0.00     0.029 A 
ATOM     50  C   UNL A   1      39.724  30.065  31.805  1.00  0.00     0.049 A 
ATOM     51  H   UNL A   1      39.985  30.991  33.652  1.00  0.00     0.167 HD
ATOM     52  C   UNL A   1      40.487  33.105  37.451  1.00  0.00     0.031 A 
ATOM     53  C   UNL A   1      40.740  29.194  31.647  1.00  0.00     0.031 A 
ATOM     54  C   UNL A   1      41.561  32.147  37.406  1.00  0.00     0.049 A 
ATOM     55  C   UNL A   1      41.768  29.060  32.736  1.00  0.00     0.074 A 
ATOM     56  C   UNL A   1      42.525  31.890  38.366  1.00  0.00     0.029 A 
ATOM     57  N   UNL A   1      41.812  31.289  36.346  1.00  0.00    -0.354 N 
ATOM     58  N   UNL A   1      41.846  29.701  33.878  1.00  0.00    -0.248 NA
ATOM     59  C   UNL A   1      42.839  28.077  32.520  1.00  0.00     0.031 C 
ATOM     60  C   UNL A   1      43.389  30.911  37.864  1.00  0.00     0.029 A 
ATOM     61  C   UNL A   1      42.930  30.518  36.617  1.00  0.00     0.049 A 
ATOM     62  H   UNL A   1      41.275  31.237  35.523  1.00  0.00     0.167 HD
ATOM     63  C   UNL A   1      42.960  29.182  34.527  1.00  0.00     0.074 A 
ATOM     64  C   UNL A   1      43.515  28.165  33.657  1.00  0.00     0.031 C 
ATOM     65  C   UNL A   1      43.474  29.514  35.737  1.00  0.00     0.031 A 
BRANCH  52  66
ATOM     66  C   UNL A   1      40.389  34.020  38.643  1.00  0.00    -0.014 A 
ATOM     67  C   UNL A   1      39.717  33.620  39.814  1.00  0.00     0.010 A 
ATOM     68  C   UNL A   1      40.992  35.290  38.602  1.00  0.00     0.010 A 
ATOM     69  C   UNL A   1      39.606  34.492  40.900  1.00  0.00     0.020 A 
ATOM     70  C   UNL A   1      40.909  36.154  39.699  1.00  0.00     0.020 A 
ATOM     71  C   UNL A   1      40.197  35.756  40.833  1.00  0.00     0.054 A 
BRANCH  71  72
ATOM     72  S   UNL A   1      40.041  36.866  42.259  1.00  0.00     0.124 S 
ATOM     73  O   UNL A   1      41.386  36.815  42.828  1.00  0.00    -0.237 OA
ATOM     74  O   UNL A   1      39.669  38.135  41.639  1.00  0.00    -0.237 OA
ATOM     75  O   UNL A   1      38.998  36.243  43.070  1.00  0.00    -0.744 OA
ENDBRANCH  71  72
ENDBRANCH  52  66
BRANCH  53  76
ATOM     76  C   UNL A   1      40.819  28.367  30.413  1.00  0.00    -0.014 A 
ATOM     77  C   UNL A   1      39.935  27.289  30.220  1.00  0.00     0.010 A 
ATOM     78  C   UNL A   1      41.759  28.669  29.412  1.00  0.00     0.010 A 
ATOM     79  C   UNL A   1      39.999  26.522  29.053  1.00  0.00     0.020 A 
ATOM     80  C   UNL A   1      41.808  27.920  28.232  1.00  0.00     0.020 A 
ATOM     81  C   UNL A   1      40.932  26.846  28.065  1.00  0.00     0.054 A 
BRANCH  81  82
ATOM     82  S   UNL A   1      40.954  25.878  26.529  1.00  0.00     0.124 S 
ATOM     83  O   UNL A   1      41.179  26.910  25.523  1.00  0.00    -0.237 OA
ATOM     84  O   UNL A   1      42.066  24.957  26.753  1.00  0.00    -0.237 OA
ATOM     85  O   UNL A   1      39.634  25.252  26.502  1.00  0.00    -0.744 OA
ENDBRANCH  81  82
ENDBRANCH  53  76
BRANCH  65  86
ATOM     86  C   UNL A   1      44.684  28.753  36.207  1.00  0.00    -0.014 A 
ATOM     87  C   UNL A   1      44.556  27.545  36.914  1.00  0.00     0.010 A 
ATOM     88  C   UNL A   1      45.970  29.227  35.886  1.00  0.00     0.010 A 
ATOM     89  C   UNL A   1      45.693  26.840  37.318  1.00  0.00     0.020 A 
ATOM     90  C   UNL A   1      47.108  28.512  36.266  1.00  0.00     0.020 A 
ATOM     91  C   UNL A   1      46.962  27.329  36.992  1.00  0.00     0.054 A 
BRANCH  91  92
ATOM     92  S   UNL A   1      48.420  26.373  37.489  1.00  0.00     0.124 S 
ATOM     93  O   UNL A   1      49.396  27.425  37.757  1.00  0.00    -0.237 OA
ATOM     94  O   UNL A   1      47.943  25.645  38.662  1.00  0.00    -0.237 OA
ATOM     95  O   UNL A   1      48.704  25.541  36.322  1.00  0.00    -0.744 OA
ENDBRANCH  91  92
ENDBRANCH  65  86
ENDBRANCH  39  40
ENDBRANCH  31  34
ENDBRANCH  29  30
ENDBRANCH  28  29
ENDBRANCH   1  28
TORSDOF 19
ENDMDL
