MODEL 1
REMARK VINA RESULT:     -11.5      0.000      0.000
REMARK SMILES O=C(C[C@H](NC(=O)[C@]12C[C@H]3C[C@H](C[C@H](C3)C1)C2)c1cccc([N+](=O)[O-])c1)NCCCCCCNC(=O)c1ccc(-c2c3nc(c(-c4ccc(S(=O)(=O)[O-])cc4)c4ccc([nH]4)c(-c4ccc(S(=O)(=O)[O-])cc4)c4nc(c(-c5ccc(S(=O)(=O)[O-])cc5)c5ccc2[nH]5)C=C4)C=C3)cc1
REMARK SMILES IDX 30 1 29 2 28 3 27 4 1 5 2 6 3 8 4 9 18 10 19 11 26 12 20 13
REMARK SMILES IDX 22 14 21 15 23 16 24 17 25 18 5 19 6 20 7 22 8 23 9 24 16 25
REMARK SMILES IDX 17 26 10 27 14 28 12 29 11 30 15 31 13 32 31 33 32 34 33 35
REMARK SMILES IDX 34 36 35 37 36 39 37 40 38 41 96 42 39 43 95 44 40 45 41 46
REMARK SMILES IDX 42 47 89 48 43 49 94 50 88 51 90 52 44 53 93 54 87 55 86 56
REMARK SMILES IDX 45 58 75 59 56 60 74 61 57 62 60 63 73 64 91 65 58 66 59 67
REMARK SMILES IDX 72 69 92 70 61 71 46 72 47 73 55 74 48 75 54 76 49 77 50 78
REMARK SMILES IDX 51 79 52 80 53 81 76 82 77 83 85 84 78 85 84 86 79 87 80 88
REMARK SMILES IDX 81 89 82 90 83 91 62 92 63 93 71 94 64 95 70 96 65 97 66 98
REMARK SMILES IDX 67 99 68 100 69 101
REMARK H PARENT 27 7 5 21 34 38 90 57 60 68
REMARK Flexibility Score: inf
ROOT
ATOM      1  C   UNL A   1      35.315  31.894  28.177  1.00  0.00     0.002 C 
ENDROOT
BRANCH   1   2
ATOM      2  C   UNL A   1      34.091  31.237  27.537  1.00  0.00     0.021 C 
BRANCH   2   3
ATOM      3  C   UNL A   1      34.311  29.779  27.128  1.00  0.00     0.116 C 
BRANCH   3   4
ATOM      4  N   UNL A   1      33.932  29.436  25.764  1.00  0.00    -0.356 N 
ATOM      5  O   UNL A   1      31.751  28.971  26.259  1.00  0.00    -0.275 OA
ATOM      6  C   UNL A   1      32.630  29.188  25.425  1.00  0.00     0.222 C 
ATOM      7  H   UNL A   1      34.629  29.382  25.071  1.00  0.00     0.163 HD
BRANCH   6   8
ATOM      8  C   UNL A   1      32.251  29.163  23.967  1.00  0.00     0.129 C 
BRANCH   8   9
ATOM      9  C   UNL A   1      31.534  27.976  23.308  1.00  0.00     0.122 C 
BRANCH   9  10
ATOM     10  C   UNL A   1      30.132  28.479  22.922  1.00  0.00    -0.018 A 
ATOM     11  C   UNL A   1      29.006  27.737  23.338  1.00  0.00     0.006 A 
ATOM     12  C   UNL A   1      29.920  29.712  22.285  1.00  0.00     0.091 A 
ATOM     13  C   UNL A   1      27.710  28.225  23.163  1.00  0.00     0.007 A 
ATOM     14  C   UNL A   1      28.613  30.193  22.102  1.00  0.00     0.269 A 
ATOM     15  C   UNL A   1      27.508  29.458  22.549  1.00  0.00     0.085 A 
BRANCH  14  16
ATOM     16  N   UNL A   1      28.399  31.498  21.465  1.00  0.00     0.062 N 
ATOM     17  O   UNL A   1      27.620  31.548  20.502  1.00  0.00    -0.258 OA
ATOM     18  O   UNL A   1      29.005  32.474  21.931  1.00  0.00    -0.258 OA
ENDBRANCH  14  16
ENDBRANCH   9  10
BRANCH   9  19
ATOM     19  N   UNL A   1      32.095  27.119  22.234  1.00  0.00    -0.348 N 
ATOM     20  C   UNL A   1      32.810  25.986  22.002  1.00  0.00     0.226 C 
ATOM     21  H   UNL A   1      31.861  27.522  21.366  1.00  0.00     0.164 HD
ATOM     22  O   UNL A   1      33.297  25.911  20.866  1.00  0.00    -0.274 OA
BRANCH  20  23
ATOM     23  C   UNL A   1      32.988  24.825  22.984  1.00  0.00     0.050 C 
ATOM     24  C   UNL A   1      33.657  23.620  22.305  1.00  0.00     0.020 C 
ATOM     25  C   UNL A   1      31.641  24.287  23.565  1.00  0.00     0.020 C 
ATOM     26  C   UNL A   1      33.734  25.355  24.212  1.00  0.00     0.020 C 
ATOM     27  C   UNL A   1      33.978  22.526  23.330  1.00  0.00    -0.010 C 
ATOM     28  C   UNL A   1      31.910  23.167  24.608  1.00  0.00    -0.010 C 
ATOM     29  C   UNL A   1      34.102  24.240  25.185  1.00  0.00    -0.010 C 
ATOM     30  C   UNL A   1      34.853  23.120  24.445  1.00  0.00     0.007 C 
ATOM     31  C   UNL A   1      32.664  22.009  23.932  1.00  0.00     0.007 C 
ATOM     32  C   UNL A   1      32.789  23.696  25.758  1.00  0.00     0.007 C 
ENDBRANCH  20  23
ENDBRANCH   9  19
ENDBRANCH   8   9
ENDBRANCH   6   8
ENDBRANCH   3   4
ENDBRANCH   2   3
ENDBRANCH   1   2
BRANCH   1  33
ATOM     33  C   UNL A   1      34.975  32.904  29.272  1.00  0.00     0.002 C 
BRANCH  33  34
ATOM     34  C   UNL A   1      33.773  33.794  28.952  1.00  0.00     0.021 C 
BRANCH  34  35
ATOM     35  C   UNL A   1      33.919  35.231  29.443  1.00  0.00     0.116 C 
BRANCH  35  36
ATOM     36  N   UNL A   1      32.931  35.546  30.465  1.00  0.00    -0.352 N 
ATOM     37  C   UNL A   1      32.914  35.157  31.780  1.00  0.00     0.251 C 
ATOM     38  H   UNL A   1      32.179  36.112  30.174  1.00  0.00     0.163 HD
ATOM     39  O   UNL A   1      31.904  35.284  32.459  1.00  0.00    -0.269 OA
BRANCH  37  40
ATOM     40  C   UNL A   1      34.141  34.570  32.354  1.00  0.00     0.039 A 
ATOM     41  C   UNL A   1      34.123  33.246  32.795  1.00  0.00     0.014 A 
ATOM     42  C   UNL A   1      35.315  35.328  32.405  1.00  0.00     0.014 A 
ATOM     43  C   UNL A   1      35.309  32.660  33.235  1.00  0.00     0.010 A 
ATOM     44  C   UNL A   1      36.507  34.719  32.776  1.00  0.00     0.010 A 
ATOM     45  C   UNL A   1      36.515  33.381  33.197  1.00  0.00    -0.014 A 
BRANCH  45  46
ATOM     46  C   UNL A   1      37.802  32.751  33.580  1.00  0.00     0.031 A 
ATOM     47  C   UNL A   1      38.396  33.016  34.934  1.00  0.00     0.074 A 
ATOM     48  C   UNL A   1      38.468  32.005  32.678  1.00  0.00     0.049 A 
ATOM     49  N   UNL A   1      39.536  32.608  35.428  1.00  0.00    -0.248 NA
ATOM     50  C   UNL A   1      37.619  33.876  35.842  1.00  0.00     0.031 C 
ATOM     51  C   UNL A   1      38.017  31.724  31.312  1.00  0.00     0.029 A 
ATOM     52  N   UNL A   1      39.675  31.358  32.769  1.00  0.00    -0.354 N 
ATOM     53  C   UNL A   1      39.618  33.168  36.697  1.00  0.00     0.074 A 
ATOM     54  C   UNL A   1      38.442  33.991  36.874  1.00  0.00     0.031 C 
ATOM     55  C   UNL A   1      38.929  30.952  30.700  1.00  0.00     0.029 A 
ATOM     56  C   UNL A   1      40.043  30.715  31.613  1.00  0.00     0.049 A 
ATOM     57  H   UNL A   1      40.225  31.357  33.586  1.00  0.00     0.167 HD
ATOM     58  C   UNL A   1      40.575  32.994  37.639  1.00  0.00     0.031 A 
ATOM     59  C   UNL A   1      41.159  30.023  31.311  1.00  0.00     0.031 A 
ATOM     60  C   UNL A   1      41.747  32.181  37.451  1.00  0.00     0.049 A 
ATOM     61  C   UNL A   1      42.217  29.852  32.365  1.00  0.00     0.074 A 
ATOM     62  C   UNL A   1      42.753  31.897  38.358  1.00  0.00     0.029 A 
ATOM     63  N   UNL A   1      42.076  31.529  36.271  1.00  0.00    -0.354 N 
ATOM     64  N   UNL A   1      42.241  30.322  33.590  1.00  0.00    -0.248 NA
ATOM     65  C   UNL A   1      43.392  29.050  32.002  1.00  0.00     0.031 C 
ATOM     66  C   UNL A   1      43.717  31.118  37.709  1.00  0.00     0.029 A 
ATOM     67  C   UNL A   1      43.284  30.867  36.415  1.00  0.00     0.049 A 
ATOM     68  H   UNL A   1      41.531  31.536  35.452  1.00  0.00     0.167 HD
ATOM     69  C   UNL A   1      43.427  29.864  34.148  1.00  0.00     0.074 A 
ATOM     70  C   UNL A   1      44.083  29.060  33.135  1.00  0.00     0.031 C 
ATOM     71  C   UNL A   1      43.930  30.087  35.388  1.00  0.00     0.031 A 
BRANCH  58  72
ATOM     72  C   UNL A   1      40.389  33.714  38.950  1.00  0.00    -0.014 A 
ATOM     73  C   UNL A   1      39.810  33.067  40.058  1.00  0.00     0.010 A 
ATOM     74  C   UNL A   1      40.794  35.056  39.079  1.00  0.00     0.010 A 
ATOM     75  C   UNL A   1      39.583  33.764  41.248  1.00  0.00     0.020 A 
ATOM     76  C   UNL A   1      40.596  35.748  40.277  1.00  0.00     0.020 A 
ATOM     77  C   UNL A   1      39.969  35.103  41.346  1.00  0.00     0.054 A 
BRANCH  77  78
ATOM     78  S   UNL A   1      39.648  35.988  42.897  1.00  0.00     0.124 S 
ATOM     79  O   UNL A   1      40.693  35.453  43.768  1.00  0.00    -0.237 OA
ATOM     80  O   UNL A   1      39.811  37.387  42.508  1.00  0.00    -0.237 OA
ATOM     81  O   UNL A   1      38.285  35.596  43.245  1.00  0.00    -0.744 OA
ENDBRANCH  77  78
ENDBRANCH  58  72
BRANCH  59  82
ATOM     82  C   UNL A   1      41.315  29.444  29.949  1.00  0.00    -0.014 A 
ATOM     83  C   UNL A   1      42.026  30.134  28.954  1.00  0.00     0.010 A 
ATOM     84  C   UNL A   1      40.801  28.165  29.663  1.00  0.00     0.010 A 
ATOM     85  C   UNL A   1      42.222  29.556  27.695  1.00  0.00     0.020 A 
ATOM     86  C   UNL A   1      41.018  27.574  28.416  1.00  0.00     0.020 A 
ATOM     87  C   UNL A   1      41.723  28.275  27.438  1.00  0.00     0.054 A 
BRANCH  87  88
ATOM     88  S   UNL A   1      42.068  27.507  25.830  1.00  0.00     0.124 S 
ATOM     89  O   UNL A   1      43.363  26.876  26.066  1.00  0.00    -0.237 OA
ATOM     90  O   UNL A   1      40.938  26.595  25.667  1.00  0.00    -0.237 OA
ATOM     91  O   UNL A   1      42.080  28.639  24.906  1.00  0.00    -0.744 OA
ENDBRANCH  87  88
ENDBRANCH  59  82
BRANCH  71  92
ATOM     92  C   UNL A   1      45.252  29.450  35.723  1.00  0.00    -0.014 A 
ATOM     93  C   UNL A   1      45.315  28.151  36.259  1.00  0.00     0.010 A 
ATOM     94  C   UNL A   1      46.447  30.134  35.439  1.00  0.00     0.010 A 
ATOM     95  C   UNL A   1      46.551  27.558  36.526  1.00  0.00     0.020 A 
ATOM     96  C   UNL A   1      47.686  29.533  35.678  1.00  0.00     0.020 A 
ATOM     97  C   UNL A   1      47.729  28.252  36.232  1.00  0.00     0.054 A 
BRANCH  97  98
ATOM     98  S   UNL A   1      49.320  27.437  36.537  1.00  0.00     0.124 S 
ATOM     99  O   UNL A   1      49.410  27.481  37.995  1.00  0.00    -0.237 OA
ATOM    100  O   UNL A   1      49.117  26.110  35.960  1.00  0.00    -0.237 OA
ATOM    101  O   UNL A   1      50.282  28.278  35.828  1.00  0.00    -0.744 OA
ENDBRANCH  97  98
ENDBRANCH  71  92
ENDBRANCH  45  46
ENDBRANCH  37  40
ENDBRANCH  35  36
ENDBRANCH  34  35
ENDBRANCH  33  34
ENDBRANCH   1  33
TORSDOF 21
ENDMDL
MODEL 2
REMARK VINA RESULT:     -10.9      0.842      7.821
REMARK SMILES O=C(C[C@H](NC(=O)[C@]12C[C@H]3C[C@H](C[C@H](C3)C1)C2)c1cccc([N+](=O)[O-])c1)NCCCCCCNC(=O)c1ccc(-c2c3nc(c(-c4ccc(S(=O)(=O)[O-])cc4)c4ccc([nH]4)c(-c4ccc(S(=O)(=O)[O-])cc4)c4nc(c(-c5ccc(S(=O)(=O)[O-])cc5)c5ccc2[nH]5)C=C4)C=C3)cc1
REMARK SMILES IDX 30 1 29 2 28 3 27 4 1 5 2 6 3 8 4 9 18 10 19 11 26 12 20 13
REMARK SMILES IDX 22 14 21 15 23 16 24 17 25 18 5 19 6 20 7 22 8 23 9 24 16 25
REMARK SMILES IDX 17 26 10 27 14 28 12 29 11 30 15 31 13 32 31 33 32 34 33 35
REMARK SMILES IDX 34 36 35 37 36 39 37 40 38 41 96 42 39 43 95 44 40 45 41 46
REMARK SMILES IDX 42 47 89 48 43 49 94 50 88 51 90 52 44 53 93 54 87 55 86 56
REMARK SMILES IDX 45 58 75 59 56 60 74 61 57 62 60 63 73 64 91 65 58 66 59 67
REMARK SMILES IDX 72 69 92 70 61 71 46 72 47 73 55 74 48 75 54 76 49 77 50 78
REMARK SMILES IDX 51 79 52 80 53 81 76 82 77 83 85 84 78 85 84 86 79 87 80 88
REMARK SMILES IDX 81 89 82 90 83 91 62 92 63 93 71 94 64 95 70 96 65 97 66 98
REMARK SMILES IDX 67 99 68 100 69 101
REMARK H PARENT 27 7 5 21 34 38 90 57 60 68
REMARK Flexibility Score: inf
ROOT
ATOM      1  C   UNL A   1      35.084  31.910  28.211  1.00  0.00     0.002 C 
ENDROOT
BRANCH   1   2
ATOM      2  C   UNL A   1      33.934  31.440  27.320  1.00  0.00     0.021 C 
BRANCH   2   3
ATOM      3  C   UNL A   1      33.953  29.939  27.020  1.00  0.00     0.116 C 
BRANCH   3   4
ATOM      4  N   UNL A   1      33.682  29.562  25.640  1.00  0.00    -0.356 N 
ATOM      5  O   UNL A   1      31.518  28.933  26.013  1.00  0.00    -0.275 OA
ATOM      6  C   UNL A   1      32.424  29.213  25.228  1.00  0.00     0.222 C 
ATOM      7  H   UNL A   1      34.420  29.558  24.988  1.00  0.00     0.163 HD
BRANCH   6   8
ATOM      8  C   UNL A   1      32.133  29.152  23.752  1.00  0.00     0.129 C 
BRANCH   8   9
ATOM      9  C   UNL A   1      31.287  28.045  23.109  1.00  0.00     0.122 C 
BRANCH   9  10
ATOM     10  C   UNL A   1      29.914  28.672  22.806  1.00  0.00    -0.018 A 
ATOM     11  C   UNL A   1      28.749  27.968  23.177  1.00  0.00     0.006 A 
ATOM     12  C   UNL A   1      29.774  29.971  22.293  1.00  0.00     0.091 A 
ATOM     13  C   UNL A   1      27.485  28.553  23.080  1.00  0.00     0.007 A 
ATOM     14  C   UNL A   1      28.499  30.550  22.188  1.00  0.00     0.269 A 
ATOM     15  C   UNL A   1      27.355  29.849  22.590  1.00  0.00     0.085 A 
BRANCH  14  16
ATOM     16  N   UNL A   1      28.361  31.921  21.681  1.00  0.00     0.062 N 
ATOM     17  O   UNL A   1      28.245  32.834  22.512  1.00  0.00    -0.258 OA
ATOM     18  O   UNL A   1      28.375  32.087  20.453  1.00  0.00    -0.258 OA
ENDBRANCH  14  16
ENDBRANCH   9  10
BRANCH   9  19
ATOM     19  N   UNL A   1      31.718  27.168  21.992  1.00  0.00    -0.348 N 
ATOM     20  C   UNL A   1      32.351  26.000  21.701  1.00  0.00     0.226 C 
ATOM     21  H   UNL A   1      31.442  27.590  21.146  1.00  0.00     0.164 HD
ATOM     22  O   UNL A   1      32.746  25.909  20.532  1.00  0.00    -0.274 OA
BRANCH  20  23
ATOM     23  C   UNL A   1      32.538  24.823  22.662  1.00  0.00     0.050 C 
ATOM     24  C   UNL A   1      31.199  24.393  23.281  1.00  0.00     0.020 C 
ATOM     25  C   UNL A   1      33.477  25.146  23.869  1.00  0.00     0.020 C 
ATOM     26  C   UNL A   1      33.274  23.711  21.910  1.00  0.00     0.020 C 
ATOM     27  C   UNL A   1      31.369  23.116  24.114  1.00  0.00    -0.010 C 
ATOM     28  C   UNL A   1      33.677  23.883  24.753  1.00  0.00    -0.010 C 
ATOM     29  C   UNL A   1      33.371  22.430  22.732  1.00  0.00    -0.010 C 
ATOM     30  C   UNL A   1      31.977  22.016  23.231  1.00  0.00     0.007 C 
ATOM     31  C   UNL A   1      32.314  23.412  25.287  1.00  0.00     0.007 C 
ATOM     32  C   UNL A   1      34.284  22.733  23.925  1.00  0.00     0.007 C 
ENDBRANCH  20  23
ENDBRANCH   9  19
ENDBRANCH   8   9
ENDBRANCH   6   8
ENDBRANCH   3   4
ENDBRANCH   2   3
ENDBRANCH   1   2
BRANCH   1  33
ATOM     33  C   UNL A   1      34.652  32.852  29.335  1.00  0.00     0.002 C 
BRANCH  33  34
ATOM     34  C   UNL A   1      33.732  33.986  28.883  1.00  0.00     0.021 C 
BRANCH  34  35
ATOM     35  C   UNL A   1      33.955  35.298  29.628  1.00  0.00     0.116 C 
BRANCH  35  36
ATOM     36  N   UNL A   1      32.898  35.544  30.599  1.00  0.00    -0.352 N 
ATOM     37  C   UNL A   1      32.840  35.148  31.912  1.00  0.00     0.251 C 
ATOM     38  H   UNL A   1      32.127  36.061  30.271  1.00  0.00     0.163 HD
ATOM     39  O   UNL A   1      31.791  35.206  32.538  1.00  0.00    -0.269 OA
BRANCH  37  40
ATOM     40  C   UNL A   1      34.072  34.639  32.546  1.00  0.00     0.039 A 
ATOM     41  C   UNL A   1      34.058  33.384  33.156  1.00  0.00     0.014 A 
ATOM     42  C   UNL A   1      35.247  35.396  32.488  1.00  0.00     0.014 A 
ATOM     43  C   UNL A   1      35.248  32.859  33.658  1.00  0.00     0.010 A 
ATOM     44  C   UNL A   1      36.442  34.839  32.924  1.00  0.00     0.010 A 
ATOM     45  C   UNL A   1      36.453  33.567  33.516  1.00  0.00    -0.014 A 
BRANCH  45  46
ATOM     46  C   UNL A   1      37.743  32.990  33.966  1.00  0.00     0.031 A 
ATOM     47  C   UNL A   1      38.444  31.964  33.122  1.00  0.00     0.074 A 
ATOM     48  C   UNL A   1      38.239  33.335  35.170  1.00  0.00     0.049 A 
ATOM     49  N   UNL A   1      39.543  31.301  33.374  1.00  0.00    -0.248 NA
ATOM     50  C   UNL A   1      37.810  31.615  31.840  1.00  0.00     0.031 C 
ATOM     51  C   UNL A   1      37.618  34.280  36.102  1.00  0.00     0.029 A 
ATOM     52  N   UNL A   1      39.372  32.920  35.823  1.00  0.00    -0.354 N 
ATOM     53  C   UNL A   1      39.727  30.453  32.289  1.00  0.00     0.074 A 
ATOM     54  C   UNL A   1      38.596  30.641  31.407  1.00  0.00     0.031 C 
ATOM     55  C   UNL A   1      38.385  34.381  37.200  1.00  0.00     0.029 A 
ATOM     56  C   UNL A   1      39.528  33.483  37.066  1.00  0.00     0.049 A 
ATOM     57  H   UNL A   1      40.012  32.278  35.437  1.00  0.00     0.167 HD
ATOM     58  C   UNL A   1      40.757  29.609  32.038  1.00  0.00     0.031 A 
ATOM     59  C   UNL A   1      40.476  33.290  38.004  1.00  0.00     0.031 A 
ATOM     60  C   UNL A   1      41.873  29.420  32.926  1.00  0.00     0.049 A 
ATOM     61  C   UNL A   1      41.604  32.339  37.714  1.00  0.00     0.074 A 
ATOM     62  C   UNL A   1      42.993  28.629  32.745  1.00  0.00     0.029 A 
ATOM     63  N   UNL A   1      42.005  30.023  34.170  1.00  0.00    -0.354 N 
ATOM     64  N   UNL A   1      41.806  31.605  36.646  1.00  0.00    -0.248 NA
ATOM     65  C   UNL A   1      42.636  32.200  38.748  1.00  0.00     0.031 C 
ATOM     66  C   UNL A   1      43.776  28.711  33.903  1.00  0.00     0.029 A 
ATOM     67  C   UNL A   1      43.173  29.599  34.781  1.00  0.00     0.049 A 
ATOM     68  H   UNL A   1      41.362  30.659  34.559  1.00  0.00     0.167 HD
ATOM     69  C   UNL A   1      42.994  30.922  36.875  1.00  0.00     0.074 A 
ATOM     70  C   UNL A   1      43.478  31.350  38.173  1.00  0.00     0.031 C 
ATOM     71  C   UNL A   1      43.629  30.023  36.082  1.00  0.00     0.031 A 
BRANCH  58  72
ATOM     72  C   UNL A   1      40.704  28.822  30.754  1.00  0.00    -0.014 A 
ATOM     73  C   UNL A   1      39.802  27.753  30.595  1.00  0.00     0.010 A 
ATOM     74  C   UNL A   1      41.566  29.151  29.692  1.00  0.00     0.010 A 
ATOM     75  C   UNL A   1      39.807  26.989  29.424  1.00  0.00     0.020 A 
ATOM     76  C   UNL A   1      41.552  28.409  28.507  1.00  0.00     0.020 A 
ATOM     77  C   UNL A   1      40.689  27.317  28.392  1.00  0.00     0.054 A 
BRANCH  77  78
ATOM     78  S   UNL A   1      40.684  26.300  26.889  1.00  0.00     0.124 S 
ATOM     79  O   UNL A   1      41.829  25.421  27.119  1.00  0.00    -0.237 OA
ATOM     80  O   UNL A   1      39.376  25.653  26.944  1.00  0.00    -0.237 OA
ATOM     81  O   UNL A   1      40.851  27.272  25.812  1.00  0.00    -0.744 OA
ENDBRANCH  77  78
ENDBRANCH  58  72
BRANCH  59  82
ATOM     82  C   UNL A   1      40.387  34.021  39.296  1.00  0.00    -0.014 A 
ATOM     83  C   UNL A   1      41.001  35.274  39.456  1.00  0.00     0.010 A 
ATOM     84  C   UNL A   1      39.631  33.488  40.358  1.00  0.00     0.010 A 
ATOM     85  C   UNL A   1      40.861  35.983  40.654  1.00  0.00     0.020 A 
ATOM     86  C   UNL A   1      39.467  34.205  41.546  1.00  0.00     0.020 A 
ATOM     87  C   UNL A   1      40.087  35.447  41.688  1.00  0.00     0.054 A 
BRANCH  87  88
ATOM     88  S   UNL A   1      39.843  36.425  43.197  1.00  0.00     0.124 S 
ATOM     89  O   UNL A   1      38.617  35.847  43.739  1.00  0.00    -0.237 OA
ATOM     90  O   UNL A   1      41.062  36.148  43.953  1.00  0.00    -0.237 OA
ATOM     91  O   UNL A   1      39.727  37.795  42.702  1.00  0.00    -0.744 OA
ENDBRANCH  87  88
ENDBRANCH  59  82
BRANCH  71  92
ATOM     92  C   UNL A   1      44.920  29.442  36.592  1.00  0.00    -0.014 A 
ATOM     93  C   UNL A   1      46.146  30.094  36.367  1.00  0.00     0.010 A 
ATOM     94  C   UNL A   1      44.900  28.265  37.361  1.00  0.00     0.010 A 
ATOM     95  C   UNL A   1      47.332  29.564  36.883  1.00  0.00     0.020 A 
ATOM     96  C   UNL A   1      46.079  27.747  37.902  1.00  0.00     0.020 A 
ATOM     97  C   UNL A   1      47.290  28.395  37.648  1.00  0.00     0.054 A 
BRANCH  97  98
ATOM     98  S   UNL A   1      48.836  27.759  38.352  1.00  0.00     0.124 S 
ATOM     99  O   UNL A   1      49.176  26.687  37.419  1.00  0.00    -0.237 OA
ATOM    100  O   UNL A   1      49.712  28.928  38.313  1.00  0.00    -0.237 OA
ATOM    101  O   UNL A   1      48.452  27.319  39.692  1.00  0.00    -0.744 OA
ENDBRANCH  97  98
ENDBRANCH  71  92
ENDBRANCH  45  46
ENDBRANCH  37  40
ENDBRANCH  35  36
ENDBRANCH  34  35
ENDBRANCH  33  34
ENDBRANCH   1  33
TORSDOF 21
ENDMDL
MODEL 3
REMARK VINA RESULT:     -10.2      5.530      8.181
REMARK SMILES O=C(C[C@H](NC(=O)[C@]12C[C@H]3C[C@H](C[C@H](C3)C1)C2)c1cccc([N+](=O)[O-])c1)NCCCCCCNC(=O)c1ccc(-c2c3nc(c(-c4ccc(S(=O)(=O)[O-])cc4)c4ccc([nH]4)c(-c4ccc(S(=O)(=O)[O-])cc4)c4nc(c(-c5ccc(S(=O)(=O)[O-])cc5)c5ccc2[nH]5)C=C4)C=C3)cc1
REMARK SMILES IDX 30 1 29 2 28 3 27 4 1 5 2 6 3 8 4 9 18 10 19 11 26 12 20 13
REMARK SMILES IDX 22 14 21 15 23 16 24 17 25 18 5 19 6 20 7 22 8 23 9 24 16 25
REMARK SMILES IDX 17 26 10 27 14 28 12 29 11 30 15 31 13 32 31 33 32 34 33 35
REMARK SMILES IDX 34 36 35 37 36 39 37 40 38 41 96 42 39 43 95 44 40 45 41 46
REMARK SMILES IDX 42 47 89 48 43 49 94 50 88 51 90 52 44 53 93 54 87 55 86 56
REMARK SMILES IDX 45 58 75 59 56 60 74 61 57 62 60 63 73 64 91 65 58 66 59 67
REMARK SMILES IDX 72 69 92 70 61 71 46 72 47 73 55 74 48 75 54 76 49 77 50 78
REMARK SMILES IDX 51 79 52 80 53 81 76 82 77 83 85 84 78 85 84 86 79 87 80 88
REMARK SMILES IDX 81 89 82 90 83 91 62 92 63 93 71 94 64 95 70 96 65 97 66 98
REMARK SMILES IDX 67 99 68 100 69 101
REMARK H PARENT 27 7 5 21 34 38 90 57 60 68
REMARK Flexibility Score: inf
ROOT
ATOM      1  C   UNL A   1      34.000  32.411  28.404  1.00  0.00     0.002 C 
ENDROOT
BRANCH   1   2
ATOM      2  C   UNL A   1      33.984  31.330  27.323  1.00  0.00     0.021 C 
BRANCH   2   3
ATOM      3  C   UNL A   1      32.597  30.742  27.052  1.00  0.00     0.116 C 
BRANCH   3   4
ATOM      4  N   UNL A   1      32.572  29.383  26.530  1.00  0.00    -0.356 N 
ATOM      5  O   UNL A   1      34.527  28.739  27.521  1.00  0.00    -0.275 OA
ATOM      6  C   UNL A   1      33.488  28.447  26.929  1.00  0.00     0.222 C 
ATOM      7  H   UNL A   1      31.881  29.132  25.875  1.00  0.00     0.163 HD
BRANCH   6   8
ATOM      8  C   UNL A   1      33.227  26.997  26.619  1.00  0.00     0.129 C 
BRANCH   8   9
ATOM      9  C   UNL A   1      31.818  26.425  26.409  1.00  0.00     0.122 C 
BRANCH   9  10
ATOM     10  C   UNL A   1      31.501  26.599  24.912  1.00  0.00    -0.018 A 
ATOM     11  C   UNL A   1      30.187  26.945  24.533  1.00  0.00     0.006 A 
ATOM     12  C   UNL A   1      32.492  26.554  23.920  1.00  0.00     0.091 A 
ATOM     13  C   UNL A   1      29.876  27.276  23.213  1.00  0.00     0.007 A 
ATOM     14  C   UNL A   1      32.171  26.879  22.592  1.00  0.00     0.269 A 
ATOM     15  C   UNL A   1      30.869  27.250  22.237  1.00  0.00     0.085 A 
BRANCH  14  16
ATOM     16  N   UNL A   1      33.219  26.863  21.564  1.00  0.00     0.062 N 
ATOM     17  O   UNL A   1      34.044  27.788  21.567  1.00  0.00    -0.258 OA
ATOM     18  O   UNL A   1      33.222  25.921  20.758  1.00  0.00    -0.258 OA
ENDBRANCH  14  16
ENDBRANCH   9  10
BRANCH   9  19
ATOM     19  N   UNL A   1      31.342  25.106  26.893  1.00  0.00    -0.348 N 
ATOM     20  C   UNL A   1      31.249  23.789  26.564  1.00  0.00     0.226 C 
ATOM     21  H   UNL A   1      30.945  25.230  27.786  1.00  0.00     0.164 HD
ATOM     22  O   UNL A   1      30.422  23.152  27.229  1.00  0.00    -0.274 OA
BRANCH  20  23
ATOM     23  C   UNL A   1      32.106  23.067  25.520  1.00  0.00     0.050 C 
ATOM     24  C   UNL A   1      32.242  21.573  25.852  1.00  0.00     0.020 C 
ATOM     25  C   UNL A   1      33.567  23.613  25.426  1.00  0.00     0.020 C 
ATOM     26  C   UNL A   1      31.513  23.358  24.139  1.00  0.00     0.020 C 
ATOM     27  C   UNL A   1      32.962  20.828  24.721  1.00  0.00    -0.010 C 
ATOM     28  C   UNL A   1      34.346  22.884  24.296  1.00  0.00    -0.010 C 
ATOM     29  C   UNL A   1      32.200  22.555  23.040  1.00  0.00    -0.010 C 
ATOM     30  C   UNL A   1      32.207  21.061  23.403  1.00  0.00     0.007 C 
ATOM     31  C   UNL A   1      34.391  21.376  24.597  1.00  0.00     0.007 C 
ATOM     32  C   UNL A   1      33.639  23.075  22.940  1.00  0.00     0.007 C 
ENDBRANCH  20  23
ENDBRANCH   9  19
ENDBRANCH   8   9
ENDBRANCH   6   8
ENDBRANCH   3   4
ENDBRANCH   2   3
ENDBRANCH   1   2
BRANCH   1  33
ATOM     33  C   UNL A   1      35.301  32.468  29.204  1.00  0.00     0.002 C 
BRANCH  33  34
ATOM     34  C   UNL A   1      36.173  31.219  29.072  1.00  0.00     0.021 C 
BRANCH  34  35
ATOM     35  C   UNL A   1      36.568  30.596  30.407  1.00  0.00     0.116 C 
BRANCH  35  36
ATOM     36  N   UNL A   1      36.618  31.595  31.466  1.00  0.00    -0.352 N 
ATOM     37  C   UNL A   1      37.698  31.984  32.217  1.00  0.00     0.251 C 
ATOM     38  H   UNL A   1      35.767  32.048  31.668  1.00  0.00     0.163 HD
ATOM     39  O   UNL A   1      37.548  32.647  33.234  1.00  0.00    -0.269 OA
BRANCH  37  40
ATOM     40  C   UNL A   1      39.045  31.573  31.775  1.00  0.00     0.039 A 
ATOM     41  C   UNL A   1      39.769  30.662  32.545  1.00  0.00     0.014 A 
ATOM     42  C   UNL A   1      39.559  32.063  30.569  1.00  0.00     0.014 A 
ATOM     43  C   UNL A   1      40.994  30.193  32.071  1.00  0.00     0.010 A 
ATOM     44  C   UNL A   1      40.744  31.538  30.068  1.00  0.00     0.010 A 
ATOM     45  C   UNL A   1      41.473  30.602  30.815  1.00  0.00    -0.014 A 
BRANCH  45  46
ATOM     46  C   UNL A   1      42.730  30.050  30.254  1.00  0.00     0.031 A 
ATOM     47  C   UNL A   1      43.963  30.906  30.187  1.00  0.00     0.074 A 
ATOM     48  C   UNL A   1      42.736  28.807  29.735  1.00  0.00     0.049 A 
ATOM     49  N   UNL A   1      45.134  30.625  29.678  1.00  0.00    -0.248 NA
ATOM     50  C   UNL A   1      43.857  32.266  30.740  1.00  0.00     0.031 C 
ATOM     51  C   UNL A   1      41.583  27.903  29.692  1.00  0.00     0.029 A 
ATOM     52  N   UNL A   1      43.740  28.094  29.131  1.00  0.00    -0.354 N 
ATOM     53  C   UNL A   1      45.901  31.773  29.840  1.00  0.00     0.074 A 
ATOM     54  C   UNL A   1      45.044  32.773  30.439  1.00  0.00     0.031 C 
ATOM     55  C   UNL A   1      41.950  26.752  29.107  1.00  0.00     0.029 A 
ATOM     56  C   UNL A   1      43.349  26.850  28.700  1.00  0.00     0.049 A 
ATOM     57  H   UNL A   1      44.654  28.442  29.018  1.00  0.00     0.167 HD
ATOM     58  C   UNL A   1      47.206  31.971  29.538  1.00  0.00     0.031 A 
ATOM     59  C   UNL A   1      44.032  25.898  28.036  1.00  0.00     0.031 A 
ATOM     60  C   UNL A   1      48.048  30.974  28.932  1.00  0.00     0.049 A 
ATOM     61  C   UNL A   1      45.476  26.139  27.696  1.00  0.00     0.074 A 
ATOM     62  C   UNL A   1      49.396  31.053  28.631  1.00  0.00     0.029 A 
ATOM     63  N   UNL A   1      47.620  29.718  28.526  1.00  0.00    -0.354 N 
ATOM     64  N   UNL A   1      46.208  27.203  27.930  1.00  0.00    -0.248 NA
ATOM     65  C   UNL A   1      46.189  25.052  27.015  1.00  0.00     0.031 C 
ATOM     66  C   UNL A   1      49.770  29.865  27.992  1.00  0.00     0.029 A 
ATOM     67  C   UNL A   1      48.669  29.022  27.949  1.00  0.00     0.049 A 
ATOM     68  H   UNL A   1      46.705  29.372  28.632  1.00  0.00     0.167 HD
ATOM     69  C   UNL A   1      47.472  26.909  27.434  1.00  0.00     0.074 A 
ATOM     70  C   UNL A   1      47.411  25.559  26.908  1.00  0.00     0.031 C 
ATOM     71  C   UNL A   1      48.584  27.685  27.415  1.00  0.00     0.031 A 
BRANCH  58  72
ATOM     72  C   UNL A   1      47.786  33.326  29.850  1.00  0.00    -0.014 A 
ATOM     73  C   UNL A   1      47.771  34.360  28.895  1.00  0.00     0.010 A 
ATOM     74  C   UNL A   1      48.356  33.572  31.113  1.00  0.00     0.010 A 
ATOM     75  C   UNL A   1      48.371  35.591  29.174  1.00  0.00     0.020 A 
ATOM     76  C   UNL A   1      48.929  34.813  31.407  1.00  0.00     0.020 A 
ATOM     77  C   UNL A   1      48.954  35.806  30.425  1.00  0.00     0.054 A 
BRANCH  77  78
ATOM     78  S   UNL A   1      49.738  37.409  30.754  1.00  0.00     0.124 S 
ATOM     79  O   UNL A   1      50.428  37.669  29.493  1.00  0.00    -0.237 OA
ATOM     80  O   UNL A   1      48.594  38.274  31.034  1.00  0.00    -0.237 OA
ATOM     81  O   UNL A   1      50.607  37.141  31.897  1.00  0.00    -0.744 OA
ENDBRANCH  77  78
ENDBRANCH  58  72
BRANCH  59  82
ATOM     82  C   UNL A   1      43.345  24.632  27.659  1.00  0.00    -0.014 A 
ATOM     83  C   UNL A   1      43.263  23.563  28.566  1.00  0.00     0.010 A 
ATOM     84  C   UNL A   1      42.716  24.517  26.405  1.00  0.00     0.010 A 
ATOM     85  C   UNL A   1      42.562  22.401  28.227  1.00  0.00     0.020 A 
ATOM     86  C   UNL A   1      41.994  23.368  26.074  1.00  0.00     0.020 A 
ATOM     87  C   UNL A   1      41.925  22.315  26.986  1.00  0.00     0.054 A 
BRANCH  87  88
ATOM     88  S   UNL A   1      40.945  20.836  26.604  1.00  0.00     0.124 S 
ATOM     89  O   UNL A   1      40.801  20.219  27.919  1.00  0.00    -0.237 OA
ATOM     90  O   UNL A   1      39.726  21.403  26.033  1.00  0.00    -0.237 OA
ATOM     91  O   UNL A   1      41.784  20.105  25.656  1.00  0.00    -0.744 OA
ENDBRANCH  87  88
ENDBRANCH  59  82
BRANCH  71  92
ATOM     92  C   UNL A   1      49.830  27.094  26.810  1.00  0.00    -0.014 A 
ATOM     93  C   UNL A   1      50.619  26.179  27.530  1.00  0.00     0.010 A 
ATOM     94  C   UNL A   1      50.178  27.409  25.485  1.00  0.00     0.010 A 
ATOM     95  C   UNL A   1      51.750  25.608  26.940  1.00  0.00     0.020 A 
ATOM     96  C   UNL A   1      51.292  26.818  24.882  1.00  0.00     0.020 A 
ATOM     97  C   UNL A   1      52.078  25.929  25.619  1.00  0.00     0.054 A 
BRANCH  97  98
ATOM     98  S   UNL A   1      53.518  25.131  24.859  1.00  0.00     0.124 S 
ATOM     99  O   UNL A   1      53.329  23.734  25.245  1.00  0.00    -0.237 OA
ATOM    100  O   UNL A   1      53.334  25.421  23.439  1.00  0.00    -0.237 OA
ATOM    101  O   UNL A   1      54.656  25.801  25.484  1.00  0.00    -0.744 OA
ENDBRANCH  97  98
ENDBRANCH  71  92
ENDBRANCH  45  46
ENDBRANCH  37  40
ENDBRANCH  35  36
ENDBRANCH  34  35
ENDBRANCH  33  34
ENDBRANCH   1  33
TORSDOF 21
ENDMDL
