MODEL 1
REMARK VINA RESULT:      -9.9      0.000      0.000
REMARK SMILES COc1c(C(=O)NCCCCCCNC(=O)c2ccc(-c3c4nc(c(-c5ccc(S(=O)(=O)[O-])cc5)c5ccc([nH]5)c(-c5ccc(S(=O)(=O)[O-])cc5)c5nc(c(-c6ccc(S(=O)(=O)[O-])cc6)c6ccc3[nH]6)C=C5)C=C4)cc2)ccc(F)c1F
REMARK SMILES IDX 11 1 10 2 9 3 8 4 7 5 5 6 6 7 4 9 3 10 81 11 77 12 79 13
REMARK SMILES IDX 82 14 78 15 80 16 2 17 1 18 12 19 13 20 14 21 15 22 16 24
REMARK SMILES IDX 17 25 18 26 76 27 19 28 75 29 20 30 21 31 22 32 69 33 23 34
REMARK SMILES IDX 74 35 68 36 70 37 24 38 73 39 67 40 66 41 25 43 55 44 36 45
REMARK SMILES IDX 54 46 37 47 40 48 53 49 71 50 38 51 39 52 52 54 72 55 41 56
REMARK SMILES IDX 26 57 27 58 35 59 28 60 34 61 29 62 30 63 31 64 32 65 33 66
REMARK SMILES IDX 56 67 57 68 65 69 58 70 64 71 59 72 60 73 61 74 62 75 63 76
REMARK SMILES IDX 42 77 43 78 51 79 44 80 50 81 45 82 46 83 47 84 48 85 49 86
REMARK H PARENT 7 8 14 23 70 42 40 53
REMARK Flexibility Score: inf
ROOT
ATOM      1  C   UNL A   1      34.995  22.360  24.140  1.00  0.00     0.002 C 
ENDROOT
BRANCH   1   2
ATOM      2  C   UNL A   1      33.653  21.899  24.726  1.00  0.00     0.002 C 
BRANCH   2   3
ATOM      3  C   UNL A   1      33.673  21.573  26.229  1.00  0.00     0.021 C 
BRANCH   3   4
ATOM      4  C   UNL A   1      33.327  22.771  27.115  1.00  0.00     0.116 C 
BRANCH   4   5
ATOM      5  N   UNL A   1      31.898  22.849  27.328  1.00  0.00    -0.352 N 
ATOM      6  C   UNL A   1      30.835  23.489  26.752  1.00  0.00     0.255 C 
ATOM      7  O   UNL A   1      29.761  23.245  27.304  1.00  0.00    -0.269 OA
ATOM      8  H   UNL A   1      31.614  22.294  28.090  1.00  0.00     0.163 HD
BRANCH   6   9
ATOM      9  C   UNL A   1      30.888  24.381  25.539  1.00  0.00     0.085 A 
ATOM     10  C   UNL A   1      30.903  25.785  25.708  1.00  0.00     0.170 A 
ATOM     11  C   UNL A   1      30.744  26.645  24.612  1.00  0.00     0.201 A 
ATOM     12  C   UNL A   1      30.885  23.907  24.216  1.00  0.00     0.021 A 
ATOM     13  C   UNL A   1      30.642  26.137  23.330  1.00  0.00     0.162 A 
ATOM     14  F   UNL A   1      30.715  27.975  24.798  1.00  0.00    -0.200 F 
ATOM     15  C   UNL A   1      30.739  24.773  23.121  1.00  0.00     0.043 A 
ATOM     16  F   UNL A   1      30.485  26.958  22.282  1.00  0.00    -0.204 F 
BRANCH  10  17
ATOM     17  O   UNL A   1      31.047  26.400  26.928  1.00  0.00    -0.493 OA
ATOM     18  C   UNL A   1      32.321  27.049  27.006  1.00  0.00     0.278 C 
ENDBRANCH  10  17
ENDBRANCH   6   9
ENDBRANCH   4   5
ENDBRANCH   3   4
ENDBRANCH   2   3
ENDBRANCH   1   2
BRANCH   1  19
ATOM     19  C   UNL A   1      35.332  23.835  24.377  1.00  0.00     0.021 C 
BRANCH  19  20
ATOM     20  C   UNL A   1      36.363  24.072  25.474  1.00  0.00     0.116 C 
BRANCH  20  21
ATOM     21  N   UNL A   1      37.277  22.949  25.599  1.00  0.00    -0.352 N 
ATOM     22  C   UNL A   1      38.573  22.933  26.051  1.00  0.00     0.251 C 
ATOM     23  H   UNL A   1      36.915  22.076  25.322  1.00  0.00     0.163 HD
ATOM     24  O   UNL A   1      39.275  21.944  25.861  1.00  0.00    -0.269 OA
BRANCH  22  25
ATOM     25  C   UNL A   1      39.122  24.112  26.752  1.00  0.00     0.039 A 
ATOM     26  C   UNL A   1      39.929  25.006  26.047  1.00  0.00     0.014 A 
ATOM     27  C   UNL A   1      38.855  24.324  28.109  1.00  0.00     0.014 A 
ATOM     28  C   UNL A   1      40.434  26.138  26.691  1.00  0.00     0.010 A 
ATOM     29  C   UNL A   1      39.300  25.488  28.730  1.00  0.00     0.010 A 
ATOM     30  C   UNL A   1      40.102  26.401  28.031  1.00  0.00    -0.014 A 
BRANCH  30  31
ATOM     31  C   UNL A   1      40.593  27.625  28.716  1.00  0.00     0.031 A 
ATOM     32  C   UNL A   1      41.985  27.666  29.287  1.00  0.00     0.074 A 
ATOM     33  C   UNL A   1      39.765  28.677  28.872  1.00  0.00     0.049 A 
ATOM     34  N   UNL A   1      42.576  28.628  29.947  1.00  0.00    -0.248 NA
ATOM     35  C   UNL A   1      42.813  26.460  29.114  1.00  0.00     0.031 C 
ATOM     36  C   UNL A   1      38.380  28.742  28.399  1.00  0.00     0.029 A 
ATOM     37  N   UNL A   1      39.968  29.893  29.472  1.00  0.00    -0.354 N 
ATOM     38  C   UNL A   1      43.834  28.140  30.284  1.00  0.00     0.074 A 
ATOM     39  C   UNL A   1      43.902  26.779  29.798  1.00  0.00     0.031 C 
ATOM     40  C   UNL A   1      37.870  29.947  28.700  1.00  0.00     0.029 A 
ATOM     41  C   UNL A   1      38.874  30.724  29.421  1.00  0.00     0.049 A 
ATOM     42  H   UNL A   1      40.816  30.147  29.901  1.00  0.00     0.167 HD
ATOM     43  C   UNL A   1      44.846  28.772  30.924  1.00  0.00     0.031 A 
ATOM     44  C   UNL A   1      38.696  31.970  29.899  1.00  0.00     0.031 A 
ATOM     45  C   UNL A   1      44.778  30.130  31.395  1.00  0.00     0.049 A 
ATOM     46  C   UNL A   1      39.834  32.650  30.610  1.00  0.00     0.074 A 
ATOM     47  C   UNL A   1      45.770  30.883  31.998  1.00  0.00     0.029 A 
ATOM     48  N   UNL A   1      43.654  30.939  31.318  1.00  0.00    -0.354 N 
ATOM     49  N   UNL A   1      41.040  32.196  30.857  1.00  0.00    -0.248 NA
ATOM     50  C   UNL A   1      39.591  34.015  31.095  1.00  0.00     0.031 C 
ATOM     51  C   UNL A   1      45.229  32.128  32.337  1.00  0.00     0.029 A 
ATOM     52  C   UNL A   1      43.919  32.174  31.888  1.00  0.00     0.049 A 
ATOM     53  H   UNL A   1      42.795  30.675  30.917  1.00  0.00     0.167 HD
ATOM     54  C   UNL A   1      41.709  33.230  31.502  1.00  0.00     0.074 A 
ATOM     55  C   UNL A   1      40.778  34.337  31.591  1.00  0.00     0.031 C 
ATOM     56  C   UNL A   1      42.979  33.262  31.976  1.00  0.00     0.031 A 
BRANCH  43  57
ATOM     57  C   UNL A   1      46.115  27.994  31.161  1.00  0.00    -0.014 A 
ATOM     58  C   UNL A   1      47.160  27.997  30.220  1.00  0.00     0.010 A 
ATOM     59  C   UNL A   1      46.278  27.276  32.361  1.00  0.00     0.010 A 
ATOM     60  C   UNL A   1      48.325  27.261  30.451  1.00  0.00     0.020 A 
ATOM     61  C   UNL A   1      47.456  26.563  32.610  1.00  0.00     0.020 A 
ATOM     62  C   UNL A   1      48.464  26.545  31.644  1.00  0.00     0.054 A 
BRANCH  62  63
ATOM     63  S   UNL A   1      49.994  25.613  31.926  1.00  0.00     0.124 S 
ATOM     64  O   UNL A   1      50.288  25.108  30.587  1.00  0.00    -0.237 OA
ATOM     65  O   UNL A   1      50.907  26.637  32.425  1.00  0.00    -0.237 OA
ATOM     66  O   UNL A   1      49.607  24.598  32.903  1.00  0.00    -0.744 OA
ENDBRANCH  62  63
ENDBRANCH  43  57
BRANCH  44  67
ATOM     67  C   UNL A   1      37.394  32.664  29.703  1.00  0.00    -0.014 A 
ATOM     68  C   UNL A   1      36.397  32.600  30.693  1.00  0.00     0.010 A 
ATOM     69  C   UNL A   1      37.147  33.400  28.531  1.00  0.00     0.010 A 
ATOM     70  C   UNL A   1      35.170  33.244  30.506  1.00  0.00     0.020 A 
ATOM     71  C   UNL A   1      35.933  34.069  28.352  1.00  0.00     0.020 A 
ATOM     72  C   UNL A   1      34.947  33.976  29.336  1.00  0.00     0.054 A 
BRANCH  72  73
ATOM     73  S   UNL A   1      33.367  34.846  29.137  1.00  0.00     0.124 S 
ATOM     74  O   UNL A   1      33.799  36.159  28.670  1.00  0.00    -0.237 OA
ATOM     75  O   UNL A   1      32.675  34.020  28.151  1.00  0.00    -0.237 OA
ATOM     76  O   UNL A   1      32.790  34.815  30.479  1.00  0.00    -0.744 OA
ENDBRANCH  72  73
ENDBRANCH  44  67
BRANCH  56  77
ATOM     77  C   UNL A   1      43.447  34.547  32.606  1.00  0.00    -0.014 A 
ATOM     78  C   UNL A   1      43.973  35.593  31.828  1.00  0.00     0.010 A 
ATOM     79  C   UNL A   1      43.321  34.723  33.997  1.00  0.00     0.010 A 
ATOM     80  C   UNL A   1      44.402  36.777  32.434  1.00  0.00     0.020 A 
ATOM     81  C   UNL A   1      43.720  35.917  34.602  1.00  0.00     0.020 A 
ATOM     82  C   UNL A   1      44.275  36.930  33.818  1.00  0.00     0.054 A 
BRANCH  82  83
ATOM     83  S   UNL A   1      44.810  38.487  34.578  1.00  0.00     0.124 S 
ATOM     84  O   UNL A   1      44.544  39.451  33.513  1.00  0.00    -0.237 OA
ATOM     85  O   UNL A   1      43.941  38.588  35.748  1.00  0.00    -0.237 OA
ATOM     86  O   UNL A   1      46.222  38.261  34.875  1.00  0.00    -0.744 OA
ENDBRANCH  82  83
ENDBRANCH  56  77
ENDBRANCH  30  31
ENDBRANCH  22  25
ENDBRANCH  20  21
ENDBRANCH  19  20
ENDBRANCH   1  19
TORSDOF 17
ENDMDL
MODEL 2
REMARK VINA RESULT:      -9.9      4.324     10.787
REMARK SMILES COc1c(C(=O)NCCCCCCNC(=O)c2ccc(-c3c4nc(c(-c5ccc(S(=O)(=O)[O-])cc5)c5ccc([nH]5)c(-c5ccc(S(=O)(=O)[O-])cc5)c5nc(c(-c6ccc(S(=O)(=O)[O-])cc6)c6ccc3[nH]6)C=C5)C=C4)cc2)ccc(F)c1F
REMARK SMILES IDX 11 1 10 2 9 3 8 4 7 5 5 6 6 7 4 9 3 10 81 11 77 12 79 13
REMARK SMILES IDX 82 14 78 15 80 16 2 17 1 18 12 19 13 20 14 21 15 22 16 24
REMARK SMILES IDX 17 25 18 26 76 27 19 28 75 29 20 30 21 31 22 32 69 33 23 34
REMARK SMILES IDX 74 35 68 36 70 37 24 38 73 39 67 40 66 41 25 43 55 44 36 45
REMARK SMILES IDX 54 46 37 47 40 48 53 49 71 50 38 51 39 52 52 54 72 55 41 56
REMARK SMILES IDX 26 57 27 58 35 59 28 60 34 61 29 62 30 63 31 64 32 65 33 66
REMARK SMILES IDX 56 67 57 68 65 69 58 70 64 71 59 72 60 73 61 74 62 75 63 76
REMARK SMILES IDX 42 77 43 78 51 79 44 80 50 81 45 82 46 83 47 84 48 85 49 86
REMARK H PARENT 7 8 14 23 70 42 40 53
REMARK Flexibility Score: inf
ROOT
ATOM      1  C   UNL A   1      36.447  34.165  29.168  1.00  0.00     0.002 C 
ENDROOT
BRANCH   1   2
ATOM      2  C   UNL A   1      37.744  33.351  29.058  1.00  0.00     0.002 C 
BRANCH   2   3
ATOM      3  C   UNL A   1      39.039  34.151  29.277  1.00  0.00     0.021 C 
BRANCH   3   4
ATOM      4  C   UNL A   1      38.958  35.129  30.451  1.00  0.00     0.116 C 
BRANCH   4   5
ATOM      5  N   UNL A   1      39.514  34.534  31.647  1.00  0.00    -0.352 N 
ATOM      6  C   UNL A   1      39.035  33.958  32.791  1.00  0.00     0.255 C 
ATOM      7  O   UNL A   1      39.924  33.587  33.560  1.00  0.00    -0.269 OA
ATOM      8  H   UNL A   1      40.497  34.547  31.634  1.00  0.00     0.163 HD
BRANCH   6   9
ATOM      9  C   UNL A   1      37.585  33.725  33.128  1.00  0.00     0.085 A 
ATOM     10  C   UNL A   1      36.942  32.553  32.664  1.00  0.00     0.170 A 
ATOM     11  C   UNL A   1      35.554  32.398  32.779  1.00  0.00     0.201 A 
ATOM     12  C   UNL A   1      36.794  34.628  33.858  1.00  0.00     0.021 A 
ATOM     13  C   UNL A   1      34.791  33.360  33.415  1.00  0.00     0.162 A 
ATOM     14  F   UNL A   1      34.956  31.299  32.291  1.00  0.00    -0.200 F 
ATOM     15  C   UNL A   1      35.406  34.463  33.982  1.00  0.00     0.043 A 
ATOM     16  F   UNL A   1      33.462  33.216  33.522  1.00  0.00    -0.204 F 
BRANCH  10  17
ATOM     17  O   UNL A   1      37.608  31.513  32.061  1.00  0.00    -0.493 OA
ATOM     18  C   UNL A   1      37.967  30.527  33.034  1.00  0.00     0.278 C 
ENDBRANCH  10  17
ENDBRANCH   6   9
ENDBRANCH   4   5
ENDBRANCH   3   4
ENDBRANCH   2   3
ENDBRANCH   1   2
BRANCH   1  19
ATOM     19  C   UNL A   1      35.230  33.538  28.483  1.00  0.00     0.021 C 
BRANCH  19  20
ATOM     20  C   UNL A   1      34.623  32.361  29.239  1.00  0.00     0.116 C 
BRANCH  20  21
ATOM     21  N   UNL A   1      34.007  31.406  28.334  1.00  0.00    -0.352 N 
ATOM     22  C   UNL A   1      34.577  30.350  27.670  1.00  0.00     0.251 C 
ATOM     23  H   UNL A   1      33.043  31.534  28.176  1.00  0.00     0.163 HD
ATOM     24  O   UNL A   1      33.967  29.797  26.760  1.00  0.00    -0.269 OA
BRANCH  22  25
ATOM     25  C   UNL A   1      35.932  29.891  28.044  1.00  0.00     0.039 A 
ATOM     26  C   UNL A   1      36.977  30.045  27.132  1.00  0.00     0.014 A 
ATOM     27  C   UNL A   1      36.164  29.291  29.287  1.00  0.00     0.014 A 
ATOM     28  C   UNL A   1      38.266  29.639  27.483  1.00  0.00     0.010 A 
ATOM     29  C   UNL A   1      37.461  28.952  29.661  1.00  0.00     0.010 A 
ATOM     30  C   UNL A   1      38.524  29.113  28.760  1.00  0.00    -0.014 A 
BRANCH  30  31
ATOM     31  C   UNL A   1      39.898  28.720  29.164  1.00  0.00     0.031 A 
ATOM     32  C   UNL A   1      40.776  29.692  29.907  1.00  0.00     0.074 A 
ATOM     33  C   UNL A   1      40.373  27.509  28.814  1.00  0.00     0.049 A 
ATOM     34  N   UNL A   1      42.011  29.543  30.311  1.00  0.00    -0.248 NA
ATOM     35  C   UNL A   1      40.199  31.011  30.214  1.00  0.00     0.031 C 
ATOM     36  C   UNL A   1      39.634  26.495  28.058  1.00  0.00     0.029 A 
ATOM     37  N   UNL A   1      41.592  26.925  29.046  1.00  0.00    -0.354 N 
ATOM     38  C   UNL A   1      42.365  30.751  30.902  1.00  0.00     0.074 A 
ATOM     39  C   UNL A   1      41.231  31.638  30.760  1.00  0.00     0.031 C 
ATOM     40  C   UNL A   1      40.403  25.403  27.918  1.00  0.00     0.029 A 
ATOM     41  C   UNL A   1      41.702  25.653  28.535  1.00  0.00     0.049 A 
ATOM     42  H   UNL A   1      42.321  27.374  29.531  1.00  0.00     0.167 HD
ATOM     43  C   UNL A   1      43.522  31.086  31.522  1.00  0.00     0.031 A 
ATOM     44  C   UNL A   1      42.731  24.784  28.560  1.00  0.00     0.031 A 
ATOM     45  C   UNL A   1      44.642  30.195  31.671  1.00  0.00     0.049 A 
ATOM     46  C   UNL A   1      44.006  25.180  29.251  1.00  0.00     0.074 A 
ATOM     47  C   UNL A   1      45.835  30.416  32.338  1.00  0.00     0.029 A 
ATOM     48  N   UNL A   1      44.711  28.914  31.145  1.00  0.00    -0.354 N 
ATOM     49  N   UNL A   1      44.296  26.303  29.866  1.00  0.00    -0.248 NA
ATOM     50  C   UNL A   1      45.089  24.187  29.264  1.00  0.00     0.031 C 
ATOM     51  C   UNL A   1      46.646  29.290  32.167  1.00  0.00     0.029 A 
ATOM     52  C   UNL A   1      45.936  28.342  31.448  1.00  0.00     0.049 A 
ATOM     53  H   UNL A   1      43.995  28.474  30.633  1.00  0.00     0.167 HD
ATOM     54  C   UNL A   1      45.585  26.140  30.362  1.00  0.00     0.074 A 
ATOM     55  C   UNL A   1      46.010  24.806  29.990  1.00  0.00     0.031 C 
ATOM     56  C   UNL A   1      46.347  27.015  31.064  1.00  0.00     0.031 A 
BRANCH  43  57
ATOM     57  C   UNL A   1      43.636  32.481  32.078  1.00  0.00    -0.014 A 
ATOM     58  C   UNL A   1      43.368  32.752  33.432  1.00  0.00     0.010 A 
ATOM     59  C   UNL A   1      44.052  33.533  31.240  1.00  0.00     0.010 A 
ATOM     60  C   UNL A   1      43.468  34.055  33.928  1.00  0.00     0.020 A 
ATOM     61  C   UNL A   1      44.184  34.833  31.741  1.00  0.00     0.020 A 
ATOM     62  C   UNL A   1      43.872  35.088  33.077  1.00  0.00     0.054 A 
BRANCH  62  63
ATOM     63  S   UNL A   1      44.011  36.766  33.752  1.00  0.00     0.124 S 
ATOM     64  O   UNL A   1      45.060  36.599  34.755  1.00  0.00    -0.237 OA
ATOM     65  O   UNL A   1      44.383  37.553  32.580  1.00  0.00    -0.237 OA
ATOM     66  O   UNL A   1      42.678  37.037  34.284  1.00  0.00    -0.744 OA
ENDBRANCH  62  63
ENDBRANCH  43  57
BRANCH  44  67
ATOM     67  C   UNL A   1      42.589  23.444  27.926  1.00  0.00    -0.014 A 
ATOM     68  C   UNL A   1      43.284  23.139  26.743  1.00  0.00     0.010 A 
ATOM     69  C   UNL A   1      41.766  22.464  28.509  1.00  0.00     0.010 A 
ATOM     70  C   UNL A   1      43.144  21.884  26.143  1.00  0.00     0.020 A 
ATOM     71  C   UNL A   1      41.646  21.199  27.927  1.00  0.00     0.020 A 
ATOM     72  C   UNL A   1      42.327  20.921  26.741  1.00  0.00     0.054 A 
BRANCH  72  73
ATOM     73  S   UNL A   1      42.199  19.282  25.972  1.00  0.00     0.124 S 
ATOM     74  O   UNL A   1      42.704  18.411  27.028  1.00  0.00    -0.237 OA
ATOM     75  O   UNL A   1      40.770  19.175  25.692  1.00  0.00    -0.237 OA
ATOM     76  O   UNL A   1      43.051  19.394  24.790  1.00  0.00    -0.744 OA
ENDBRANCH  72  73
ENDBRANCH  44  67
BRANCH  56  77
ATOM     77  C   UNL A   1      47.709  26.546  31.503  1.00  0.00    -0.014 A 
ATOM     78  C   UNL A   1      48.855  26.809  30.733  1.00  0.00     0.010 A 
ATOM     79  C   UNL A   1      47.845  25.864  32.726  1.00  0.00     0.010 A 
ATOM     80  C   UNL A   1      50.109  26.364  31.159  1.00  0.00     0.020 A 
ATOM     81  C   UNL A   1      49.102  25.444  33.170  1.00  0.00     0.020 A 
ATOM     82  C   UNL A   1      50.224  25.681  32.374  1.00  0.00     0.054 A 
BRANCH  82  83
ATOM     83  S   UNL A   1      51.866  25.140  32.921  1.00  0.00     0.124 S 
ATOM     84  O   UNL A   1      51.628  24.823  34.326  1.00  0.00    -0.237 OA
ATOM     85  O   UNL A   1      52.131  23.994  32.054  1.00  0.00    -0.237 OA
ATOM     86  O   UNL A   1      52.713  26.305  32.679  1.00  0.00    -0.744 OA
ENDBRANCH  82  83
ENDBRANCH  56  77
ENDBRANCH  30  31
ENDBRANCH  22  25
ENDBRANCH  20  21
ENDBRANCH  19  20
ENDBRANCH   1  19
TORSDOF 17
ENDMDL
MODEL 3
REMARK VINA RESULT:      -9.6      3.570      4.483
REMARK SMILES COc1c(C(=O)NCCCCCCNC(=O)c2ccc(-c3c4nc(c(-c5ccc(S(=O)(=O)[O-])cc5)c5ccc([nH]5)c(-c5ccc(S(=O)(=O)[O-])cc5)c5nc(c(-c6ccc(S(=O)(=O)[O-])cc6)c6ccc3[nH]6)C=C5)C=C4)cc2)ccc(F)c1F
REMARK SMILES IDX 11 1 10 2 9 3 8 4 7 5 5 6 6 7 4 9 3 10 81 11 77 12 79 13
REMARK SMILES IDX 82 14 78 15 80 16 2 17 1 18 12 19 13 20 14 21 15 22 16 24
REMARK SMILES IDX 17 25 18 26 76 27 19 28 75 29 20 30 21 31 22 32 69 33 23 34
REMARK SMILES IDX 74 35 68 36 70 37 24 38 73 39 67 40 66 41 25 43 55 44 36 45
REMARK SMILES IDX 54 46 37 47 40 48 53 49 71 50 38 51 39 52 52 54 72 55 41 56
REMARK SMILES IDX 26 57 27 58 35 59 28 60 34 61 29 62 30 63 31 64 32 65 33 66
REMARK SMILES IDX 56 67 57 68 65 69 58 70 64 71 59 72 60 73 61 74 62 75 63 76
REMARK SMILES IDX 42 77 43 78 51 79 44 80 50 81 45 82 46 83 47 84 48 85 49 86
REMARK H PARENT 7 8 14 23 70 42 40 53
REMARK Flexibility Score: inf
ROOT
ATOM      1  C   UNL A   1      37.408  23.511  25.945  1.00  0.00     0.002 C 
ENDROOT
BRANCH   1   2
ATOM      2  C   UNL A   1      36.685  23.035  24.677  1.00  0.00     0.002 C 
BRANCH   2   3
ATOM      3  C   UNL A   1      35.454  23.865  24.276  1.00  0.00     0.021 C 
BRANCH   3   4
ATOM      4  C   UNL A   1      34.851  24.659  25.436  1.00  0.00     0.116 C 
BRANCH   4   5
ATOM      5  N   UNL A   1      33.454  24.325  25.609  1.00  0.00    -0.352 N 
ATOM      6  C   UNL A   1      32.278  25.003  25.776  1.00  0.00     0.255 C 
ATOM      7  O   UNL A   1      31.300  24.261  25.892  1.00  0.00    -0.269 OA
ATOM      8  H   UNL A   1      33.312  23.351  25.606  1.00  0.00     0.163 HD
BRANCH   6   9
ATOM      9  C   UNL A   1      32.110  26.500  25.782  1.00  0.00     0.085 A 
ATOM     10  C   UNL A   1      32.446  27.242  24.626  1.00  0.00     0.170 A 
ATOM     11  C   UNL A   1      32.500  28.643  24.659  1.00  0.00     0.201 A 
ATOM     12  C   UNL A   1      31.666  27.235  26.894  1.00  0.00     0.021 A 
ATOM     13  C   UNL A   1      32.153  29.332  25.807  1.00  0.00     0.162 A 
ATOM     14  F   UNL A   1      32.865  29.329  23.564  1.00  0.00    -0.200 F 
ATOM     15  C   UNL A   1      31.709  28.637  26.919  1.00  0.00     0.043 A 
ATOM     16  F   UNL A   1      32.209  30.671  25.842  1.00  0.00    -0.204 F 
BRANCH  10  17
ATOM     17  O   UNL A   1      32.760  26.665  23.419  1.00  0.00    -0.493 OA
ATOM     18  C   UNL A   1      31.580  26.515  22.622  1.00  0.00     0.278 C 
ENDBRANCH  10  17
ENDBRANCH   6   9
ENDBRANCH   4   5
ENDBRANCH   3   4
ENDBRANCH   2   3
ENDBRANCH   1   2
BRANCH   1  19
ATOM     19  C   UNL A   1      38.712  22.774  26.261  1.00  0.00     0.021 C 
BRANCH  19  20
ATOM     20  C   UNL A   1      39.749  23.622  26.990  1.00  0.00     0.116 C 
BRANCH  20  21
ATOM     21  N   UNL A   1      40.744  24.152  26.072  1.00  0.00    -0.352 N 
ATOM     22  C   UNL A   1      41.290  25.410  26.018  1.00  0.00     0.251 C 
ATOM     23  H   UNL A   1      41.074  23.519  25.394  1.00  0.00     0.163 HD
ATOM     24  O   UNL A   1      41.933  25.756  25.032  1.00  0.00    -0.269 OA
BRANCH  22  25
ATOM     25  C   UNL A   1      41.089  26.347  27.144  1.00  0.00     0.039 A 
ATOM     26  C   UNL A   1      40.109  26.063  28.097  1.00  0.00     0.014 A 
ATOM     27  C   UNL A   1      41.853  27.515  27.245  1.00  0.00     0.014 A 
ATOM     28  C   UNL A   1      39.926  26.926  29.179  1.00  0.00     0.010 A 
ATOM     29  C   UNL A   1      41.718  28.336  28.360  1.00  0.00     0.010 A 
ATOM     30  C   UNL A   1      40.746  28.057  29.333  1.00  0.00    -0.014 A 
BRANCH  30  31
ATOM     31  C   UNL A   1      40.595  28.960  30.503  1.00  0.00     0.031 A 
ATOM     32  C   UNL A   1      41.472  28.784  31.714  1.00  0.00     0.074 A 
ATOM     33  C   UNL A   1      39.631  29.901  30.496  1.00  0.00     0.049 A 
ATOM     34  N   UNL A   1      41.465  29.449  32.840  1.00  0.00    -0.248 NA
ATOM     35  C   UNL A   1      42.473  27.704  31.662  1.00  0.00     0.031 C 
ATOM     36  C   UNL A   1      38.691  30.142  29.399  1.00  0.00     0.029 A 
ATOM     37  N   UNL A   1      39.280  30.829  31.442  1.00  0.00    -0.354 N 
ATOM     38  C   UNL A   1      42.441  28.860  33.635  1.00  0.00     0.074 A 
ATOM     39  C   UNL A   1      42.988  27.753  32.881  1.00  0.00     0.031 C 
ATOM     40  C   UNL A   1      37.893  31.173  29.722  1.00  0.00     0.029 A 
ATOM     41  C   UNL A   1      38.236  31.639  31.062  1.00  0.00     0.049 A 
ATOM     42  H   UNL A   1      39.733  30.909  32.313  1.00  0.00     0.167 HD
ATOM     43  C   UNL A   1      42.858  29.219  34.873  1.00  0.00     0.031 A 
ATOM     44  C   UNL A   1      37.621  32.643  31.718  1.00  0.00     0.031 A 
ATOM     45  C   UNL A   1      42.319  30.328  35.614  1.00  0.00     0.049 A 
ATOM     46  C   UNL A   1      38.099  33.019  33.092  1.00  0.00     0.074 A 
ATOM     47  C   UNL A   1      42.716  30.813  36.848  1.00  0.00     0.029 A 
ATOM     48  N   UNL A   1      41.266  31.126  35.191  1.00  0.00    -0.354 N 
ATOM     49  N   UNL A   1      39.072  32.494  33.799  1.00  0.00    -0.248 NA
ATOM     50  C   UNL A   1      37.405  34.133  33.753  1.00  0.00     0.031 C 
ATOM     51  C   UNL A   1      41.866  31.868  37.197  1.00  0.00     0.029 A 
ATOM     52  C   UNL A   1      40.981  32.082  36.152  1.00  0.00     0.049 A 
ATOM     53  H   UNL A   1      40.792  31.028  34.335  1.00  0.00     0.167 HD
ATOM     54  C   UNL A   1      39.125  33.232  34.977  1.00  0.00     0.074 A 
ATOM     55  C   UNL A   1      38.097  34.249  34.878  1.00  0.00     0.031 C 
ATOM     56  C   UNL A   1      39.950  33.083  36.043  1.00  0.00     0.031 A 
BRANCH  43  57
ATOM     57  C   UNL A   1      43.946  28.392  35.509  1.00  0.00    -0.014 A 
ATOM     58  C   UNL A   1      43.641  27.284  36.320  1.00  0.00     0.010 A 
ATOM     59  C   UNL A   1      45.295  28.709  35.264  1.00  0.00     0.010 A 
ATOM     60  C   UNL A   1      44.662  26.535  36.911  1.00  0.00     0.020 A 
ATOM     61  C   UNL A   1      46.321  27.943  35.829  1.00  0.00     0.020 A 
ATOM     62  C   UNL A   1      45.996  26.873  36.665  1.00  0.00     0.054 A 
BRANCH  62  63
ATOM     63  S   UNL A   1      47.301  25.873  37.431  1.00  0.00     0.124 S 
ATOM     64  O   UNL A   1      48.367  25.958  36.436  1.00  0.00    -0.237 OA
ATOM     65  O   UNL A   1      47.554  26.580  38.683  1.00  0.00    -0.237 OA
ATOM     66  O   UNL A   1      46.689  24.555  37.577  1.00  0.00    -0.744 OA
ENDBRANCH  62  63
ENDBRANCH  43  57
BRANCH  44  67
ATOM     67  C   UNL A   1      36.499  33.375  31.071  1.00  0.00    -0.014 A 
ATOM     68  C   UNL A   1      36.706  34.081  29.872  1.00  0.00     0.010 A 
ATOM     69  C   UNL A   1      35.214  33.362  31.643  1.00  0.00     0.010 A 
ATOM     70  C   UNL A   1      35.654  34.776  29.268  1.00  0.00     0.020 A 
ATOM     71  C   UNL A   1      34.153  34.033  31.028  1.00  0.00     0.020 A 
ATOM     72  C   UNL A   1      34.383  34.745  29.850  1.00  0.00     0.054 A 
BRANCH  72  73
ATOM     73  S   UNL A   1      33.021  35.613  29.022  1.00  0.00     0.124 S 
ATOM     74  O   UNL A   1      32.249  36.116  30.154  1.00  0.00    -0.237 OA
ATOM     75  O   UNL A   1      33.723  36.623  28.235  1.00  0.00    -0.237 OA
ATOM     76  O   UNL A   1      32.375  34.562  28.238  1.00  0.00    -0.744 OA
ENDBRANCH  72  73
ENDBRANCH  44  67
BRANCH  56  77
ATOM     77  C   UNL A   1      39.796  34.062  37.176  1.00  0.00    -0.014 A 
ATOM     78  C   UNL A   1      40.426  35.319  37.145  1.00  0.00     0.010 A 
ATOM     79  C   UNL A   1      38.975  33.733  38.270  1.00  0.00     0.010 A 
ATOM     80  C   UNL A   1      40.270  36.213  38.208  1.00  0.00     0.020 A 
ATOM     81  C   UNL A   1      38.792  34.636  39.320  1.00  0.00     0.020 A 
ATOM     82  C   UNL A   1      39.456  35.864  39.290  1.00  0.00     0.054 A 
BRANCH  82  83
ATOM     83  S   UNL A   1      39.244  37.053  40.643  1.00  0.00     0.124 S 
ATOM     84  O   UNL A   1      38.321  38.020  40.055  1.00  0.00    -0.237 OA
ATOM     85  O   UNL A   1      38.691  36.226  41.713  1.00  0.00    -0.237 OA
ATOM     86  O   UNL A   1      40.596  37.549  40.884  1.00  0.00    -0.744 OA
ENDBRANCH  82  83
ENDBRANCH  56  77
ENDBRANCH  30  31
ENDBRANCH  22  25
ENDBRANCH  20  21
ENDBRANCH  19  20
ENDBRANCH   1  19
TORSDOF 17
ENDMDL
