MODEL 1
REMARK VINA RESULT:      -9.9      0.000      0.000
REMARK SMILES O=C(C[C@@H](NC(=O)C1CCN(C(=O)c2cccs2)CC1)c1cccs1)NCCCCCCNC(=O)c1ccc(-c2c3nc(c(-c4ccc(S(=O)(=O)[O-])cc4)c4ccc([nH]4)c(-c4ccc(S(=O)(=O)[O-])cc4)c4nc(c(-c5ccc(S(=O)(=O)[O-])cc5)c5ccc2[nH]5)C=C4)C=C3)cc1
REMARK SMILES IDX 29 1 28 2 27 3 26 4 1 5 2 6 3 8 4 9 5 10 6 11 7 13 8 14 9 15
REMARK SMILES IDX 20 16 10 17 19 18 11 19 12 20 13 21 14 22 15 23 18 24 16 25
REMARK SMILES IDX 17 26 21 27 22 28 25 29 23 30 24 31 30 32 31 33 32 34 33 35
REMARK SMILES IDX 34 36 35 38 36 39 37 40 95 41 38 42 94 43 39 44 40 45 41 46
REMARK SMILES IDX 88 47 42 48 93 49 87 50 89 51 43 52 92 53 86 54 85 55 44 57
REMARK SMILES IDX 74 58 55 59 73 60 56 61 59 62 72 63 90 64 57 65 58 66 71 68
REMARK SMILES IDX 91 69 60 70 45 71 46 72 54 73 47 74 53 75 48 76 49 77 50 78
REMARK SMILES IDX 51 79 52 80 75 81 76 82 84 83 77 84 83 85 78 86 79 87 80 88
REMARK SMILES IDX 81 89 82 90 61 91 62 92 70 93 63 94 69 95 64 96 65 97 66 98
REMARK SMILES IDX 67 99 68 100
REMARK H PARENT 26 7 5 12 33 37 89 56 59 67
REMARK Flexibility Score: inf
ROOT
ATOM      1  C   UNL A   1      38.185  20.255  24.916  1.00  0.00     0.002 C 
ENDROOT
BRANCH   1   2
ATOM      2  C   UNL A   1      37.008  21.199  25.195  1.00  0.00     0.021 C 
BRANCH   2   3
ATOM      3  C   UNL A   1      37.408  22.602  25.649  1.00  0.00     0.116 C 
BRANCH   3   4
ATOM      4  N   UNL A   1      36.277  23.327  26.206  1.00  0.00    -0.356 N 
ATOM      5  O   UNL A   1      35.467  24.123  24.210  1.00  0.00    -0.275 OA
ATOM      6  C   UNL A   1      35.402  24.051  25.433  1.00  0.00     0.222 C 
ATOM      7  H   UNL A   1      36.133  23.297  27.179  1.00  0.00     0.163 HD
BRANCH   6   8
ATOM      8  C   UNL A   1      34.293  24.738  26.210  1.00  0.00     0.130 C 
BRANCH   8   9
ATOM      9  C   UNL A   1      33.381  25.476  25.228  1.00  0.00     0.131 C 
BRANCH   9  10
ATOM     10  N   UNL A   1      32.191  24.669  24.892  1.00  0.00    -0.348 N 
ATOM     11  C   UNL A   1      31.839  23.625  24.124  1.00  0.00     0.223 C 
ATOM     12  H   UNL A   1      31.410  25.000  25.391  1.00  0.00     0.164 HD
ATOM     13  O   UNL A   1      30.657  23.697  23.744  1.00  0.00    -0.275 OA
BRANCH  11  14
ATOM     14  C   UNL A   1      32.649  22.412  23.649  1.00  0.00     0.082 C 
ATOM     15  C   UNL A   1      32.368  21.762  22.296  1.00  0.00     0.035 C 
ATOM     16  C   UNL A   1      33.056  21.434  24.759  1.00  0.00     0.035 C 
ATOM     17  C   UNL A   1      31.698  20.400  22.379  1.00  0.00     0.120 C 
ATOM     18  C   UNL A   1      32.356  20.082  24.710  1.00  0.00     0.120 C 
ATOM     19  N   UNL A   1      32.345  19.543  23.354  1.00  0.00    -0.338 N 
ATOM     20  C   UNL A   1      32.882  18.320  22.928  1.00  0.00     0.263 C 
ATOM     21  O   UNL A   1      32.869  18.006  21.737  1.00  0.00    -0.268 OA
BRANCH  20  22
ATOM     22  C   UNL A   1      33.450  17.437  23.931  1.00  0.00     0.092 A 
ATOM     23  C   UNL A   1      34.772  17.219  24.268  1.00  0.00     0.025 A 
ATOM     24  S   UNL A   1      32.387  16.551  24.940  1.00  0.00    -0.139 S 
ATOM     25  C   UNL A   1      34.910  16.267  25.320  1.00  0.00     0.012 A 
ATOM     26  C   UNL A   1      33.688  15.821  25.774  1.00  0.00     0.065 A 
ENDBRANCH  20  22
ENDBRANCH  11  14
ENDBRANCH   9  10
BRANCH   9  27
ATOM     27  C   UNL A   1      33.049  26.923  25.484  1.00  0.00     0.027 A 
ATOM     28  C   UNL A   1      33.827  27.863  26.143  1.00  0.00     0.017 A 
ATOM     29  S   UNL A   1      31.485  27.579  25.165  1.00  0.00    -0.147 S 
ATOM     30  C   UNL A   1      33.222  29.151  26.195  1.00  0.00     0.012 A 
ATOM     31  C   UNL A   1      31.954  29.142  25.664  1.00  0.00     0.065 A 
ENDBRANCH   9  27
ENDBRANCH   8   9
ENDBRANCH   6   8
ENDBRANCH   3   4
ENDBRANCH   2   3
ENDBRANCH   1   2
BRANCH   1  32
ATOM     32  C   UNL A   1      39.481  20.586  25.662  1.00  0.00     0.002 C 
BRANCH  32  33
ATOM     33  C   UNL A   1      40.408  19.396  25.924  1.00  0.00     0.021 C 
BRANCH  33  34
ATOM     34  C   UNL A   1      41.826  19.760  26.358  1.00  0.00     0.116 C 
BRANCH  34  35
ATOM     35  N   UNL A   1      42.828  19.392  25.370  1.00  0.00    -0.352 N 
ATOM     36  C   UNL A   1      43.811  20.163  24.798  1.00  0.00     0.251 C 
ATOM     37  H   UNL A   1      42.797  18.456  25.067  1.00  0.00     0.163 HD
ATOM     38  O   UNL A   1      44.479  19.715  23.871  1.00  0.00    -0.269 OA
BRANCH  36  39
ATOM     39  C   UNL A   1      44.048  21.542  25.281  1.00  0.00     0.039 A 
ATOM     40  C   UNL A   1      44.588  21.727  26.556  1.00  0.00     0.014 A 
ATOM     41  C   UNL A   1      43.738  22.648  24.485  1.00  0.00     0.014 A 
ATOM     42  C   UNL A   1      44.877  23.017  27.008  1.00  0.00     0.010 A 
ATOM     43  C   UNL A   1      44.085  23.929  24.911  1.00  0.00     0.010 A 
ATOM     44  C   UNL A   1      44.660  24.127  26.175  1.00  0.00    -0.014 A 
BRANCH  44  45
ATOM     45  C   UNL A   1      45.038  25.499  26.604  1.00  0.00     0.031 A 
ATOM     46  C   UNL A   1      43.998  26.439  27.150  1.00  0.00     0.074 A 
ATOM     47  C   UNL A   1      46.307  25.922  26.435  1.00  0.00     0.049 A 
ATOM     48  N   UNL A   1      44.126  27.690  27.513  1.00  0.00    -0.248 NA
ATOM     49  C   UNL A   1      42.631  25.911  27.284  1.00  0.00     0.031 C 
ATOM     50  C   UNL A   1      47.401  25.124  25.878  1.00  0.00     0.029 A 
ATOM     51  N   UNL A   1      46.888  27.137  26.707  1.00  0.00    -0.354 N 
ATOM     52  C   UNL A   1      42.857  28.104  27.900  1.00  0.00     0.074 A 
ATOM     53  C   UNL A   1      41.966  26.984  27.686  1.00  0.00     0.031 C 
ATOM     54  C   UNL A   1      48.523  25.861  25.871  1.00  0.00     0.029 A 
ATOM     55  C   UNL A   1      48.223  27.194  26.384  1.00  0.00     0.049 A 
ATOM     56  H   UNL A   1      46.395  27.894  27.097  1.00  0.00     0.167 HD
ATOM     57  C   UNL A   1      42.471  29.302  28.401  1.00  0.00     0.031 A 
ATOM     58  C   UNL A   1      49.108  28.206  26.483  1.00  0.00     0.031 A 
ATOM     59  C   UNL A   1      43.360  30.411  28.623  1.00  0.00     0.049 A 
ATOM     60  C   UNL A   1      48.656  29.526  27.042  1.00  0.00     0.074 A 
ATOM     61  C   UNL A   1      43.074  31.645  29.179  1.00  0.00     0.029 A 
ATOM     62  N   UNL A   1      44.708  30.422  28.299  1.00  0.00    -0.354 N 
ATOM     63  N   UNL A   1      47.464  29.878  27.461  1.00  0.00    -0.248 NA
ATOM     64  C   UNL A   1      49.673  30.581  27.155  1.00  0.00     0.031 C 
ATOM     65  C   UNL A   1      44.240  32.420  29.150  1.00  0.00     0.029 A 
ATOM     66  C   UNL A   1      45.264  31.648  28.624  1.00  0.00     0.049 A 
ATOM     67  H   UNL A   1      45.199  29.669  27.897  1.00  0.00     0.167 HD
ATOM     68  C   UNL A   1      47.593  31.188  27.909  1.00  0.00     0.074 A 
ATOM     69  C   UNL A   1      48.981  31.560  27.722  1.00  0.00     0.031 C 
ATOM     70  C   UNL A   1      46.647  32.006  28.431  1.00  0.00     0.031 A 
BRANCH  57  71
ATOM     71  C   UNL A   1      41.013  29.474  28.736  1.00  0.00    -0.014 A 
ATOM     72  C   UNL A   1      40.032  29.485  27.728  1.00  0.00     0.010 A 
ATOM     73  C   UNL A   1      40.613  29.601  30.080  1.00  0.00     0.010 A 
ATOM     74  C   UNL A   1      38.685  29.671  28.051  1.00  0.00     0.020 A 
ATOM     75  C   UNL A   1      39.264  29.758  30.409  1.00  0.00     0.020 A 
ATOM     76  C   UNL A   1      38.311  29.813  29.390  1.00  0.00     0.054 A 
BRANCH  76  77
ATOM     77  S   UNL A   1      36.556  30.047  29.783  1.00  0.00     0.124 S 
ATOM     78  O   UNL A   1      36.474  29.492  31.132  1.00  0.00    -0.237 OA
ATOM     79  O   UNL A   1      36.394  31.495  29.689  1.00  0.00    -0.237 OA
ATOM     80  O   UNL A   1      35.864  29.278  28.751  1.00  0.00    -0.744 OA
ENDBRANCH  76  77
ENDBRANCH  57  71
BRANCH  58  81
ATOM     81  C   UNL A   1      50.518  27.997  26.057  1.00  0.00    -0.014 A 
ATOM     82  C   UNL A   1      50.914  28.290  24.741  1.00  0.00     0.010 A 
ATOM     83  C   UNL A   1      51.478  27.530  26.974  1.00  0.00     0.010 A 
ATOM     84  C   UNL A   1      52.242  28.109  24.344  1.00  0.00     0.020 A 
ATOM     85  C   UNL A   1      52.812  27.372  26.588  1.00  0.00     0.020 A 
ATOM     86  C   UNL A   1      53.183  27.653  25.272  1.00  0.00     0.054 A 
BRANCH  86  87
ATOM     87  S   UNL A   1      54.915  27.489  24.753  1.00  0.00     0.124 S 
ATOM     88  O   UNL A   1      54.918  26.175  24.118  1.00  0.00    -0.237 OA
ATOM     89  O   UNL A   1      55.086  28.628  23.855  1.00  0.00    -0.237 OA
ATOM     90  O   UNL A   1      55.656  27.580  26.009  1.00  0.00    -0.744 OA
ENDBRANCH  86  87
ENDBRANCH  58  81
BRANCH  70  91
ATOM     91  C   UNL A   1      47.082  33.379  28.869  1.00  0.00    -0.014 A 
ATOM     92  C   UNL A   1      46.937  34.494  28.024  1.00  0.00     0.010 A 
ATOM     93  C   UNL A   1      47.595  33.563  30.166  1.00  0.00     0.010 A 
ATOM     94  C   UNL A   1      47.323  35.764  28.461  1.00  0.00     0.020 A 
ATOM     95  C   UNL A   1      47.957  34.835  30.614  1.00  0.00     0.020 A 
ATOM     96  C   UNL A   1      47.831  35.926  29.754  1.00  0.00     0.054 A 
BRANCH  96  97
ATOM     97  S   UNL A   1      48.281  37.593  30.314  1.00  0.00     0.124 S 
ATOM     98  O   UNL A   1      49.227  37.307  31.388  1.00  0.00    -0.237 OA
ATOM     99  O   UNL A   1      48.855  38.192  29.112  1.00  0.00    -0.237 OA
ATOM    100  O   UNL A   1      47.008  38.169  30.741  1.00  0.00    -0.744 OA
ENDBRANCH  96  97
ENDBRANCH  70  91
ENDBRANCH  44  45
ENDBRANCH  36  39
ENDBRANCH  34  35
ENDBRANCH  33  34
ENDBRANCH  32  33
ENDBRANCH   1  32
TORSDOF 21
ENDMDL
MODEL 2
REMARK VINA RESULT:      -9.7      6.181      8.294
REMARK SMILES O=C(C[C@@H](NC(=O)C1CCN(C(=O)c2cccs2)CC1)c1cccs1)NCCCCCCNC(=O)c1ccc(-c2c3nc(c(-c4ccc(S(=O)(=O)[O-])cc4)c4ccc([nH]4)c(-c4ccc(S(=O)(=O)[O-])cc4)c4nc(c(-c5ccc(S(=O)(=O)[O-])cc5)c5ccc2[nH]5)C=C4)C=C3)cc1
REMARK SMILES IDX 29 1 28 2 27 3 26 4 1 5 2 6 3 8 4 9 5 10 6 11 7 13 8 14 9 15
REMARK SMILES IDX 20 16 10 17 19 18 11 19 12 20 13 21 14 22 15 23 18 24 16 25
REMARK SMILES IDX 17 26 21 27 22 28 25 29 23 30 24 31 30 32 31 33 32 34 33 35
REMARK SMILES IDX 34 36 35 38 36 39 37 40 95 41 38 42 94 43 39 44 40 45 41 46
REMARK SMILES IDX 88 47 42 48 93 49 87 50 89 51 43 52 92 53 86 54 85 55 44 57
REMARK SMILES IDX 74 58 55 59 73 60 56 61 59 62 72 63 90 64 57 65 58 66 71 68
REMARK SMILES IDX 91 69 60 70 45 71 46 72 54 73 47 74 53 75 48 76 49 77 50 78
REMARK SMILES IDX 51 79 52 80 75 81 76 82 84 83 77 84 83 85 78 86 79 87 80 88
REMARK SMILES IDX 81 89 82 90 61 91 62 92 70 93 63 94 69 95 64 96 65 97 66 98
REMARK SMILES IDX 67 99 68 100
REMARK H PARENT 26 7 5 12 33 37 89 56 59 67
REMARK Flexibility Score: inf
ROOT
ATOM      1  C   UNL A   1      37.777  21.358  25.155  1.00  0.00     0.002 C 
ENDROOT
BRANCH   1   2
ATOM      2  C   UNL A   1      37.007  21.798  23.904  1.00  0.00     0.021 C 
BRANCH   2   3
ATOM      3  C   UNL A   1      36.758  23.303  23.803  1.00  0.00     0.116 C 
BRANCH   3   4
ATOM      4  N   UNL A   1      35.417  23.654  24.243  1.00  0.00    -0.356 N 
ATOM      5  O   UNL A   1      36.055  24.899  26.064  1.00  0.00    -0.275 OA
ATOM      6  C   UNL A   1      35.174  24.416  25.360  1.00  0.00     0.222 C 
ATOM      7  H   UNL A   1      34.651  23.333  23.716  1.00  0.00     0.163 HD
BRANCH   6   8
ATOM      8  C   UNL A   1      33.704  24.663  25.647  1.00  0.00     0.130 C 
BRANCH   8   9
ATOM      9  C   UNL A   1      33.302  26.014  25.052  1.00  0.00     0.131 C 
BRANCH   9  10
ATOM     10  N   UNL A   1      32.355  25.845  23.932  1.00  0.00    -0.348 N 
ATOM     11  C   UNL A   1      31.794  24.872  23.196  1.00  0.00     0.223 C 
ATOM     12  H   UNL A   1      32.031  26.725  23.631  1.00  0.00     0.164 HD
ATOM     13  O   UNL A   1      31.541  25.243  22.036  1.00  0.00    -0.275 OA
BRANCH  11  14
ATOM     14  C   UNL A   1      31.448  23.420  23.551  1.00  0.00     0.082 C 
ATOM     15  C   UNL A   1      31.236  22.998  25.003  1.00  0.00     0.035 C 
ATOM     16  C   UNL A   1      32.119  22.363  22.666  1.00  0.00     0.035 C 
ATOM     17  C   UNL A   1      32.348  22.135  25.577  1.00  0.00     0.120 C 
ATOM     18  C   UNL A   1      33.182  21.524  23.363  1.00  0.00     0.120 C 
ATOM     19  N   UNL A   1      32.719  21.065  24.669  1.00  0.00    -0.338 N 
ATOM     20  C   UNL A   1      32.607  19.739  25.107  1.00  0.00     0.263 C 
ATOM     21  O   UNL A   1      32.137  19.477  26.214  1.00  0.00    -0.268 OA
BRANCH  20  22
ATOM     22  C   UNL A   1      33.063  18.686  24.217  1.00  0.00     0.092 A 
ATOM     23  C   UNL A   1      32.470  18.175  23.078  1.00  0.00     0.025 A 
ATOM     24  S   UNL A   1      34.589  17.967  24.511  1.00  0.00    -0.139 S 
ATOM     25  C   UNL A   1      33.249  17.139  22.483  1.00  0.00     0.012 A 
ATOM     26  C   UNL A   1      34.426  16.924  23.166  1.00  0.00     0.065 A 
ENDBRANCH  20  22
ENDBRANCH  11  14
ENDBRANCH   9  10
BRANCH   9  27
ATOM     27  C   UNL A   1      32.911  27.135  25.981  1.00  0.00     0.027 A 
ATOM     28  C   UNL A   1      31.783  27.209  26.784  1.00  0.00     0.017 A 
ATOM     29  S   UNL A   1      33.747  28.644  26.006  1.00  0.00    -0.147 S 
ATOM     30  C   UNL A   1      31.727  28.403  27.559  1.00  0.00     0.012 A 
ATOM     31  C   UNL A   1      32.759  29.258  27.254  1.00  0.00     0.065 A 
ENDBRANCH   9  27
ENDBRANCH   8   9
ENDBRANCH   6   8
ENDBRANCH   3   4
ENDBRANCH   2   3
ENDBRANCH   1   2
BRANCH   1  32
ATOM     32  C   UNL A   1      38.308  22.496  26.032  1.00  0.00     0.002 C 
BRANCH  32  33
ATOM     33  C   UNL A   1      39.702  22.271  26.624  1.00  0.00     0.021 C 
BRANCH  33  34
ATOM     34  C   UNL A   1      40.405  23.530  27.127  1.00  0.00     0.116 C 
BRANCH  34  35
ATOM     35  N   UNL A   1      41.075  24.262  26.065  1.00  0.00    -0.352 N 
ATOM     36  C   UNL A   1      41.364  25.603  25.979  1.00  0.00     0.251 C 
ATOM     37  H   UNL A   1      41.364  23.719  25.296  1.00  0.00     0.163 HD
ATOM     38  O   UNL A   1      41.812  26.067  24.935  1.00  0.00    -0.269 OA
BRANCH  36  39
ATOM     39  C   UNL A   1      41.110  26.492  27.134  1.00  0.00     0.039 A 
ATOM     40  C   UNL A   1      40.109  26.144  28.046  1.00  0.00     0.014 A 
ATOM     41  C   UNL A   1      41.850  27.663  27.321  1.00  0.00     0.014 A 
ATOM     42  C   UNL A   1      39.893  26.936  29.177  1.00  0.00     0.010 A 
ATOM     43  C   UNL A   1      41.677  28.416  28.480  1.00  0.00     0.010 A 
ATOM     44  C   UNL A   1      40.699  28.060  29.421  1.00  0.00    -0.014 A 
BRANCH  44  45
ATOM     45  C   UNL A   1      40.542  28.867  30.659  1.00  0.00     0.031 A 
ATOM     46  C   UNL A   1      39.494  29.944  30.738  1.00  0.00     0.074 A 
ATOM     47  C   UNL A   1      41.391  28.677  31.689  1.00  0.00     0.049 A 
ATOM     48  N   UNL A   1      39.253  30.790  31.706  1.00  0.00    -0.248 NA
ATOM     49  C   UNL A   1      38.619  30.106  29.566  1.00  0.00     0.031 C 
ATOM     50  C   UNL A   1      42.477  27.694  31.724  1.00  0.00     0.029 A 
ATOM     51  N   UNL A   1      41.480  29.311  32.904  1.00  0.00    -0.354 N 
ATOM     52  C   UNL A   1      38.213  31.595  31.256  1.00  0.00     0.074 A 
ATOM     53  C   UNL A   1      37.901  31.164  29.910  1.00  0.00     0.031 C 
ATOM     54  C   UNL A   1      43.107  27.777  32.907  1.00  0.00     0.029 A 
ATOM     55  C   UNL A   1      42.499  28.841  33.699  1.00  0.00     0.049 A 
ATOM     56  H   UNL A   1      40.872  30.034  33.179  1.00  0.00     0.167 HD
ATOM     57  C   UNL A   1      37.568  32.592  31.907  1.00  0.00     0.031 A 
ATOM     58  C   UNL A   1      42.904  29.225  34.926  1.00  0.00     0.031 A 
ATOM     59  C   UNL A   1      37.873  33.013  33.248  1.00  0.00     0.049 A 
ATOM     60  C   UNL A   1      42.172  30.334  35.629  1.00  0.00     0.074 A 
ATOM     61  C   UNL A   1      37.238  33.975  34.014  1.00  0.00     0.029 A 
ATOM     62  N   UNL A   1      38.900  32.499  34.025  1.00  0.00    -0.354 N 
ATOM     63  N   UNL A   1      41.151  31.042  35.209  1.00  0.00    -0.248 NA
ATOM     64  C   UNL A   1      42.639  30.687  36.976  1.00  0.00     0.031 C 
ATOM     65  C   UNL A   1      37.910  34.075  35.237  1.00  0.00     0.029 A 
ATOM     66  C   UNL A   1      38.930  33.138  35.253  1.00  0.00     0.049 A 
ATOM     67  H   UNL A   1      39.517  31.785  33.745  1.00  0.00     0.167 HD
ATOM     68  C   UNL A   1      40.838  31.908  36.251  1.00  0.00     0.074 A 
ATOM     69  C   UNL A   1      41.769  31.626  37.324  1.00  0.00     0.031 C 
ATOM     70  C   UNL A   1      39.865  32.849  36.312  1.00  0.00     0.031 A 
BRANCH  57  71
ATOM     71  C   UNL A   1      36.467  33.304  31.165  1.00  0.00    -0.014 A 
ATOM     72  C   UNL A   1      35.156  33.347  31.674  1.00  0.00     0.010 A 
ATOM     73  C   UNL A   1      36.751  33.962  29.953  1.00  0.00     0.010 A 
ATOM     74  C   UNL A   1      34.140  33.989  30.962  1.00  0.00     0.020 A 
ATOM     75  C   UNL A   1      35.743  34.630  29.253  1.00  0.00     0.020 A 
ATOM     76  C   UNL A   1      34.439  34.621  29.751  1.00  0.00     0.054 A 
BRANCH  76  77
ATOM     77  S   UNL A   1      33.103  35.452  28.850  1.00  0.00     0.124 S 
ATOM     78  O   UNL A   1      33.842  36.418  28.041  1.00  0.00    -0.237 OA
ATOM     79  O   UNL A   1      32.482  34.357  28.110  1.00  0.00    -0.237 OA
ATOM     80  O   UNL A   1      32.279  36.030  29.909  1.00  0.00    -0.744 OA
ENDBRANCH  76  77
ENDBRANCH  57  71
BRANCH  58  81
ATOM     81  C   UNL A   1      44.052  28.535  35.573  1.00  0.00    -0.014 A 
ATOM     82  C   UNL A   1      43.835  27.428  36.411  1.00  0.00     0.010 A 
ATOM     83  C   UNL A   1      45.370  28.966  35.333  1.00  0.00     0.010 A 
ATOM     84  C   UNL A   1      44.915  26.770  37.008  1.00  0.00     0.020 A 
ATOM     85  C   UNL A   1      46.453  28.295  35.907  1.00  0.00     0.020 A 
ATOM     86  C   UNL A   1      46.218  27.206  36.749  1.00  0.00     0.054 A 
BRANCH  86  87
ATOM     87  S   UNL A   1      47.607  26.296  37.480  1.00  0.00     0.124 S 
ATOM     88  O   UNL A   1      47.695  26.893  38.809  1.00  0.00    -0.237 OA
ATOM     89  O   UNL A   1      47.139  24.913  37.436  1.00  0.00    -0.237 OA
ATOM     90  O   UNL A   1      48.720  26.596  36.582  1.00  0.00    -0.744 OA
ENDBRANCH  86  87
ENDBRANCH  58  81
BRANCH  70  91
ATOM     91  C   UNL A   1      39.732  33.626  37.594  1.00  0.00    -0.014 A 
ATOM     92  C   UNL A   1      40.314  34.899  37.739  1.00  0.00     0.010 A 
ATOM     93  C   UNL A   1      38.968  33.097  38.651  1.00  0.00     0.010 A 
ATOM     94  C   UNL A   1      40.155  35.615  38.928  1.00  0.00     0.020 A 
ATOM     95  C   UNL A   1      38.787  33.822  39.831  1.00  0.00     0.020 A 
ATOM     96  C   UNL A   1      39.393  35.072  39.967  1.00  0.00     0.054 A 
BRANCH  96  97
ATOM     97  S   UNL A   1      39.163  36.042  41.483  1.00  0.00     0.124 S 
ATOM     98  O   UNL A   1      39.158  37.409  40.970  1.00  0.00    -0.237 OA
ATOM     99  O   UNL A   1      37.882  35.554  41.986  1.00  0.00    -0.237 OA
ATOM    100  O   UNL A   1      40.321  35.687  42.300  1.00  0.00    -0.744 OA
ENDBRANCH  96  97
ENDBRANCH  70  91
ENDBRANCH  44  45
ENDBRANCH  36  39
ENDBRANCH  34  35
ENDBRANCH  33  34
ENDBRANCH  32  33
ENDBRANCH   1  32
TORSDOF 21
ENDMDL
MODEL 3
REMARK VINA RESULT:      -9.4      4.770     10.182
REMARK SMILES O=C(C[C@@H](NC(=O)C1CCN(C(=O)c2cccs2)CC1)c1cccs1)NCCCCCCNC(=O)c1ccc(-c2c3nc(c(-c4ccc(S(=O)(=O)[O-])cc4)c4ccc([nH]4)c(-c4ccc(S(=O)(=O)[O-])cc4)c4nc(c(-c5ccc(S(=O)(=O)[O-])cc5)c5ccc2[nH]5)C=C4)C=C3)cc1
REMARK SMILES IDX 29 1 28 2 27 3 26 4 1 5 2 6 3 8 4 9 5 10 6 11 7 13 8 14 9 15
REMARK SMILES IDX 20 16 10 17 19 18 11 19 12 20 13 21 14 22 15 23 18 24 16 25
REMARK SMILES IDX 17 26 21 27 22 28 25 29 23 30 24 31 30 32 31 33 32 34 33 35
REMARK SMILES IDX 34 36 35 38 36 39 37 40 95 41 38 42 94 43 39 44 40 45 41 46
REMARK SMILES IDX 88 47 42 48 93 49 87 50 89 51 43 52 92 53 86 54 85 55 44 57
REMARK SMILES IDX 74 58 55 59 73 60 56 61 59 62 72 63 90 64 57 65 58 66 71 68
REMARK SMILES IDX 91 69 60 70 45 71 46 72 54 73 47 74 53 75 48 76 49 77 50 78
REMARK SMILES IDX 51 79 52 80 75 81 76 82 84 83 77 84 83 85 78 86 79 87 80 88
REMARK SMILES IDX 81 89 82 90 61 91 62 92 70 93 63 94 69 95 64 96 65 97 66 98
REMARK SMILES IDX 67 99 68 100
REMARK H PARENT 26 7 5 12 33 37 89 56 59 67
REMARK Flexibility Score: inf
ROOT
ATOM      1  C   UNL A   1      44.091  18.490  25.847  1.00  0.00     0.002 C 
ENDROOT
BRANCH   1   2
ATOM      2  C   UNL A   1      44.629  19.095  24.544  1.00  0.00     0.021 C 
BRANCH   2   3
ATOM      3  C   UNL A   1      45.843  20.007  24.717  1.00  0.00     0.116 C 
BRANCH   3   4
ATOM      4  N   UNL A   1      45.616  21.012  25.742  1.00  0.00    -0.356 N 
ATOM      5  O   UNL A   1      44.658  22.581  24.365  1.00  0.00    -0.275 OA
ATOM      6  C   UNL A   1      45.053  22.237  25.474  1.00  0.00     0.222 C 
ATOM      7  H   UNL A   1      45.875  20.806  26.669  1.00  0.00     0.163 HD
BRANCH   6   8
ATOM      8  C   UNL A   1      44.909  23.143  26.684  1.00  0.00     0.130 C 
BRANCH   8   9
ATOM      9  C   UNL A   1      45.395  24.546  26.314  1.00  0.00     0.131 C 
BRANCH   9  10
ATOM     10  N   UNL A   1      46.478  24.490  25.312  1.00  0.00    -0.348 N 
ATOM     11  C   UNL A   1      47.542  25.201  24.906  1.00  0.00     0.223 C 
ATOM     12  H   UNL A   1      46.393  23.671  24.771  1.00  0.00     0.164 HD
ATOM     13  O   UNL A   1      47.775  25.052  23.693  1.00  0.00    -0.275 OA
BRANCH  11  14
ATOM     14  C   UNL A   1      48.468  26.149  25.679  1.00  0.00     0.082 C 
ATOM     15  C   UNL A   1      49.058  27.388  25.010  1.00  0.00     0.035 C 
ATOM     16  C   UNL A   1      49.396  25.460  26.687  1.00  0.00     0.035 C 
ATOM     17  C   UNL A   1      50.547  27.299  24.720  1.00  0.00     0.120 C 
ATOM     18  C   UNL A   1      50.873  25.478  26.315  1.00  0.00     0.120 C 
ATOM     19  N   UNL A   1      51.288  26.802  25.865  1.00  0.00    -0.338 N 
ATOM     20  C   UNL A   1      52.296  27.605  26.415  1.00  0.00     0.263 C 
ATOM     21  O   UNL A   1      52.507  28.738  25.985  1.00  0.00    -0.268 OA
BRANCH  20  22
ATOM     22  C   UNL A   1      53.084  27.057  27.506  1.00  0.00     0.092 A 
ATOM     23  C   UNL A   1      54.310  26.421  27.477  1.00  0.00     0.025 A 
ATOM     24  S   UNL A   1      52.513  27.253  29.108  1.00  0.00    -0.139 S 
ATOM     25  C   UNL A   1      54.749  26.034  28.777  1.00  0.00     0.012 A 
ATOM     26  C   UNL A   1      53.861  26.424  29.756  1.00  0.00     0.065 A 
ENDBRANCH  20  22
ENDBRANCH  11  14
ENDBRANCH   9  10
BRANCH   9  27
ATOM     27  C   UNL A   1      44.379  25.617  26.013  1.00  0.00     0.027 A 
ATOM     28  C   UNL A   1      43.201  25.483  25.293  1.00  0.00     0.017 A 
ATOM     29  S   UNL A   1      44.667  27.283  26.357  1.00  0.00    -0.147 S 
ATOM     30  C   UNL A   1      42.456  26.694  25.212  1.00  0.00     0.012 A 
ATOM     31  C   UNL A   1      43.129  27.748  25.783  1.00  0.00     0.065 A 
ENDBRANCH   9  27
ENDBRANCH   8   9
ENDBRANCH   6   8
ENDBRANCH   3   4
ENDBRANCH   2   3
ENDBRANCH   1   2
BRANCH   1  32
ATOM     32  C   UNL A   1      42.592  18.688  26.091  1.00  0.00     0.002 C 
BRANCH  32  33
ATOM     33  C   UNL A   1      42.102  20.137  26.019  1.00  0.00     0.021 C 
BRANCH  33  34
ATOM     34  C   UNL A   1      40.880  20.453  26.877  1.00  0.00     0.116 C 
BRANCH  34  35
ATOM     35  N   UNL A   1      39.734  20.877  26.089  1.00  0.00    -0.352 N 
ATOM     36  C   UNL A   1      39.123  22.106  26.030  1.00  0.00     0.251 C 
ATOM     37  H   UNL A   1      39.337  20.182  25.515  1.00  0.00     0.163 HD
ATOM     38  O   UNL A   1      38.072  22.239  25.410  1.00  0.00    -0.269 OA
BRANCH  36  39
ATOM     39  C   UNL A   1      39.717  23.264  26.735  1.00  0.00     0.039 A 
ATOM     40  C   UNL A   1      39.152  24.529  26.551  1.00  0.00     0.014 A 
ATOM     41  C   UNL A   1      40.825  23.108  27.572  1.00  0.00     0.014 A 
ATOM     42  C   UNL A   1      39.657  25.625  27.254  1.00  0.00     0.010 A 
ATOM     43  C   UNL A   1      41.287  24.189  28.321  1.00  0.00     0.010 A 
ATOM     44  C   UNL A   1      40.707  25.458  28.171  1.00  0.00    -0.014 A 
BRANCH  44  45
ATOM     45  C   UNL A   1      41.204  26.594  28.992  1.00  0.00     0.031 A 
ATOM     46  C   UNL A   1      40.366  27.832  29.161  1.00  0.00     0.074 A 
ATOM     47  C   UNL A   1      42.440  26.538  29.526  1.00  0.00     0.049 A 
ATOM     48  N   UNL A   1      40.658  28.945  29.784  1.00  0.00    -0.248 NA
ATOM     49  C   UNL A   1      39.036  27.826  28.531  1.00  0.00     0.031 C 
ATOM     50  C   UNL A   1      43.369  25.413  29.400  1.00  0.00     0.029 A 
ATOM     51  N   UNL A   1      43.133  27.457  30.275  1.00  0.00    -0.354 N 
ATOM     52  C   UNL A   1      39.560  29.779  29.605  1.00  0.00     0.074 A 
ATOM     53  C   UNL A   1      38.616  29.057  28.779  1.00  0.00     0.031 C 
ATOM     54  C   UNL A   1      44.499  25.699  30.067  1.00  0.00     0.029 A 
ATOM     55  C   UNL A   1      44.393  27.039  30.634  1.00  0.00     0.049 A 
ATOM     56  H   UNL A   1      42.763  28.332  30.530  1.00  0.00     0.167 HD
ATOM     57  C   UNL A   1      39.351  31.025  30.094  1.00  0.00     0.031 A 
ATOM     58  C   UNL A   1      45.359  27.665  31.335  1.00  0.00     0.031 A 
ATOM     59  C   UNL A   1      40.286  31.736  30.923  1.00  0.00     0.049 A 
ATOM     60  C   UNL A   1      45.103  29.047  31.869  1.00  0.00     0.074 A 
ATOM     61  C   UNL A   1      40.140  32.979  31.515  1.00  0.00     0.029 A 
ATOM     62  N   UNL A   1      41.543  31.270  31.278  1.00  0.00    -0.354 N 
ATOM     63  N   UNL A   1      44.032  29.794  31.740  1.00  0.00    -0.248 NA
ATOM     64  C   UNL A   1      46.181  29.665  32.653  1.00  0.00     0.031 C 
ATOM     65  C   UNL A   1      41.327  33.284  32.190  1.00  0.00     0.029 A 
ATOM     66  C   UNL A   1      42.192  32.209  32.063  1.00  0.00     0.049 A 
ATOM     67  H   UNL A   1      41.919  30.400  31.012  1.00  0.00     0.167 HD
ATOM     68  C   UNL A   1      44.299  30.960  32.448  1.00  0.00     0.074 A 
ATOM     69  C   UNL A   1      45.625  30.814  33.012  1.00  0.00     0.031 C 
ATOM     70  C   UNL A   1      43.514  32.052  32.617  1.00  0.00     0.031 A 
BRANCH  57  71
ATOM     71  C   UNL A   1      38.054  31.700  29.734  1.00  0.00    -0.014 A 
ATOM     72  C   UNL A   1      38.029  32.813  28.872  1.00  0.00     0.010 A 
ATOM     73  C   UNL A   1      36.839  31.202  30.241  1.00  0.00     0.010 A 
ATOM     74  C   UNL A   1      36.821  33.445  28.566  1.00  0.00     0.020 A 
ATOM     75  C   UNL A   1      35.627  31.815  29.914  1.00  0.00     0.020 A 
ATOM     76  C   UNL A   1      35.628  32.945  29.096  1.00  0.00     0.054 A 
BRANCH  76  77
ATOM     77  S   UNL A   1      34.073  33.781  28.678  1.00  0.00     0.124 S 
ATOM     78  O   UNL A   1      33.565  34.147  29.998  1.00  0.00    -0.237 OA
ATOM     79  O   UNL A   1      34.520  34.896  27.846  1.00  0.00    -0.237 OA
ATOM     80  O   UNL A   1      33.305  32.755  27.978  1.00  0.00    -0.744 OA
ENDBRANCH  76  77
ENDBRANCH  57  71
BRANCH  58  81
ATOM     81  C   UNL A   1      46.652  26.974  31.589  1.00  0.00    -0.014 A 
ATOM     82  C   UNL A   1      47.718  27.108  30.683  1.00  0.00     0.010 A 
ATOM     83  C   UNL A   1      46.832  26.201  32.750  1.00  0.00     0.010 A 
ATOM     84  C   UNL A   1      48.939  26.471  30.927  1.00  0.00     0.020 A 
ATOM     85  C   UNL A   1      48.059  25.584  33.011  1.00  0.00     0.020 A 
ATOM     86  C   UNL A   1      49.102  25.716  32.092  1.00  0.00     0.054 A 
BRANCH  86  87
ATOM     87  S   UNL A   1      50.716  24.954  32.422  1.00  0.00     0.124 S 
ATOM     88  O   UNL A   1      51.599  26.116  32.452  1.00  0.00    -0.237 OA
ATOM     89  O   UNL A   1      50.496  24.291  33.705  1.00  0.00    -0.237 OA
ATOM     90  O   UNL A   1      50.904  24.051  31.289  1.00  0.00    -0.744 OA
ENDBRANCH  86  87
ENDBRANCH  58  81
BRANCH  70  91
ATOM     91  C   UNL A   1      44.052  33.168  33.472  1.00  0.00    -0.014 A 
ATOM     92  C   UNL A   1      43.846  33.184  34.863  1.00  0.00     0.010 A 
ATOM     93  C   UNL A   1      44.820  34.187  32.879  1.00  0.00     0.010 A 
ATOM     94  C   UNL A   1      44.378  34.215  35.642  1.00  0.00     0.020 A 
ATOM     95  C   UNL A   1      45.374  35.204  33.659  1.00  0.00     0.020 A 
ATOM     96  C   UNL A   1      45.139  35.220  35.035  1.00  0.00     0.054 A 
BRANCH  96  97
ATOM     97  S   UNL A   1      45.858  36.521  36.074  1.00  0.00     0.124 S 
ATOM     98  O   UNL A   1      45.888  35.880  37.386  1.00  0.00    -0.237 OA
ATOM     99  O   UNL A   1      47.161  36.745  35.453  1.00  0.00    -0.237 OA
ATOM    100  O   UNL A   1      44.914  37.629  35.943  1.00  0.00    -0.744 OA
ENDBRANCH  96  97
ENDBRANCH  70  91
ENDBRANCH  44  45
ENDBRANCH  36  39
ENDBRANCH  34  35
ENDBRANCH  33  34
ENDBRANCH  32  33
ENDBRANCH   1  32
TORSDOF 21
ENDMDL
