MODEL 1
REMARK VINA RESULT:     -11.4      0.000      0.000
REMARK SMILES CCc1ncc(C[N@H+]2CCC[C@@H](c3cccc(C(=O)NCCCCCCNC(=O)c4ccc(-c5c6nc(c(-c7ccc(S(=O)(=O)[O-])cc7)c7ccc([nH]7)c(-c7ccc(S(=O)(=O)[O-])cc7)c7nc(c(-c8ccc(S(=O)(=O)[O-])cc8)c8ccc5[nH]8)C=C7)C=C6)cc4)c3)C2)cn1
REMARK SMILES IDX 23 1 22 2 21 3 20 4 18 5 19 6 17 8 13 9 14 10 90 11 15 12
REMARK SMILES IDX 16 13 12 14 8 15 9 16 91 17 10 19 11 20 7 21 6 22 3 23 4 24
REMARK SMILES IDX 93 25 5 26 92 27 2 28 1 29 24 30 25 31 26 32 27 33 28 34
REMARK SMILES IDX 29 36 30 37 31 38 89 39 32 40 88 41 33 42 34 43 35 44 82 45
REMARK SMILES IDX 36 46 87 47 81 48 83 49 37 50 86 51 80 52 79 53 38 55 68 56
REMARK SMILES IDX 49 57 67 58 50 59 53 60 66 61 84 62 51 63 52 64 65 66 85 67
REMARK SMILES IDX 54 68 39 69 40 70 48 71 41 72 47 73 42 74 43 75 44 76 45 77
REMARK SMILES IDX 46 78 69 79 70 80 78 81 71 82 77 83 72 84 73 85 74 86 75 87
REMARK SMILES IDX 76 88 55 89 56 90 64 91 57 92 63 93 58 94 59 95 60 96 61 97
REMARK SMILES IDX 62 98
REMARK H PARENT 20 7 8 18 27 35 83 54 53 65
REMARK Flexibility Score: inf
ROOT
ATOM      1  C   UNL A   1      35.268  32.224  27.844  1.00  0.00     0.002 C 
ENDROOT
BRANCH   1   2
ATOM      2  C   UNL A   1      33.846  31.727  27.591  1.00  0.00     0.021 C 
BRANCH   2   3
ATOM      3  C   UNL A   1      33.699  30.303  27.075  1.00  0.00     0.116 C 
BRANCH   3   4
ATOM      4  N   UNL A   1      32.684  29.508  27.748  1.00  0.00    -0.352 N 
ATOM      5  C   UNL A   1      31.821  28.556  27.244  1.00  0.00     0.251 C 
ATOM      6  O   UNL A   1      31.022  28.011  28.003  1.00  0.00    -0.269 OA
ATOM      7  H   UNL A   1      32.598  29.676  28.714  1.00  0.00     0.163 HD
BRANCH   5   8
ATOM      8  C   UNL A   1      31.794  28.224  25.793  1.00  0.00     0.040 A 
ATOM      9  C   UNL A   1      32.429  26.774  23.943  1.00  0.00    -0.039 A 
ATOM     10  C   UNL A   1      32.022  27.763  23.042  1.00  0.00     0.004 A 
ATOM     11  C   UNL A   1      32.200  26.981  25.310  1.00  0.00     0.018 A 
ATOM     12  C   UNL A   1      31.473  28.961  23.510  1.00  0.00     0.001 A 
ATOM     13  C   UNL A   1      31.386  29.204  24.883  1.00  0.00     0.014 A 
BRANCH   9  14
ATOM     14  C   UNL A   1      33.130  25.491  23.532  1.00  0.00     0.074 C 
ATOM     15  N   UNL A   1      33.960  23.298  24.372  1.00  0.00    -0.331 N 
ATOM     16  C   UNL A   1      33.367  22.607  23.219  1.00  0.00     0.262 C 
ATOM     17  C   UNL A   1      33.228  24.525  24.717  1.00  0.00     0.270 C 
ATOM     18  H   UNL A   1      34.895  23.585  24.081  1.00  0.00     0.348 HD
ATOM     19  C   UNL A   1      33.280  23.521  21.994  1.00  0.00     0.062 C 
ATOM     20  C   UNL A   1      32.504  24.796  22.315  1.00  0.00     0.020 C 
BRANCH  15  21
ATOM     21  C   UNL A   1      34.163  22.412  25.539  1.00  0.00     0.302 C 
BRANCH  21  22
ATOM     22  C   UNL A   1      33.867  20.960  25.293  1.00  0.00     0.043 A 
ATOM     23  C   UNL A   1      33.276  18.450  24.464  1.00  0.00     0.127 A 
ATOM     24  N   UNL A   1      34.572  18.811  24.484  1.00  0.00    -0.241 NA
ATOM     25  N   UNL A   1      32.258  19.214  24.899  1.00  0.00    -0.241 NA
ATOM     26  C   UNL A   1      34.838  20.062  24.907  1.00  0.00     0.124 A 
ATOM     27  C   UNL A   1      32.583  20.452  25.315  1.00  0.00     0.124 A 
BRANCH  23  28
ATOM     28  C   UNL A   1      32.936  17.113  23.872  1.00  0.00     0.074 C 
ATOM     29  C   UNL A   1      34.177  16.267  23.668  1.00  0.00     0.012 C 
ENDBRANCH  23  28
ENDBRANCH  21  22
ENDBRANCH  15  21
ENDBRANCH   9  14
ENDBRANCH   5   8
ENDBRANCH   3   4
ENDBRANCH   2   3
ENDBRANCH   1   2
BRANCH   1  30
ATOM     30  C   UNL A   1      35.414  33.515  28.652  1.00  0.00     0.002 C 
BRANCH  30  31
ATOM     31  C   UNL A   1      36.783  33.785  29.281  1.00  0.00     0.021 C 
BRANCH  31  32
ATOM     32  C   UNL A   1      36.930  33.424  30.756  1.00  0.00     0.116 C 
BRANCH  32  33
ATOM     33  N   UNL A   1      36.237  32.203  31.117  1.00  0.00    -0.352 N 
ATOM     34  C   UNL A   1      36.670  30.897  31.018  1.00  0.00     0.251 C 
ATOM     35  H   UNL A   1      35.331  32.323  31.485  1.00  0.00     0.163 HD
ATOM     36  O   UNL A   1      35.907  29.974  31.267  1.00  0.00    -0.269 OA
BRANCH  34  37
ATOM     37  C   UNL A   1      38.055  30.621  30.574  1.00  0.00     0.039 A 
ATOM     38  C   UNL A   1      39.053  30.454  31.537  1.00  0.00     0.014 A 
ATOM     39  C   UNL A   1      38.359  30.504  29.216  1.00  0.00     0.014 A 
ATOM     40  C   UNL A   1      40.345  30.091  31.143  1.00  0.00     0.010 A 
ATOM     41  C   UNL A   1      39.629  30.083  28.829  1.00  0.00     0.010 A 
ATOM     42  C   UNL A   1      40.632  29.864  29.787  1.00  0.00    -0.014 A 
BRANCH  42  43
ATOM     43  C   UNL A   1      41.965  29.391  29.335  1.00  0.00     0.031 A 
ATOM     44  C   UNL A   1      43.113  30.360  29.253  1.00  0.00     0.074 A 
ATOM     45  C   UNL A   1      42.121  28.122  28.907  1.00  0.00     0.049 A 
ATOM     46  N   UNL A   1      44.302  30.190  28.733  1.00  0.00    -0.248 NA
ATOM     47  C   UNL A   1      42.881  31.703  29.805  1.00  0.00     0.031 C 
ATOM     48  C   UNL A   1      41.087  27.086  28.925  1.00  0.00     0.029 A 
ATOM     49  N   UNL A   1      43.210  27.493  28.355  1.00  0.00    -0.354 N 
ATOM     50  C   UNL A   1      44.951  31.411  28.873  1.00  0.00     0.074 A 
ATOM     51  C   UNL A   1      44.010  32.321  29.491  1.00  0.00     0.031 C 
ATOM     52  C   UNL A   1      41.595  25.949  28.422  1.00  0.00     0.029 A 
ATOM     53  C   UNL A   1      42.972  26.186  27.999  1.00  0.00     0.049 A 
ATOM     54  H   UNL A   1      44.079  27.936  28.225  1.00  0.00     0.167 HD
ATOM     55  C   UNL A   1      46.218  31.742  28.528  1.00  0.00     0.031 A 
ATOM     56  C   UNL A   1      43.763  25.286  27.384  1.00  0.00     0.031 A 
ATOM     57  C   UNL A   1      47.153  30.833  27.922  1.00  0.00     0.049 A 
ATOM     58  C   UNL A   1      45.156  25.685  26.978  1.00  0.00     0.074 A 
ATOM     59  C   UNL A   1      48.470  31.065  27.565  1.00  0.00     0.029 A 
ATOM     60  N   UNL A   1      46.872  29.518  27.587  1.00  0.00    -0.354 N 
ATOM     61  N   UNL A   1      45.760  26.838  27.138  1.00  0.00    -0.248 NA
ATOM     62  C   UNL A   1      45.973  24.662  26.310  1.00  0.00     0.031 C 
ATOM     63  C   UNL A   1      48.974  29.899  26.977  1.00  0.00     0.029 A 
ATOM     64  C   UNL A   1      47.985  28.927  27.014  1.00  0.00     0.049 A 
ATOM     65  H   UNL A   1      46.008  29.069  27.735  1.00  0.00     0.167 HD
ATOM     66  C   UNL A   1      47.040  26.669  26.621  1.00  0.00     0.074 A 
ATOM     67  C   UNL A   1      47.123  25.304  26.143  1.00  0.00     0.031 C 
ATOM     68  C   UNL A   1      48.055  27.563  26.554  1.00  0.00     0.031 A 
BRANCH  55  69
ATOM     69  C   UNL A   1      46.654  33.160  28.787  1.00  0.00    -0.014 A 
ATOM     70  C   UNL A   1      47.266  33.518  30.002  1.00  0.00     0.010 A 
ATOM     71  C   UNL A   1      46.458  34.144  27.802  1.00  0.00     0.010 A 
ATOM     72  C   UNL A   1      47.622  34.847  30.249  1.00  0.00     0.020 A 
ATOM     73  C   UNL A   1      46.839  35.469  28.034  1.00  0.00     0.020 A 
ATOM     74  C   UNL A   1      47.396  35.815  29.266  1.00  0.00     0.054 A 
BRANCH  74  75
ATOM     75  S   UNL A   1      47.858  37.534  29.615  1.00  0.00     0.124 S 
ATOM     76  O   UNL A   1      47.848  37.556  31.076  1.00  0.00    -0.237 OA
ATOM     77  O   UNL A   1      49.175  37.647  28.994  1.00  0.00    -0.237 OA
ATOM     78  O   UNL A   1      46.801  38.313  28.974  1.00  0.00    -0.744 OA
ENDBRANCH  74  75
ENDBRANCH  55  69
BRANCH  56  79
ATOM     79  C   UNL A   1      43.260  23.911  27.123  1.00  0.00    -0.014 A 
ATOM     80  C   UNL A   1      43.249  22.954  28.153  1.00  0.00     0.010 A 
ATOM     81  C   UNL A   1      42.771  23.555  25.852  1.00  0.00     0.010 A 
ATOM     82  C   UNL A   1      42.769  21.663  27.916  1.00  0.00     0.020 A 
ATOM     83  C   UNL A   1      42.268  22.272  25.619  1.00  0.00     0.020 A 
ATOM     84  C   UNL A   1      42.279  21.331  26.649  1.00  0.00     0.054 A 
BRANCH  84  85
ATOM     85  S   UNL A   1      41.607  19.667  26.379  1.00  0.00     0.124 S 
ATOM     86  O   UNL A   1      41.872  19.021  27.660  1.00  0.00    -0.237 OA
ATOM     87  O   UNL A   1      40.202  19.938  26.083  1.00  0.00    -0.237 OA
ATOM     88  O   UNL A   1      42.387  19.166  25.250  1.00  0.00    -0.744 OA
ENDBRANCH  84  85
ENDBRANCH  56  79
BRANCH  68  89
ATOM     89  C   UNL A   1      49.367  27.092  25.988  1.00  0.00    -0.014 A 
ATOM     90  C   UNL A   1      49.688  27.286  24.634  1.00  0.00     0.010 A 
ATOM     91  C   UNL A   1      50.326  26.527  26.850  1.00  0.00     0.010 A 
ATOM     92  C   UNL A   1      50.946  26.916  24.149  1.00  0.00     0.020 A 
ATOM     93  C   UNL A   1      51.591  26.177  26.374  1.00  0.00     0.020 A 
ATOM     94  C   UNL A   1      51.891  26.368  25.023  1.00  0.00     0.054 A 
BRANCH  94  95
ATOM     95  S   UNL A   1      53.544  25.973  24.388  1.00  0.00     0.124 S 
ATOM     96  O   UNL A   1      53.476  26.489  23.024  1.00  0.00    -0.237 OA
ATOM     97  O   UNL A   1      54.421  26.708  25.297  1.00  0.00    -0.237 OA
ATOM     98  O   UNL A   1      53.619  24.518  24.502  1.00  0.00    -0.744 OA
ENDBRANCH  94  95
ENDBRANCH  68  89
ENDBRANCH  42  43
ENDBRANCH  34  37
ENDBRANCH  32  33
ENDBRANCH  31  32
ENDBRANCH  30  31
ENDBRANCH   1  30
TORSDOF 20
ENDMDL
MODEL 2
REMARK VINA RESULT:     -10.9      2.599      9.691
REMARK SMILES CCc1ncc(C[N@H+]2CCC[C@@H](c3cccc(C(=O)NCCCCCCNC(=O)c4ccc(-c5c6nc(c(-c7ccc(S(=O)(=O)[O-])cc7)c7ccc([nH]7)c(-c7ccc(S(=O)(=O)[O-])cc7)c7nc(c(-c8ccc(S(=O)(=O)[O-])cc8)c8ccc5[nH]8)C=C7)C=C6)cc4)c3)C2)cn1
REMARK SMILES IDX 23 1 22 2 21 3 20 4 18 5 19 6 17 8 13 9 14 10 90 11 15 12
REMARK SMILES IDX 16 13 12 14 8 15 9 16 91 17 10 19 11 20 7 21 6 22 3 23 4 24
REMARK SMILES IDX 93 25 5 26 92 27 2 28 1 29 24 30 25 31 26 32 27 33 28 34
REMARK SMILES IDX 29 36 30 37 31 38 89 39 32 40 88 41 33 42 34 43 35 44 82 45
REMARK SMILES IDX 36 46 87 47 81 48 83 49 37 50 86 51 80 52 79 53 38 55 68 56
REMARK SMILES IDX 49 57 67 58 50 59 53 60 66 61 84 62 51 63 52 64 65 66 85 67
REMARK SMILES IDX 54 68 39 69 40 70 48 71 41 72 47 73 42 74 43 75 44 76 45 77
REMARK SMILES IDX 46 78 69 79 70 80 78 81 71 82 77 83 72 84 73 85 74 86 75 87
REMARK SMILES IDX 76 88 55 89 56 90 64 91 57 92 63 93 58 94 59 95 60 96 61 97
REMARK SMILES IDX 62 98
REMARK H PARENT 20 7 8 18 27 35 83 54 53 65
REMARK Flexibility Score: inf
ROOT
ATOM      1  C   UNL A   1      41.999  21.792  27.036  1.00  0.00     0.002 C 
ENDROOT
BRANCH   1   2
ATOM      2  C   UNL A   1      40.950  22.342  26.071  1.00  0.00     0.021 C 
BRANCH   2   3
ATOM      3  C   UNL A   1      39.491  22.116  26.444  1.00  0.00     0.116 C 
BRANCH   3   4
ATOM      4  N   UNL A   1      38.911  20.884  25.935  1.00  0.00    -0.352 N 
ATOM      5  C   UNL A   1      37.778  20.683  25.172  1.00  0.00     0.251 C 
ATOM      6  O   UNL A   1      37.461  19.536  24.862  1.00  0.00    -0.269 OA
ATOM      7  H   UNL A   1      39.403  20.065  26.171  1.00  0.00     0.163 HD
BRANCH   5   8
ATOM      8  C   UNL A   1      36.900  21.816  24.774  1.00  0.00     0.040 A 
ATOM      9  C   UNL A   1      34.900  23.163  25.116  1.00  0.00    -0.039 A 
ATOM     10  C   UNL A   1      35.079  23.731  23.851  1.00  0.00     0.004 A 
ATOM     11  C   UNL A   1      35.885  22.293  25.603  1.00  0.00     0.018 A 
ATOM     12  C   UNL A   1      36.178  23.371  23.065  1.00  0.00     0.001 A 
ATOM     13  C   UNL A   1      37.071  22.394  23.512  1.00  0.00     0.014 A 
BRANCH   9  14
ATOM     14  C   UNL A   1      33.685  23.413  25.992  1.00  0.00     0.074 C 
ATOM     15  N   UNL A   1      31.654  24.831  26.252  1.00  0.00    -0.331 N 
ATOM     16  C   UNL A   1      30.835  23.643  26.531  1.00  0.00     0.262 C 
ATOM     17  C   UNL A   1      32.806  24.516  25.395  1.00  0.00     0.270 C 
ATOM     18  H   UNL A   1      32.029  25.135  27.150  1.00  0.00     0.348 HD
ATOM     19  C   UNL A   1      31.661  22.522  27.165  1.00  0.00     0.062 C 
ATOM     20  C   UNL A   1      32.855  22.156  26.287  1.00  0.00     0.020 C 
BRANCH  15  21
ATOM     21  C   UNL A   1      30.865  25.974  25.744  1.00  0.00     0.302 C 
BRANCH  21  22
ATOM     22  C   UNL A   1      31.441  27.328  26.045  1.00  0.00     0.043 A 
ATOM     23  C   UNL A   1      32.103  29.905  26.553  1.00  0.00     0.127 A 
ATOM     24  N   UNL A   1      31.832  29.112  27.606  1.00  0.00    -0.241 NA
ATOM     25  N   UNL A   1      32.146  29.496  25.272  1.00  0.00    -0.241 NA
ATOM     26  C   UNL A   1      31.514  27.833  27.325  1.00  0.00     0.124 A 
ATOM     27  C   UNL A   1      31.823  28.208  25.052  1.00  0.00     0.124 A 
BRANCH  23  28
ATOM     28  C   UNL A   1      32.329  31.364  26.823  1.00  0.00     0.074 C 
ATOM     29  C   UNL A   1      33.621  31.593  27.583  1.00  0.00     0.012 C 
ENDBRANCH  23  28
ENDBRANCH  21  22
ENDBRANCH  15  21
ENDBRANCH   9  14
ENDBRANCH   5   8
ENDBRANCH   3   4
ENDBRANCH   2   3
ENDBRANCH   1   2
BRANCH   1  30
ATOM     30  C   UNL A   1      41.772  20.376  27.568  1.00  0.00     0.002 C 
BRANCH  30  31
ATOM     31  C   UNL A   1      42.490  19.240  26.837  1.00  0.00     0.021 C 
BRANCH  31  32
ATOM     32  C   UNL A   1      42.517  19.329  25.314  1.00  0.00     0.116 C 
BRANCH  32  33
ATOM     33  N   UNL A   1      43.775  18.897  24.738  1.00  0.00    -0.352 N 
ATOM     34  C   UNL A   1      44.902  19.642  24.457  1.00  0.00     0.251 C 
ATOM     35  H   UNL A   1      43.833  17.939  24.516  1.00  0.00     0.163 HD
ATOM     36  O   UNL A   1      45.844  19.135  23.863  1.00  0.00    -0.269 OA
BRANCH  34  37
ATOM     37  C   UNL A   1      44.948  21.069  24.848  1.00  0.00     0.039 A 
ATOM     38  C   UNL A   1      45.396  21.404  26.128  1.00  0.00     0.014 A 
ATOM     39  C   UNL A   1      44.574  22.069  23.948  1.00  0.00     0.014 A 
ATOM     40  C   UNL A   1      45.545  22.749  26.482  1.00  0.00     0.010 A 
ATOM     41  C   UNL A   1      44.780  23.406  24.279  1.00  0.00     0.010 A 
ATOM     42  C   UNL A   1      45.275  23.760  25.545  1.00  0.00    -0.014 A 
BRANCH  42  43
ATOM     43  C   UNL A   1      45.505  25.195  25.848  1.00  0.00     0.031 A 
ATOM     44  C   UNL A   1      46.896  25.764  25.766  1.00  0.00     0.074 A 
ATOM     45  C   UNL A   1      44.488  25.963  26.289  1.00  0.00     0.049 A 
ATOM     46  N   UNL A   1      47.332  26.937  26.145  1.00  0.00    -0.248 NA
ATOM     47  C   UNL A   1      47.933  24.883  25.208  1.00  0.00     0.031 C 
ATOM     48  C   UNL A   1      43.095  25.533  26.423  1.00  0.00     0.029 A 
ATOM     49  N   UNL A   1      44.475  27.265  26.725  1.00  0.00    -0.354 N 
ATOM     50  C   UNL A   1      48.699  26.928  25.896  1.00  0.00     0.074 A 
ATOM     51  C   UNL A   1      49.024  25.618  25.369  1.00  0.00     0.031 C 
ATOM     52  C   UNL A   1      42.362  26.555  26.893  1.00  0.00     0.029 A 
ATOM     53  C   UNL A   1      43.238  27.696  27.143  1.00  0.00     0.049 A 
ATOM     54  H   UNL A   1      45.276  27.836  26.738  1.00  0.00     0.167 HD
ATOM     55  C   UNL A   1      49.601  27.921  26.078  1.00  0.00     0.031 A 
ATOM     56  C   UNL A   1      42.853  28.869  27.684  1.00  0.00     0.031 A 
ATOM     57  C   UNL A   1      49.275  29.223  26.594  1.00  0.00     0.049 A 
ATOM     58  C   UNL A   1      43.878  29.947  27.909  1.00  0.00     0.074 A 
ATOM     59  C   UNL A   1      50.113  30.308  26.785  1.00  0.00     0.029 A 
ATOM     60  N   UNL A   1      48.009  29.618  26.995  1.00  0.00    -0.354 N 
ATOM     61  N   UNL A   1      45.163  29.927  27.647  1.00  0.00    -0.248 NA
ATOM     62  C   UNL A   1      43.402  31.204  28.504  1.00  0.00     0.031 C 
ATOM     63  C   UNL A   1      49.359  31.348  27.340  1.00  0.00     0.029 A 
ATOM     64  C   UNL A   1      48.043  30.926  27.448  1.00  0.00     0.049 A 
ATOM     65  H   UNL A   1      47.203  29.053  26.964  1.00  0.00     0.167 HD
ATOM     66  C   UNL A   1      45.642  31.181  28.013  1.00  0.00     0.074 A 
ATOM     67  C   UNL A   1      44.510  31.933  28.515  1.00  0.00     0.031 C 
ATOM     68  C   UNL A   1      46.905  31.665  27.933  1.00  0.00     0.031 A 
BRANCH  55  69
ATOM     69  C   UNL A   1      51.036  27.622  25.729  1.00  0.00    -0.014 A 
ATOM     70  C   UNL A   1      51.532  27.862  24.435  1.00  0.00     0.010 A 
ATOM     71  C   UNL A   1      51.900  27.102  26.709  1.00  0.00     0.010 A 
ATOM     72  C   UNL A   1      52.852  27.534  24.112  1.00  0.00     0.020 A 
ATOM     73  C   UNL A   1      53.229  26.799  26.397  1.00  0.00     0.020 A 
ATOM     74  C   UNL A   1      53.688  26.996  25.094  1.00  0.00     0.054 A 
BRANCH  74  75
ATOM     75  S   UNL A   1      55.393  26.569  24.647  1.00  0.00     0.124 S 
ATOM     76  O   UNL A   1      55.391  26.801  23.204  1.00  0.00    -0.237 OA
ATOM     77  O   UNL A   1      56.180  27.517  25.433  1.00  0.00    -0.237 OA
ATOM     78  O   UNL A   1      55.519  25.172  25.052  1.00  0.00    -0.744 OA
ENDBRANCH  74  75
ENDBRANCH  55  69
BRANCH  56  79
ATOM     79  C   UNL A   1      41.426  29.089  28.041  1.00  0.00    -0.014 A 
ATOM     80  C   UNL A   1      40.455  29.213  27.031  1.00  0.00     0.010 A 
ATOM     81  C   UNL A   1      41.026  29.157  29.388  1.00  0.00     0.010 A 
ATOM     82  C   UNL A   1      39.112  29.411  27.360  1.00  0.00     0.020 A 
ATOM     83  C   UNL A   1      39.680  29.331  29.721  1.00  0.00     0.020 A 
ATOM     84  C   UNL A   1      38.732  29.467  28.705  1.00  0.00     0.054 A 
BRANCH  84  85
ATOM     85  S   UNL A   1      36.975  29.668  29.111  1.00  0.00     0.124 S 
ATOM     86  O   UNL A   1      36.877  28.968  30.387  1.00  0.00    -0.237 OA
ATOM     87  O   UNL A   1      36.830  31.121  29.172  1.00  0.00    -0.237 OA
ATOM     88  O   UNL A   1      36.292  29.029  27.989  1.00  0.00    -0.744 OA
ENDBRANCH  84  85
ENDBRANCH  56  79
BRANCH  68  89
ATOM     89  C   UNL A   1      47.135  33.092  28.352  1.00  0.00    -0.014 A 
ATOM     90  C   UNL A   1      46.963  34.153  27.447  1.00  0.00     0.010 A 
ATOM     91  C   UNL A   1      47.439  33.374  29.697  1.00  0.00     0.010 A 
ATOM     92  C   UNL A   1      47.099  35.475  27.880  1.00  0.00     0.020 A 
ATOM     93  C   UNL A   1      47.554  34.695  30.137  1.00  0.00     0.020 A 
ATOM     94  C   UNL A   1      47.389  35.738  29.224  1.00  0.00     0.054 A 
BRANCH  94  95
ATOM     95  S   UNL A   1      47.479  37.463  29.778  1.00  0.00     0.124 S 
ATOM     96  O   UNL A   1      46.169  37.975  29.389  1.00  0.00    -0.237 OA
ATOM     97  O   UNL A   1      47.701  37.326  31.215  1.00  0.00    -0.237 OA
ATOM     98  O   UNL A   1      48.610  38.008  29.030  1.00  0.00    -0.744 OA
ENDBRANCH  94  95
ENDBRANCH  68  89
ENDBRANCH  42  43
ENDBRANCH  34  37
ENDBRANCH  32  33
ENDBRANCH  31  32
ENDBRANCH  30  31
ENDBRANCH   1  30
TORSDOF 20
ENDMDL
MODEL 3
REMARK VINA RESULT:     -10.9      0.738      7.919
REMARK SMILES CCc1ncc(C[N@H+]2CCC[C@@H](c3cccc(C(=O)NCCCCCCNC(=O)c4ccc(-c5c6nc(c(-c7ccc(S(=O)(=O)[O-])cc7)c7ccc([nH]7)c(-c7ccc(S(=O)(=O)[O-])cc7)c7nc(c(-c8ccc(S(=O)(=O)[O-])cc8)c8ccc5[nH]8)C=C7)C=C6)cc4)c3)C2)cn1
REMARK SMILES IDX 23 1 22 2 21 3 20 4 18 5 19 6 17 8 13 9 14 10 90 11 15 12
REMARK SMILES IDX 16 13 12 14 8 15 9 16 91 17 10 19 11 20 7 21 6 22 3 23 4 24
REMARK SMILES IDX 93 25 5 26 92 27 2 28 1 29 24 30 25 31 26 32 27 33 28 34
REMARK SMILES IDX 29 36 30 37 31 38 89 39 32 40 88 41 33 42 34 43 35 44 82 45
REMARK SMILES IDX 36 46 87 47 81 48 83 49 37 50 86 51 80 52 79 53 38 55 68 56
REMARK SMILES IDX 49 57 67 58 50 59 53 60 66 61 84 62 51 63 52 64 65 66 85 67
REMARK SMILES IDX 54 68 39 69 40 70 48 71 41 72 47 73 42 74 43 75 44 76 45 77
REMARK SMILES IDX 46 78 69 79 70 80 78 81 71 82 77 83 72 84 73 85 74 86 75 87
REMARK SMILES IDX 76 88 55 89 56 90 64 91 57 92 63 93 58 94 59 95 60 96 61 97
REMARK SMILES IDX 62 98
REMARK H PARENT 20 7 8 18 27 35 83 54 53 65
REMARK Flexibility Score: inf
ROOT
ATOM      1  C   UNL A   1      35.997  31.860  28.018  1.00  0.00     0.002 C 
ENDROOT
BRANCH   1   2
ATOM      2  C   UNL A   1      34.677  31.296  27.497  1.00  0.00     0.021 C 
BRANCH   2   3
ATOM      3  C   UNL A   1      34.560  29.780  27.423  1.00  0.00     0.116 C 
BRANCH   3   4
ATOM      4  N   UNL A   1      33.234  29.252  27.700  1.00  0.00    -0.352 N 
ATOM      5  C   UNL A   1      32.372  28.542  26.888  1.00  0.00     0.251 C 
ATOM      6  O   UNL A   1      31.276  28.203  27.331  1.00  0.00    -0.269 OA
ATOM      7  H   UNL A   1      32.897  29.429  28.607  1.00  0.00     0.163 HD
BRANCH   5   8
ATOM      8  C   UNL A   1      32.714  28.236  25.472  1.00  0.00     0.040 A 
ATOM      9  C   UNL A   1      33.302  26.632  23.737  1.00  0.00    -0.039 A 
ATOM     10  C   UNL A   1      33.668  27.690  22.898  1.00  0.00     0.004 A 
ATOM     11  C   UNL A   1      32.722  26.933  24.976  1.00  0.00     0.018 A 
ATOM     12  C   UNL A   1      33.527  29.013  23.329  1.00  0.00     0.001 A 
ATOM     13  C   UNL A   1      33.078  29.286  24.623  1.00  0.00     0.014 A 
BRANCH   9  14
ATOM     14  C   UNL A   1      33.519  25.168  23.397  1.00  0.00     0.074 C 
ATOM     15  N   UNL A   1      33.383  22.854  24.307  1.00  0.00    -0.331 N 
ATOM     16  C   UNL A   1      32.704  22.392  23.088  1.00  0.00     0.262 C 
ATOM     17  C   UNL A   1      33.123  24.275  24.577  1.00  0.00     0.270 C 
ATOM     18  H   UNL A   1      34.382  22.766  24.126  1.00  0.00     0.348 HD
ATOM     19  C   UNL A   1      33.095  23.231  21.869  1.00  0.00     0.062 C 
ATOM     20  C   UNL A   1      32.816  24.712  22.111  1.00  0.00     0.020 C 
BRANCH  15  21
ATOM     21  C   UNL A   1      33.116  21.995  25.482  1.00  0.00     0.302 C 
BRANCH  21  22
ATOM     22  C   UNL A   1      33.335  20.527  25.258  1.00  0.00     0.043 A 
ATOM     23  C   UNL A   1      33.662  17.957  24.465  1.00  0.00     0.127 A 
ATOM     24  N   UNL A   1      34.760  18.731  24.537  1.00  0.00    -0.241 NA
ATOM     25  N   UNL A   1      32.425  18.340  24.831  1.00  0.00    -0.241 NA
ATOM     26  C   UNL A   1      34.570  20.002  24.941  1.00  0.00     0.124 A 
ATOM     27  C   UNL A   1      32.296  19.618  25.231  1.00  0.00     0.124 A 
BRANCH  23  28
ATOM     28  C   UNL A   1      33.820  16.579  23.890  1.00  0.00     0.074 C 
ATOM     29  C   UNL A   1      33.404  15.514  24.886  1.00  0.00     0.012 C 
ENDBRANCH  23  28
ENDBRANCH  21  22
ENDBRANCH  15  21
ENDBRANCH   9  14
ENDBRANCH   5   8
ENDBRANCH   3   4
ENDBRANCH   2   3
ENDBRANCH   1   2
BRANCH   1  30
ATOM     30  C   UNL A   1      35.908  32.981  29.055  1.00  0.00     0.002 C 
BRANCH  30  31
ATOM     31  C   UNL A   1      37.231  33.537  29.587  1.00  0.00     0.021 C 
BRANCH  31  32
ATOM     32  C   UNL A   1      37.692  33.001  30.938  1.00  0.00     0.116 C 
BRANCH  32  33
ATOM     33  N   UNL A   1      36.894  31.889  31.415  1.00  0.00    -0.352 N 
ATOM     34  C   UNL A   1      37.124  30.534  31.280  1.00  0.00     0.251 C 
ATOM     35  H   UNL A   1      36.074  32.132  31.903  1.00  0.00     0.163 HD
ATOM     36  O   UNL A   1      36.284  29.726  31.649  1.00  0.00    -0.269 OA
BRANCH  34  37
ATOM     37  C   UNL A   1      38.381  30.069  30.651  1.00  0.00     0.039 A 
ATOM     38  C   UNL A   1      38.440  29.961  29.260  1.00  0.00     0.014 A 
ATOM     39  C   UNL A   1      39.500  29.765  31.430  1.00  0.00     0.014 A 
ATOM     40  C   UNL A   1      39.649  29.624  28.640  1.00  0.00     0.010 A 
ATOM     41  C   UNL A   1      40.716  29.490  30.811  1.00  0.00     0.010 A 
ATOM     42  C   UNL A   1      40.806  29.425  29.411  1.00  0.00    -0.014 A 
BRANCH  42  43
ATOM     43  C   UNL A   1      42.127  29.153  28.789  1.00  0.00     0.031 A 
ATOM     44  C   UNL A   1      42.452  27.769  28.299  1.00  0.00     0.074 A 
ATOM     45  C   UNL A   1      43.066  30.120  28.752  1.00  0.00     0.049 A 
ATOM     46  N   UNL A   1      43.594  27.287  27.881  1.00  0.00    -0.248 NA
ATOM     47  C   UNL A   1      41.352  26.793  28.309  1.00  0.00     0.031 C 
ATOM     48  C   UNL A   1      42.882  31.501  29.201  1.00  0.00     0.029 A 
ATOM     49  N   UNL A   1      44.373  30.081  28.330  1.00  0.00    -0.354 N 
ATOM     50  C   UNL A   1      43.357  25.947  27.601  1.00  0.00     0.074 A 
ATOM     51  C   UNL A   1      41.973  25.684  27.933  1.00  0.00     0.031 C 
ATOM     52  C   UNL A   1      44.027  32.179  29.018  1.00  0.00     0.029 A 
ATOM     53  C   UNL A   1      45.041  31.272  28.487  1.00  0.00     0.049 A 
ATOM     54  H   UNL A   1      44.792  29.274  27.952  1.00  0.00     0.167 HD
ATOM     55  C   UNL A   1      44.211  25.021  27.102  1.00  0.00     0.031 A 
ATOM     56  C   UNL A   1      46.327  31.595  28.250  1.00  0.00     0.031 A 
ATOM     57  C   UNL A   1      45.583  25.287  26.764  1.00  0.00     0.049 A 
ATOM     58  C   UNL A   1      47.266  30.542  27.729  1.00  0.00     0.074 A 
ATOM     59  C   UNL A   1      46.519  24.423  26.222  1.00  0.00     0.029 A 
ATOM     60  N   UNL A   1      46.214  26.509  26.931  1.00  0.00    -0.354 N 
ATOM     61  N   UNL A   1      47.019  29.285  27.449  1.00  0.00    -0.248 NA
ATOM     62  C   UNL A   1      48.658  30.951  27.490  1.00  0.00     0.031 C 
ATOM     63  C   UNL A   1      47.729  25.115  26.098  1.00  0.00     0.029 A 
ATOM     64  C   UNL A   1      47.533  26.421  26.517  1.00  0.00     0.049 A 
ATOM     65  H   UNL A   1      45.789  27.321  27.292  1.00  0.00     0.167 HD
ATOM     66  C   UNL A   1      48.215  28.762  26.969  1.00  0.00     0.074 A 
ATOM     67  C   UNL A   1      49.185  29.838  26.998  1.00  0.00     0.031 C 
ATOM     68  C   UNL A   1      48.482  27.505  26.540  1.00  0.00     0.031 A 
BRANCH  55  69
ATOM     69  C   UNL A   1      43.678  23.626  26.910  1.00  0.00    -0.014 A 
ATOM     70  C   UNL A   1      43.757  22.986  25.659  1.00  0.00     0.010 A 
ATOM     71  C   UNL A   1      43.097  22.943  27.993  1.00  0.00     0.010 A 
ATOM     72  C   UNL A   1      43.215  21.710  25.483  1.00  0.00     0.020 A 
ATOM     73  C   UNL A   1      42.579  21.655  27.828  1.00  0.00     0.020 A 
ATOM     74  C   UNL A   1      42.621  21.057  26.567  1.00  0.00     0.054 A 
BRANCH  74  75
ATOM     75  S   UNL A   1      41.916  19.406  26.310  1.00  0.00     0.124 S 
ATOM     76  O   UNL A   1      42.590  18.980  25.085  1.00  0.00    -0.237 OA
ATOM     77  O   UNL A   1      42.309  18.694  27.523  1.00  0.00    -0.237 OA
ATOM     78  O   UNL A   1      40.483  19.658  26.176  1.00  0.00    -0.744 OA
ENDBRANCH  74  75
ENDBRANCH  55  69
BRANCH  56  79
ATOM     79  C   UNL A   1      46.801  32.983  28.495  1.00  0.00    -0.014 A 
ATOM     80  C   UNL A   1      46.955  33.879  27.422  1.00  0.00     0.010 A 
ATOM     81  C   UNL A   1      47.082  33.425  29.801  1.00  0.00     0.010 A 
ATOM     82  C   UNL A   1      47.392  35.187  27.647  1.00  0.00     0.020 A 
ATOM     83  C   UNL A   1      47.496  34.740  30.032  1.00  0.00     0.020 A 
ATOM     84  C   UNL A   1      47.657  35.611  28.953  1.00  0.00     0.054 A 
BRANCH  84  85
ATOM     85  S   UNL A   1      48.168  37.330  29.229  1.00  0.00     0.124 S 
ATOM     86  O   UNL A   1      49.528  37.330  28.701  1.00  0.00    -0.237 OA
ATOM     87  O   UNL A   1      47.185  38.080  28.450  1.00  0.00    -0.237 OA
ATOM     88  O   UNL A   1      48.055  37.488  30.677  1.00  0.00    -0.744 OA
ENDBRANCH  84  85
ENDBRANCH  56  79
BRANCH  68  89
ATOM     89  C   UNL A   1      49.864  27.224  26.016  1.00  0.00    -0.014 A 
ATOM     90  C   UNL A   1      50.172  27.380  24.654  1.00  0.00     0.010 A 
ATOM     91  C   UNL A   1      50.888  26.886  26.921  1.00  0.00     0.010 A 
ATOM     92  C   UNL A   1      51.483  27.195  24.204  1.00  0.00     0.020 A 
ATOM     93  C   UNL A   1      52.202  26.722  26.477  1.00  0.00     0.020 A 
ATOM     94  C   UNL A   1      52.490  26.872  25.119  1.00  0.00     0.054 A 
BRANCH  94  95
ATOM     95  S   UNL A   1      54.197  26.718  24.523  1.00  0.00     0.124 S 
ATOM     96  O   UNL A   1      54.099  27.272  23.176  1.00  0.00    -0.237 OA
ATOM     97  O   UNL A   1      54.945  27.526  25.483  1.00  0.00    -0.237 OA
ATOM     98  O   UNL A   1      54.459  25.282  24.591  1.00  0.00    -0.744 OA
ENDBRANCH  94  95
ENDBRANCH  68  89
ENDBRANCH  42  43
ENDBRANCH  34  37
ENDBRANCH  32  33
ENDBRANCH  31  32
ENDBRANCH  30  31
ENDBRANCH   1  30
TORSDOF 20
ENDMDL
