MODEL 1
REMARK VINA RESULT:     -11.4      0.000      0.000
REMARK SMILES C=C1c2ccccc2C(=O)N1[C@](C)(C(=O)NCCCCCCNC(=O)c1ccc(-c2c3nc(c(-c4ccc(S(=O)(=O)[O-])cc4)c4ccc([nH]4)c(-c4ccc(S(=O)(=O)[O-])cc4)c4nc(c(-c5ccc(S(=O)(=O)[O-])cc5)c5ccc2[nH]5)C=C4)C=C3)cc1)C(F)(F)F
REMARK SMILES IDX 20 1 19 2 18 3 17 4 16 5 14 6 15 7 12 9 13 10 11 11 1 12
REMARK SMILES IDX 2 13 3 14 4 15 8 16 9 17 5 18 7 19 10 20 6 21 86 22 87 23
REMARK SMILES IDX 88 24 89 25 21 26 22 27 23 28 24 29 25 31 26 32 27 33 85 34
REMARK SMILES IDX 28 35 84 36 29 37 30 38 31 39 78 40 32 41 83 42 77 43 79 44
REMARK SMILES IDX 33 45 82 46 76 47 75 48 34 50 64 51 45 52 63 53 46 54 49 55
REMARK SMILES IDX 62 56 80 57 47 58 48 59 61 61 81 62 50 63 35 64 36 65 44 66
REMARK SMILES IDX 37 67 43 68 38 69 39 70 40 71 41 72 42 73 65 74 66 75 74 76
REMARK SMILES IDX 67 77 73 78 68 79 69 80 70 81 71 82 72 83 51 84 52 85 60 86
REMARK SMILES IDX 53 87 59 88 54 89 55 90 56 91 57 92 58 93
REMARK H PARENT 16 8 23 30 79 49 49 60
REMARK Flexibility Score: inf
ROOT
ATOM      1  C   UNL A   1      31.814  27.667  25.278  1.00  0.00     0.002 C 
ENDROOT
BRANCH   1   2
ATOM      2  C   UNL A   1      31.045  26.722  26.207  1.00  0.00     0.002 C 
BRANCH   2   3
ATOM      3  C   UNL A   1      30.208  25.619  25.555  1.00  0.00     0.021 C 
BRANCH   3   4
ATOM      4  C   UNL A   1      30.900  24.277  25.360  1.00  0.00     0.116 C 
BRANCH   4   5
ATOM      5  N   UNL A   1      31.685  24.165  24.147  1.00  0.00    -0.354 N 
ATOM      6  C   UNL A   1      32.810  23.436  23.882  1.00  0.00     0.255 C 
ATOM      7  O   UNL A   1      32.902  23.088  22.696  1.00  0.00    -0.272 OA
ATOM      8  H   UNL A   1      31.354  24.703  23.391  1.00  0.00     0.163 HD
BRANCH   6   9
ATOM      9  C   UNL A   1      33.872  22.973  24.935  1.00  0.00     0.219 C 
ATOM     10  C   UNL A   1      33.630  23.472  26.377  1.00  0.00     0.056 C 
BRANCH   9  11
ATOM     11  N   UNL A   1      33.977  21.475  24.886  1.00  0.00    -0.285 N 
ATOM     12  C   UNL A   1      36.395  20.887  25.008  1.00  0.00     0.038 C 
ATOM     13  C   UNL A   1      35.093  20.632  24.863  1.00  0.00     0.046 C 
ATOM     14  C   UNL A   1      34.600  19.253  24.695  1.00  0.00     0.010 A 
ATOM     15  C   UNL A   1      35.224  18.024  24.547  1.00  0.00     0.011 A 
ATOM     16  C   UNL A   1      33.215  19.305  24.684  1.00  0.00     0.049 A 
ATOM     17  C   UNL A   1      32.817  20.692  24.872  1.00  0.00     0.260 C 
ATOM     18  C   UNL A   1      34.431  16.879  24.375  1.00  0.00     0.001 A 
ATOM     19  C   UNL A   1      32.402  18.197  24.512  1.00  0.00     0.014 A 
ATOM     20  O   UNL A   1      31.650  21.008  25.012  1.00  0.00    -0.269 OA
ATOM     21  C   UNL A   1      33.028  16.966  24.351  1.00  0.00     0.001 A 
ENDBRANCH   9  11
BRANCH   9  22
ATOM     22  C   UNL A   1      35.101  23.803  24.463  1.00  0.00     0.420 C 
ATOM     23  F   UNL A   1      34.753  25.092  24.194  1.00  0.00    -0.168 F 
ATOM     24  F   UNL A   1      36.044  23.890  25.443  1.00  0.00    -0.168 F 
ATOM     25  F   UNL A   1      35.733  23.333  23.366  1.00  0.00    -0.168 F 
ENDBRANCH   9  22
ENDBRANCH   6   9
ENDBRANCH   4   5
ENDBRANCH   3   4
ENDBRANCH   2   3
ENDBRANCH   1   2
BRANCH   1  26
ATOM     26  C   UNL A   1      33.330  27.776  25.474  1.00  0.00     0.021 C 
BRANCH  26  27
ATOM     27  C   UNL A   1      33.820  28.094  26.881  1.00  0.00     0.116 C 
BRANCH  27  28
ATOM     28  N   UNL A   1      33.587  29.470  27.272  1.00  0.00    -0.352 N 
ATOM     29  C   UNL A   1      34.426  30.365  27.891  1.00  0.00     0.251 C 
ATOM     30  H   UNL A   1      32.691  29.818  27.059  1.00  0.00     0.163 HD
ATOM     31  O   UNL A   1      33.988  31.463  28.226  1.00  0.00    -0.269 OA
BRANCH  29  32
ATOM     32  C   UNL A   1      35.836  30.014  28.188  1.00  0.00     0.039 A 
ATOM     33  C   UNL A   1      36.155  29.597  29.486  1.00  0.00     0.014 A 
ATOM     34  C   UNL A   1      36.848  30.130  27.232  1.00  0.00     0.014 A 
ATOM     35  C   UNL A   1      37.471  29.253  29.809  1.00  0.00     0.010 A 
ATOM     36  C   UNL A   1      38.151  29.730  27.538  1.00  0.00     0.010 A 
ATOM     37  C   UNL A   1      38.478  29.296  28.831  1.00  0.00    -0.014 A 
BRANCH  37  38
ATOM     38  C   UNL A   1      39.874  28.903  29.156  1.00  0.00     0.031 A 
ATOM     39  C   UNL A   1      40.799  29.878  29.835  1.00  0.00     0.074 A 
ATOM     40  C   UNL A   1      40.325  27.682  28.805  1.00  0.00     0.049 A 
ATOM     41  N   UNL A   1      42.056  29.729  30.167  1.00  0.00    -0.248 NA
ATOM     42  C   UNL A   1      40.244  31.202  30.165  1.00  0.00     0.031 C 
ATOM     43  C   UNL A   1      39.543  26.658  28.110  1.00  0.00     0.029 A 
ATOM     44  N   UNL A   1      41.556  27.099  28.981  1.00  0.00    -0.354 N 
ATOM     45  C   UNL A   1      42.448  30.939  30.727  1.00  0.00     0.074 A 
ATOM     46  C   UNL A   1      41.306  31.826  30.653  1.00  0.00     0.031 C 
ATOM     47  C   UNL A   1      40.305  25.564  27.939  1.00  0.00     0.029 A 
ATOM     48  C   UNL A   1      41.635  25.820  28.485  1.00  0.00     0.049 A 
ATOM     49  H   UNL A   1      42.309  27.555  29.422  1.00  0.00     0.167 HD
ATOM     50  C   UNL A   1      43.642  31.280  31.268  1.00  0.00     0.031 A 
ATOM     51  C   UNL A   1      42.662  24.947  28.471  1.00  0.00     0.031 A 
ATOM     52  C   UNL A   1      44.773  30.394  31.358  1.00  0.00     0.049 A 
ATOM     53  C   UNL A   1      43.972  25.339  29.096  1.00  0.00     0.074 A 
ATOM     54  C   UNL A   1      46.011  30.634  31.930  1.00  0.00     0.029 A 
ATOM     55  N   UNL A   1      44.803  29.098  30.869  1.00  0.00    -0.354 N 
ATOM     56  N   UNL A   1      44.306  26.474  29.664  1.00  0.00    -0.248 NA
ATOM     57  C   UNL A   1      45.037  24.328  29.093  1.00  0.00     0.031 C 
ATOM     58  C   UNL A   1      46.802  29.491  31.756  1.00  0.00     0.029 A 
ATOM     59  C   UNL A   1      46.040  28.527  31.116  1.00  0.00     0.049 A 
ATOM     60  H   UNL A   1      44.054  28.650  30.411  1.00  0.00     0.167 HD
ATOM     61  C   UNL A   1      45.610  26.301  30.111  1.00  0.00     0.074 A 
ATOM     62  C   UNL A   1      46.001  24.952  29.758  1.00  0.00     0.031 C 
ATOM     63  C   UNL A   1      46.414  27.182  30.760  1.00  0.00     0.031 A 
BRANCH  50  64
ATOM     64  C   UNL A   1      43.785  32.679  31.807  1.00  0.00    -0.014 A 
ATOM     65  C   UNL A   1      43.645  32.944  33.182  1.00  0.00     0.010 A 
ATOM     66  C   UNL A   1      44.089  33.738  30.933  1.00  0.00     0.010 A 
ATOM     67  C   UNL A   1      43.763  34.249  33.666  1.00  0.00     0.020 A 
ATOM     68  C   UNL A   1      44.232  35.042  31.418  1.00  0.00     0.020 A 
ATOM     69  C   UNL A   1      44.048  35.291  32.779  1.00  0.00     0.054 A 
BRANCH  69  70
ATOM     70  S   UNL A   1      44.207  36.976  33.434  1.00  0.00     0.124 S 
ATOM     71  O   UNL A   1      45.081  36.768  34.586  1.00  0.00    -0.237 OA
ATOM     72  O   UNL A   1      44.805  37.702  32.317  1.00  0.00    -0.237 OA
ATOM     73  O   UNL A   1      42.833  37.353  33.754  1.00  0.00    -0.744 OA
ENDBRANCH  69  70
ENDBRANCH  50  64
BRANCH  51  74
ATOM     74  C   UNL A   1      42.481  23.600  27.866  1.00  0.00    -0.014 A 
ATOM     75  C   UNL A   1      43.038  23.303  26.610  1.00  0.00     0.010 A 
ATOM     76  C   UNL A   1      41.763  22.603  28.551  1.00  0.00     0.010 A 
ATOM     77  C   UNL A   1      42.864  22.040  26.039  1.00  0.00     0.020 A 
ATOM     78  C   UNL A   1      41.608  21.330  27.993  1.00  0.00     0.020 A 
ATOM     79  C   UNL A   1      42.150  21.060  26.735  1.00  0.00     0.054 A 
BRANCH  79  80
ATOM     80  S   UNL A   1      41.982  19.408  26.003  1.00  0.00     0.124 S 
ATOM     81  O   UNL A   1      40.547  19.332  25.753  1.00  0.00    -0.237 OA
ATOM     82  O   UNL A   1      42.828  19.498  24.816  1.00  0.00    -0.237 OA
ATOM     83  O   UNL A   1      42.485  18.521  27.050  1.00  0.00    -0.744 OA
ENDBRANCH  79  80
ENDBRANCH  51  74
BRANCH  63  84
ATOM     84  C   UNL A   1      47.780  26.700  31.163  1.00  0.00    -0.014 A 
ATOM     85  C   UNL A   1      48.003  26.103  32.416  1.00  0.00     0.010 A 
ATOM     86  C   UNL A   1      48.849  26.811  30.255  1.00  0.00     0.010 A 
ATOM     87  C   UNL A   1      49.280  25.660  32.770  1.00  0.00     0.020 A 
ATOM     88  C   UNL A   1      50.122  26.349  30.596  1.00  0.00     0.020 A 
ATOM     89  C   UNL A   1      50.333  25.792  31.859  1.00  0.00     0.054 A 
BRANCH  89  90
ATOM     90  S   UNL A   1      51.977  25.183  32.324  1.00  0.00     0.124 S 
ATOM     91  O   UNL A   1      52.165  25.793  33.638  1.00  0.00    -0.237 OA
ATOM     92  O   UNL A   1      51.798  23.732  32.326  1.00  0.00    -0.237 OA
ATOM     93  O   UNL A   1      52.847  25.695  31.269  1.00  0.00    -0.744 OA
ENDBRANCH  89  90
ENDBRANCH  63  84
ENDBRANCH  37  38
ENDBRANCH  29  32
ENDBRANCH  27  28
ENDBRANCH  26  27
ENDBRANCH   1  26
TORSDOF 18
ENDMDL
MODEL 2
REMARK VINA RESULT:     -11.0      2.793      3.831
REMARK SMILES C=C1c2ccccc2C(=O)N1[C@](C)(C(=O)NCCCCCCNC(=O)c1ccc(-c2c3nc(c(-c4ccc(S(=O)(=O)[O-])cc4)c4ccc([nH]4)c(-c4ccc(S(=O)(=O)[O-])cc4)c4nc(c(-c5ccc(S(=O)(=O)[O-])cc5)c5ccc2[nH]5)C=C4)C=C3)cc1)C(F)(F)F
REMARK SMILES IDX 20 1 19 2 18 3 17 4 16 5 14 6 15 7 12 9 13 10 11 11 1 12
REMARK SMILES IDX 2 13 3 14 4 15 8 16 9 17 5 18 7 19 10 20 6 21 86 22 87 23
REMARK SMILES IDX 88 24 89 25 21 26 22 27 23 28 24 29 25 31 26 32 27 33 85 34
REMARK SMILES IDX 28 35 84 36 29 37 30 38 31 39 78 40 32 41 83 42 77 43 79 44
REMARK SMILES IDX 33 45 82 46 76 47 75 48 34 50 64 51 45 52 63 53 46 54 49 55
REMARK SMILES IDX 62 56 80 57 47 58 48 59 61 61 81 62 50 63 35 64 36 65 44 66
REMARK SMILES IDX 37 67 43 68 38 69 39 70 40 71 41 72 42 73 65 74 66 75 74 76
REMARK SMILES IDX 67 77 73 78 68 79 69 80 70 81 71 82 72 83 51 84 52 85 60 86
REMARK SMILES IDX 53 87 59 88 54 89 55 90 56 91 57 92 58 93
REMARK H PARENT 16 8 23 30 79 49 49 60
REMARK Flexibility Score: inf
ROOT
ATOM      1  C   UNL A   1      31.683  27.768  25.809  1.00  0.00     0.002 C 
ENDROOT
BRANCH   1   2
ATOM      2  C   UNL A   1      30.785  26.532  25.935  1.00  0.00     0.002 C 
BRANCH   2   3
ATOM      3  C   UNL A   1      30.668  25.619  24.713  1.00  0.00     0.021 C 
BRANCH   3   4
ATOM      4  C   UNL A   1      31.766  24.579  24.544  1.00  0.00     0.116 C 
BRANCH   4   5
ATOM      5  N   UNL A   1      31.971  23.716  25.691  1.00  0.00    -0.354 N 
ATOM      6  C   UNL A   1      32.950  22.797  25.946  1.00  0.00     0.255 C 
ATOM      7  O   UNL A   1      33.195  22.662  27.153  1.00  0.00    -0.272 OA
ATOM      8  H   UNL A   1      31.295  23.808  26.401  1.00  0.00     0.163 HD
BRANCH   6   9
ATOM      9  C   UNL A   1      33.780  22.018  24.870  1.00  0.00     0.219 C 
ATOM     10  C   UNL A   1      33.470  22.392  23.403  1.00  0.00     0.056 C 
BRANCH   9  11
ATOM     11  N   UNL A   1      35.241  22.183  25.179  1.00  0.00    -0.285 N 
ATOM     12  C   UNL A   1      36.334  19.970  24.843  1.00  0.00     0.038 C 
ATOM     13  C   UNL A   1      36.285  21.253  25.206  1.00  0.00     0.046 C 
ATOM     14  C   UNL A   1      37.488  21.955  25.689  1.00  0.00     0.010 A 
ATOM     15  C   UNL A   1      38.783  21.551  25.976  1.00  0.00     0.011 A 
ATOM     16  C   UNL A   1      37.146  23.286  25.877  1.00  0.00     0.049 A 
ATOM     17  C   UNL A   1      35.752  23.448  25.493  1.00  0.00     0.260 C 
ATOM     18  C   UNL A   1      39.697  22.500  26.460  1.00  0.00     0.001 A 
ATOM     19  C   UNL A   1      38.020  24.247  26.358  1.00  0.00     0.014 A 
ATOM     20  O   UNL A   1      35.224  24.543  25.456  1.00  0.00    -0.269 OA
ATOM     21  C   UNL A   1      39.315  23.839  26.656  1.00  0.00     0.001 A 
ENDBRANCH   9  11
BRANCH   9  22
ATOM     22  C   UNL A   1      33.161  20.599  25.025  1.00  0.00     0.420 C 
ATOM     23  F   UNL A   1      33.598  19.991  26.162  1.00  0.00    -0.168 F 
ATOM     24  F   UNL A   1      31.806  20.664  25.159  1.00  0.00    -0.168 F 
ATOM     25  F   UNL A   1      33.402  19.745  24.007  1.00  0.00    -0.168 F 
ENDBRANCH   9  22
ENDBRANCH   6   9
ENDBRANCH   4   5
ENDBRANCH   3   4
ENDBRANCH   2   3
ENDBRANCH   1   2
BRANCH   1  26
ATOM     26  C   UNL A   1      33.026  27.748  26.546  1.00  0.00     0.021 C 
BRANCH  26  27
ATOM     27  C   UNL A   1      34.044  28.811  26.147  1.00  0.00     0.116 C 
BRANCH  27  28
ATOM     28  N   UNL A   1      33.656  30.151  26.540  1.00  0.00    -0.352 N 
ATOM     29  C   UNL A   1      34.235  31.006  27.447  1.00  0.00     0.251 C 
ATOM     30  H   UNL A   1      32.857  30.504  26.086  1.00  0.00     0.163 HD
ATOM     31  O   UNL A   1      33.679  32.071  27.705  1.00  0.00    -0.269 OA
BRANCH  29  32
ATOM     32  C   UNL A   1      35.497  30.649  28.138  1.00  0.00     0.039 A 
ATOM     33  C   UNL A   1      35.446  29.692  29.158  1.00  0.00     0.014 A 
ATOM     34  C   UNL A   1      36.712  31.269  27.833  1.00  0.00     0.014 A 
ATOM     35  C   UNL A   1      36.613  29.323  29.834  1.00  0.00     0.010 A 
ATOM     36  C   UNL A   1      37.887  30.858  28.467  1.00  0.00     0.010 A 
ATOM     37  C   UNL A   1      37.849  29.888  29.479  1.00  0.00    -0.014 A 
BRANCH  37  38
ATOM     38  C   UNL A   1      39.100  29.480  30.171  1.00  0.00     0.031 A 
ATOM     39  C   UNL A   1      39.539  30.188  31.425  1.00  0.00     0.074 A 
ATOM     40  C   UNL A   1      39.865  28.500  29.650  1.00  0.00     0.049 A 
ATOM     41  N   UNL A   1      40.614  29.997  32.147  1.00  0.00    -0.248 NA
ATOM     42  C   UNL A   1      38.668  31.266  31.920  1.00  0.00     0.031 C 
ATOM     43  C   UNL A   1      39.571  27.760  28.420  1.00  0.00     0.029 A 
ATOM     44  N   UNL A   1      41.049  27.961  30.088  1.00  0.00    -0.354 N 
ATOM     45  C   UNL A   1      40.559  30.938  33.169  1.00  0.00     0.074 A 
ATOM     46  C   UNL A   1      39.365  31.726  32.950  1.00  0.00     0.031 C 
ATOM     47  C   UNL A   1      40.537  26.848  28.216  1.00  0.00     0.029 A 
ATOM     48  C   UNL A   1      41.530  26.959  29.280  1.00  0.00     0.049 A 
ATOM     49  H   UNL A   1      41.509  28.264  30.904  1.00  0.00     0.167 HD
ATOM     50  C   UNL A   1      41.413  31.121  34.204  1.00  0.00     0.031 A 
ATOM     51  C   UNL A   1      42.646  26.210  29.383  1.00  0.00     0.031 A 
ATOM     52  C   UNL A   1      42.591  30.327  34.433  1.00  0.00     0.049 A 
ATOM     53  C   UNL A   1      43.568  26.417  30.551  1.00  0.00     0.074 A 
ATOM     54  C   UNL A   1      43.495  30.408  35.480  1.00  0.00     0.029 A 
ATOM     55  N   UNL A   1      43.029  29.304  33.606  1.00  0.00    -0.354 N 
ATOM     56  N   UNL A   1      43.471  27.281  31.534  1.00  0.00    -0.248 NA
ATOM     57  C   UNL A   1      44.742  25.537  30.634  1.00  0.00     0.031 C 
ATOM     58  C   UNL A   1      44.497  29.454  35.267  1.00  0.00     0.029 A 
ATOM     59  C   UNL A   1      44.192  28.751  34.112  1.00  0.00     0.049 A 
ATOM     60  H   UNL A   1      42.577  29.014  32.780  1.00  0.00     0.167 HD
ATOM     61  C   UNL A   1      44.555  27.028  32.367  1.00  0.00     0.074 A 
ATOM     62  C   UNL A   1      45.288  25.926  31.779  1.00  0.00     0.031 C 
ATOM     63  C   UNL A   1      44.910  27.652  33.518  1.00  0.00     0.031 A 
BRANCH  50  64
ATOM     64  C   UNL A   1      41.099  32.231  35.173  1.00  0.00    -0.014 A 
ATOM     65  C   UNL A   1      40.337  31.989  36.330  1.00  0.00     0.010 A 
ATOM     66  C   UNL A   1      41.595  33.526  34.937  1.00  0.00     0.010 A 
ATOM     67  C   UNL A   1      40.038  33.031  37.211  1.00  0.00     0.020 A 
ATOM     68  C   UNL A   1      41.319  34.566  35.830  1.00  0.00     0.020 A 
ATOM     69  C   UNL A   1      40.526  34.316  36.951  1.00  0.00     0.054 A 
BRANCH  69  70
ATOM     70  S   UNL A   1      40.133  35.650  38.116  1.00  0.00     0.124 S 
ATOM     71  O   UNL A   1      40.009  36.800  37.223  1.00  0.00    -0.237 OA
ATOM     72  O   UNL A   1      38.887  35.192  38.725  1.00  0.00    -0.237 OA
ATOM     73  O   UNL A   1      41.287  35.678  39.012  1.00  0.00    -0.744 OA
ENDBRANCH  69  70
ENDBRANCH  50  64
BRANCH  51  74
ATOM     74  C   UNL A   1      42.937  25.170  28.359  1.00  0.00    -0.014 A 
ATOM     75  C   UNL A   1      43.456  25.533  27.104  1.00  0.00     0.010 A 
ATOM     76  C   UNL A   1      42.710  23.811  28.641  1.00  0.00     0.010 A 
ATOM     77  C   UNL A   1      43.725  24.557  26.140  1.00  0.00     0.020 A 
ATOM     78  C   UNL A   1      43.001  22.830  27.688  1.00  0.00     0.020 A 
ATOM     79  C   UNL A   1      43.496  23.211  26.438  1.00  0.00     0.054 A 
BRANCH  79  80
ATOM     80  S   UNL A   1      43.903  21.953  25.196  1.00  0.00     0.124 S 
ATOM     81  O   UNL A   1      42.848  20.968  25.404  1.00  0.00    -0.237 OA
ATOM     82  O   UNL A   1      43.831  22.705  23.945  1.00  0.00    -0.237 OA
ATOM     83  O   UNL A   1      45.248  21.523  25.576  1.00  0.00    -0.744 OA
ENDBRANCH  79  80
ENDBRANCH  51  74
BRANCH  63  84
ATOM     84  C   UNL A   1      46.124  27.132  34.236  1.00  0.00    -0.014 A 
ATOM     85  C   UNL A   1      47.404  27.652  33.978  1.00  0.00     0.010 A 
ATOM     86  C   UNL A   1      45.973  26.132  35.215  1.00  0.00     0.010 A 
ATOM     87  C   UNL A   1      48.519  27.156  34.658  1.00  0.00     0.020 A 
ATOM     88  C   UNL A   1      47.083  25.650  35.914  1.00  0.00     0.020 A 
ATOM     89  C   UNL A   1      48.351  26.152  35.619  1.00  0.00     0.054 A 
BRANCH  89  90
ATOM     90  S   UNL A   1      49.806  25.543  36.514  1.00  0.00     0.124 S 
ATOM     91  O   UNL A   1      50.894  25.924  35.618  1.00  0.00    -0.237 OA
ATOM     92  O   UNL A   1      49.744  26.279  37.775  1.00  0.00    -0.237 OA
ATOM     93  O   UNL A   1      49.565  24.106  36.627  1.00  0.00    -0.744 OA
ENDBRANCH  89  90
ENDBRANCH  63  84
ENDBRANCH  37  38
ENDBRANCH  29  32
ENDBRANCH  27  28
ENDBRANCH  26  27
ENDBRANCH   1  26
TORSDOF 18
ENDMDL
MODEL 3
REMARK VINA RESULT:     -11.0      2.931      9.645
REMARK SMILES C=C1c2ccccc2C(=O)N1[C@](C)(C(=O)NCCCCCCNC(=O)c1ccc(-c2c3nc(c(-c4ccc(S(=O)(=O)[O-])cc4)c4ccc([nH]4)c(-c4ccc(S(=O)(=O)[O-])cc4)c4nc(c(-c5ccc(S(=O)(=O)[O-])cc5)c5ccc2[nH]5)C=C4)C=C3)cc1)C(F)(F)F
REMARK SMILES IDX 20 1 19 2 18 3 17 4 16 5 14 6 15 7 12 9 13 10 11 11 1 12
REMARK SMILES IDX 2 13 3 14 4 15 8 16 9 17 5 18 7 19 10 20 6 21 86 22 87 23
REMARK SMILES IDX 88 24 89 25 21 26 22 27 23 28 24 29 25 31 26 32 27 33 85 34
REMARK SMILES IDX 28 35 84 36 29 37 30 38 31 39 78 40 32 41 83 42 77 43 79 44
REMARK SMILES IDX 33 45 82 46 76 47 75 48 34 50 64 51 45 52 63 53 46 54 49 55
REMARK SMILES IDX 62 56 80 57 47 58 48 59 61 61 81 62 50 63 35 64 36 65 44 66
REMARK SMILES IDX 37 67 43 68 38 69 39 70 40 71 41 72 42 73 65 74 66 75 74 76
REMARK SMILES IDX 67 77 73 78 68 79 69 80 70 81 71 82 72 83 51 84 52 85 60 86
REMARK SMILES IDX 53 87 59 88 54 89 55 90 56 91 57 92 58 93
REMARK H PARENT 16 8 23 30 79 49 49 60
REMARK Flexibility Score: inf
ROOT
ATOM      1  C   UNL A   1      34.623  22.453  24.334  1.00  0.00     0.002 C 
ENDROOT
BRANCH   1   2
ATOM      2  C   UNL A   1      33.335  22.653  23.526  1.00  0.00     0.002 C 
BRANCH   2   3
ATOM      3  C   UNL A   1      33.391  23.617  22.340  1.00  0.00     0.021 C 
BRANCH   3   4
ATOM      4  C   UNL A   1      32.388  24.762  22.358  1.00  0.00     0.116 C 
BRANCH   4   5
ATOM      5  N   UNL A   1      31.562  24.831  23.547  1.00  0.00    -0.354 N 
ATOM      6  C   UNL A   1      31.224  25.898  24.331  1.00  0.00     0.255 C 
ATOM      7  O   UNL A   1      30.116  25.778  24.873  1.00  0.00    -0.272 OA
ATOM      8  H   UNL A   1      31.184  23.969  23.837  1.00  0.00     0.163 HD
BRANCH   6   9
ATOM      9  C   UNL A   1      32.061  27.210  24.506  1.00  0.00     0.219 C 
ATOM     10  C   UNL A   1      33.419  27.227  23.770  1.00  0.00     0.056 C 
BRANCH   9  11
ATOM     11  N   UNL A   1      31.208  28.380  24.106  1.00  0.00    -0.285 N 
ATOM     12  C   UNL A   1      31.629  30.211  25.743  1.00  0.00     0.038 C 
ATOM     13  C   UNL A   1      31.020  29.629  24.708  1.00  0.00     0.046 C 
ATOM     14  C   UNL A   1      29.979  30.336  23.941  1.00  0.00     0.010 A 
ATOM     15  C   UNL A   1      29.341  31.558  24.090  1.00  0.00     0.011 A 
ATOM     16  C   UNL A   1      29.623  29.522  22.875  1.00  0.00     0.049 A 
ATOM     17  C   UNL A   1      30.442  28.321  22.936  1.00  0.00     0.260 C 
ATOM     18  C   UNL A   1      28.348  31.920  23.167  1.00  0.00     0.001 A 
ATOM     19  C   UNL A   1      28.645  29.846  21.949  1.00  0.00     0.014 A 
ATOM     20  O   UNL A   1      30.413  27.483  22.054  1.00  0.00    -0.269 OA
ATOM     21  C   UNL A   1      27.997  31.066  22.107  1.00  0.00     0.001 A 
ENDBRANCH   9  11
BRANCH   9  22
ATOM     22  C   UNL A   1      32.458  27.080  26.005  1.00  0.00     0.420 C 
ATOM     23  F   UNL A   1      33.480  27.923  26.320  1.00  0.00    -0.168 F 
ATOM     24  F   UNL A   1      31.432  27.451  26.821  1.00  0.00    -0.168 F 
ATOM     25  F   UNL A   1      32.834  25.846  26.403  1.00  0.00    -0.168 F 
ENDBRANCH   9  22
ENDBRANCH   6   9
ENDBRANCH   4   5
ENDBRANCH   3   4
ENDBRANCH   2   3
ENDBRANCH   1   2
BRANCH   1  26
ATOM     26  C   UNL A   1      34.980  23.518  25.375  1.00  0.00     0.021 C 
BRANCH  26  27
ATOM     27  C   UNL A   1      36.416  24.029  25.370  1.00  0.00     0.116 C 
BRANCH  27  28
ATOM     28  N   UNL A   1      37.400  22.974  25.513  1.00  0.00    -0.352 N 
ATOM     29  C   UNL A   1      38.633  22.996  26.119  1.00  0.00     0.251 C 
ATOM     30  H   UNL A   1      37.146  22.110  25.117  1.00  0.00     0.163 HD
ATOM     31  O   UNL A   1      39.358  22.007  26.038  1.00  0.00    -0.269 OA
BRANCH  29  32
ATOM     32  C   UNL A   1      39.112  24.201  26.839  1.00  0.00     0.039 A 
ATOM     33  C   UNL A   1      39.919  25.110  26.146  1.00  0.00     0.014 A 
ATOM     34  C   UNL A   1      38.819  24.426  28.187  1.00  0.00     0.014 A 
ATOM     35  C   UNL A   1      40.391  26.260  26.786  1.00  0.00     0.010 A 
ATOM     36  C   UNL A   1      39.240  25.604  28.809  1.00  0.00     0.010 A 
ATOM     37  C   UNL A   1      40.036  26.529  28.118  1.00  0.00    -0.014 A 
BRANCH  37  38
ATOM     38  C   UNL A   1      40.506  27.765  28.797  1.00  0.00     0.031 A 
ATOM     39  C   UNL A   1      41.893  27.831  29.378  1.00  0.00     0.074 A 
ATOM     40  C   UNL A   1      39.672  28.815  28.929  1.00  0.00     0.049 A 
ATOM     41  N   UNL A   1      42.467  28.807  30.034  1.00  0.00    -0.248 NA
ATOM     42  C   UNL A   1      42.739  26.636  29.219  1.00  0.00     0.031 C 
ATOM     43  C   UNL A   1      38.291  28.866  28.444  1.00  0.00     0.029 A 
ATOM     44  N   UNL A   1      39.864  30.041  29.515  1.00  0.00    -0.354 N 
ATOM     45  C   UNL A   1      43.730  28.341  30.382  1.00  0.00     0.074 A 
ATOM     46  C   UNL A   1      43.824  26.980  29.899  1.00  0.00     0.031 C 
ATOM     47  C   UNL A   1      37.768  30.070  28.732  1.00  0.00     0.029 A 
ATOM     48  C   UNL A   1      38.764  30.863  29.446  1.00  0.00     0.049 A 
ATOM     49  H   UNL A   1      40.709  30.307  29.944  1.00  0.00     0.167 HD
ATOM     50  C   UNL A   1      44.728  28.990  31.029  1.00  0.00     0.031 A 
ATOM     51  C   UNL A   1      38.576  32.116  29.905  1.00  0.00     0.031 A 
ATOM     52  C   UNL A   1      44.643  30.349  31.495  1.00  0.00     0.049 A 
ATOM     53  C   UNL A   1      39.705  32.824  30.602  1.00  0.00     0.074 A 
ATOM     54  C   UNL A   1      45.618  31.107  32.122  1.00  0.00     0.029 A 
ATOM     55  N   UNL A   1      43.522  31.155  31.382  1.00  0.00    -0.354 N 
ATOM     56  N   UNL A   1      40.909  32.381  30.878  1.00  0.00    -0.248 NA
ATOM     57  C   UNL A   1      39.455  34.205  31.036  1.00  0.00     0.031 C 
ATOM     58  C   UNL A   1      45.073  32.362  32.418  1.00  0.00     0.029 A 
ATOM     59  C   UNL A   1      43.774  32.399  31.934  1.00  0.00     0.049 A 
ATOM     60  H   UNL A   1      42.669  30.882  30.969  1.00  0.00     0.167 HD
ATOM     61  C   UNL A   1      41.569  33.440  31.491  1.00  0.00     0.074 A 
ATOM     62  C   UNL A   1      40.635  34.546  31.537  1.00  0.00     0.031 C 
ATOM     63  C   UNL A   1      42.836  33.492  31.971  1.00  0.00     0.031 A 
BRANCH  50  64
ATOM     64  C   UNL A   1      46.005  28.229  31.272  1.00  0.00    -0.014 A 
ATOM     65  C   UNL A   1      46.187  27.476  32.446  1.00  0.00     0.010 A 
ATOM     66  C   UNL A   1      47.024  28.245  30.303  1.00  0.00     0.010 A 
ATOM     67  C   UNL A   1      47.383  26.788  32.668  1.00  0.00     0.020 A 
ATOM     68  C   UNL A   1      48.213  27.537  30.510  1.00  0.00     0.020 A 
ATOM     69  C   UNL A   1      48.392  26.829  31.700  1.00  0.00     0.054 A 
BRANCH  69  70
ATOM     70  S   UNL A   1      49.932  25.919  32.005  1.00  0.00     0.124 S 
ATOM     71  O   UNL A   1      50.888  27.006  32.199  1.00  0.00    -0.237 OA
ATOM     72  O   UNL A   1      49.616  25.142  33.200  1.00  0.00    -0.237 OA
ATOM     73  O   UNL A   1      50.117  25.135  30.787  1.00  0.00    -0.744 OA
ENDBRANCH  69  70
ENDBRANCH  50  64
BRANCH  51  74
ATOM     74  C   UNL A   1      37.269  32.795  29.692  1.00  0.00    -0.014 A 
ATOM     75  C   UNL A   1      36.393  33.008  30.771  1.00  0.00     0.010 A 
ATOM     76  C   UNL A   1      36.901  33.244  28.412  1.00  0.00     0.010 A 
ATOM     77  C   UNL A   1      35.164  33.641  30.571  1.00  0.00     0.020 A 
ATOM     78  C   UNL A   1      35.683  33.900  28.212  1.00  0.00     0.020 A 
ATOM     79  C   UNL A   1      34.816  34.083  29.292  1.00  0.00     0.054 A 
BRANCH  79  80
ATOM     80  S   UNL A   1      33.240  34.953  29.060  1.00  0.00     0.124 S 
ATOM     81  O   UNL A   1      33.683  36.271  28.619  1.00  0.00    -0.237 OA
ATOM     82  O   UNL A   1      32.572  34.138  28.049  1.00  0.00    -0.237 OA
ATOM     83  O   UNL A   1      32.629  34.908  30.387  1.00  0.00    -0.744 OA
ENDBRANCH  79  80
ENDBRANCH  51  74
BRANCH  63  84
ATOM     84  C   UNL A   1      43.299  34.799  32.552  1.00  0.00    -0.014 A 
ATOM     85  C   UNL A   1      43.243  35.043  33.935  1.00  0.00     0.010 A 
ATOM     86  C   UNL A   1      43.835  35.783  31.701  1.00  0.00     0.010 A 
ATOM     87  C   UNL A   1      43.680  36.265  34.455  1.00  0.00     0.020 A 
ATOM     88  C   UNL A   1      44.294  36.997  32.220  1.00  0.00     0.020 A 
ATOM     89  C   UNL A   1      44.198  37.236  33.591  1.00  0.00     0.054 A 
BRANCH  89  90
ATOM     90  S   UNL A   1      44.789  38.803  34.289  1.00  0.00     0.124 S 
ATOM     91  O   UNL A   1      44.398  39.760  33.257  1.00  0.00    -0.237 OA
ATOM     92  O   UNL A   1      44.050  38.899  35.546  1.00  0.00    -0.237 OA
ATOM     93  O   UNL A   1      46.228  38.596  34.434  1.00  0.00    -0.744 OA
ENDBRANCH  89  90
ENDBRANCH  63  84
ENDBRANCH  37  38
ENDBRANCH  29  32
ENDBRANCH  27  28
ENDBRANCH  26  27
ENDBRANCH   1  26
TORSDOF 18
ENDMDL
