MODEL 1
REMARK VINA RESULT:     -12.8      0.000      0.000
REMARK SMILES Cc1c(Cl)cccc1-n1ncc2c1NC(=O)C[C@@H]2c1ccc(C(=O)NCCCCCCNC(=O)c2ccc(-c3c4nc(c(-c5ccc(S(=O)(=O)[O-])cc5)c5ccc([nH]5)c(-c5ccc(S(=O)(=O)[O-])cc5)c5nc(c(-c6ccc(S(=O)(=O)[O-])cc6)c6ccc3[nH]6)C=C5)C=C4)cc2)cc1
REMARK SMILES IDX 29 1 28 2 27 3 26 4 25 5 23 6 24 7 22 9 19 10 20 11 96 12
REMARK SMILES IDX 21 13 95 14 18 15 9 16 10 17 13 18 11 19 12 20 14 21 15 22
REMARK SMILES IDX 17 24 16 25 8 26 1 27 2 28 3 29 4 30 5 31 7 32 6 33 30 34
REMARK SMILES IDX 31 35 32 36 33 37 34 39 35 40 36 41 94 42 37 43 93 44 38 45
REMARK SMILES IDX 39 46 40 47 87 48 41 49 92 50 86 51 88 52 42 53 91 54 85 55
REMARK SMILES IDX 84 56 43 58 73 59 54 60 72 61 55 62 58 63 71 64 89 65 56 66
REMARK SMILES IDX 57 67 70 69 90 70 59 71 44 72 45 73 53 74 46 75 52 76 47 77
REMARK SMILES IDX 48 78 49 79 50 80 51 81 74 82 75 83 83 84 76 85 82 86 77 87
REMARK SMILES IDX 78 88 79 89 80 90 81 91 60 92 61 93 69 94 62 95 68 96 63 97
REMARK SMILES IDX 64 98 65 99 66 100 67 101
REMARK H PARENT 25 8 14 23 32 38 88 57 58 68
REMARK Flexibility Score: inf
ROOT
ATOM      1  C   UNL A   1      40.685  23.661  28.263  1.00  0.00     0.002 C 
ENDROOT
BRANCH   1   2
ATOM      2  C   UNL A   1      39.572  24.555  27.688  1.00  0.00     0.002 C 
BRANCH   2   3
ATOM      3  C   UNL A   1      39.078  24.168  26.288  1.00  0.00     0.021 C 
BRANCH   3   4
ATOM      4  C   UNL A   1      37.835  23.280  26.317  1.00  0.00     0.116 C 
BRANCH   4   5
ATOM      5  N   UNL A   1      38.128  22.003  25.700  1.00  0.00    -0.352 N 
ATOM      6  C   UNL A   1      37.331  21.118  25.024  1.00  0.00     0.251 C 
ATOM      7  O   UNL A   1      37.838  20.087  24.589  1.00  0.00    -0.269 OA
ATOM      8  H   UNL A   1      39.068  21.721  25.780  1.00  0.00     0.163 HD
BRANCH   6   9
ATOM      9  C   UNL A   1      35.918  21.432  24.699  1.00  0.00     0.039 A 
ATOM     10  C   UNL A   1      33.299  22.343  24.153  1.00  0.00    -0.040 A 
ATOM     11  C   UNL A   1      34.415  22.946  23.548  1.00  0.00     0.005 A 
ATOM     12  C   UNL A   1      33.523  21.239  24.993  1.00  0.00     0.005 A 
ATOM     13  C   UNL A   1      35.705  22.487  23.809  1.00  0.00     0.014 A 
ATOM     14  C   UNL A   1      34.816  20.768  25.237  1.00  0.00     0.014 A 
BRANCH  10  15
ATOM     15  C   UNL A   1      31.858  22.800  23.973  1.00  0.00     0.064 C 
ATOM     16  N   UNL A   1      31.687  26.422  23.605  1.00  0.00    -0.217 N 
ATOM     17  N   UNL A   1      32.200  26.152  22.383  1.00  0.00    -0.174 NA
ATOM     18  C   UNL A   1      31.476  25.266  24.327  1.00  0.00     0.140 A 
ATOM     19  C   UNL A   1      32.320  24.821  22.352  1.00  0.00     0.142 A 
ATOM     20  C   UNL A   1      31.885  24.217  23.550  1.00  0.00     0.023 A 
ATOM     21  N   UNL A   1      30.913  25.079  25.566  1.00  0.00    -0.310 N 
ATOM     22  C   UNL A   1      30.703  23.766  26.077  1.00  0.00     0.226 C 
ATOM     23  H   UNL A   1      30.652  25.860  26.107  1.00  0.00     0.171 HD
ATOM     24  C   UNL A   1      31.017  22.555  25.234  1.00  0.00     0.113 C 
ATOM     25  O   UNL A   1      30.185  23.717  27.178  1.00  0.00    -0.275 OA
BRANCH  16  26
ATOM     26  C   UNL A   1      31.418  27.742  24.031  1.00  0.00     0.071 A 
ATOM     27  C   UNL A   1      33.422  27.707  25.640  1.00  0.00     0.048 C 
ATOM     28  C   UNL A   1      32.211  28.364  25.021  1.00  0.00    -0.007 A 
ATOM     29  C   UNL A   1      31.872  29.682  25.387  1.00  0.00     0.046 A 
ATOM     30  Cl  UNL A   1      32.775  30.556  26.575  1.00  0.00    -0.084 Cl
ATOM     31  C   UNL A   1      30.802  30.352  24.783  1.00  0.00     0.021 A 
ATOM     32  C   UNL A   1      30.344  28.421  23.424  1.00  0.00     0.029 A 
ATOM     33  C   UNL A   1      30.036  29.724  23.805  1.00  0.00     0.004 A 
ENDBRANCH  16  26
ENDBRANCH  10  15
ENDBRANCH   6   9
ENDBRANCH   4   5
ENDBRANCH   3   4
ENDBRANCH   2   3
ENDBRANCH   1   2
BRANCH   1  34
ATOM     34  C   UNL A   1      41.433  22.771  27.257  1.00  0.00     0.021 C 
BRANCH  34  35
ATOM     35  C   UNL A   1      42.929  22.720  27.502  1.00  0.00     0.116 C 
BRANCH  35  36
ATOM     36  N   UNL A   1      43.710  23.017  26.292  1.00  0.00    -0.352 N 
ATOM     37  C   UNL A   1      43.682  24.141  25.469  1.00  0.00     0.251 C 
ATOM     38  H   UNL A   1      44.349  22.317  26.023  1.00  0.00     0.163 HD
ATOM     39  O   UNL A   1      44.094  24.091  24.326  1.00  0.00    -0.269 OA
BRANCH  37  40
ATOM     40  C   UNL A   1      43.151  25.397  26.032  1.00  0.00     0.039 A 
ATOM     41  C   UNL A   1      42.047  26.094  25.533  1.00  0.00     0.014 A 
ATOM     42  C   UNL A   1      43.790  25.846  27.169  1.00  0.00     0.014 A 
ATOM     43  C   UNL A   1      41.636  27.240  26.218  1.00  0.00     0.010 A 
ATOM     44  C   UNL A   1      43.087  26.608  28.037  1.00  0.00     0.010 A 
ATOM     45  C   UNL A   1      42.206  27.498  27.469  1.00  0.00    -0.014 A 
BRANCH  45  46
ATOM     46  C   UNL A   1      41.961  28.671  28.284  1.00  0.00     0.031 A 
ATOM     47  C   UNL A   1      42.953  29.747  28.110  1.00  0.00     0.074 A 
ATOM     48  C   UNL A   1      40.759  28.890  28.871  1.00  0.00     0.049 A 
ATOM     49  N   UNL A   1      43.867  30.107  28.943  1.00  0.00    -0.248 NA
ATOM     50  C   UNL A   1      43.050  30.386  26.789  1.00  0.00     0.031 C 
ATOM     51  C   UNL A   1      39.524  28.088  28.810  1.00  0.00     0.029 A 
ATOM     52  N   UNL A   1      40.352  29.982  29.564  1.00  0.00    -0.354 N 
ATOM     53  C   UNL A   1      44.517  31.175  28.341  1.00  0.00     0.074 A 
ATOM     54  C   UNL A   1      44.134  31.147  26.952  1.00  0.00     0.031 C 
ATOM     55  C   UNL A   1      38.475  28.830  29.236  1.00  0.00     0.029 A 
ATOM     56  C   UNL A   1      38.980  30.086  29.757  1.00  0.00     0.049 A 
ATOM     57  H   UNL A   1      40.985  30.655  29.907  1.00  0.00     0.167 HD
ATOM     58  C   UNL A   1      45.108  32.156  29.077  1.00  0.00     0.031 A 
ATOM     59  C   UNL A   1      38.317  31.154  30.273  1.00  0.00     0.031 A 
ATOM     60  C   UNL A   1      45.172  31.806  30.476  1.00  0.00     0.049 A 
ATOM     61  C   UNL A   1      39.324  31.940  31.037  1.00  0.00     0.074 A 
ATOM     62  C   UNL A   1      45.754  30.775  31.188  1.00  0.00     0.029 A 
ATOM     63  N   UNL A   1      44.188  32.319  31.294  1.00  0.00    -0.354 N 
ATOM     64  N   UNL A   1      39.946  31.468  32.085  1.00  0.00    -0.248 NA
ATOM     65  C   UNL A   1      40.010  33.024  30.349  1.00  0.00     0.031 C 
ATOM     66  C   UNL A   1      44.772  30.403  32.156  1.00  0.00     0.029 A 
ATOM     67  C   UNL A   1      43.689  31.277  32.038  1.00  0.00     0.049 A 
ATOM     68  H   UNL A   1      43.898  33.259  31.338  1.00  0.00     0.167 HD
ATOM     69  C   UNL A   1      41.265  31.881  31.942  1.00  0.00     0.074 A 
ATOM     70  C   UNL A   1      41.223  32.909  30.899  1.00  0.00     0.031 C 
ATOM     71  C   UNL A   1      42.304  31.158  32.461  1.00  0.00     0.031 A 
BRANCH  58  72
ATOM     72  C   UNL A   1      45.271  33.573  28.601  1.00  0.00    -0.014 A 
ATOM     73  C   UNL A   1      46.539  34.180  28.693  1.00  0.00     0.010 A 
ATOM     74  C   UNL A   1      44.179  34.412  28.299  1.00  0.00     0.010 A 
ATOM     75  C   UNL A   1      46.691  35.565  28.549  1.00  0.00     0.020 A 
ATOM     76  C   UNL A   1      44.324  35.785  28.107  1.00  0.00     0.020 A 
ATOM     77  C   UNL A   1      45.577  36.359  28.269  1.00  0.00     0.054 A 
BRANCH  77  78
ATOM     78  S   UNL A   1      45.760  38.156  28.201  1.00  0.00     0.124 S 
ATOM     79  O   UNL A   1      44.984  38.581  29.362  1.00  0.00    -0.237 OA
ATOM     80  O   UNL A   1      47.206  38.324  28.305  1.00  0.00    -0.237 OA
ATOM     81  O   UNL A   1      45.187  38.509  26.903  1.00  0.00    -0.744 OA
ENDBRANCH  77  78
ENDBRANCH  58  72
BRANCH  59  82
ATOM     82  C   UNL A   1      37.022  31.713  29.790  1.00  0.00    -0.014 A 
ATOM     83  C   UNL A   1      35.885  31.785  30.617  1.00  0.00     0.010 A 
ATOM     84  C   UNL A   1      36.987  32.435  28.578  1.00  0.00     0.010 A 
ATOM     85  C   UNL A   1      34.782  32.593  30.269  1.00  0.00     0.020 A 
ATOM     86  C   UNL A   1      35.895  33.237  28.224  1.00  0.00     0.020 A 
ATOM     87  C   UNL A   1      34.804  33.333  29.082  1.00  0.00     0.054 A 
BRANCH  87  88
ATOM     88  S   UNL A   1      33.472  34.518  28.718  1.00  0.00     0.124 S 
ATOM     89  O   UNL A   1      32.626  33.766  27.796  1.00  0.00    -0.237 OA
ATOM     90  O   UNL A   1      32.902  34.775  30.037  1.00  0.00    -0.237 OA
ATOM     91  O   UNL A   1      34.176  35.656  28.125  1.00  0.00    -0.744 OA
ENDBRANCH  87  88
ENDBRANCH  59  82
BRANCH  71  92
ATOM     92  C   UNL A   1      41.985  29.984  33.368  1.00  0.00    -0.014 A 
ATOM     93  C   UNL A   1      41.813  28.663  32.900  1.00  0.00     0.010 A 
ATOM     94  C   UNL A   1      42.046  30.189  34.756  1.00  0.00     0.010 A 
ATOM     95  C   UNL A   1      41.692  27.587  33.796  1.00  0.00     0.020 A 
ATOM     96  C   UNL A   1      41.939  29.121  35.654  1.00  0.00     0.020 A 
ATOM     97  C   UNL A   1      41.757  27.825  35.171  1.00  0.00     0.054 A 
BRANCH  97  98
ATOM     98  S   UNL A   1      41.656  26.427  36.326  1.00  0.00     0.124 S 
ATOM     99  O   UNL A   1      43.055  26.210  36.683  1.00  0.00    -0.237 OA
ATOM    100  O   UNL A   1      40.807  26.947  37.395  1.00  0.00    -0.237 OA
ATOM    101  O   UNL A   1      41.050  25.361  35.528  1.00  0.00    -0.744 OA
ENDBRANCH  97  98
ENDBRANCH  71  92
ENDBRANCH  45  46
ENDBRANCH  37  40
ENDBRANCH  35  36
ENDBRANCH  34  35
ENDBRANCH   1  34
TORSDOF 18
ENDMDL
MODEL 2
REMARK VINA RESULT:     -12.7      3.271      9.673
REMARK SMILES Cc1c(Cl)cccc1-n1ncc2c1NC(=O)C[C@@H]2c1ccc(C(=O)NCCCCCCNC(=O)c2ccc(-c3c4nc(c(-c5ccc(S(=O)(=O)[O-])cc5)c5ccc([nH]5)c(-c5ccc(S(=O)(=O)[O-])cc5)c5nc(c(-c6ccc(S(=O)(=O)[O-])cc6)c6ccc3[nH]6)C=C5)C=C4)cc2)cc1
REMARK SMILES IDX 29 1 28 2 27 3 26 4 25 5 23 6 24 7 22 9 19 10 20 11 96 12
REMARK SMILES IDX 21 13 95 14 18 15 9 16 10 17 13 18 11 19 12 20 14 21 15 22
REMARK SMILES IDX 17 24 16 25 8 26 1 27 2 28 3 29 4 30 5 31 7 32 6 33 30 34
REMARK SMILES IDX 31 35 32 36 33 37 34 39 35 40 36 41 94 42 37 43 93 44 38 45
REMARK SMILES IDX 39 46 40 47 87 48 41 49 92 50 86 51 88 52 42 53 91 54 85 55
REMARK SMILES IDX 84 56 43 58 73 59 54 60 72 61 55 62 58 63 71 64 89 65 56 66
REMARK SMILES IDX 57 67 70 69 90 70 59 71 44 72 45 73 53 74 46 75 52 76 47 77
REMARK SMILES IDX 48 78 49 79 50 80 51 81 74 82 75 83 83 84 76 85 82 86 77 87
REMARK SMILES IDX 78 88 79 89 80 90 81 91 60 92 61 93 69 94 62 95 68 96 63 97
REMARK SMILES IDX 64 98 65 99 66 100 67 101
REMARK H PARENT 25 8 14 23 32 38 88 57 58 68
REMARK Flexibility Score: inf
ROOT
ATOM      1  C   UNL A   1      37.026  31.671  28.945  1.00  0.00     0.002 C 
ENDROOT
BRANCH   1   2
ATOM      2  C   UNL A   1      36.706  30.191  28.670  1.00  0.00     0.002 C 
BRANCH   2   3
ATOM      3  C   UNL A   1      35.885  29.921  27.402  1.00  0.00     0.021 C 
BRANCH   3   4
ATOM      4  C   UNL A   1      34.514  29.316  27.695  1.00  0.00     0.116 C 
BRANCH   4   5
ATOM      5  N   UNL A   1      33.492  30.337  27.586  1.00  0.00    -0.352 N 
ATOM      6  C   UNL A   1      32.345  30.397  26.840  1.00  0.00     0.251 C 
ATOM      7  O   UNL A   1      31.635  31.395  26.935  1.00  0.00    -0.269 OA
ATOM      8  H   UNL A   1      33.649  31.128  28.150  1.00  0.00     0.163 HD
BRANCH   6   9
ATOM      9  C   UNL A   1      31.883  29.245  26.028  1.00  0.00     0.039 A 
ATOM     10  C   UNL A   1      31.199  26.864  24.666  1.00  0.00    -0.040 A 
ATOM     11  C   UNL A   1      31.106  26.949  26.066  1.00  0.00     0.005 A 
ATOM     12  C   UNL A   1      31.588  28.017  23.963  1.00  0.00     0.005 A 
ATOM     13  C   UNL A   1      31.432  28.128  26.735  1.00  0.00     0.014 A 
ATOM     14  C   UNL A   1      31.894  29.203  24.634  1.00  0.00     0.014 A 
BRANCH  10  15
ATOM     15  C   UNL A   1      30.915  25.611  23.849  1.00  0.00     0.064 C 
ATOM     16  N   UNL A   1      32.871  22.793  25.081  1.00  0.00    -0.217 N 
ATOM     17  N   UNL A   1      31.983  22.843  26.101  1.00  0.00    -0.174 NA
ATOM     18  C   UNL A   1      32.597  23.757  24.133  1.00  0.00     0.140 A 
ATOM     19  C   UNL A   1      31.163  23.850  25.790  1.00  0.00     0.142 A 
ATOM     20  C   UNL A   1      31.509  24.462  24.566  1.00  0.00     0.023 A 
ATOM     21  N   UNL A   1      33.195  24.010  22.922  1.00  0.00    -0.310 N 
ATOM     22  C   UNL A   1      32.673  25.008  22.049  1.00  0.00     0.226 C 
ATOM     23  H   UNL A   1      33.992  23.497  22.654  1.00  0.00     0.171 HD
ATOM     24  C   UNL A   1      31.406  25.748  22.402  1.00  0.00     0.113 C 
ATOM     25  O   UNL A   1      33.271  25.139  20.997  1.00  0.00    -0.275 OA
BRANCH  16  26
ATOM     26  C   UNL A   1      33.921  21.849  25.044  1.00  0.00     0.071 A 
ATOM     27  C   UNL A   1      32.321  19.996  24.260  1.00  0.00     0.048 C 
ATOM     28  C   UNL A   1      33.678  20.504  24.686  1.00  0.00    -0.007 A 
ATOM     29  C   UNL A   1      34.782  19.629  24.676  1.00  0.00     0.046 A 
ATOM     30  Cl  UNL A   1      34.618  17.963  24.241  1.00  0.00    -0.084 Cl
ATOM     31  C   UNL A   1      36.070  20.078  24.993  1.00  0.00     0.021 A 
ATOM     32  C   UNL A   1      35.218  22.298  25.359  1.00  0.00     0.029 A 
ATOM     33  C   UNL A   1      36.289  21.409  25.337  1.00  0.00     0.004 A 
ENDBRANCH  16  26
ENDBRANCH  10  15
ENDBRANCH   6   9
ENDBRANCH   4   5
ENDBRANCH   3   4
ENDBRANCH   2   3
ENDBRANCH   1   2
BRANCH   1  34
ATOM     34  C   UNL A   1      36.025  32.431  29.829  1.00  0.00     0.021 C 
BRANCH  34  35
ATOM     35  C   UNL A   1      36.668  33.537  30.645  1.00  0.00     0.116 C 
BRANCH  35  36
ATOM     36  N   UNL A   1      36.388  33.414  32.084  1.00  0.00    -0.352 N 
ATOM     37  C   UNL A   1      36.579  32.330  32.937  1.00  0.00     0.251 C 
ATOM     38  H   UNL A   1      36.010  34.219  32.507  1.00  0.00     0.163 HD
ATOM     39  O   UNL A   1      35.970  32.244  33.986  1.00  0.00    -0.269 OA
BRANCH  37  40
ATOM     40  C   UNL A   1      37.554  31.297  32.536  1.00  0.00     0.039 A 
ATOM     41  C   UNL A   1      37.245  29.955  32.300  1.00  0.00     0.014 A 
ATOM     42  C   UNL A   1      38.841  31.752  32.337  1.00  0.00     0.014 A 
ATOM     43  C   UNL A   1      38.276  29.115  31.870  1.00  0.00     0.010 A 
ATOM     44  C   UNL A   1      39.632  31.071  31.478  1.00  0.00     0.010 A 
ATOM     45  C   UNL A   1      39.489  29.704  31.494  1.00  0.00    -0.014 A 
BRANCH  45  46
ATOM     46  C   UNL A   1      40.687  28.990  31.099  1.00  0.00     0.031 A 
ATOM     47  C   UNL A   1      41.579  28.637  32.218  1.00  0.00     0.074 A 
ATOM     48  C   UNL A   1      40.798  28.406  29.881  1.00  0.00     0.049 A 
ATOM     49  N   UNL A   1      42.719  29.164  32.504  1.00  0.00    -0.248 NA
ATOM     50  C   UNL A   1      41.068  27.707  33.236  1.00  0.00     0.031 C 
ATOM     51  C   UNL A   1      39.818  28.334  28.782  1.00  0.00     0.029 A 
ATOM     52  N   UNL A   1      41.801  27.623  29.415  1.00  0.00    -0.354 N 
ATOM     53  C   UNL A   1      43.178  28.473  33.616  1.00  0.00     0.074 A 
ATOM     54  C   UNL A   1      42.040  27.767  34.148  1.00  0.00     0.031 C 
ATOM     55  C   UNL A   1      40.187  27.374  27.902  1.00  0.00     0.029 A 
ATOM     56  C   UNL A   1      41.501  26.886  28.276  1.00  0.00     0.049 A 
ATOM     57  H   UNL A   1      42.682  27.578  29.854  1.00  0.00     0.167 HD
ATOM     58  C   UNL A   1      44.509  28.321  33.861  1.00  0.00     0.031 A 
ATOM     59  C   UNL A   1      42.272  25.918  27.715  1.00  0.00     0.031 A 
ATOM     60  C   UNL A   1      45.307  29.148  32.989  1.00  0.00     0.049 A 
ATOM     61  C   UNL A   1      43.656  26.145  28.214  1.00  0.00     0.074 A 
ATOM     62  C   UNL A   1      45.397  30.507  32.761  1.00  0.00     0.029 A 
ATOM     63  N   UNL A   1      45.838  28.543  31.869  1.00  0.00    -0.354 N 
ATOM     64  N   UNL A   1      44.336  27.229  27.949  1.00  0.00    -0.248 NA
ATOM     65  C   UNL A   1      44.076  25.429  29.410  1.00  0.00     0.031 C 
ATOM     66  C   UNL A   1      45.498  30.632  31.342  1.00  0.00     0.029 A 
ATOM     67  C   UNL A   1      45.550  29.348  30.793  1.00  0.00     0.049 A 
ATOM     68  H   UNL A   1      46.334  27.693  31.846  1.00  0.00     0.167 HD
ATOM     69  C   UNL A   1      44.966  27.564  29.142  1.00  0.00     0.074 A 
ATOM     70  C   UNL A   1      44.838  26.369  29.980  1.00  0.00     0.031 C 
ATOM     71  C   UNL A   1      45.273  28.861  29.453  1.00  0.00     0.031 A 
BRANCH  58  72
ATOM     72  C   UNL A   1      45.091  27.154  34.610  1.00  0.00    -0.014 A 
ATOM     73  C   UNL A   1      45.379  25.969  33.905  1.00  0.00     0.010 A 
ATOM     74  C   UNL A   1      45.135  27.091  36.018  1.00  0.00     0.010 A 
ATOM     75  C   UNL A   1      45.637  24.770  34.581  1.00  0.00     0.020 A 
ATOM     76  C   UNL A   1      45.437  25.913  36.701  1.00  0.00     0.020 A 
ATOM     77  C   UNL A   1      45.651  24.750  35.977  1.00  0.00     0.054 A 
BRANCH  77  78
ATOM     78  S   UNL A   1      45.869  23.177  36.842  1.00  0.00     0.124 S 
ATOM     79  O   UNL A   1      47.299  22.940  36.677  1.00  0.00    -0.237 OA
ATOM     80  O   UNL A   1      45.429  23.505  38.195  1.00  0.00    -0.237 OA
ATOM     81  O   UNL A   1      44.994  22.262  36.111  1.00  0.00    -0.744 OA
ENDBRANCH  77  78
ENDBRANCH  58  72
BRANCH  59  82
ATOM     82  C   UNL A   1      41.798  24.624  27.148  1.00  0.00    -0.014 A 
ATOM     83  C   UNL A   1      42.577  23.873  26.246  1.00  0.00     0.010 A 
ATOM     84  C   UNL A   1      40.674  23.986  27.716  1.00  0.00     0.010 A 
ATOM     85  C   UNL A   1      42.274  22.523  25.970  1.00  0.00     0.020 A 
ATOM     86  C   UNL A   1      40.365  22.648  27.446  1.00  0.00     0.020 A 
ATOM     87  C   UNL A   1      41.180  21.912  26.591  1.00  0.00     0.054 A 
BRANCH  87  88
ATOM     88  S   UNL A   1      40.893  20.126  26.387  1.00  0.00     0.124 S 
ATOM     89  O   UNL A   1      41.032  19.628  27.752  1.00  0.00    -0.237 OA
ATOM     90  O   UNL A   1      39.546  20.080  25.827  1.00  0.00    -0.237 OA
ATOM     91  O   UNL A   1      41.952  19.710  25.465  1.00  0.00    -0.744 OA
ENDBRANCH  87  88
ENDBRANCH  59  82
BRANCH  71  92
ATOM     92  C   UNL A   1      45.085  29.923  28.385  1.00  0.00    -0.014 A 
ATOM     93  C   UNL A   1      43.889  30.654  28.216  1.00  0.00     0.010 A 
ATOM     94  C   UNL A   1      46.213  30.326  27.653  1.00  0.00     0.010 A 
ATOM     95  C   UNL A   1      43.824  31.742  27.330  1.00  0.00     0.020 A 
ATOM     96  C   UNL A   1      46.160  31.418  26.779  1.00  0.00     0.020 A 
ATOM     97  C   UNL A   1      44.965  32.118  26.616  1.00  0.00     0.054 A 
BRANCH  97  98
ATOM     98  S   UNL A   1      44.895  33.560  25.514  1.00  0.00     0.124 S 
ATOM     99  O   UNL A   1      43.956  34.440  26.204  1.00  0.00    -0.237 OA
ATOM    100  O   UNL A   1      46.282  34.017  25.487  1.00  0.00    -0.237 OA
ATOM    101  O   UNL A   1      44.409  33.007  24.250  1.00  0.00    -0.744 OA
ENDBRANCH  97  98
ENDBRANCH  71  92
ENDBRANCH  45  46
ENDBRANCH  37  40
ENDBRANCH  35  36
ENDBRANCH  34  35
ENDBRANCH   1  34
TORSDOF 18
ENDMDL
MODEL 3
REMARK VINA RESULT:     -12.3      1.423      2.257
REMARK SMILES Cc1c(Cl)cccc1-n1ncc2c1NC(=O)C[C@@H]2c1ccc(C(=O)NCCCCCCNC(=O)c2ccc(-c3c4nc(c(-c5ccc(S(=O)(=O)[O-])cc5)c5ccc([nH]5)c(-c5ccc(S(=O)(=O)[O-])cc5)c5nc(c(-c6ccc(S(=O)(=O)[O-])cc6)c6ccc3[nH]6)C=C5)C=C4)cc2)cc1
REMARK SMILES IDX 29 1 28 2 27 3 26 4 25 5 23 6 24 7 22 9 19 10 20 11 96 12
REMARK SMILES IDX 21 13 95 14 18 15 9 16 10 17 13 18 11 19 12 20 14 21 15 22
REMARK SMILES IDX 17 24 16 25 8 26 1 27 2 28 3 29 4 30 5 31 7 32 6 33 30 34
REMARK SMILES IDX 31 35 32 36 33 37 34 39 35 40 36 41 94 42 37 43 93 44 38 45
REMARK SMILES IDX 39 46 40 47 87 48 41 49 92 50 86 51 88 52 42 53 91 54 85 55
REMARK SMILES IDX 84 56 43 58 73 59 54 60 72 61 55 62 58 63 71 64 89 65 56 66
REMARK SMILES IDX 57 67 70 69 90 70 59 71 44 72 45 73 53 74 46 75 52 76 47 77
REMARK SMILES IDX 48 78 49 79 50 80 51 81 74 82 75 83 83 84 76 85 82 86 77 87
REMARK SMILES IDX 78 88 79 89 80 90 81 91 60 92 61 93 69 94 62 95 68 96 63 97
REMARK SMILES IDX 64 98 65 99 66 100 67 101
REMARK H PARENT 25 8 14 23 32 38 88 57 58 68
REMARK Flexibility Score: inf
ROOT
ATOM      1  C   UNL A   1      37.942  22.980  25.631  1.00  0.00     0.002 C 
ENDROOT
BRANCH   1   2
ATOM      2  C   UNL A   1      37.572  21.489  25.704  1.00  0.00     0.002 C 
BRANCH   2   3
ATOM      3  C   UNL A   1      36.072  21.188  25.811  1.00  0.00     0.021 C 
BRANCH   3   4
ATOM      4  C   UNL A   1      35.563  20.277  24.696  1.00  0.00     0.116 C 
BRANCH   4   5
ATOM      5  N   UNL A   1      34.455  19.480  25.178  1.00  0.00    -0.352 N 
ATOM      6  C   UNL A   1      33.115  19.748  25.266  1.00  0.00     0.251 C 
ATOM      7  O   UNL A   1      32.371  18.881  25.720  1.00  0.00    -0.269 OA
ATOM      8  H   UNL A   1      34.710  18.586  25.501  1.00  0.00     0.163 HD
BRANCH   6   9
ATOM      9  C   UNL A   1      32.531  20.995  24.713  1.00  0.00     0.039 A 
ATOM     10  C   UNL A   1      31.691  23.393  23.475  1.00  0.00    -0.040 A 
ATOM     11  C   UNL A   1      32.088  22.284  22.709  1.00  0.00     0.005 A 
ATOM     12  C   UNL A   1      31.672  23.253  24.873  1.00  0.00     0.005 A 
ATOM     13  C   UNL A   1      32.490  21.097  23.321  1.00  0.00     0.014 A 
ATOM     14  C   UNL A   1      32.056  22.056  25.484  1.00  0.00     0.014 A 
BRANCH  10  15
ATOM     15  C   UNL A   1      31.284  24.744  22.904  1.00  0.00     0.064 C 
ATOM     16  N   UNL A   1      32.937  27.455  24.694  1.00  0.00    -0.217 N 
ATOM     17  N   UNL A   1      34.020  27.017  24.011  1.00  0.00    -0.174 NA
ATOM     18  C   UNL A   1      31.814  26.720  24.376  1.00  0.00     0.140 A 
ATOM     19  C   UNL A   1      33.569  25.997  23.276  1.00  0.00     0.142 A 
ATOM     20  C   UNL A   1      32.190  25.765  23.473  1.00  0.00     0.023 A 
ATOM     21  N   UNL A   1      30.509  26.869  24.779  1.00  0.00    -0.310 N 
ATOM     22  C   UNL A   1      29.484  26.042  24.235  1.00  0.00     0.226 C 
ATOM     23  H   UNL A   1      30.279  27.552  25.449  1.00  0.00     0.171 HD
ATOM     24  C   UNL A   1      29.798  25.044  23.147  1.00  0.00     0.113 C 
ATOM     25  O   UNL A   1      28.362  26.268  24.652  1.00  0.00    -0.275 OA
BRANCH  16  26
ATOM     26  C   UNL A   1      33.008  28.537  25.601  1.00  0.00     0.071 A 
ATOM     27  C   UNL A   1      31.037  29.721  24.452  1.00  0.00     0.048 C 
ATOM     28  C   UNL A   1      32.133  29.640  25.487  1.00  0.00    -0.007 A 
ATOM     29  C   UNL A   1      32.273  30.675  26.433  1.00  0.00     0.046 A 
ATOM     30  Cl  UNL A   1      31.254  32.073  26.408  1.00  0.00    -0.084 Cl
ATOM     31  C   UNL A   1      33.229  30.604  27.452  1.00  0.00     0.021 A 
ATOM     32  C   UNL A   1      33.966  28.467  26.630  1.00  0.00     0.029 A 
ATOM     33  C   UNL A   1      34.077  29.505  27.551  1.00  0.00     0.004 A 
ENDBRANCH  16  26
ENDBRANCH  10  15
ENDBRANCH   6   9
ENDBRANCH   4   5
ENDBRANCH   3   4
ENDBRANCH   2   3
ENDBRANCH   1   2
BRANCH   1  34
ATOM     34  C   UNL A   1      39.125  23.432  26.502  1.00  0.00     0.021 C 
BRANCH  34  35
ATOM     35  C   UNL A   1      39.943  22.276  27.046  1.00  0.00     0.116 C 
BRANCH  35  36
ATOM     36  N   UNL A   1      41.251  22.147  26.385  1.00  0.00    -0.352 N 
ATOM     37  C   UNL A   1      42.067  23.131  25.830  1.00  0.00     0.251 C 
ATOM     38  H   UNL A   1      41.602  21.229  26.326  1.00  0.00     0.163 HD
ATOM     39  O   UNL A   1      42.914  22.849  25.005  1.00  0.00    -0.269 OA
BRANCH  37  40
ATOM     40  C   UNL A   1      41.881  24.521  26.285  1.00  0.00     0.039 A 
ATOM     41  C   UNL A   1      41.290  25.538  25.531  1.00  0.00     0.014 A 
ATOM     42  C   UNL A   1      42.285  24.773  27.580  1.00  0.00     0.014 A 
ATOM     43  C   UNL A   1      41.137  26.791  26.131  1.00  0.00     0.010 A 
ATOM     44  C   UNL A   1      41.683  25.781  28.251  1.00  0.00     0.010 A 
ATOM     45  C   UNL A   1      41.379  26.894  27.505  1.00  0.00    -0.014 A 
BRANCH  45  46
ATOM     46  C   UNL A   1      41.347  28.120  28.278  1.00  0.00     0.031 A 
ATOM     47  C   UNL A   1      42.441  29.058  27.972  1.00  0.00     0.074 A 
ATOM     48  C   UNL A   1      40.235  28.508  28.950  1.00  0.00     0.049 A 
ATOM     49  N   UNL A   1      43.461  29.336  28.708  1.00  0.00    -0.248 NA
ATOM     50  C   UNL A   1      42.498  29.628  26.617  1.00  0.00     0.031 C 
ATOM     51  C   UNL A   1      38.913  27.861  29.029  1.00  0.00     0.029 A 
ATOM     52  N   UNL A   1      40.023  29.667  29.620  1.00  0.00    -0.354 N 
ATOM     53  C   UNL A   1      44.178  30.292  28.004  1.00  0.00     0.074 A 
ATOM     54  C   UNL A   1      43.675  30.257  26.654  1.00  0.00     0.031 C 
ATOM     55  C   UNL A   1      38.000  28.742  29.503  1.00  0.00     0.029 A 
ATOM     56  C   UNL A   1      38.694  29.946  29.918  1.00  0.00     0.049 A 
ATOM     57  H   UNL A   1      40.758  30.270  29.876  1.00  0.00     0.167 HD
ATOM     58  C   UNL A   1      44.943  31.221  28.640  1.00  0.00     0.031 A 
ATOM     59  C   UNL A   1      38.210  31.106  30.433  1.00  0.00     0.031 A 
ATOM     60  C   UNL A   1      45.086  30.921  30.044  1.00  0.00     0.049 A 
ATOM     61  C   UNL A   1      39.366  31.793  31.073  1.00  0.00     0.074 A 
ATOM     62  C   UNL A   1      45.600  29.855  30.756  1.00  0.00     0.029 A 
ATOM     63  N   UNL A   1      44.245  31.582  30.914  1.00  0.00    -0.354 N 
ATOM     64  N   UNL A   1      40.016  31.289  32.089  1.00  0.00    -0.248 NA
ATOM     65  C   UNL A   1      40.114  32.757  30.278  1.00  0.00     0.031 C 
ATOM     66  C   UNL A   1      44.669  29.644  31.819  1.00  0.00     0.029 A 
ATOM     67  C   UNL A   1      43.692  30.639  31.747  1.00  0.00     0.049 A 
ATOM     68  H   UNL A   1      44.073  32.551  30.935  1.00  0.00     0.167 HD
ATOM     69  C   UNL A   1      41.357  31.532  31.819  1.00  0.00     0.074 A 
ATOM     70  C   UNL A   1      41.348  32.515  30.733  1.00  0.00     0.031 C 
ATOM     71  C   UNL A   1      42.345  30.708  32.287  1.00  0.00     0.031 A 
BRANCH  58  72
ATOM     72  C   UNL A   1      45.232  32.588  28.083  1.00  0.00    -0.014 A 
ATOM     73  C   UNL A   1      46.470  33.193  28.373  1.00  0.00     0.010 A 
ATOM     74  C   UNL A   1      44.241  33.402  27.496  1.00  0.00     0.010 A 
ATOM     75  C   UNL A   1      46.680  34.558  28.140  1.00  0.00     0.020 A 
ATOM     76  C   UNL A   1      44.455  34.751  27.216  1.00  0.00     0.020 A 
ATOM     77  C   UNL A   1      45.663  35.330  27.574  1.00  0.00     0.054 A 
BRANCH  77  78
ATOM     78  S   UNL A   1      45.899  37.112  27.386  1.00  0.00     0.124 S 
ATOM     79  O   UNL A   1      46.600  37.189  26.108  1.00  0.00    -0.237 OA
ATOM     80  O   UNL A   1      44.526  37.608  27.391  1.00  0.00    -0.237 OA
ATOM     81  O   UNL A   1      46.694  37.478  28.557  1.00  0.00    -0.744 OA
ENDBRANCH  77  78
ENDBRANCH  58  72
BRANCH  59  82
ATOM     82  C   UNL A   1      36.955  31.801  30.031  1.00  0.00    -0.014 A 
ATOM     83  C   UNL A   1      35.825  31.850  30.870  1.00  0.00     0.010 A 
ATOM     84  C   UNL A   1      36.965  32.660  28.911  1.00  0.00     0.010 A 
ATOM     85  C   UNL A   1      34.777  32.762  30.629  1.00  0.00     0.020 A 
ATOM     86  C   UNL A   1      35.927  33.567  28.663  1.00  0.00     0.020 A 
ATOM     87  C   UNL A   1      34.846  33.633  29.536  1.00  0.00     0.054 A 
BRANCH  87  88
ATOM     88  S   UNL A   1      33.593  34.936  29.325  1.00  0.00     0.124 S 
ATOM     89  O   UNL A   1      33.386  35.396  30.694  1.00  0.00    -0.237 OA
ATOM     90  O   UNL A   1      34.259  35.879  28.432  1.00  0.00    -0.237 OA
ATOM     91  O   UNL A   1      32.457  34.229  28.730  1.00  0.00    -0.744 OA
ENDBRANCH  87  88
ENDBRANCH  59  82
BRANCH  71  92
ATOM     92  C   UNL A   1      41.968  29.617  33.273  1.00  0.00    -0.014 A 
ATOM     93  C   UNL A   1      41.616  28.306  32.887  1.00  0.00     0.010 A 
ATOM     94  C   UNL A   1      42.158  29.874  34.640  1.00  0.00     0.010 A 
ATOM     95  C   UNL A   1      41.445  27.290  33.843  1.00  0.00     0.020 A 
ATOM     96  C   UNL A   1      42.003  28.865  35.597  1.00  0.00     0.020 A 
ATOM     97  C   UNL A   1      41.642  27.578  35.196  1.00  0.00     0.054 A 
BRANCH  97  98
ATOM     98  S   UNL A   1      41.476  26.252  36.426  1.00  0.00     0.124 S 
ATOM     99  O   UNL A   1      40.658  25.268  35.721  1.00  0.00    -0.237 OA
ATOM    100  O   UNL A   1      42.861  25.859  36.671  1.00  0.00    -0.237 OA
ATOM    101  O   UNL A   1      40.817  26.906  37.555  1.00  0.00    -0.744 OA
ENDBRANCH  97  98
ENDBRANCH  71  92
ENDBRANCH  45  46
ENDBRANCH  37  40
ENDBRANCH  35  36
ENDBRANCH  34  35
ENDBRANCH   1  34
TORSDOF 18
ENDMDL
