MODEL 1
REMARK VINA RESULT:     -12.7      0.000      0.000
REMARK SMILES C[C@]12CC[C@@H]3[C@@H](CCC4=C/C(=N\OCC(=O)N5CCC[C@@H]5C(=O)NCCCCCCNC(=O)c5ccc(-c6c7nc(c(-c8ccc(S(=O)(=O)[O-])cc8)c8ccc([nH]8)c(-c8ccc(S(=O)(=O)[O-])cc8)c8nc(c(-c9ccc(S(=O)(=O)[O-])cc9)c9ccc6[nH]9)C=C8)C=C7)cc5)CC[C@@]43C)[C@@H]1CC[C@@H]2O
REMARK SMILES IDX 26 1 25 2 24 3 22 4 23 5 21 7 17 8 18 9 19 10 20 11 15 12
REMARK SMILES IDX 16 13 14 14 13 15 12 16 1 17 2 18 3 19 98 20 101 21 4 22
REMARK SMILES IDX 6 23 99 24 100 25 5 26 7 27 96 28 8 29 9 30 95 31 97 32
REMARK SMILES IDX 10 33 94 34 11 35 102 36 27 38 28 39 29 40 30 41 31 42 32 43
REMARK SMILES IDX 33 45 34 46 35 47 93 48 36 49 92 50 37 51 38 52 39 53 86 54
REMARK SMILES IDX 40 55 91 56 85 57 87 58 41 59 90 60 84 61 83 62 42 64 72 65
REMARK SMILES IDX 53 66 71 67 54 68 57 69 70 70 88 71 55 72 56 73 69 75 89 76
REMARK SMILES IDX 58 77 43 78 44 79 52 80 45 81 51 82 46 83 47 84 48 85 49 86
REMARK SMILES IDX 50 87 73 88 74 89 82 90 75 91 81 92 76 93 77 94 78 95 79 96
REMARK SMILES IDX 80 97 59 98 60 99 68 100 61 101 67 102 62 103 63 104 64 105
REMARK SMILES IDX 65 106 66 107
REMARK H PARENT 24 6 102 37 31 44 87 63 57 74
REMARK Flexibility Score: inf
ROOT
ATOM      1  C   UNL A   1      32.470  28.597  24.713  1.00  0.00     0.021 C 
ENDROOT
BRANCH   1   2
ATOM      2  C   UNL A   1      31.431  29.422  25.457  1.00  0.00     0.116 C 
BRANCH   2   3
ATOM      3  N   UNL A   1      31.335  30.812  25.091  1.00  0.00    -0.354 N 
ATOM      4  C   UNL A   1      30.191  31.484  24.765  1.00  0.00     0.242 C 
ATOM      5  O   UNL A   1      30.144  32.674  25.107  1.00  0.00    -0.273 OA
ATOM      6  H   UNL A   1      32.174  31.327  25.074  1.00  0.00     0.163 HD
BRANCH   4   7
ATOM      7  C   UNL A   1      28.973  30.834  24.024  1.00  0.00     0.174 C 
ATOM      8  N   UNL A   1      29.197  30.011  22.831  1.00  0.00    -0.328 N 
ATOM      9  C   UNL A   1      29.235  30.846  21.634  1.00  0.00     0.120 C 
ATOM     10  C   UNL A   1      28.903  32.254  22.110  1.00  0.00     0.024 C 
ATOM     11  C   UNL A   1      28.161  31.998  23.418  1.00  0.00     0.037 C 
BRANCH   8  12
ATOM     12  C   UNL A   1      29.204  28.641  22.682  1.00  0.00     0.264 C 
ATOM     13  O   UNL A   1      30.069  28.114  21.966  1.00  0.00    -0.271 OA
BRANCH  12  14
ATOM     14  C   UNL A   1      28.198  27.709  23.400  1.00  0.00     0.363 C 
BRANCH  14  15
ATOM     15  O   UNL A   1      28.458  26.355  23.732  1.00  0.00    -0.385 OA
BRANCH  15  16
ATOM     16  N   UNL A   1      29.390  26.349  24.766  1.00  0.00    -0.091 NA
ATOM     17  C   UNL A   1      36.486  21.399  25.979  1.00  0.00     0.014 C 
ATOM     18  C   UNL A   1      35.574  22.615  25.648  1.00  0.00    -0.003 C 
ATOM     19  C   UNL A   1      34.713  22.824  26.888  1.00  0.00     0.010 C 
ATOM     20  C   UNL A   1      34.756  22.492  24.330  1.00  0.00     0.001 C 
ATOM     21  C   UNL A   1      36.397  23.844  25.213  1.00  0.00     0.120 C 
ATOM     22  C   UNL A   1      33.525  21.845  26.922  1.00  0.00     0.005 C 
ATOM     23  C   UNL A   1      33.632  21.461  24.393  1.00  0.00    -0.003 C 
ATOM     24  C   UNL A   1      35.878  22.440  23.274  1.00  0.00     0.007 C 
ATOM     25  C   UNL A   1      36.974  23.373  23.868  1.00  0.00     0.032 C 
ATOM     26  C   UNL A   1      32.708  21.754  25.605  1.00  0.00     0.002 C 
ATOM     27  C   UNL A   1      32.754  21.328  23.140  1.00  0.00     0.008 C 
ATOM     28  C   UNL A   1      31.662  22.934  25.433  1.00  0.00    -0.008 C 
ATOM     29  C   UNL A   1      31.837  22.511  22.833  1.00  0.00     0.032 C 
ATOM     30  C   UNL A   1      31.237  23.260  23.995  1.00  0.00    -0.062 C 
ATOM     31  C   UNL A   1      32.183  24.268  25.994  1.00  0.00     0.018 C 
ATOM     32  C   UNL A   1      30.410  22.509  26.259  1.00  0.00     0.016 C 
ATOM     33  C   UNL A   1      30.484  24.351  23.709  1.00  0.00     0.027 C 
ATOM     34  C   UNL A   1      31.198  25.403  25.930  1.00  0.00     0.061 C 
ATOM     35  C   UNL A   1      30.255  25.389  24.747  1.00  0.00     0.080 C 
BRANCH  21  36
ATOM     36  O   UNL A   1      37.367  24.258  26.142  1.00  0.00    -0.393 OA
ATOM     37  H   UNL A   1      37.742  25.107  25.861  1.00  0.00     0.210 HD
ENDBRANCH  21  36
ENDBRANCH  15  16
ENDBRANCH  14  15
ENDBRANCH  12  14
ENDBRANCH   8  12
ENDBRANCH   4   7
ENDBRANCH   2   3
ENDBRANCH   1   2
BRANCH   1  38
ATOM     38  C   UNL A   1      33.746  28.322  25.521  1.00  0.00     0.002 C 
BRANCH  38  39
ATOM     39  C   UNL A   1      33.705  28.668  27.017  1.00  0.00     0.002 C 
BRANCH  39  40
ATOM     40  C   UNL A   1      34.290  30.012  27.437  1.00  0.00     0.021 C 
BRANCH  40  41
ATOM     41  C   UNL A   1      35.671  29.917  28.061  1.00  0.00     0.116 C 
BRANCH  41  42
ATOM     42  N   UNL A   1      35.616  29.892  29.517  1.00  0.00    -0.352 N 
ATOM     43  C   UNL A   1      36.586  29.574  30.427  1.00  0.00     0.251 C 
ATOM     44  H   UNL A   1      34.747  30.143  29.906  1.00  0.00     0.163 HD
ATOM     45  O   UNL A   1      36.290  29.433  31.616  1.00  0.00    -0.269 OA
BRANCH  43  46
ATOM     46  C   UNL A   1      37.977  29.388  29.978  1.00  0.00     0.039 A 
ATOM     47  C   UNL A   1      38.919  28.881  30.875  1.00  0.00     0.014 A 
ATOM     48  C   UNL A   1      38.350  29.711  28.671  1.00  0.00     0.014 A 
ATOM     49  C   UNL A   1      40.226  28.655  30.444  1.00  0.00     0.010 A 
ATOM     50  C   UNL A   1      39.619  29.388  28.215  1.00  0.00     0.010 A 
ATOM     51  C   UNL A   1      40.577  28.880  29.103  1.00  0.00    -0.014 A 
BRANCH  51  52
ATOM     52  C   UNL A   1      41.953  28.635  28.611  1.00  0.00     0.031 A 
ATOM     53  C   UNL A   1      42.335  27.260  28.130  1.00  0.00     0.074 A 
ATOM     54  C   UNL A   1      42.864  29.625  28.654  1.00  0.00     0.049 A 
ATOM     55  N   UNL A   1      43.499  26.824  27.727  1.00  0.00    -0.248 NA
ATOM     56  C   UNL A   1      41.279  26.232  28.134  1.00  0.00     0.031 C 
ATOM     57  C   UNL A   1      42.618  30.986  29.142  1.00  0.00     0.029 A 
ATOM     58  N   UNL A   1      44.185  29.641  28.288  1.00  0.00    -0.354 N 
ATOM     59  C   UNL A   1      43.320  25.472  27.453  1.00  0.00     0.074 A 
ATOM     60  C   UNL A   1      41.954  25.147  27.792  1.00  0.00     0.031 C 
ATOM     61  C   UNL A   1      43.741  31.710  29.012  1.00  0.00     0.029 A 
ATOM     62  C   UNL A   1      44.798  30.856  28.478  1.00  0.00     0.049 A 
ATOM     63  H   UNL A   1      44.652  28.854  27.923  1.00  0.00     0.167 HD
ATOM     64  C   UNL A   1      44.206  24.588  26.940  1.00  0.00     0.031 A 
ATOM     65  C   UNL A   1      46.070  31.238  28.254  1.00  0.00     0.031 A 
ATOM     66  C   UNL A   1      45.558  24.928  26.586  1.00  0.00     0.049 A 
ATOM     67  C   UNL A   1      47.038  30.235  27.687  1.00  0.00     0.074 A 
ATOM     68  C   UNL A   1      46.523  24.125  26.006  1.00  0.00     0.029 A 
ATOM     69  N   UNL A   1      46.135  26.174  26.779  1.00  0.00    -0.354 N 
ATOM     70  N   UNL A   1      46.831  28.977  27.371  1.00  0.00    -0.248 NA
ATOM     71  C   UNL A   1      48.406  30.705  27.432  1.00  0.00     0.031 C 
ATOM     72  C   UNL A   1      47.701  24.869  25.899  1.00  0.00     0.029 A 
ATOM     73  C   UNL A   1      47.450  26.156  26.350  1.00  0.00     0.049 A 
ATOM     74  H   UNL A   1      45.678  26.955  27.165  1.00  0.00     0.167 HD
ATOM     75  C   UNL A   1      48.035  28.517  26.848  1.00  0.00     0.074 A 
ATOM     76  C   UNL A   1      48.957  29.634  26.878  1.00  0.00     0.031 C 
ATOM     77  C   UNL A   1      48.349  27.282  26.383  1.00  0.00     0.031 A 
BRANCH  64  78
ATOM     78  C   UNL A   1      43.741  23.171  26.731  1.00  0.00    -0.014 A 
ATOM     79  C   UNL A   1      43.938  22.512  25.502  1.00  0.00     0.010 A 
ATOM     80  C   UNL A   1      43.135  22.472  27.790  1.00  0.00     0.010 A 
ATOM     81  C   UNL A   1      43.506  21.195  25.327  1.00  0.00     0.020 A 
ATOM     82  C   UNL A   1      42.730  21.143  27.628  1.00  0.00     0.020 A 
ATOM     83  C   UNL A   1      42.904  20.519  26.391  1.00  0.00     0.054 A 
BRANCH  83  84
ATOM     84  S   UNL A   1      42.388  18.798  26.145  1.00  0.00     0.124 S 
ATOM     85  O   UNL A   1      42.589  18.230  27.476  1.00  0.00    -0.237 OA
ATOM     86  O   UNL A   1      40.995  18.939  25.728  1.00  0.00    -0.237 OA
ATOM     87  O   UNL A   1      43.297  18.305  25.115  1.00  0.00    -0.744 OA
ENDBRANCH  83  84
ENDBRANCH  64  78
BRANCH  65  88
ATOM     88  C   UNL A   1      46.495  32.634  28.549  1.00  0.00    -0.014 A 
ATOM     89  C   UNL A   1      46.936  32.991  29.835  1.00  0.00     0.010 A 
ATOM     90  C   UNL A   1      46.467  33.615  27.541  1.00  0.00     0.010 A 
ATOM     91  C   UNL A   1      47.314  34.308  30.115  1.00  0.00     0.020 A 
ATOM     92  C   UNL A   1      46.875  34.925  27.809  1.00  0.00     0.020 A 
ATOM     93  C   UNL A   1      47.282  35.266  29.099  1.00  0.00     0.054 A 
BRANCH  93  94
ATOM     94  S   UNL A   1      47.812  36.960  29.478  1.00  0.00     0.124 S 
ATOM     95  O   UNL A   1      46.541  37.623  29.746  1.00  0.00    -0.237 OA
ATOM     96  O   UNL A   1      48.682  36.766  30.636  1.00  0.00    -0.237 OA
ATOM     97  O   UNL A   1      48.496  37.385  28.259  1.00  0.00    -0.744 OA
ENDBRANCH  93  94
ENDBRANCH  65  88
BRANCH  77  98
ATOM     98  C   UNL A   1      49.732  27.083  25.822  1.00  0.00    -0.014 A 
ATOM     99  C   UNL A   1      50.782  26.592  26.615  1.00  0.00     0.010 A 
ATOM    100  C   UNL A   1      49.964  27.338  24.457  1.00  0.00     0.010 A 
ATOM    101  C   UNL A   1      52.050  26.391  26.062  1.00  0.00     0.020 A 
ATOM    102  C   UNL A   1      51.219  27.107  23.892  1.00  0.00     0.020 A 
ATOM    103  C   UNL A   1      52.259  26.649  24.704  1.00  0.00     0.054 A 
BRANCH 103 104
ATOM    104  S   UNL A   1      53.901  26.338  24.000  1.00  0.00     0.124 S 
ATOM    105  O   UNL A   1      54.609  27.574  24.322  1.00  0.00    -0.237 OA
ATOM    106  O   UNL A   1      54.343  25.151  24.730  1.00  0.00    -0.237 OA
ATOM    107  O   UNL A   1      53.636  26.125  22.579  1.00  0.00    -0.744 OA
ENDBRANCH 103 104
ENDBRANCH  77  98
ENDBRANCH  51  52
ENDBRANCH  43  46
ENDBRANCH  41  42
ENDBRANCH  40  41
ENDBRANCH  39  40
ENDBRANCH  38  39
ENDBRANCH   1  38
TORSDOF 21
ENDMDL
MODEL 2
REMARK VINA RESULT:     -12.1      1.019      7.573
REMARK SMILES C[C@]12CC[C@@H]3[C@@H](CCC4=C/C(=N\OCC(=O)N5CCC[C@@H]5C(=O)NCCCCCCNC(=O)c5ccc(-c6c7nc(c(-c8ccc(S(=O)(=O)[O-])cc8)c8ccc([nH]8)c(-c8ccc(S(=O)(=O)[O-])cc8)c8nc(c(-c9ccc(S(=O)(=O)[O-])cc9)c9ccc6[nH]9)C=C8)C=C7)cc5)CC[C@@]43C)[C@@H]1CC[C@@H]2O
REMARK SMILES IDX 26 1 25 2 24 3 22 4 23 5 21 7 17 8 18 9 19 10 20 11 15 12
REMARK SMILES IDX 16 13 14 14 13 15 12 16 1 17 2 18 3 19 98 20 101 21 4 22
REMARK SMILES IDX 6 23 99 24 100 25 5 26 7 27 96 28 8 29 9 30 95 31 97 32
REMARK SMILES IDX 10 33 94 34 11 35 102 36 27 38 28 39 29 40 30 41 31 42 32 43
REMARK SMILES IDX 33 45 34 46 35 47 93 48 36 49 92 50 37 51 38 52 39 53 86 54
REMARK SMILES IDX 40 55 91 56 85 57 87 58 41 59 90 60 84 61 83 62 42 64 72 65
REMARK SMILES IDX 53 66 71 67 54 68 57 69 70 70 88 71 55 72 56 73 69 75 89 76
REMARK SMILES IDX 58 77 43 78 44 79 52 80 45 81 51 82 46 83 47 84 48 85 49 86
REMARK SMILES IDX 50 87 73 88 74 89 82 90 75 91 81 92 76 93 77 94 78 95 79 96
REMARK SMILES IDX 80 97 59 98 60 99 68 100 61 101 67 102 62 103 63 104 64 105
REMARK SMILES IDX 65 106 66 107
REMARK H PARENT 24 6 102 37 31 44 87 63 57 74
REMARK Flexibility Score: inf
ROOT
ATOM      1  C   UNL A   1      32.177  28.803  24.891  1.00  0.00     0.021 C 
ENDROOT
BRANCH   1   2
ATOM      2  C   UNL A   1      31.229  29.768  25.586  1.00  0.00     0.116 C 
BRANCH   2   3
ATOM      3  N   UNL A   1      31.135  31.091  25.023  1.00  0.00    -0.354 N 
ATOM      4  C   UNL A   1      29.999  31.690  24.554  1.00  0.00     0.242 C 
ATOM      5  O   UNL A   1      29.923  32.915  24.723  1.00  0.00    -0.273 OA
ATOM      6  H   UNL A   1      31.967  31.614  24.972  1.00  0.00     0.163 HD
BRANCH   4   7
ATOM      7  C   UNL A   1      28.826  30.920  23.858  1.00  0.00     0.174 C 
ATOM      8  N   UNL A   1      29.104  30.029  22.727  1.00  0.00    -0.328 N 
ATOM      9  C   UNL A   1      29.101  30.779  21.474  1.00  0.00     0.120 C 
ATOM     10  C   UNL A   1      28.686  32.195  21.849  1.00  0.00     0.024 C 
ATOM     11  C   UNL A   1      27.952  31.990  23.170  1.00  0.00     0.037 C 
BRANCH   8  12
ATOM     12  C   UNL A   1      29.190  28.655  22.675  1.00  0.00     0.264 C 
ATOM     13  O   UNL A   1      30.083  28.130  21.993  1.00  0.00    -0.271 OA
BRANCH  12  14
ATOM     14  C   UNL A   1      28.240  27.720  23.462  1.00  0.00     0.363 C 
BRANCH  14  15
ATOM     15  O   UNL A   1      28.519  26.361  23.759  1.00  0.00    -0.385 OA
BRANCH  15  16
ATOM     16  N   UNL A   1      29.452  26.342  24.793  1.00  0.00    -0.091 NA
ATOM     17  C   UNL A   1      36.522  21.345  25.965  1.00  0.00     0.014 C 
ATOM     18  C   UNL A   1      35.616  22.569  25.644  1.00  0.00    -0.003 C 
ATOM     19  C   UNL A   1      34.756  22.773  26.886  1.00  0.00     0.010 C 
ATOM     20  C   UNL A   1      34.797  22.460  24.325  1.00  0.00     0.001 C 
ATOM     21  C   UNL A   1      36.445  23.796  25.218  1.00  0.00     0.120 C 
ATOM     22  C   UNL A   1      33.563  21.800  26.912  1.00  0.00     0.005 C 
ATOM     23  C   UNL A   1      33.668  21.435  24.381  1.00  0.00    -0.003 C 
ATOM     24  C   UNL A   1      35.918  22.410  23.269  1.00  0.00     0.007 C 
ATOM     25  C   UNL A   1      37.020  23.333  23.869  1.00  0.00     0.032 C 
ATOM     26  C   UNL A   1      32.745  21.724  25.596  1.00  0.00     0.002 C 
ATOM     27  C   UNL A   1      32.788  21.316  23.128  1.00  0.00     0.008 C 
ATOM     28  C   UNL A   1      31.706  22.911  25.432  1.00  0.00    -0.008 C 
ATOM     29  C   UNL A   1      31.877  22.507  22.830  1.00  0.00     0.032 C 
ATOM     30  C   UNL A   1      31.282  23.250  23.998  1.00  0.00    -0.062 C 
ATOM     31  C   UNL A   1      32.234  24.238  26.004  1.00  0.00     0.018 C 
ATOM     32  C   UNL A   1      30.452  22.486  26.256  1.00  0.00     0.016 C 
ATOM     33  C   UNL A   1      30.535  24.347  23.720  1.00  0.00     0.027 C 
ATOM     34  C   UNL A   1      31.255  25.378  25.949  1.00  0.00     0.061 C 
ATOM     35  C   UNL A   1      30.312  25.379  24.767  1.00  0.00     0.080 C 
BRANCH  21  36
ATOM     36  O   UNL A   1      37.418  24.198  26.150  1.00  0.00    -0.393 OA
ATOM     37  H   UNL A   1      38.255  23.747  25.959  1.00  0.00     0.210 HD
ENDBRANCH  21  36
ENDBRANCH  15  16
ENDBRANCH  14  15
ENDBRANCH  12  14
ENDBRANCH   8  12
ENDBRANCH   4   7
ENDBRANCH   2   3
ENDBRANCH   1   2
BRANCH   1  38
ATOM     38  C   UNL A   1      33.380  28.382  25.746  1.00  0.00     0.002 C 
BRANCH  38  39
ATOM     39  C   UNL A   1      33.530  29.067  27.112  1.00  0.00     0.002 C 
BRANCH  39  40
ATOM     40  C   UNL A   1      34.633  30.111  27.251  1.00  0.00     0.021 C 
BRANCH  40  41
ATOM     41  C   UNL A   1      35.918  29.575  27.858  1.00  0.00     0.116 C 
BRANCH  41  42
ATOM     42  N   UNL A   1      35.880  29.577  29.315  1.00  0.00    -0.352 N 
ATOM     43  C   UNL A   1      36.861  29.279  30.219  1.00  0.00     0.251 C 
ATOM     44  H   UNL A   1      35.014  29.832  29.709  1.00  0.00     0.163 HD
ATOM     45  O   UNL A   1      36.579  29.159  31.414  1.00  0.00    -0.269 OA
BRANCH  43  46
ATOM     46  C   UNL A   1      38.248  29.090  29.758  1.00  0.00     0.039 A 
ATOM     47  C   UNL A   1      38.592  29.474  28.460  1.00  0.00     0.014 A 
ATOM     48  C   UNL A   1      39.208  28.536  30.608  1.00  0.00     0.014 A 
ATOM     49  C   UNL A   1      39.913  29.344  28.034  1.00  0.00     0.010 A 
ATOM     50  C   UNL A   1      40.539  28.506  30.220  1.00  0.00     0.010 A 
ATOM     51  C   UNL A   1      40.901  28.885  28.921  1.00  0.00    -0.014 A 
BRANCH  51  52
ATOM     52  C   UNL A   1      42.316  28.751  28.502  1.00  0.00     0.031 A 
ATOM     53  C   UNL A   1      43.245  29.929  28.636  1.00  0.00     0.074 A 
ATOM     54  C   UNL A   1      42.743  27.599  27.950  1.00  0.00     0.049 A 
ATOM     55  N   UNL A   1      44.493  30.038  28.266  1.00  0.00    -0.248 NA
ATOM     56  C   UNL A   1      42.688  31.155  29.234  1.00  0.00     0.031 C 
ATOM     57  C   UNL A   1      41.919  26.406  27.729  1.00  0.00     0.029 A 
ATOM     58  N   UNL A   1      43.975  27.242  27.467  1.00  0.00    -0.354 N 
ATOM     59  C   UNL A   1      44.861  31.345  28.565  1.00  0.00     0.074 A 
ATOM     60  C   UNL A   1      43.690  32.008  29.090  1.00  0.00     0.031 C 
ATOM     61  C   UNL A   1      42.679  25.441  27.187  1.00  0.00     0.029 A 
ATOM     62  C   UNL A   1      44.027  25.960  26.977  1.00  0.00     0.049 A 
ATOM     63  H   UNL A   1      44.751  27.849  27.470  1.00  0.00     0.167 HD
ATOM     64  C   UNL A   1      46.074  31.933  28.438  1.00  0.00     0.031 A 
ATOM     65  C   UNL A   1      45.045  25.279  26.416  1.00  0.00     0.031 A 
ATOM     66  C   UNL A   1      47.238  31.258  27.935  1.00  0.00     0.049 A 
ATOM     67  C   UNL A   1      46.382  25.957  26.282  1.00  0.00     0.074 A 
ATOM     68  C   UNL A   1      48.529  31.741  27.817  1.00  0.00     0.029 A 
ATOM     69  N   UNL A   1      47.253  29.953  27.464  1.00  0.00    -0.354 N 
ATOM     70  N   UNL A   1      46.729  27.173  26.633  1.00  0.00    -0.248 NA
ATOM     71  C   UNL A   1      47.470  25.165  25.692  1.00  0.00     0.031 C 
ATOM     72  C   UNL A   1      49.313  30.748  27.224  1.00  0.00     0.029 A 
ATOM     73  C   UNL A   1      48.527  29.622  27.035  1.00  0.00     0.049 A 
ATOM     74  H   UNL A   1      46.474  29.353  27.438  1.00  0.00     0.167 HD
ATOM     75  C   UNL A   1      48.084  27.280  26.336  1.00  0.00     0.074 A 
ATOM     76  C   UNL A   1      48.493  26.003  25.792  1.00  0.00     0.031 C 
ATOM     77  C   UNL A   1      48.914  28.340  26.501  1.00  0.00     0.031 A 
BRANCH  64  78
ATOM     78  C   UNL A   1      46.199  33.376  28.852  1.00  0.00    -0.014 A 
ATOM     79  C   UNL A   1      46.578  33.729  30.161  1.00  0.00     0.010 A 
ATOM     80  C   UNL A   1      45.976  34.395  27.908  1.00  0.00     0.010 A 
ATOM     81  C   UNL A   1      46.696  35.072  30.527  1.00  0.00     0.020 A 
ATOM     82  C   UNL A   1      46.123  35.739  28.262  1.00  0.00     0.020 A 
ATOM     83  C   UNL A   1      46.468  36.069  29.574  1.00  0.00     0.054 A 
BRANCH  83  84
ATOM     84  S   UNL A   1      46.665  37.803  30.069  1.00  0.00     0.124 S 
ATOM     85  O   UNL A   1      47.445  38.345  28.960  1.00  0.00    -0.237 OA
ATOM     86  O   UNL A   1      45.283  38.270  30.152  1.00  0.00    -0.237 OA
ATOM     87  O   UNL A   1      47.370  37.724  31.345  1.00  0.00    -0.744 OA
ENDBRANCH  83  84
ENDBRANCH  64  78
BRANCH  65  88
ATOM     88  C   UNL A   1      44.845  23.878  25.956  1.00  0.00    -0.014 A 
ATOM     89  C   UNL A   1      45.422  22.805  26.657  1.00  0.00     0.010 A 
ATOM     90  C   UNL A   1      44.068  23.607  24.814  1.00  0.00     0.010 A 
ATOM     91  C   UNL A   1      45.250  21.491  26.210  1.00  0.00     0.020 A 
ATOM     92  C   UNL A   1      43.867  22.292  24.383  1.00  0.00     0.020 A 
ATOM     93  C   UNL A   1      44.472  21.243  25.076  1.00  0.00     0.054 A 
BRANCH  93  94
ATOM     94  S   UNL A   1      44.234  19.528  24.536  1.00  0.00     0.124 S 
ATOM     95  O   UNL A   1      45.243  18.820  25.317  1.00  0.00    -0.237 OA
ATOM     96  O   UNL A   1      42.846  19.269  24.912  1.00  0.00    -0.237 OA
ATOM     97  O   UNL A   1      44.482  19.584  23.097  1.00  0.00    -0.744 OA
ENDBRANCH  93  94
ENDBRANCH  65  88
BRANCH  77  98
ATOM     98  C   UNL A   1      50.362  28.150  26.135  1.00  0.00    -0.014 A 
ATOM     99  C   UNL A   1      50.830  28.404  24.834  1.00  0.00     0.010 A 
ATOM    100  C   UNL A   1      51.279  27.767  27.131  1.00  0.00     0.010 A 
ATOM    101  C   UNL A   1      52.184  28.246  24.528  1.00  0.00     0.020 A 
ATOM    102  C   UNL A   1      52.638  27.639  26.839  1.00  0.00     0.020 A 
ATOM    103  C   UNL A   1      53.079  27.866  25.533  1.00  0.00     0.054 A 
BRANCH 103 104
ATOM    104  S   UNL A   1      54.838  27.709  25.121  1.00  0.00     0.124 S 
ATOM    105  O   UNL A   1      54.837  27.957  23.682  1.00  0.00    -0.237 OA
ATOM    106  O   UNL A   1      55.452  28.754  25.939  1.00  0.00    -0.237 OA
ATOM    107  O   UNL A   1      55.168  26.342  25.518  1.00  0.00    -0.744 OA
ENDBRANCH 103 104
ENDBRANCH  77  98
ENDBRANCH  51  52
ENDBRANCH  43  46
ENDBRANCH  41  42
ENDBRANCH  40  41
ENDBRANCH  39  40
ENDBRANCH  38  39
ENDBRANCH   1  38
TORSDOF 21
ENDMDL
MODEL 3
REMARK VINA RESULT:     -11.6      4.339     10.301
REMARK SMILES C[C@]12CC[C@@H]3[C@@H](CCC4=C/C(=N\OCC(=O)N5CCC[C@@H]5C(=O)NCCCCCCNC(=O)c5ccc(-c6c7nc(c(-c8ccc(S(=O)(=O)[O-])cc8)c8ccc([nH]8)c(-c8ccc(S(=O)(=O)[O-])cc8)c8nc(c(-c9ccc(S(=O)(=O)[O-])cc9)c9ccc6[nH]9)C=C8)C=C7)cc5)CC[C@@]43C)[C@@H]1CC[C@@H]2O
REMARK SMILES IDX 26 1 25 2 24 3 22 4 23 5 21 7 17 8 18 9 19 10 20 11 15 12
REMARK SMILES IDX 16 13 14 14 13 15 12 16 1 17 2 18 3 19 98 20 101 21 4 22
REMARK SMILES IDX 6 23 99 24 100 25 5 26 7 27 96 28 8 29 9 30 95 31 97 32
REMARK SMILES IDX 10 33 94 34 11 35 102 36 27 38 28 39 29 40 30 41 31 42 32 43
REMARK SMILES IDX 33 45 34 46 35 47 93 48 36 49 92 50 37 51 38 52 39 53 86 54
REMARK SMILES IDX 40 55 91 56 85 57 87 58 41 59 90 60 84 61 83 62 42 64 72 65
REMARK SMILES IDX 53 66 71 67 54 68 57 69 70 70 88 71 55 72 56 73 69 75 89 76
REMARK SMILES IDX 58 77 43 78 44 79 52 80 45 81 51 82 46 83 47 84 48 85 49 86
REMARK SMILES IDX 50 87 73 88 74 89 82 90 75 91 81 92 76 93 77 94 78 95 79 96
REMARK SMILES IDX 80 97 59 98 60 99 68 100 61 101 67 102 62 103 63 104 64 105
REMARK SMILES IDX 65 106 66 107
REMARK H PARENT 24 6 102 37 31 44 87 63 57 74
REMARK Flexibility Score: inf
ROOT
ATOM      1  C   UNL A   1      39.041  28.234  29.807  1.00  0.00     0.021 C 
ENDROOT
BRANCH   1   2
ATOM      2  C   UNL A   1      37.956  29.128  29.226  1.00  0.00     0.116 C 
BRANCH   2   3
ATOM      3  N   UNL A   1      38.341  30.479  28.908  1.00  0.00    -0.354 N 
ATOM      4  C   UNL A   1      37.693  31.617  29.300  1.00  0.00     0.242 C 
ATOM      5  O   UNL A   1      38.412  32.599  29.528  1.00  0.00    -0.273 OA
ATOM      6  H   UNL A   1      39.149  30.594  28.358  1.00  0.00     0.163 HD
BRANCH   4   7
ATOM      7  C   UNL A   1      36.141  31.721  29.485  1.00  0.00     0.174 C 
ATOM      8  N   UNL A   1      35.274  31.904  28.317  1.00  0.00    -0.328 N 
ATOM      9  C   UNL A   1      35.140  33.324  27.999  1.00  0.00     0.120 C 
ATOM     10  C   UNL A   1      35.878  34.060  29.108  1.00  0.00     0.024 C 
ATOM     11  C   UNL A   1      35.881  33.040  30.242  1.00  0.00     0.037 C 
BRANCH   8  12
ATOM     12  C   UNL A   1      34.492  30.997  27.635  1.00  0.00     0.264 C 
ATOM     13  O   UNL A   1      35.003  29.941  27.232  1.00  0.00    -0.271 OA
BRANCH  12  14
ATOM     14  C   UNL A   1      32.982  31.214  27.375  1.00  0.00     0.363 C 
BRANCH  14  15
ATOM     15  O   UNL A   1      32.260  30.615  26.311  1.00  0.00    -0.385 OA
BRANCH  15  16
ATOM     16  N   UNL A   1      31.808  29.375  26.757  1.00  0.00    -0.091 NA
ATOM     17  C   UNL A   1      32.601  21.433  23.205  1.00  0.00     0.014 C 
ATOM     18  C   UNL A   1      32.811  22.660  24.138  1.00  0.00    -0.003 C 
ATOM     19  C   UNL A   1      31.433  22.981  24.703  1.00  0.00     0.010 C 
ATOM     20  C   UNL A   1      33.518  23.880  23.479  1.00  0.00     0.001 C 
ATOM     21  C   UNL A   1      33.901  22.394  25.194  1.00  0.00     0.120 C 
ATOM     22  C   UNL A   1      30.586  23.789  23.703  1.00  0.00     0.005 C 
ATOM     23  C   UNL A   1      32.661  24.609  22.447  1.00  0.00    -0.003 C 
ATOM     24  C   UNL A   1      34.904  23.293  23.148  1.00  0.00     0.007 C 
ATOM     25  C   UNL A   1      35.166  22.305  24.323  1.00  0.00     0.032 C 
ATOM     26  C   UNL A   1      31.301  25.016  23.075  1.00  0.00     0.002 C 
ATOM     27  C   UNL A   1      33.282  25.854  21.798  1.00  0.00     0.008 C 
ATOM     28  C   UNL A   1      31.307  26.290  24.020  1.00  0.00    -0.008 C 
ATOM     29  C   UNL A   1      33.461  27.069  22.708  1.00  0.00     0.032 C 
ATOM     30  C   UNL A   1      32.420  27.316  23.770  1.00  0.00    -0.062 C 
ATOM     31  C   UNL A   1      31.449  25.920  25.506  1.00  0.00     0.018 C 
ATOM     32  C   UNL A   1      29.919  26.971  23.813  1.00  0.00     0.016 C 
ATOM     33  C   UNL A   1      32.630  28.354  24.615  1.00  0.00     0.027 C 
ATOM     34  C   UNL A   1      31.378  27.087  26.452  1.00  0.00     0.061 C 
ATOM     35  C   UNL A   1      31.944  28.389  25.933  1.00  0.00     0.080 C 
BRANCH  21  36
ATOM     36  O   UNL A   1      33.675  21.261  25.997  1.00  0.00    -0.393 OA
ATOM     37  H   UNL A   1      32.758  21.266  26.311  1.00  0.00     0.210 HD
ENDBRANCH  21  36
ENDBRANCH  15  16
ENDBRANCH  14  15
ENDBRANCH  12  14
ENDBRANCH   8  12
ENDBRANCH   4   7
ENDBRANCH   2   3
ENDBRANCH   1   2
BRANCH   1  38
ATOM     38  C   UNL A   1      39.763  27.368  28.767  1.00  0.00     0.002 C 
BRANCH  38  39
ATOM     39  C   UNL A   1      39.477  25.859  28.805  1.00  0.00     0.002 C 
BRANCH  39  40
ATOM     40  C   UNL A   1      39.965  25.027  27.623  1.00  0.00     0.021 C 
BRANCH  40  41
ATOM     41  C   UNL A   1      40.331  25.849  26.400  1.00  0.00     0.116 C 
BRANCH  41  42
ATOM     42  N   UNL A   1      41.576  25.401  25.789  1.00  0.00    -0.352 N 
ATOM     43  C   UNL A   1      42.774  26.047  25.664  1.00  0.00     0.251 C 
ATOM     44  H   UNL A   1      41.550  24.494  25.407  1.00  0.00     0.163 HD
ATOM     45  O   UNL A   1      43.657  25.569  24.947  1.00  0.00    -0.269 OA
BRANCH  43  46
ATOM     46  C   UNL A   1      42.999  27.318  26.376  1.00  0.00     0.039 A 
ATOM     47  C   UNL A   1      43.800  27.325  27.519  1.00  0.00     0.014 A 
ATOM     48  C   UNL A   1      42.420  28.501  25.911  1.00  0.00     0.014 A 
ATOM     49  C   UNL A   1      44.058  28.532  28.169  1.00  0.00     0.010 A 
ATOM     50  C   UNL A   1      42.762  29.712  26.495  1.00  0.00     0.010 A 
ATOM     51  C   UNL A   1      43.563  29.737  27.644  1.00  0.00    -0.014 A 
BRANCH  51  52
ATOM     52  C   UNL A   1      43.832  31.036  28.303  1.00  0.00     0.031 A 
ATOM     53  C   UNL A   1      45.014  31.860  27.865  1.00  0.00     0.074 A 
ATOM     54  C   UNL A   1      43.055  31.441  29.326  1.00  0.00     0.049 A 
ATOM     55  N   UNL A   1      45.460  32.986  28.357  1.00  0.00    -0.248 NA
ATOM     56  C   UNL A   1      45.821  31.333  26.750  1.00  0.00     0.031 C 
ATOM     57  C   UNL A   1      41.908  30.703  29.865  1.00  0.00     0.029 A 
ATOM     58  N   UNL A   1      43.114  32.570  30.101  1.00  0.00    -0.354 N 
ATOM     59  C   UNL A   1      46.606  33.286  27.628  1.00  0.00     0.074 A 
ATOM     60  C   UNL A   1      46.821  32.197  26.704  1.00  0.00     0.031 C 
ATOM     61  C   UNL A   1      41.354  31.416  30.858  1.00  0.00     0.029 A 
ATOM     62  C   UNL A   1      42.131  32.634  31.059  1.00  0.00     0.049 A 
ATOM     63  H   UNL A   1      43.797  33.269  29.983  1.00  0.00     0.167 HD
ATOM     64  C   UNL A   1      47.394  34.384  27.705  1.00  0.00     0.031 A 
ATOM     65  C   UNL A   1      41.887  33.568  31.999  1.00  0.00     0.031 A 
ATOM     66  C   UNL A   1      47.158  35.472  28.615  1.00  0.00     0.049 A 
ATOM     67  C   UNL A   1      42.780  34.778  32.067  1.00  0.00     0.074 A 
ATOM     68  C   UNL A   1      47.860  36.658  28.737  1.00  0.00     0.029 A 
ATOM     69  N   UNL A   1      46.142  35.507  29.558  1.00  0.00    -0.354 N 
ATOM     70  N   UNL A   1      43.821  35.077  31.324  1.00  0.00    -0.248 NA
ATOM     71  C   UNL A   1      42.457  35.783  33.088  1.00  0.00     0.031 C 
ATOM     72  C   UNL A   1      47.302  37.386  29.792  1.00  0.00     0.029 A 
ATOM     73  C   UNL A   1      46.212  36.685  30.282  1.00  0.00     0.049 A 
ATOM     74  H   UNL A   1      45.472  34.800  29.694  1.00  0.00     0.167 HD
ATOM     75  C   UNL A   1      44.256  36.322  31.768  1.00  0.00     0.074 A 
ATOM     76  C   UNL A   1      43.358  36.723  32.831  1.00  0.00     0.031 C 
ATOM     77  C   UNL A   1      45.302  37.067  31.333  1.00  0.00     0.031 A 
BRANCH  64  78
ATOM     78  C   UNL A   1      48.580  34.461  26.781  1.00  0.00    -0.014 A 
ATOM     79  C   UNL A   1      48.552  35.260  25.622  1.00  0.00     0.010 A 
ATOM     80  C   UNL A   1      49.757  33.758  27.096  1.00  0.00     0.010 A 
ATOM     81  C   UNL A   1      49.663  35.325  24.778  1.00  0.00     0.020 A 
ATOM     82  C   UNL A   1      50.882  33.845  26.271  1.00  0.00     0.020 A 
ATOM     83  C   UNL A   1      50.822  34.617  25.108  1.00  0.00     0.054 A 
BRANCH  83  84
ATOM     84  S   UNL A   1      52.262  34.751  24.014  1.00  0.00     0.124 S 
ATOM     85  O   UNL A   1      53.370  34.588  24.952  1.00  0.00    -0.237 OA
ATOM     86  O   UNL A   1      52.060  33.642  23.084  1.00  0.00    -0.237 OA
ATOM     87  O   UNL A   1      52.133  36.082  23.429  1.00  0.00    -0.744 OA
ENDBRANCH  83  84
ENDBRANCH  64  78
BRANCH  65  88
ATOM     88  C   UNL A   1      40.743  33.405  32.937  1.00  0.00    -0.014 A 
ATOM     89  C   UNL A   1      40.937  32.846  34.212  1.00  0.00     0.010 A 
ATOM     90  C   UNL A   1      39.450  33.815  32.562  1.00  0.00     0.010 A 
ATOM     91  C   UNL A   1      39.856  32.673  35.083  1.00  0.00     0.020 A 
ATOM     92  C   UNL A   1      38.373  33.673  33.442  1.00  0.00     0.020 A 
ATOM     93  C   UNL A   1      38.581  33.089  34.692  1.00  0.00     0.054 A 
BRANCH  93  94
ATOM     94  S   UNL A   1      37.201  32.888  35.853  1.00  0.00     0.124 S 
ATOM     95  O   UNL A   1      37.411  31.530  36.341  1.00  0.00    -0.237 OA
ATOM     96  O   UNL A   1      37.446  33.955  36.821  1.00  0.00    -0.237 OA
ATOM     97  O   UNL A   1      36.018  33.078  35.015  1.00  0.00    -0.744 OA
ENDBRANCH  93  94
ENDBRANCH  65  88
BRANCH  77  98
ATOM     98  C   UNL A   1      45.506  38.415  31.972  1.00  0.00    -0.014 A 
ATOM     99  C   UNL A   1      44.807  39.550  31.528  1.00  0.00     0.010 A 
ATOM    100  C   UNL A   1      46.372  38.530  33.075  1.00  0.00     0.010 A 
ATOM    101  C   UNL A   1      44.996  40.785  32.155  1.00  0.00     0.020 A 
ATOM    102  C   UNL A   1      46.539  39.754  33.726  1.00  0.00     0.020 A 
ATOM    103  C   UNL A   1      45.859  40.877  33.251  1.00  0.00     0.054 A 
BRANCH 103 104
ATOM    104  S   UNL A   1      46.053  42.481  34.076  1.00  0.00     0.124 S 
ATOM    105  O   UNL A   1      45.070  42.391  35.151  1.00  0.00    -0.237 OA
ATOM    106  O   UNL A   1      47.452  42.455  34.498  1.00  0.00    -0.237 OA
ATOM    107  O   UNL A   1      45.743  43.450  33.027  1.00  0.00    -0.744 OA
ENDBRANCH 103 104
ENDBRANCH  77  98
ENDBRANCH  51  52
ENDBRANCH  43  46
ENDBRANCH  41  42
ENDBRANCH  40  41
ENDBRANCH  39  40
ENDBRANCH  38  39
ENDBRANCH   1  38
TORSDOF 21
ENDMDL
