MODEL 1
REMARK VINA RESULT:     -10.8      0.000      0.000
REMARK SMILES CC(=O)N1CCC[C@@H](Cc2nccnc2C(=O)NCCCCCCNC(=O)c2ccc(-c3c4nc(c(-c5ccc(S(=O)(=O)[O-])cc5)c5ccc([nH]5)c(-c5ccc(S(=O)(=O)[O-])cc5)c5nc(c(-c6ccc(S(=O)(=O)[O-])cc6)c6ccc3[nH]6)C=C5)C=C4)cc2)C1
REMARK SMILES IDX 21 1 20 2 19 3 18 4 16 5 17 6 15 8 10 9 11 10 12 11 14 12
REMARK SMILES IDX 13 13 9 14 8 15 4 16 5 17 88 18 6 19 7 20 2 21 1 22 3 23
REMARK SMILES IDX 22 24 23 25 24 26 25 27 26 28 27 30 28 31 29 32 87 33 30 34
REMARK SMILES IDX 86 35 31 36 32 37 33 38 80 39 34 40 85 41 79 42 81 43 35 44
REMARK SMILES IDX 84 45 78 46 77 47 36 49 66 50 47 51 65 52 48 53 51 54 64 55
REMARK SMILES IDX 82 56 49 57 50 58 63 60 83 61 52 62 37 63 38 64 46 65 39 66
REMARK SMILES IDX 45 67 40 68 41 69 42 70 43 71 44 72 67 73 68 74 76 75 69 76
REMARK SMILES IDX 75 77 70 78 71 79 72 80 73 81 74 82 53 83 54 84 62 85 55 86
REMARK SMILES IDX 61 87 56 88 57 89 58 90 59 91 60 92
REMARK H PARENT 18 7 25 29 81 48 51 59
REMARK Flexibility Score: inf
ROOT
ATOM      1  C   UNL A   1      33.417  28.645  27.234  1.00  0.00     0.002 C 
ENDROOT
BRANCH   1   2
ATOM      2  C   UNL A   1      32.195  27.781  26.929  1.00  0.00     0.021 C 
BRANCH   2   3
ATOM      3  C   UNL A   1      32.511  26.421  26.274  1.00  0.00     0.116 C 
BRANCH   3   4
ATOM      4  N   UNL A   1      31.607  25.408  26.799  1.00  0.00    -0.351 N 
ATOM      5  C   UNL A   1      31.206  24.131  26.497  1.00  0.00     0.271 C 
ATOM      6  O   UNL A   1      30.306  23.725  27.251  1.00  0.00    -0.267 OA
ATOM      7  H   UNL A   1      31.148  25.737  27.606  1.00  0.00     0.163 HD
BRANCH   5   8
ATOM      8  C   UNL A   1      31.720  23.162  25.448  1.00  0.00     0.149 A 
ATOM      9  C   UNL A   1      31.415  23.040  24.083  1.00  0.00     0.072 A 
ATOM     10  N   UNL A   1      31.913  22.015  23.324  1.00  0.00    -0.257 NA
ATOM     11  C   UNL A   1      32.667  21.089  23.950  1.00  0.00     0.131 A 
ATOM     12  N   UNL A   1      32.511  22.206  26.042  1.00  0.00    -0.248 NA
ATOM     13  C   UNL A   1      32.957  21.183  25.288  1.00  0.00     0.132 A 
BRANCH   9  14
ATOM     14  C   UNL A   1      30.583  23.988  23.291  1.00  0.00     0.064 C 
BRANCH  14  15
ATOM     15  C   UNL A   1      30.882  25.491  23.309  1.00  0.00     0.015 C 
ATOM     16  N   UNL A   1      31.932  27.459  22.332  1.00  0.00    -0.343 N 
ATOM     17  C   UNL A   1      30.780  28.312  22.617  1.00  0.00     0.119 C 
ATOM     18  C   UNL A   1      31.621  26.045  22.085  1.00  0.00     0.123 C 
ATOM     19  C   UNL A   1      29.985  27.784  23.807  1.00  0.00     0.022 C 
ATOM     20  C   UNL A   1      29.618  26.315  23.605  1.00  0.00     0.007 C 
BRANCH  16  21
ATOM     21  C   UNL A   1      33.206  28.003  22.410  1.00  0.00     0.219 C 
ATOM     22  C   UNL A   1      33.468  29.004  23.506  1.00  0.00     0.114 C 
ATOM     23  O   UNL A   1      34.111  27.678  21.641  1.00  0.00    -0.275 OA
ENDBRANCH  16  21
ENDBRANCH  14  15
ENDBRANCH   9  14
ENDBRANCH   5   8
ENDBRANCH   3   4
ENDBRANCH   2   3
ENDBRANCH   1   2
BRANCH   1  24
ATOM     24  C   UNL A   1      33.126  30.148  27.263  1.00  0.00     0.002 C 
BRANCH  24  25
ATOM     25  C   UNL A   1      34.331  31.046  27.564  1.00  0.00     0.021 C 
BRANCH  25  26
ATOM     26  C   UNL A   1      35.457  30.376  28.349  1.00  0.00     0.116 C 
BRANCH  26  27
ATOM     27  N   UNL A   1      35.564  30.912  29.696  1.00  0.00    -0.352 N 
ATOM     28  C   UNL A   1      36.584  30.786  30.603  1.00  0.00     0.251 C 
ATOM     29  H   UNL A   1      34.792  31.441  30.002  1.00  0.00     0.163 HD
ATOM     30  O   UNL A   1      36.389  31.058  31.788  1.00  0.00    -0.269 OA
BRANCH  28  31
ATOM     31  C   UNL A   1      37.915  30.324  30.159  1.00  0.00     0.039 A 
ATOM     32  C   UNL A   1      38.225  30.327  28.796  1.00  0.00     0.014 A 
ATOM     33  C   UNL A   1      38.846  29.853  31.090  1.00  0.00     0.014 A 
ATOM     34  C   UNL A   1      39.486  29.903  28.371  1.00  0.00     0.010 A 
ATOM     35  C   UNL A   1      40.125  29.495  30.670  1.00  0.00     0.010 A 
ATOM     36  C   UNL A   1      40.454  29.506  29.307  1.00  0.00    -0.014 A 
BRANCH  36  37
ATOM     37  C   UNL A   1      41.811  29.070  28.889  1.00  0.00     0.031 A 
ATOM     38  C   UNL A   1      42.928  30.077  28.810  1.00  0.00     0.074 A 
ATOM     39  C   UNL A   1      42.020  27.793  28.508  1.00  0.00     0.049 A 
ATOM     40  N   UNL A   1      44.148  29.922  28.364  1.00  0.00    -0.248 NA
ATOM     41  C   UNL A   1      42.625  31.442  29.267  1.00  0.00     0.031 C 
ATOM     42  C   UNL A   1      41.012  26.730  28.517  1.00  0.00     0.029 A 
ATOM     43  N   UNL A   1      43.148  27.177  28.027  1.00  0.00    -0.354 N 
ATOM     44  C   UNL A   1      44.748  31.172  28.464  1.00  0.00     0.074 A 
ATOM     45  C   UNL A   1      43.746  32.083  28.971  1.00  0.00     0.031 C 
ATOM     46  C   UNL A   1      41.572  25.591  28.076  1.00  0.00     0.029 A 
ATOM     47  C   UNL A   1      42.962  25.851  27.713  1.00  0.00     0.049 A 
ATOM     48  H   UNL A   1      44.009  27.641  27.917  1.00  0.00     0.167 HD
ATOM     49  C   UNL A   1      46.022  31.528  28.174  1.00  0.00     0.031 A 
ATOM     50  C   UNL A   1      43.809  24.949  27.179  1.00  0.00     0.031 A 
ATOM     51  C   UNL A   1      47.020  30.615  27.684  1.00  0.00     0.049 A 
ATOM     52  C   UNL A   1      45.217  25.370  26.856  1.00  0.00     0.074 A 
ATOM     53  C   UNL A   1      48.352  30.864  27.406  1.00  0.00     0.029 A 
ATOM     54  N   UNL A   1      46.795  29.276  27.399  1.00  0.00    -0.354 N 
ATOM     55  N   UNL A   1      45.780  26.545  27.005  1.00  0.00    -0.248 NA
ATOM     56  C   UNL A   1      46.109  24.341  26.302  1.00  0.00     0.031 C 
ATOM     57  C   UNL A   1      48.922  29.687  26.910  1.00  0.00     0.029 A 
ATOM     58  C   UNL A   1      47.959  28.690  26.936  1.00  0.00     0.049 A 
ATOM     59  H   UNL A   1      45.934  28.812  27.511  1.00  0.00     0.167 HD
ATOM     60  C   UNL A   1      47.101  26.387  26.598  1.00  0.00     0.074 A 
ATOM     61  C   UNL A   1      47.254  25.003  26.201  1.00  0.00     0.031 C 
ATOM     62  C   UNL A   1      48.098  27.305  26.560  1.00  0.00     0.031 A 
BRANCH  49  63
ATOM     63  C   UNL A   1      46.410  32.969  28.380  1.00  0.00    -0.014 A 
ATOM     64  C   UNL A   1      46.918  33.415  29.613  1.00  0.00     0.010 A 
ATOM     65  C   UNL A   1      46.306  33.880  27.313  1.00  0.00     0.010 A 
ATOM     66  C   UNL A   1      47.276  34.754  29.790  1.00  0.00     0.020 A 
ATOM     67  C   UNL A   1      46.691  35.215  27.477  1.00  0.00     0.020 A 
ATOM     68  C   UNL A   1      47.158  35.647  28.720  1.00  0.00     0.054 A 
BRANCH  68  69
ATOM     69  S   UNL A   1      47.656  37.373  28.970  1.00  0.00     0.124 S 
ATOM     70  O   UNL A   1      46.626  38.094  28.228  1.00  0.00    -0.237 OA
ATOM     71  O   UNL A   1      47.598  37.516  30.423  1.00  0.00    -0.237 OA
ATOM     72  O   UNL A   1      48.997  37.435  28.394  1.00  0.00    -0.744 OA
ENDBRANCH  68  69
ENDBRANCH  49  63
BRANCH  50  73
ATOM     73  C   UNL A   1      43.353  23.556  26.928  1.00  0.00    -0.014 A 
ATOM     74  C   UNL A   1      43.319  22.616  27.974  1.00  0.00     0.010 A 
ATOM     75  C   UNL A   1      42.941  23.160  25.642  1.00  0.00     0.010 A 
ATOM     76  C   UNL A   1      42.904  21.303  27.734  1.00  0.00     0.020 A 
ATOM     77  C   UNL A   1      42.498  21.856  25.404  1.00  0.00     0.020 A 
ATOM     78  C   UNL A   1      42.495  20.931  26.450  1.00  0.00     0.054 A 
BRANCH  78  79
ATOM     79  S   UNL A   1      41.917  19.234  26.172  1.00  0.00     0.124 S 
ATOM     80  O   UNL A   1      42.714  18.826  25.020  1.00  0.00    -0.237 OA
ATOM     81  O   UNL A   1      42.245  18.576  27.435  1.00  0.00    -0.237 OA
ATOM     82  O   UNL A   1      40.487  19.398  25.919  1.00  0.00    -0.744 OA
ENDBRANCH  78  79
ENDBRANCH  50  73
BRANCH  62  83
ATOM     83  C   UNL A   1      49.462  26.839  26.128  1.00  0.00    -0.014 A 
ATOM     84  C   UNL A   1      49.900  26.986  24.801  1.00  0.00     0.010 A 
ATOM     85  C   UNL A   1      50.345  26.316  27.090  1.00  0.00     0.010 A 
ATOM     86  C   UNL A   1      51.194  26.601  24.440  1.00  0.00     0.020 A 
ATOM     87  C   UNL A   1      51.648  25.955  26.739  1.00  0.00     0.020 A 
ATOM     88  C   UNL A   1      52.061  26.091  25.413  1.00  0.00     0.054 A 
BRANCH  88  89
ATOM     89  S   UNL A   1      53.756  25.659  24.933  1.00  0.00     0.124 S 
ATOM     90  O   UNL A   1      53.866  26.277  23.613  1.00  0.00    -0.237 OA
ATOM     91  O   UNL A   1      54.556  26.281  25.985  1.00  0.00    -0.237 OA
ATOM     92  O   UNL A   1      53.757  24.198  24.938  1.00  0.00    -0.744 OA
ENDBRANCH  88  89
ENDBRANCH  62  83
ENDBRANCH  36  37
ENDBRANCH  28  31
ENDBRANCH  26  27
ENDBRANCH  25  26
ENDBRANCH  24  25
ENDBRANCH   1  24
TORSDOF 19
ENDMDL
MODEL 2
REMARK VINA RESULT:     -10.5      0.803      8.209
REMARK SMILES CC(=O)N1CCC[C@@H](Cc2nccnc2C(=O)NCCCCCCNC(=O)c2ccc(-c3c4nc(c(-c5ccc(S(=O)(=O)[O-])cc5)c5ccc([nH]5)c(-c5ccc(S(=O)(=O)[O-])cc5)c5nc(c(-c6ccc(S(=O)(=O)[O-])cc6)c6ccc3[nH]6)C=C5)C=C4)cc2)C1
REMARK SMILES IDX 21 1 20 2 19 3 18 4 16 5 17 6 15 8 10 9 11 10 12 11 14 12
REMARK SMILES IDX 13 13 9 14 8 15 4 16 5 17 88 18 6 19 7 20 2 21 1 22 3 23
REMARK SMILES IDX 22 24 23 25 24 26 25 27 26 28 27 30 28 31 29 32 87 33 30 34
REMARK SMILES IDX 86 35 31 36 32 37 33 38 80 39 34 40 85 41 79 42 81 43 35 44
REMARK SMILES IDX 84 45 78 46 77 47 36 49 66 50 47 51 65 52 48 53 51 54 64 55
REMARK SMILES IDX 82 56 49 57 50 58 63 60 83 61 52 62 37 63 38 64 46 65 39 66
REMARK SMILES IDX 45 67 40 68 41 69 42 70 43 71 44 72 67 73 68 74 76 75 69 76
REMARK SMILES IDX 75 77 70 78 71 79 72 80 73 81 74 82 53 83 54 84 62 85 55 86
REMARK SMILES IDX 61 87 56 88 57 89 58 90 59 91 60 92
REMARK H PARENT 18 7 25 29 81 48 51 59
REMARK Flexibility Score: inf
ROOT
ATOM      1  C   UNL A   1      33.689  29.180  26.839  1.00  0.00     0.002 C 
ENDROOT
BRANCH   1   2
ATOM      2  C   UNL A   1      32.603  28.134  27.081  1.00  0.00     0.021 C 
BRANCH   2   3
ATOM      3  C   UNL A   1      32.866  26.764  26.423  1.00  0.00     0.116 C 
BRANCH   3   4
ATOM      4  N   UNL A   1      31.813  25.833  26.804  1.00  0.00    -0.351 N 
ATOM      5  C   UNL A   1      31.341  24.602  26.422  1.00  0.00     0.271 C 
ATOM      6  O   UNL A   1      30.318  24.272  27.045  1.00  0.00    -0.267 OA
ATOM      7  H   UNL A   1      31.287  26.192  27.554  1.00  0.00     0.163 HD
BRANCH   5   8
ATOM      8  C   UNL A   1      31.895  23.603  25.423  1.00  0.00     0.149 A 
ATOM      9  C   UNL A   1      31.546  23.351  24.087  1.00  0.00     0.072 A 
ATOM     10  N   UNL A   1      32.102  22.317  23.382  1.00  0.00    -0.257 NA
ATOM     11  C   UNL A   1      32.960  21.511  24.037  1.00  0.00     0.131 A 
ATOM     12  N   UNL A   1      32.792  22.767  26.046  1.00  0.00    -0.248 NA
ATOM     13  C   UNL A   1      33.296  21.732  25.348  1.00  0.00     0.132 A 
BRANCH   9  14
ATOM     14  C   UNL A   1      30.601  24.161  23.268  1.00  0.00     0.064 C 
BRANCH  14  15
ATOM     15  C   UNL A   1      30.933  25.610  22.899  1.00  0.00     0.015 C 
ATOM     16  N   UNL A   1      30.507  28.001  23.091  1.00  0.00    -0.343 N 
ATOM     17  C   UNL A   1      31.930  28.332  23.117  1.00  0.00     0.119 C 
ATOM     18  C   UNL A   1      30.156  26.693  23.660  1.00  0.00     0.123 C 
ATOM     19  C   UNL A   1      32.756  27.266  22.404  1.00  0.00     0.022 C 
ATOM     20  C   UNL A   1      32.446  25.878  22.960  1.00  0.00     0.007 C 
BRANCH  16  21
ATOM     21  C   UNL A   1      29.626  28.870  22.464  1.00  0.00     0.219 C 
ATOM     22  C   UNL A   1      28.201  28.887  22.953  1.00  0.00     0.114 C 
ATOM     23  O   UNL A   1      29.977  29.626  21.558  1.00  0.00    -0.275 OA
ENDBRANCH  16  21
ENDBRANCH  14  15
ENDBRANCH   9  14
ENDBRANCH   5   8
ENDBRANCH   3   4
ENDBRANCH   2   3
ENDBRANCH   1   2
BRANCH   1  24
ATOM     24  C   UNL A   1      33.303  30.592  27.285  1.00  0.00     0.002 C 
BRANCH  24  25
ATOM     25  C   UNL A   1      34.406  31.380  28.003  1.00  0.00     0.021 C 
BRANCH  25  26
ATOM     26  C   UNL A   1      35.559  30.534  28.540  1.00  0.00     0.116 C 
BRANCH  26  27
ATOM     27  N   UNL A   1      35.610  30.558  29.993  1.00  0.00    -0.352 N 
ATOM     28  C   UNL A   1      36.606  30.132  30.834  1.00  0.00     0.251 C 
ATOM     29  H   UNL A   1      34.815  30.932  30.437  1.00  0.00     0.163 HD
ATOM     30  O   UNL A   1      36.367  29.962  32.030  1.00  0.00    -0.269 OA
BRANCH  28  31
ATOM     31  C   UNL A   1      37.962  29.879  30.307  1.00  0.00     0.039 A 
ATOM     32  C   UNL A   1      38.966  29.440  31.174  1.00  0.00     0.014 A 
ATOM     33  C   UNL A   1      38.251  30.112  28.958  1.00  0.00     0.014 A 
ATOM     34  C   UNL A   1      40.248  29.187  30.680  1.00  0.00     0.010 A 
ATOM     35  C   UNL A   1      39.510  29.795  28.456  1.00  0.00     0.010 A 
ATOM     36  C   UNL A   1      40.524  29.340  29.312  1.00  0.00    -0.014 A 
BRANCH  36  37
ATOM     37  C   UNL A   1      41.870  29.060  28.751  1.00  0.00     0.031 A 
ATOM     38  C   UNL A   1      42.201  27.676  28.257  1.00  0.00     0.074 A 
ATOM     39  C   UNL A   1      42.815  30.022  28.757  1.00  0.00     0.049 A 
ATOM     40  N   UNL A   1      43.344  27.201  27.838  1.00  0.00    -0.248 NA
ATOM     41  C   UNL A   1      41.106  26.691  28.261  1.00  0.00     0.031 C 
ATOM     42  C   UNL A   1      42.625  31.394  29.232  1.00  0.00     0.029 A 
ATOM     43  N   UNL A   1      44.129  29.986  28.363  1.00  0.00    -0.354 N 
ATOM     44  C   UNL A   1      43.114  25.859  27.553  1.00  0.00     0.074 A 
ATOM     45  C   UNL A   1      41.734  25.586  27.887  1.00  0.00     0.031 C 
ATOM     46  C   UNL A   1      43.776  32.072  29.088  1.00  0.00     0.029 A 
ATOM     47  C   UNL A   1      44.795  31.174  28.553  1.00  0.00     0.049 A 
ATOM     48  H   UNL A   1      44.555  29.185  27.981  1.00  0.00     0.167 HD
ATOM     49  C   UNL A   1      43.970  24.941  27.044  1.00  0.00     0.031 A 
ATOM     50  C   UNL A   1      46.084  31.501  28.334  1.00  0.00     0.031 A 
ATOM     51  C   UNL A   1      45.338  25.222  26.699  1.00  0.00     0.049 A 
ATOM     52  C   UNL A   1      47.019  30.461  27.779  1.00  0.00     0.074 A 
ATOM     53  C   UNL A   1      46.274  24.374  26.131  1.00  0.00     0.029 A 
ATOM     54  N   UNL A   1      45.967  26.444  26.887  1.00  0.00    -0.354 N 
ATOM     55  N   UNL A   1      46.770  29.211  27.468  1.00  0.00    -0.248 NA
ATOM     56  C   UNL A   1      48.408  30.877  27.533  1.00  0.00     0.031 C 
ATOM     57  C   UNL A   1      47.481  25.071  26.019  1.00  0.00     0.029 A 
ATOM     58  C   UNL A   1      47.281  26.369  26.461  1.00  0.00     0.049 A 
ATOM     59  H   UNL A   1      45.540  27.245  27.268  1.00  0.00     0.167 HD
ATOM     60  C   UNL A   1      47.959  28.703  26.956  1.00  0.00     0.074 A 
ATOM     61  C   UNL A   1      48.925  29.781  26.995  1.00  0.00     0.031 C 
ATOM     62  C   UNL A   1      48.225  27.457  26.493  1.00  0.00     0.031 A 
BRANCH  49  63
ATOM     63  C   UNL A   1      43.451  23.544  26.830  1.00  0.00    -0.014 A 
ATOM     64  C   UNL A   1      43.069  23.098  25.551  1.00  0.00     0.010 A 
ATOM     65  C   UNL A   1      43.381  22.649  27.914  1.00  0.00     0.010 A 
ATOM     66  C   UNL A   1      42.590  21.799  25.367  1.00  0.00     0.020 A 
ATOM     67  C   UNL A   1      42.931  21.338  27.728  1.00  0.00     0.020 A 
ATOM     68  C   UNL A   1      42.523  20.927  26.458  1.00  0.00     0.054 A 
BRANCH  68  69
ATOM     69  S   UNL A   1      41.923  19.237  26.183  1.00  0.00     0.124 S 
ATOM     70  O   UNL A   1      42.810  18.772  25.120  1.00  0.00    -0.237 OA
ATOM     71  O   UNL A   1      42.123  18.610  27.486  1.00  0.00    -0.237 OA
ATOM     72  O   UNL A   1      40.527  19.423  25.792  1.00  0.00    -0.744 OA
ENDBRANCH  68  69
ENDBRANCH  49  63
BRANCH  50  73
ATOM     73  C   UNL A   1      46.564  32.877  28.632  1.00  0.00    -0.014 A 
ATOM     74  C   UNL A   1      46.468  33.892  27.664  1.00  0.00     0.010 A 
ATOM     75  C   UNL A   1      47.115  33.185  29.890  1.00  0.00     0.010 A 
ATOM     76  C   UNL A   1      46.932  35.182  27.939  1.00  0.00     0.020 A 
ATOM     77  C   UNL A   1      47.555  34.480  30.179  1.00  0.00     0.020 A 
ATOM     78  C   UNL A   1      47.473  35.468  29.195  1.00  0.00     0.054 A 
BRANCH  78  79
ATOM     79  S   UNL A   1      48.027  37.159  29.546  1.00  0.00     0.124 S 
ATOM     80  O   UNL A   1      47.923  37.791  28.234  1.00  0.00    -0.237 OA
ATOM     81  O   UNL A   1      47.061  37.610  30.545  1.00  0.00    -0.237 OA
ATOM     82  O   UNL A   1      49.388  36.975  30.046  1.00  0.00    -0.744 OA
ENDBRANCH  78  79
ENDBRANCH  50  73
BRANCH  62  83
ATOM     83  C   UNL A   1      49.599  27.198  25.935  1.00  0.00    -0.014 A 
ATOM     84  C   UNL A   1      50.611  26.619  26.719  1.00  0.00     0.010 A 
ATOM     85  C   UNL A   1      49.851  27.467  24.577  1.00  0.00     0.010 A 
ATOM     86  C   UNL A   1      51.859  26.332  26.159  1.00  0.00     0.020 A 
ATOM     87  C   UNL A   1      51.088  27.157  24.007  1.00  0.00     0.020 A 
ATOM     88  C   UNL A   1      52.087  26.599  24.805  1.00  0.00     0.054 A 
BRANCH  88  89
ATOM     89  S   UNL A   1      53.693  26.158  24.086  1.00  0.00     0.124 S 
ATOM     90  O   UNL A   1      53.374  26.062  22.664  1.00  0.00    -0.237 OA
ATOM     91  O   UNL A   1      54.537  27.289  24.466  1.00  0.00    -0.237 OA
ATOM     92  O   UNL A   1      54.028  24.892  24.735  1.00  0.00    -0.744 OA
ENDBRANCH  88  89
ENDBRANCH  62  83
ENDBRANCH  36  37
ENDBRANCH  28  31
ENDBRANCH  26  27
ENDBRANCH  25  26
ENDBRANCH  24  25
ENDBRANCH   1  24
TORSDOF 19
ENDMDL
MODEL 3
REMARK VINA RESULT:     -10.4      6.282     12.122
REMARK SMILES CC(=O)N1CCC[C@@H](Cc2nccnc2C(=O)NCCCCCCNC(=O)c2ccc(-c3c4nc(c(-c5ccc(S(=O)(=O)[O-])cc5)c5ccc([nH]5)c(-c5ccc(S(=O)(=O)[O-])cc5)c5nc(c(-c6ccc(S(=O)(=O)[O-])cc6)c6ccc3[nH]6)C=C5)C=C4)cc2)C1
REMARK SMILES IDX 21 1 20 2 19 3 18 4 16 5 17 6 15 8 10 9 11 10 12 11 14 12
REMARK SMILES IDX 13 13 9 14 8 15 4 16 5 17 88 18 6 19 7 20 2 21 1 22 3 23
REMARK SMILES IDX 22 24 23 25 24 26 25 27 26 28 27 30 28 31 29 32 87 33 30 34
REMARK SMILES IDX 86 35 31 36 32 37 33 38 80 39 34 40 85 41 79 42 81 43 35 44
REMARK SMILES IDX 84 45 78 46 77 47 36 49 66 50 47 51 65 52 48 53 51 54 64 55
REMARK SMILES IDX 82 56 49 57 50 58 63 60 83 61 52 62 37 63 38 64 46 65 39 66
REMARK SMILES IDX 45 67 40 68 41 69 42 70 43 71 44 72 67 73 68 74 76 75 69 76
REMARK SMILES IDX 75 77 70 78 71 79 72 80 73 81 74 82 53 83 54 84 62 85 55 86
REMARK SMILES IDX 61 87 56 88 57 89 58 90 59 91 60 92
REMARK H PARENT 18 7 25 29 81 48 51 59
REMARK Flexibility Score: inf
ROOT
ATOM      1  C   UNL A   1      40.081  22.257  27.296  1.00  0.00     0.002 C 
ENDROOT
BRANCH   1   2
ATOM      2  C   UNL A   1      39.397  21.808  26.007  1.00  0.00     0.021 C 
BRANCH   2   3
ATOM      3  C   UNL A   1      37.886  22.107  25.937  1.00  0.00     0.116 C 
BRANCH   3   4
ATOM      4  N   UNL A   1      37.519  22.439  24.568  1.00  0.00    -0.351 N 
ATOM      5  C   UNL A   1      36.429  22.908  23.880  1.00  0.00     0.271 C 
ATOM      6  O   UNL A   1      36.618  22.938  22.653  1.00  0.00    -0.267 OA
ATOM      7  H   UNL A   1      38.275  22.281  23.958  1.00  0.00     0.163 HD
BRANCH   5   8
ATOM      8  C   UNL A   1      35.094  23.423  24.387  1.00  0.00     0.149 A 
ATOM      9  C   UNL A   1      34.033  22.755  25.020  1.00  0.00     0.072 A 
ATOM     10  N   UNL A   1      32.853  23.388  25.304  1.00  0.00    -0.257 NA
ATOM     11  C   UNL A   1      32.724  24.669  24.903  1.00  0.00     0.131 A 
ATOM     12  N   UNL A   1      34.926  24.736  24.014  1.00  0.00    -0.248 NA
ATOM     13  C   UNL A   1      33.744  25.329  24.265  1.00  0.00     0.132 A 
BRANCH   9  14
ATOM     14  C   UNL A   1      34.054  21.342  25.492  1.00  0.00     0.064 C 
BRANCH  14  15
ATOM     15  C   UNL A   1      33.705  20.196  24.538  1.00  0.00     0.015 C 
ATOM     16  N   UNL A   1      33.270  17.835  24.124  1.00  0.00    -0.343 N 
ATOM     17  C   UNL A   1      32.177  18.119  23.195  1.00  0.00     0.119 C 
ATOM     18  C   UNL A   1      33.462  18.828  25.189  1.00  0.00     0.123 C 
ATOM     19  C   UNL A   1      32.350  19.487  22.544  1.00  0.00     0.022 C 
ATOM     20  C   UNL A   1      32.543  20.571  23.603  1.00  0.00     0.007 C 
BRANCH  16  21
ATOM     21  C   UNL A   1      34.085  16.739  23.887  1.00  0.00     0.219 C 
ATOM     22  C   UNL A   1      34.779  16.120  25.074  1.00  0.00     0.114 C 
ATOM     23  O   UNL A   1      34.233  16.256  22.764  1.00  0.00    -0.275 OA
ENDBRANCH  16  21
ENDBRANCH  14  15
ENDBRANCH   9  14
ENDBRANCH   5   8
ENDBRANCH   3   4
ENDBRANCH   2   3
ENDBRANCH   1   2
BRANCH   1  24
ATOM     24  C   UNL A   1      41.268  21.382  27.709  1.00  0.00     0.002 C 
BRANCH  24  25
ATOM     25  C   UNL A   1      42.652  21.955  27.383  1.00  0.00     0.021 C 
BRANCH  25  26
ATOM     26  C   UNL A   1      42.769  23.473  27.507  1.00  0.00     0.116 C 
BRANCH  26  27
ATOM     27  N   UNL A   1      42.348  24.144  26.287  1.00  0.00    -0.352 N 
ATOM     28  C   UNL A   1      41.660  25.320  26.136  1.00  0.00     0.251 C 
ATOM     29  H   UNL A   1      42.591  23.687  25.449  1.00  0.00     0.163 HD
ATOM     30  O   UNL A   1      41.141  25.592  25.053  1.00  0.00    -0.269 OA
BRANCH  28  31
ATOM     31  C   UNL A   1      41.543  26.259  27.269  1.00  0.00     0.039 A 
ATOM     32  C   UNL A   1      42.427  27.338  27.362  1.00  0.00     0.014 A 
ATOM     33  C   UNL A   1      40.580  26.052  28.262  1.00  0.00     0.014 A 
ATOM     34  C   UNL A   1      42.313  28.238  28.426  1.00  0.00     0.010 A 
ATOM     35  C   UNL A   1      40.426  26.987  29.283  1.00  0.00     0.010 A 
ATOM     36  C   UNL A   1      41.297  28.082  29.381  1.00  0.00    -0.014 A 
BRANCH  36  37
ATOM     37  C   UNL A   1      41.136  29.032  30.512  1.00  0.00     0.031 A 
ATOM     38  C   UNL A   1      42.020  28.906  31.725  1.00  0.00     0.074 A 
ATOM     39  C   UNL A   1      40.151  29.952  30.483  1.00  0.00     0.049 A 
ATOM     40  N   UNL A   1      41.967  29.559  32.856  1.00  0.00    -0.248 NA
ATOM     41  C   UNL A   1      43.087  27.893  31.666  1.00  0.00     0.031 C 
ATOM     42  C   UNL A   1      39.214  30.157  29.376  1.00  0.00     0.029 A 
ATOM     43  N   UNL A   1      39.767  30.879  31.419  1.00  0.00    -0.354 N 
ATOM     44  C   UNL A   1      42.973  29.022  33.651  1.00  0.00     0.074 A 
ATOM     45  C   UNL A   1      43.592  27.960  32.889  1.00  0.00     0.031 C 
ATOM     46  C   UNL A   1      38.374  31.156  29.691  1.00  0.00     0.029 A 
ATOM     47  C   UNL A   1      38.682  31.633  31.037  1.00  0.00     0.049 A 
ATOM     48  H   UNL A   1      40.224  30.994  32.283  1.00  0.00     0.167 HD
ATOM     49  C   UNL A   1      43.358  29.388  34.896  1.00  0.00     0.031 A 
ATOM     50  C   UNL A   1      38.002  32.590  31.699  1.00  0.00     0.031 A 
ATOM     51  C   UNL A   1      42.749  30.455  35.644  1.00  0.00     0.049 A 
ATOM     52  C   UNL A   1      38.441  32.973  33.086  1.00  0.00     0.074 A 
ATOM     53  C   UNL A   1      43.096  30.937  36.894  1.00  0.00     0.029 A 
ATOM     54  N   UNL A   1      41.666  31.207  35.212  1.00  0.00    -0.354 N 
ATOM     55  N   UNL A   1      39.428  32.487  33.801  1.00  0.00    -0.248 NA
ATOM     56  C   UNL A   1      37.683  34.042  33.753  1.00  0.00     0.031 C 
ATOM     57  C   UNL A   1      42.195  31.951  37.236  1.00  0.00     0.029 A 
ATOM     58  C   UNL A   1      41.323  32.139  36.175  1.00  0.00     0.049 A 
ATOM     59  H   UNL A   1      41.210  31.093  34.347  1.00  0.00     0.167 HD
ATOM     60  C   UNL A   1      39.431  33.215  34.986  1.00  0.00     0.074 A 
ATOM     61  C   UNL A   1      38.353  34.177  34.889  1.00  0.00     0.031 C 
ATOM     62  C   UNL A   1      40.256  33.100  36.055  1.00  0.00     0.031 A 
BRANCH  49  63
ATOM     63  C   UNL A   1      44.492  28.627  35.531  1.00  0.00    -0.014 A 
ATOM     64  C   UNL A   1      45.830  29.015  35.329  1.00  0.00     0.010 A 
ATOM     65  C   UNL A   1      44.218  27.535  36.373  1.00  0.00     0.010 A 
ATOM     66  C   UNL A   1      46.872  28.300  35.924  1.00  0.00     0.020 A 
ATOM     67  C   UNL A   1      45.257  26.835  36.996  1.00  0.00     0.020 A 
ATOM     68  C   UNL A   1      46.579  27.213  36.753  1.00  0.00     0.054 A 
BRANCH  68  69
ATOM     69  S   UNL A   1      47.952  26.322  37.535  1.00  0.00     0.124 S 
ATOM     70  O   UNL A   1      48.068  25.141  36.683  1.00  0.00    -0.237 OA
ATOM     71  O   UNL A   1      49.053  27.277  37.435  1.00  0.00    -0.237 OA
ATOM     72  O   UNL A   1      47.474  26.067  38.891  1.00  0.00    -0.744 OA
ENDBRANCH  68  69
ENDBRANCH  49  63
BRANCH  50  73
ATOM     73  C   UNL A   1      36.841  33.261  31.053  1.00  0.00    -0.014 A 
ATOM     74  C   UNL A   1      35.595  33.311  31.702  1.00  0.00     0.010 A 
ATOM     75  C   UNL A   1      36.976  33.860  29.787  1.00  0.00     0.010 A 
ATOM     76  C   UNL A   1      34.500  33.928  31.089  1.00  0.00     0.020 A 
ATOM     77  C   UNL A   1      35.891  34.502  29.183  1.00  0.00     0.020 A 
ATOM     78  C   UNL A   1      34.656  34.521  29.833  1.00  0.00     0.054 A 
BRANCH  78  79
ATOM     79  S   UNL A   1      33.234  35.356  29.076  1.00  0.00     0.124 S 
ATOM     80  O   UNL A   1      32.417  35.681  30.241  1.00  0.00    -0.237 OA
ATOM     81  O   UNL A   1      33.856  36.492  28.400  1.00  0.00    -0.237 OA
ATOM     82  O   UNL A   1      32.677  34.340  28.184  1.00  0.00    -0.744 OA
ENDBRANCH  78  79
ENDBRANCH  50  73
BRANCH  62  83
ATOM     83  C   UNL A   1      40.069  34.071  37.190  1.00  0.00    -0.014 A 
ATOM     84  C   UNL A   1      40.888  35.206  37.325  1.00  0.00     0.010 A 
ATOM     85  C   UNL A   1      39.004  33.881  38.088  1.00  0.00     0.010 A 
ATOM     86  C   UNL A   1      40.654  36.124  38.353  1.00  0.00     0.020 A 
ATOM     87  C   UNL A   1      38.750  34.810  39.100  1.00  0.00     0.020 A 
ATOM     88  C   UNL A   1      39.583  35.922  39.231  1.00  0.00     0.054 A 
BRANCH  88  89
ATOM     89  S   UNL A   1      39.261  37.162  40.515  1.00  0.00     0.124 S 
ATOM     90  O   UNL A   1      38.149  37.914  39.940  1.00  0.00    -0.237 OA
ATOM     91  O   UNL A   1      38.929  36.341  41.677  1.00  0.00    -0.237 OA
ATOM     92  O   UNL A   1      40.522  37.893  40.616  1.00  0.00    -0.744 OA
ENDBRANCH  88  89
ENDBRANCH  62  83
ENDBRANCH  36  37
ENDBRANCH  28  31
ENDBRANCH  26  27
ENDBRANCH  25  26
ENDBRANCH  24  25
ENDBRANCH   1  24
TORSDOF 19
ENDMDL
