MODEL 1
REMARK VINA RESULT:      -9.8      0.000      0.000
REMARK SMILES O=C(Cc1cccnc1Cl)NCCCCCCNC(=O)c1ccc(-c2c3nc(c(-c4ccc(S(=O)(=O)[O-])cc4)c4ccc([nH]4)c(-c4ccc(S(=O)(=O)[O-])cc4)c4nc(c(-c5ccc(S(=O)(=O)[O-])cc5)c5ccc2[nH]5)C=C4)C=C3)cc1
REMARK SMILES IDX 15 1 14 2 13 3 12 4 11 5 1 6 2 7 3 9 4 10 5 11 9 12 6 13
REMARK SMILES IDX 8 14 10 15 7 16 16 17 17 18 18 19 19 20 20 22 21 23 22 24
REMARK SMILES IDX 80 25 23 26 79 27 24 28 25 29 26 30 73 31 27 32 78 33 72 34
REMARK SMILES IDX 74 35 28 36 77 37 71 38 70 39 29 41 59 42 40 43 58 44 41 45
REMARK SMILES IDX 44 46 57 47 75 48 42 49 43 50 56 52 76 53 45 54 30 55 31 56
REMARK SMILES IDX 39 57 32 58 38 59 33 60 34 61 35 62 36 63 37 64 60 65 61 66
REMARK SMILES IDX 69 67 62 68 68 69 63 70 64 71 65 72 66 73 67 74 46 75 47 76
REMARK SMILES IDX 55 77 48 78 54 79 49 80 50 81 51 82 52 83 53 84
REMARK H PARENT 11 8 18 21 74 40 44 51
REMARK Flexibility Score: inf
ROOT
ATOM      1  C   UNL A   1      31.402  28.417  25.835  1.00  0.00     0.002 C 
ENDROOT
BRANCH   1   2
ATOM      2  C   UNL A   1      31.501  27.927  24.388  1.00  0.00     0.002 C 
BRANCH   2   3
ATOM      3  C   UNL A   1      32.836  28.205  23.682  1.00  0.00     0.021 C 
BRANCH   3   4
ATOM      4  C   UNL A   1      33.500  26.987  23.042  1.00  0.00     0.116 C 
BRANCH   4   5
ATOM      5  N   UNL A   1      33.587  25.874  23.965  1.00  0.00    -0.356 N 
ATOM      6  O   UNL A   1      34.330  24.324  22.432  1.00  0.00    -0.275 OA
ATOM      7  C   UNL A   1      34.048  24.632  23.585  1.00  0.00     0.224 C 
ATOM      8  H   UNL A   1      33.307  26.009  24.899  1.00  0.00     0.163 HD
BRANCH   7   9
ATOM      9  C   UNL A   1      34.134  23.650  24.729  1.00  0.00     0.138 C 
BRANCH   9  10
ATOM     10  C   UNL A   1      35.482  23.112  25.152  1.00  0.00    -0.001 A 
ATOM     11  C   UNL A   1      36.456  24.084  25.456  1.00  0.00     0.009 A 
ATOM     12  C   UNL A   1      35.912  21.788  25.219  1.00  0.00     0.132 A 
ATOM     13  C   UNL A   1      37.759  23.720  25.786  1.00  0.00     0.020 A 
ATOM     14  N   UNL A   1      37.178  21.412  25.523  1.00  0.00    -0.244 NA
ATOM     15  Cl  UNL A   1      34.951  20.400  24.916  1.00  0.00    -0.062 Cl
ATOM     16  C   UNL A   1      38.070  22.378  25.798  1.00  0.00     0.113 A 
ENDBRANCH   9  10
ENDBRANCH   7   9
ENDBRANCH   4   5
ENDBRANCH   3   4
ENDBRANCH   2   3
ENDBRANCH   1   2
BRANCH   1  17
ATOM     17  C   UNL A   1      32.280  27.668  26.839  1.00  0.00     0.021 C 
BRANCH  17  18
ATOM     18  C   UNL A   1      33.630  28.316  27.126  1.00  0.00     0.116 C 
BRANCH  18  19
ATOM     19  N   UNL A   1      33.517  29.718  27.495  1.00  0.00    -0.352 N 
ATOM     20  C   UNL A   1      34.442  30.525  28.113  1.00  0.00     0.251 C 
ATOM     21  H   UNL A   1      32.659  30.148  27.273  1.00  0.00     0.163 HD
ATOM     22  O   UNL A   1      34.127  31.653  28.483  1.00  0.00    -0.269 OA
BRANCH  20  23
ATOM     23  C   UNL A   1      35.810  30.017  28.356  1.00  0.00     0.039 A 
ATOM     24  C   UNL A   1      36.744  30.061  27.317  1.00  0.00     0.014 A 
ATOM     25  C   UNL A   1      36.177  29.516  29.608  1.00  0.00     0.014 A 
ATOM     26  C   UNL A   1      38.062  29.663  27.554  1.00  0.00     0.010 A 
ATOM     27  C   UNL A   1      37.507  29.193  29.863  1.00  0.00     0.010 A 
ATOM     28  C   UNL A   1      38.464  29.260  28.839  1.00  0.00    -0.014 A 
BRANCH  28  29
ATOM     29  C   UNL A   1      39.877  28.904  29.132  1.00  0.00     0.031 A 
ATOM     30  C   UNL A   1      40.804  29.924  29.738  1.00  0.00     0.074 A 
ATOM     31  C   UNL A   1      40.345  27.684  28.794  1.00  0.00     0.049 A 
ATOM     32  N   UNL A   1      42.082  29.824  30.004  1.00  0.00    -0.248 NA
ATOM     33  C   UNL A   1      40.225  31.238  30.065  1.00  0.00     0.031 C 
ATOM     34  C   UNL A   1      39.559  26.617  28.168  1.00  0.00     0.029 A 
ATOM     35  N   UNL A   1      41.598  27.138  28.924  1.00  0.00    -0.354 N 
ATOM     36  C   UNL A   1      42.461  31.060  30.513  1.00  0.00     0.074 A 
ATOM     37  C   UNL A   1      41.292  31.911  30.470  1.00  0.00     0.031 C 
ATOM     38  C   UNL A   1      40.342  25.540  27.994  1.00  0.00     0.029 A 
ATOM     39  C   UNL A   1      41.693  25.850  28.450  1.00  0.00     0.049 A 
ATOM     40  H   UNL A   1      42.359  27.623  29.319  1.00  0.00     0.167 HD
ATOM     41  C   UNL A   1      43.668  31.448  30.991  1.00  0.00     0.031 A 
ATOM     42  C   UNL A   1      42.749  25.015  28.378  1.00  0.00     0.031 A 
ATOM     43  C   UNL A   1      44.826  30.596  31.039  1.00  0.00     0.049 A 
ATOM     44  C   UNL A   1      44.085  25.476  28.896  1.00  0.00     0.074 A 
ATOM     45  C   UNL A   1      46.079  30.880  31.554  1.00  0.00     0.029 A 
ATOM     46  N   UNL A   1      44.878  29.298  30.555  1.00  0.00    -0.354 N 
ATOM     47  N   UNL A   1      44.407  26.630  29.433  1.00  0.00    -0.248 NA
ATOM     48  C   UNL A   1      45.198  24.521  28.808  1.00  0.00     0.031 C 
ATOM     49  C   UNL A   1      46.905  29.775  31.326  1.00  0.00     0.029 A 
ATOM     50  C   UNL A   1      46.148  28.776  30.735  1.00  0.00     0.049 A 
ATOM     51  H   UNL A   1      44.122  28.818  30.145  1.00  0.00     0.167 HD
ATOM     52  C   UNL A   1      45.750  26.524  29.779  1.00  0.00     0.074 A 
ATOM     53  C   UNL A   1      46.175  25.191  29.401  1.00  0.00     0.031 C 
ATOM     54  C   UNL A   1      46.557  27.447  30.359  1.00  0.00     0.031 A 
BRANCH  41  55
ATOM     55  C   UNL A   1      43.799  32.863  31.494  1.00  0.00    -0.014 A 
ATOM     56  C   UNL A   1      44.153  33.914  30.629  1.00  0.00     0.010 A 
ATOM     57  C   UNL A   1      43.520  33.153  32.842  1.00  0.00     0.010 A 
ATOM     58  C   UNL A   1      44.262  35.222  31.109  1.00  0.00     0.020 A 
ATOM     59  C   UNL A   1      43.597  34.465  33.320  1.00  0.00     0.020 A 
ATOM     60  C   UNL A   1      43.984  35.489  32.454  1.00  0.00     0.054 A 
BRANCH  60  61
ATOM     61  S   UNL A   1      44.106  37.200  33.041  1.00  0.00     0.124 S 
ATOM     62  O   UNL A   1      45.336  37.161  33.829  1.00  0.00    -0.237 OA
ATOM     63  O   UNL A   1      44.183  37.961  31.797  1.00  0.00    -0.237 OA
ATOM     64  O   UNL A   1      42.880  37.393  33.812  1.00  0.00    -0.744 OA
ENDBRANCH  60  61
ENDBRANCH  41  55
BRANCH  42  65
ATOM     65  C   UNL A   1      42.585  23.652  27.800  1.00  0.00    -0.014 A 
ATOM     66  C   UNL A   1      41.938  22.638  28.530  1.00  0.00     0.010 A 
ATOM     67  C   UNL A   1      43.075  23.359  26.515  1.00  0.00     0.010 A 
ATOM     68  C   UNL A   1      41.808  21.353  27.996  1.00  0.00     0.020 A 
ATOM     69  C   UNL A   1      42.919  22.083  25.965  1.00  0.00     0.020 A 
ATOM     70  C   UNL A   1      42.298  21.084  26.715  1.00  0.00     0.054 A 
BRANCH  70  71
ATOM     71  S   UNL A   1      42.081  19.418  26.027  1.00  0.00     0.124 S 
ATOM     72  O   UNL A   1      40.633  19.348  25.854  1.00  0.00    -0.237 OA
ATOM     73  O   UNL A   1      42.863  19.482  24.796  1.00  0.00    -0.237 OA
ATOM     74  O   UNL A   1      42.631  18.547  27.063  1.00  0.00    -0.744 OA
ENDBRANCH  70  71
ENDBRANCH  42  65
BRANCH  54  75
ATOM     75  C   UNL A   1      47.975  27.038  30.669  1.00  0.00    -0.014 A 
ATOM     76  C   UNL A   1      49.047  27.430  29.849  1.00  0.00     0.010 A 
ATOM     77  C   UNL A   1      48.240  26.298  31.837  1.00  0.00     0.010 A 
ATOM     78  C   UNL A   1      50.357  27.065  30.177  1.00  0.00     0.020 A 
ATOM     79  C   UNL A   1      49.549  25.959  32.184  1.00  0.00     0.020 A 
ATOM     80  C   UNL A   1      50.599  26.332  31.344  1.00  0.00     0.054 A 
BRANCH  80  81
ATOM     81  S   UNL A   1      52.311  25.914  31.773  1.00  0.00     0.124 S 
ATOM     82  O   UNL A   1      52.986  26.040  30.484  1.00  0.00    -0.237 OA
ATOM     83  O   UNL A   1      52.651  26.933  32.762  1.00  0.00    -0.237 OA
ATOM     84  O   UNL A   1      52.216  24.553  32.295  1.00  0.00    -0.744 OA
ENDBRANCH  80  81
ENDBRANCH  54  75
ENDBRANCH  28  29
ENDBRANCH  20  23
ENDBRANCH  18  19
ENDBRANCH  17  18
ENDBRANCH   1  17
TORSDOF 17
ENDMDL
MODEL 2
REMARK VINA RESULT:      -9.7      2.242      3.868
REMARK SMILES O=C(Cc1cccnc1Cl)NCCCCCCNC(=O)c1ccc(-c2c3nc(c(-c4ccc(S(=O)(=O)[O-])cc4)c4ccc([nH]4)c(-c4ccc(S(=O)(=O)[O-])cc4)c4nc(c(-c5ccc(S(=O)(=O)[O-])cc5)c5ccc2[nH]5)C=C4)C=C3)cc1
REMARK SMILES IDX 15 1 14 2 13 3 12 4 11 5 1 6 2 7 3 9 4 10 5 11 9 12 6 13
REMARK SMILES IDX 8 14 10 15 7 16 16 17 17 18 18 19 19 20 20 22 21 23 22 24
REMARK SMILES IDX 80 25 23 26 79 27 24 28 25 29 26 30 73 31 27 32 78 33 72 34
REMARK SMILES IDX 74 35 28 36 77 37 71 38 70 39 29 41 59 42 40 43 58 44 41 45
REMARK SMILES IDX 44 46 57 47 75 48 42 49 43 50 56 52 76 53 45 54 30 55 31 56
REMARK SMILES IDX 39 57 32 58 38 59 33 60 34 61 35 62 36 63 37 64 60 65 61 66
REMARK SMILES IDX 69 67 62 68 68 69 63 70 64 71 65 72 66 73 67 74 46 75 47 76
REMARK SMILES IDX 55 77 48 78 54 79 49 80 50 81 51 82 52 83 53 84
REMARK H PARENT 11 8 18 21 74 40 44 51
REMARK Flexibility Score: inf
ROOT
ATOM      1  C   UNL A   1      33.933  28.172  24.894  1.00  0.00     0.002 C 
ENDROOT
BRANCH   1   2
ATOM      2  C   UNL A   1      33.366  28.970  23.717  1.00  0.00     0.002 C 
BRANCH   2   3
ATOM      3  C   UNL A   1      33.341  28.236  22.368  1.00  0.00     0.021 C 
BRANCH   3   4
ATOM      4  C   UNL A   1      32.317  27.107  22.260  1.00  0.00     0.116 C 
BRANCH   4   5
ATOM      5  N   UNL A   1      30.963  27.613  22.174  1.00  0.00    -0.356 N 
ATOM      6  O   UNL A   1      30.323  27.008  24.302  1.00  0.00    -0.275 OA
ATOM      7  C   UNL A   1      30.085  27.563  23.234  1.00  0.00     0.224 C 
ATOM      8  H   UNL A   1      30.658  28.009  21.325  1.00  0.00     0.163 HD
BRANCH   7   9
ATOM      9  C   UNL A   1      28.759  28.226  22.945  1.00  0.00     0.138 C 
BRANCH   9  10
ATOM     10  C   UNL A   1      28.713  29.708  22.651  1.00  0.00    -0.001 A 
ATOM     11  C   UNL A   1      27.955  30.080  21.523  1.00  0.00     0.009 A 
ATOM     12  C   UNL A   1      29.373  30.749  23.302  1.00  0.00     0.132 A 
ATOM     13  C   UNL A   1      27.894  31.405  21.101  1.00  0.00     0.020 A 
ATOM     14  N   UNL A   1      29.340  32.043  22.900  1.00  0.00    -0.244 NA
ATOM     15  Cl  UNL A   1      30.355  30.601  24.701  1.00  0.00    -0.062 Cl
ATOM     16  C   UNL A   1      28.606  32.344  21.815  1.00  0.00     0.113 A 
ENDBRANCH   9  10
ENDBRANCH   7   9
ENDBRANCH   4   5
ENDBRANCH   3   4
ENDBRANCH   2   3
ENDBRANCH   1   2
BRANCH   1  17
ATOM     17  C   UNL A   1      32.974  27.971  26.068  1.00  0.00     0.021 C 
BRANCH  17  18
ATOM     18  C   UNL A   1      33.514  28.402  27.426  1.00  0.00     0.116 C 
BRANCH  18  19
ATOM     19  N   UNL A   1      33.461  29.842  27.624  1.00  0.00    -0.352 N 
ATOM     20  C   UNL A   1      34.432  30.683  28.111  1.00  0.00     0.251 C 
ATOM     21  H   UNL A   1      32.611  30.274  27.376  1.00  0.00     0.163 HD
ATOM     22  O   UNL A   1      34.168  31.859  28.349  1.00  0.00    -0.269 OA
BRANCH  20  23
ATOM     23  C   UNL A   1      35.790  30.158  28.374  1.00  0.00     0.039 A 
ATOM     24  C   UNL A   1      36.723  30.141  27.334  1.00  0.00     0.014 A 
ATOM     25  C   UNL A   1      36.148  29.701  29.646  1.00  0.00     0.014 A 
ATOM     26  C   UNL A   1      38.034  29.726  27.587  1.00  0.00     0.010 A 
ATOM     27  C   UNL A   1      37.472  29.362  29.913  1.00  0.00     0.010 A 
ATOM     28  C   UNL A   1      38.429  29.367  28.887  1.00  0.00    -0.014 A 
BRANCH  28  29
ATOM     29  C   UNL A   1      39.835  28.995  29.194  1.00  0.00     0.031 A 
ATOM     30  C   UNL A   1      40.764  30.001  29.818  1.00  0.00     0.074 A 
ATOM     31  C   UNL A   1      40.294  27.773  28.852  1.00  0.00     0.049 A 
ATOM     32  N   UNL A   1      42.038  29.886  30.099  1.00  0.00    -0.248 NA
ATOM     33  C   UNL A   1      40.195  31.318  30.149  1.00  0.00     0.031 C 
ATOM     34  C   UNL A   1      39.506  26.719  28.209  1.00  0.00     0.029 A 
ATOM     35  N   UNL A   1      41.540  27.213  28.992  1.00  0.00    -0.354 N 
ATOM     36  C   UNL A   1      42.423  31.115  30.622  1.00  0.00     0.074 A 
ATOM     37  C   UNL A   1      41.263  31.978  30.571  1.00  0.00     0.031 C 
ATOM     38  C   UNL A   1      40.279  25.635  28.035  1.00  0.00     0.029 A 
ATOM     39  C   UNL A   1      41.628  25.928  28.510  1.00  0.00     0.049 A 
ATOM     40  H   UNL A   1      42.301  27.688  29.400  1.00  0.00     0.167 HD
ATOM     41  C   UNL A   1      43.628  31.487  31.116  1.00  0.00     0.031 A 
ATOM     42  C   UNL A   1      42.676  25.083  28.444  1.00  0.00     0.031 A 
ATOM     43  C   UNL A   1      44.777  30.623  31.172  1.00  0.00     0.049 A 
ATOM     44  C   UNL A   1      44.010  25.527  28.981  1.00  0.00     0.074 A 
ATOM     45  C   UNL A   1      46.027  30.891  31.703  1.00  0.00     0.029 A 
ATOM     46  N   UNL A   1      44.821  29.328  30.678  1.00  0.00    -0.354 N 
ATOM     47  N   UNL A   1      44.338  26.673  29.531  1.00  0.00    -0.248 NA
ATOM     48  C   UNL A   1      45.115  24.562  28.899  1.00  0.00     0.031 C 
ATOM     49  C   UNL A   1      46.844  29.779  31.477  1.00  0.00     0.029 A 
ATOM     50  C   UNL A   1      46.084  28.792  30.869  1.00  0.00     0.049 A 
ATOM     51  H   UNL A   1      44.066  28.859  30.255  1.00  0.00     0.167 HD
ATOM     52  C   UNL A   1      45.675  26.551  29.892  1.00  0.00     0.074 A 
ATOM     53  C   UNL A   1      46.091  25.217  29.509  1.00  0.00     0.031 C 
ATOM     54  C   UNL A   1      46.485  27.462  30.488  1.00  0.00     0.031 A 
BRANCH  41  55
ATOM     55  C   UNL A   1      43.768  32.896  31.632  1.00  0.00    -0.014 A 
ATOM     56  C   UNL A   1      43.597  33.193  32.997  1.00  0.00     0.010 A 
ATOM     57  C   UNL A   1      44.122  33.932  30.749  1.00  0.00     0.010 A 
ATOM     58  C   UNL A   1      43.739  34.503  33.462  1.00  0.00     0.020 A 
ATOM     59  C   UNL A   1      44.296  35.239  31.214  1.00  0.00     0.020 A 
ATOM     60  C   UNL A   1      44.087  35.519  32.565  1.00  0.00     0.054 A 
BRANCH  60  61
ATOM     61  S   UNL A   1      44.292  37.205  33.202  1.00  0.00     0.124 S 
ATOM     62  O   UNL A   1      45.317  37.017  34.226  1.00  0.00    -0.237 OA
ATOM     63  O   UNL A   1      44.718  37.945  32.018  1.00  0.00    -0.237 OA
ATOM     64  O   UNL A   1      42.965  37.550  33.706  1.00  0.00    -0.744 OA
ENDBRANCH  60  61
ENDBRANCH  41  55
BRANCH  42  65
ATOM     65  C   UNL A   1      42.506  23.726  27.854  1.00  0.00    -0.014 A 
ATOM     66  C   UNL A   1      42.096  22.644  28.655  1.00  0.00     0.010 A 
ATOM     67  C   UNL A   1      42.751  23.507  26.486  1.00  0.00     0.010 A 
ATOM     68  C   UNL A   1      41.961  21.366  28.104  1.00  0.00     0.020 A 
ATOM     69  C   UNL A   1      42.587  22.238  25.926  1.00  0.00     0.020 A 
ATOM     70  C   UNL A   1      42.206  21.171  26.742  1.00  0.00     0.054 A 
BRANCH  70  71
ATOM     71  S   UNL A   1      41.985  19.511  26.042  1.00  0.00     0.124 S 
ATOM     72  O   UNL A   1      40.547  19.477  25.791  1.00  0.00    -0.237 OA
ATOM     73  O   UNL A   1      42.834  19.555  24.854  1.00  0.00    -0.237 OA
ATOM     74  O   UNL A   1      42.456  18.627  27.105  1.00  0.00    -0.744 OA
ENDBRANCH  70  71
ENDBRANCH  42  65
BRANCH  54  75
ATOM     75  C   UNL A   1      47.894  27.036  30.811  1.00  0.00    -0.014 A 
ATOM     76  C   UNL A   1      48.945  27.219  29.895  1.00  0.00     0.010 A 
ATOM     77  C   UNL A   1      48.179  26.500  32.081  1.00  0.00     0.010 A 
ATOM     78  C   UNL A   1      50.249  26.846  30.232  1.00  0.00     0.020 A 
ATOM     79  C   UNL A   1      49.485  26.155  32.433  1.00  0.00     0.020 A 
ATOM     80  C   UNL A   1      50.511  26.317  31.501  1.00  0.00     0.054 A 
BRANCH  80  81
ATOM     81  S   UNL A   1      52.220  25.887  31.931  1.00  0.00     0.124 S 
ATOM     82  O   UNL A   1      52.953  26.339  30.752  1.00  0.00    -0.237 OA
ATOM     83  O   UNL A   1      52.447  26.663  33.148  1.00  0.00    -0.237 OA
ATOM     84  O   UNL A   1      52.177  24.439  32.120  1.00  0.00    -0.744 OA
ENDBRANCH  80  81
ENDBRANCH  54  75
ENDBRANCH  28  29
ENDBRANCH  20  23
ENDBRANCH  18  19
ENDBRANCH  17  18
ENDBRANCH   1  17
TORSDOF 17
ENDMDL
MODEL 3
REMARK VINA RESULT:      -9.6      1.551      2.193
REMARK SMILES O=C(Cc1cccnc1Cl)NCCCCCCNC(=O)c1ccc(-c2c3nc(c(-c4ccc(S(=O)(=O)[O-])cc4)c4ccc([nH]4)c(-c4ccc(S(=O)(=O)[O-])cc4)c4nc(c(-c5ccc(S(=O)(=O)[O-])cc5)c5ccc2[nH]5)C=C4)C=C3)cc1
REMARK SMILES IDX 15 1 14 2 13 3 12 4 11 5 1 6 2 7 3 9 4 10 5 11 9 12 6 13
REMARK SMILES IDX 8 14 10 15 7 16 16 17 17 18 18 19 19 20 20 22 21 23 22 24
REMARK SMILES IDX 80 25 23 26 79 27 24 28 25 29 26 30 73 31 27 32 78 33 72 34
REMARK SMILES IDX 74 35 28 36 77 37 71 38 70 39 29 41 59 42 40 43 58 44 41 45
REMARK SMILES IDX 44 46 57 47 75 48 42 49 43 50 56 52 76 53 45 54 30 55 31 56
REMARK SMILES IDX 39 57 32 58 38 59 33 60 34 61 35 62 36 63 37 64 60 65 61 66
REMARK SMILES IDX 69 67 62 68 68 69 63 70 64 71 65 72 66 73 67 74 46 75 47 76
REMARK SMILES IDX 55 77 48 78 54 79 49 80 50 81 51 82 52 83 53 84
REMARK H PARENT 11 8 18 21 74 40 44 51
REMARK Flexibility Score: inf
ROOT
ATOM      1  C   UNL A   1      32.762  28.994  24.692  1.00  0.00     0.002 C 
ENDROOT
BRANCH   1   2
ATOM      2  C   UNL A   1      32.550  28.389  23.302  1.00  0.00     0.002 C 
BRANCH   2   3
ATOM      3  C   UNL A   1      31.285  28.848  22.562  1.00  0.00     0.021 C 
BRANCH   3   4
ATOM      4  C   UNL A   1      30.029  28.026  22.849  1.00  0.00     0.116 C 
BRANCH   4   5
ATOM      5  N   UNL A   1      30.060  27.438  24.172  1.00  0.00    -0.356 N 
ATOM      6  O   UNL A   1      30.042  25.241  23.481  1.00  0.00    -0.275 OA
ATOM      7  C   UNL A   1      30.114  26.077  24.376  1.00  0.00     0.224 C 
ATOM      8  H   UNL A   1      30.043  28.034  24.956  1.00  0.00     0.163 HD
BRANCH   7   9
ATOM      9  C   UNL A   1      30.226  25.694  25.833  1.00  0.00     0.138 C 
BRANCH   9  10
ATOM     10  C   UNL A   1      31.266  24.685  26.263  1.00  0.00    -0.001 A 
ATOM     11  C   UNL A   1      32.605  25.055  26.029  1.00  0.00     0.009 A 
ATOM     12  C   UNL A   1      31.078  23.411  26.796  1.00  0.00     0.132 A 
ATOM     13  C   UNL A   1      33.653  24.183  26.311  1.00  0.00     0.020 A 
ATOM     14  N   UNL A   1      32.082  22.540  27.064  1.00  0.00    -0.244 NA
ATOM     15  Cl  UNL A   1      29.570  22.697  27.194  1.00  0.00    -0.062 Cl
ATOM     16  C   UNL A   1      33.341  22.940  26.817  1.00  0.00     0.113 A 
ENDBRANCH   9  10
ENDBRANCH   7   9
ENDBRANCH   4   5
ENDBRANCH   3   4
ENDBRANCH   2   3
ENDBRANCH   1   2
BRANCH   1  17
ATOM     17  C   UNL A   1      33.889  28.368  25.512  1.00  0.00     0.021 C 
BRANCH  17  18
ATOM     18  C   UNL A   1      33.740  28.499  27.024  1.00  0.00     0.116 C 
BRANCH  18  19
ATOM     19  N   UNL A   1      33.604  29.880  27.460  1.00  0.00    -0.352 N 
ATOM     20  C   UNL A   1      34.503  30.661  28.145  1.00  0.00     0.251 C 
ATOM     21  H   UNL A   1      32.749  30.314  27.235  1.00  0.00     0.163 HD
ATOM     22  O   UNL A   1      34.168  31.767  28.562  1.00  0.00    -0.269 OA
BRANCH  20  23
ATOM     23  C   UNL A   1      35.869  30.152  28.402  1.00  0.00     0.039 A 
ATOM     24  C   UNL A   1      36.832  30.258  27.396  1.00  0.00     0.014 A 
ATOM     25  C   UNL A   1      36.202  29.589  29.637  1.00  0.00     0.014 A 
ATOM     26  C   UNL A   1      38.147  29.858  27.651  1.00  0.00     0.010 A 
ATOM     27  C   UNL A   1      37.527  29.264  29.915  1.00  0.00     0.010 A 
ATOM     28  C   UNL A   1      38.514  29.391  28.925  1.00  0.00    -0.014 A 
BRANCH  28  29
ATOM     29  C   UNL A   1      39.921  29.031  29.241  1.00  0.00     0.031 A 
ATOM     30  C   UNL A   1      40.836  30.045  29.875  1.00  0.00     0.074 A 
ATOM     31  C   UNL A   1      40.394  27.814  28.902  1.00  0.00     0.049 A 
ATOM     32  N   UNL A   1      42.109  29.941  30.164  1.00  0.00    -0.248 NA
ATOM     33  C   UNL A   1      40.252  31.356  30.203  1.00  0.00     0.031 C 
ATOM     34  C   UNL A   1      39.620  26.754  28.251  1.00  0.00     0.029 A 
ATOM     35  N   UNL A   1      41.644  27.266  29.050  1.00  0.00    -0.354 N 
ATOM     36  C   UNL A   1      42.479  31.173  30.692  1.00  0.00     0.074 A 
ATOM     37  C   UNL A   1      41.312  32.025  30.634  1.00  0.00     0.031 C 
ATOM     38  C   UNL A   1      40.404  25.677  28.081  1.00  0.00     0.029 A 
ATOM     39  C   UNL A   1      41.747  25.982  28.566  1.00  0.00     0.049 A 
ATOM     40  H   UNL A   1      42.398  27.746  29.464  1.00  0.00     0.167 HD
ATOM     41  C   UNL A   1      43.677  31.555  31.196  1.00  0.00     0.031 A 
ATOM     42  C   UNL A   1      42.803  25.147  28.507  1.00  0.00     0.031 A 
ATOM     43  C   UNL A   1      44.834  30.701  31.258  1.00  0.00     0.049 A 
ATOM     44  C   UNL A   1      44.129  25.602  29.054  1.00  0.00     0.074 A 
ATOM     45  C   UNL A   1      46.077  30.979  31.799  1.00  0.00     0.029 A 
ATOM     46  N   UNL A   1      44.893  29.407  30.763  1.00  0.00    -0.354 N 
ATOM     47  N   UNL A   1      44.442  26.750  29.608  1.00  0.00    -0.248 NA
ATOM     48  C   UNL A   1      45.243  24.647  28.978  1.00  0.00     0.031 C 
ATOM     49  C   UNL A   1      46.906  29.876  31.577  1.00  0.00     0.029 A 
ATOM     50  C   UNL A   1      46.160  28.883  30.962  1.00  0.00     0.049 A 
ATOM     51  H   UNL A   1      44.145  28.932  30.334  1.00  0.00     0.167 HD
ATOM     52  C   UNL A   1      45.778  26.640  29.978  1.00  0.00     0.074 A 
ATOM     53  C   UNL A   1      46.209  25.311  29.596  1.00  0.00     0.031 C 
ATOM     54  C   UNL A   1      46.575  27.557  30.582  1.00  0.00     0.031 A 
BRANCH  41  55
ATOM     55  C   UNL A   1      43.800  32.964  31.715  1.00  0.00    -0.014 A 
ATOM     56  C   UNL A   1      43.559  33.266  33.068  1.00  0.00     0.010 A 
ATOM     57  C   UNL A   1      44.209  33.995  30.849  1.00  0.00     0.010 A 
ATOM     58  C   UNL A   1      43.686  34.576  33.536  1.00  0.00     0.020 A 
ATOM     59  C   UNL A   1      44.368  35.301  31.320  1.00  0.00     0.020 A 
ATOM     60  C   UNL A   1      44.090  35.587  32.657  1.00  0.00     0.054 A 
BRANCH  60  61
ATOM     61  S   UNL A   1      44.274  37.273  33.300  1.00  0.00     0.124 S 
ATOM     62  O   UNL A   1      44.655  38.013  32.100  1.00  0.00    -0.237 OA
ATOM     63  O   UNL A   1      42.940  37.565  33.819  1.00  0.00    -0.237 OA
ATOM     64  O   UNL A   1      45.319  37.148  34.313  1.00  0.00    -0.744 OA
ENDBRANCH  60  61
ENDBRANCH  41  55
BRANCH  42  65
ATOM     65  C   UNL A   1      42.650  23.789  27.913  1.00  0.00    -0.014 A 
ATOM     66  C   UNL A   1      42.951  23.563  26.557  1.00  0.00     0.010 A 
ATOM     67  C   UNL A   1      42.201  22.713  28.700  1.00  0.00     0.010 A 
ATOM     68  C   UNL A   1      42.782  22.294  25.996  1.00  0.00     0.020 A 
ATOM     69  C   UNL A   1      42.061  21.436  28.150  1.00  0.00     0.020 A 
ATOM     70  C   UNL A   1      42.340  21.237  26.797  1.00  0.00     0.054 A 
BRANCH  70  71
ATOM     71  S   UNL A   1      42.166  19.590  26.055  1.00  0.00     0.124 S 
ATOM     72  O   UNL A   1      40.747  19.558  25.715  1.00  0.00    -0.237 OA
ATOM     73  O   UNL A   1      43.086  19.657  24.923  1.00  0.00    -0.237 OA
ATOM     74  O   UNL A   1      42.574  18.687  27.128  1.00  0.00    -0.744 OA
ENDBRANCH  70  71
ENDBRANCH  42  65
BRANCH  54  75
ATOM     75  C   UNL A   1      47.986  27.144  30.915  1.00  0.00    -0.014 A 
ATOM     76  C   UNL A   1      48.297  26.506  32.129  1.00  0.00     0.010 A 
ATOM     77  C   UNL A   1      49.006  27.345  29.966  1.00  0.00     0.010 A 
ATOM     78  C   UNL A   1      49.608  26.103  32.399  1.00  0.00     0.020 A 
ATOM     79  C   UNL A   1      50.311  26.917  30.219  1.00  0.00     0.020 A 
ATOM     80  C   UNL A   1      50.607  26.310  31.441  1.00  0.00     0.054 A 
BRANCH  80  81
ATOM     81  S   UNL A   1      52.290  25.734  31.796  1.00  0.00     0.124 S 
ATOM     82  O   UNL A   1      52.064  24.335  32.148  1.00  0.00    -0.237 OA
ATOM     83  O   UNL A   1      52.979  25.960  30.527  1.00  0.00    -0.237 OA
ATOM     84  O   UNL A   1      52.726  26.591  32.896  1.00  0.00    -0.744 OA
ENDBRANCH  80  81
ENDBRANCH  54  75
ENDBRANCH  28  29
ENDBRANCH  20  23
ENDBRANCH  18  19
ENDBRANCH  17  18
ENDBRANCH   1  17
TORSDOF 17
ENDMDL
