MODEL 1
REMARK VINA RESULT:     -11.2      0.000      0.000
REMARK SMILES CCCc1c(C(=O)NCCCCCCNC(=O)c2ccc(-c3c4nc(c(-c5ccc(S(=O)(=O)[O-])cc5)c5ccc([nH]5)c(-c5ccc(S(=O)(=O)[O-])cc5)c5nc(c(-c6ccc(S(=O)(=O)[O-])cc6)c6ccc3[nH]6)C=C5)C=C4)cc2)nnn1-c1ccccc1[N+](=O)[O-]
REMARK SMILES IDX 12 1 11 2 10 3 9 4 8 5 6 6 7 7 5 9 4 10 80 11 78 12 79 13
REMARK SMILES IDX 3 14 2 15 1 16 81 17 82 18 86 19 83 20 85 21 84 22 87 23
REMARK SMILES IDX 88 24 89 25 13 26 14 27 15 28 16 29 17 31 18 32 19 33 77 34
REMARK SMILES IDX 20 35 76 36 21 37 22 38 23 39 70 40 24 41 75 42 69 43 71 44
REMARK SMILES IDX 25 45 74 46 68 47 67 48 26 50 56 51 37 52 55 53 38 54 41 55
REMARK SMILES IDX 54 56 72 57 39 58 40 59 53 61 73 62 42 63 27 64 28 65 36 66
REMARK SMILES IDX 29 67 35 68 30 69 31 70 32 71 33 72 34 73 57 74 58 75 66 76
REMARK SMILES IDX 59 77 65 78 60 79 61 80 62 81 63 82 64 83 43 84 44 85 52 86
REMARK SMILES IDX 45 87 51 88 46 89 47 90 48 91 49 92 50 93
REMARK H PARENT 8 8 15 30 71 49 41 60
REMARK Flexibility Score: inf
ROOT
ATOM      1  C   UNL A   1      32.328  30.663  26.494  1.00  0.00     0.002 C 
ENDROOT
BRANCH   1   2
ATOM      2  C   UNL A   1      32.243  29.614  25.369  1.00  0.00     0.002 C 
BRANCH   2   3
ATOM      3  C   UNL A   1      33.537  29.066  24.760  1.00  0.00     0.021 C 
BRANCH   3   4
ATOM      4  C   UNL A   1      33.563  28.869  23.254  1.00  0.00     0.116 C 
BRANCH   4   5
ATOM      5  N   UNL A   1      32.355  28.503  22.592  1.00  0.00    -0.351 N 
ATOM      6  C   UNL A   1      31.857  27.234  22.379  1.00  0.00     0.273 C 
ATOM      7  O   UNL A   1      30.701  27.197  21.946  1.00  0.00    -0.267 OA
ATOM      8  H   UNL A   1      31.809  29.245  22.245  1.00  0.00     0.163 HD
BRANCH   6   9
ATOM      9  C   UNL A   1      32.621  25.981  22.582  1.00  0.00     0.174 A 
ATOM     10  C   UNL A   1      33.217  25.279  23.649  1.00  0.00     0.078 A 
ATOM     11  N   UNL A   1      33.748  24.141  23.018  1.00  0.00    -0.210 N 
ATOM     12  N   UNL A   1      32.852  25.261  21.420  1.00  0.00    -0.124 NA
ATOM     13  N   UNL A   1      33.618  24.227  21.687  1.00  0.00    -0.061 NA
BRANCH  10  14
ATOM     14  C   UNL A   1      33.523  25.530  25.101  1.00  0.00     0.059 C 
BRANCH  14  15
ATOM     15  C   UNL A   1      32.441  25.441  26.174  1.00  0.00     0.003 C 
ATOM     16  C   UNL A   1      31.122  26.169  25.983  1.00  0.00     0.004 C 
ENDBRANCH  14  15
ENDBRANCH  10  14
BRANCH  11  17
ATOM     17  C   UNL A   1      34.513  23.081  23.562  1.00  0.00     0.144 A 
ATOM     18  C   UNL A   1      35.911  23.221  23.566  1.00  0.00     0.036 A 
ATOM     19  C   UNL A   1      33.943  21.939  24.144  1.00  0.00     0.294 A 
ATOM     20  C   UNL A   1      36.709  22.274  24.214  1.00  0.00     0.003 A 
ATOM     21  C   UNL A   1      34.747  20.989  24.793  1.00  0.00     0.088 A 
ATOM     22  C   UNL A   1      36.129  21.170  24.838  1.00  0.00     0.007 A 
BRANCH  19  23
ATOM     23  N   UNL A   1      32.519  21.641  24.025  1.00  0.00     0.065 N 
ATOM     24  O   UNL A   1      31.724  22.515  24.400  1.00  0.00    -0.258 OA
ATOM     25  O   UNL A   1      32.197  20.539  23.569  1.00  0.00    -0.258 OA
ENDBRANCH  19  23
ENDBRANCH  11  17
ENDBRANCH   6   9
ENDBRANCH   4   5
ENDBRANCH   3   4
ENDBRANCH   2   3
ENDBRANCH   1   2
BRANCH   1  26
ATOM     26  C   UNL A   1      33.501  30.614  27.485  1.00  0.00     0.021 C 
BRANCH  26  27
ATOM     27  C   UNL A   1      34.331  31.878  27.589  1.00  0.00     0.116 C 
BRANCH  27  28
ATOM     28  N   UNL A   1      34.058  32.673  28.789  1.00  0.00    -0.352 N 
ATOM     29  C   UNL A   1      34.605  32.531  30.059  1.00  0.00     0.251 C 
ATOM     30  H   UNL A   1      33.403  33.400  28.682  1.00  0.00     0.163 HD
ATOM     31  O   UNL A   1      34.054  33.009  31.037  1.00  0.00    -0.269 OA
BRANCH  29  32
ATOM     32  C   UNL A   1      35.880  31.800  30.195  1.00  0.00     0.039 A 
ATOM     33  C   UNL A   1      35.959  30.415  30.386  1.00  0.00     0.014 A 
ATOM     34  C   UNL A   1      37.036  32.562  30.110  1.00  0.00     0.014 A 
ATOM     35  C   UNL A   1      37.219  29.815  30.436  1.00  0.00     0.010 A 
ATOM     36  C   UNL A   1      38.230  31.954  29.882  1.00  0.00     0.010 A 
ATOM     37  C   UNL A   1      38.345  30.605  30.181  1.00  0.00    -0.014 A 
BRANCH  37  38
ATOM     38  C   UNL A   1      39.708  30.101  30.182  1.00  0.00     0.031 A 
ATOM     39  C   UNL A   1      40.270  29.873  31.537  1.00  0.00     0.074 A 
ATOM     40  C   UNL A   1      40.211  29.539  29.057  1.00  0.00     0.049 A 
ATOM     41  N   UNL A   1      41.241  30.504  32.106  1.00  0.00    -0.248 NA
ATOM     42  C   UNL A   1      39.552  28.954  32.442  1.00  0.00     0.031 C 
ATOM     43  C   UNL A   1      39.537  29.363  27.758  1.00  0.00     0.029 A 
ATOM     44  N   UNL A   1      41.352  28.827  28.881  1.00  0.00    -0.354 N 
ATOM     45  C   UNL A   1      41.417  29.883  33.338  1.00  0.00     0.074 A 
ATOM     46  C   UNL A   1      40.203  29.152  33.589  1.00  0.00     0.031 C 
ATOM     47  C   UNL A   1      40.146  28.375  27.067  1.00  0.00     0.029 A 
ATOM     48  C   UNL A   1      41.322  27.946  27.803  1.00  0.00     0.049 A 
ATOM     49  H   UNL A   1      42.136  28.925  29.468  1.00  0.00     0.167 HD
ATOM     50  C   UNL A   1      42.653  29.750  33.901  1.00  0.00     0.031 A 
ATOM     51  C   UNL A   1      42.145  26.881  27.598  1.00  0.00     0.031 A 
ATOM     52  C   UNL A   1      43.637  30.528  33.188  1.00  0.00     0.049 A 
ATOM     53  C   UNL A   1      43.337  27.100  28.467  1.00  0.00     0.074 A 
ATOM     54  C   UNL A   1      43.757  31.861  32.843  1.00  0.00     0.029 A 
ATOM     55  N   UNL A   1      44.474  29.839  32.336  1.00  0.00    -0.354 N 
ATOM     56  N   UNL A   1      44.156  28.106  28.313  1.00  0.00    -0.248 NA
ATOM     57  C   UNL A   1      43.317  26.517  29.802  1.00  0.00     0.031 C 
ATOM     58  C   UNL A   1      44.243  31.843  31.503  1.00  0.00     0.029 A 
ATOM     59  C   UNL A   1      44.493  30.517  31.145  1.00  0.00     0.049 A 
ATOM     60  H   UNL A   1      44.967  29.013  32.544  1.00  0.00     0.167 HD
ATOM     61  C   UNL A   1      44.404  28.564  29.602  1.00  0.00     0.074 A 
ATOM     62  C   UNL A   1      43.928  27.493  30.481  1.00  0.00     0.031 C 
ATOM     63  C   UNL A   1      44.673  29.881  29.855  1.00  0.00     0.031 A 
BRANCH  50  64
ATOM     64  C   UNL A   1      43.065  28.597  34.789  1.00  0.00    -0.014 A 
ATOM     65  C   UNL A   1      43.626  28.893  36.049  1.00  0.00     0.010 A 
ATOM     66  C   UNL A   1      43.184  27.266  34.340  1.00  0.00     0.010 A 
ATOM     67  C   UNL A   1      44.353  27.937  36.766  1.00  0.00     0.020 A 
ATOM     68  C   UNL A   1      43.864  26.291  35.069  1.00  0.00     0.020 A 
ATOM     69  C   UNL A   1      44.482  26.644  36.259  1.00  0.00     0.054 A 
BRANCH  69  70
ATOM     70  S   UNL A   1      45.522  25.448  37.129  1.00  0.00     0.124 S 
ATOM     71  O   UNL A   1      45.805  24.478  36.076  1.00  0.00    -0.237 OA
ATOM     72  O   UNL A   1      46.649  26.274  37.555  1.00  0.00    -0.237 OA
ATOM     73  O   UNL A   1      44.661  24.971  38.209  1.00  0.00    -0.744 OA
ENDBRANCH  69  70
ENDBRANCH  50  64
BRANCH  51  74
ATOM     74  C   UNL A   1      41.752  25.546  27.049  1.00  0.00    -0.014 A 
ATOM     75  C   UNL A   1      42.665  24.723  26.361  1.00  0.00     0.010 A 
ATOM     76  C   UNL A   1      40.526  24.956  27.430  1.00  0.00     0.010 A 
ATOM     77  C   UNL A   1      42.391  23.357  26.131  1.00  0.00     0.020 A 
ATOM     78  C   UNL A   1      40.240  23.606  27.194  1.00  0.00     0.020 A 
ATOM     79  C   UNL A   1      41.188  22.802  26.573  1.00  0.00     0.054 A 
BRANCH  79  80
ATOM     80  S   UNL A   1      40.911  21.006  26.473  1.00  0.00     0.124 S 
ATOM     81  O   UNL A   1      42.080  20.550  25.728  1.00  0.00    -0.237 OA
ATOM     82  O   UNL A   1      40.860  20.614  27.879  1.00  0.00    -0.237 OA
ATOM     83  O   UNL A   1      39.638  20.896  25.760  1.00  0.00    -0.744 OA
ENDBRANCH  79  80
ENDBRANCH  51  74
BRANCH  63  84
ATOM     84  C   UNL A   1      44.950  30.818  28.699  1.00  0.00    -0.014 A 
ATOM     85  C   UNL A   1      43.976  31.241  27.772  1.00  0.00     0.010 A 
ATOM     86  C   UNL A   1      46.206  31.451  28.681  1.00  0.00     0.010 A 
ATOM     87  C   UNL A   1      44.263  32.253  26.842  1.00  0.00     0.020 A 
ATOM     88  C   UNL A   1      46.491  32.470  27.771  1.00  0.00     0.020 A 
ATOM     89  C   UNL A   1      45.523  32.862  26.849  1.00  0.00     0.054 A 
BRANCH  89  90
ATOM     90  S   UNL A   1      45.880  34.198  25.675  1.00  0.00     0.124 S 
ATOM     91  O   UNL A   1      45.440  35.386  26.401  1.00  0.00    -0.237 OA
ATOM     92  O   UNL A   1      47.323  34.081  25.476  1.00  0.00    -0.237 OA
ATOM     93  O   UNL A   1      45.074  33.857  24.502  1.00  0.00    -0.744 OA
ENDBRANCH  89  90
ENDBRANCH  63  84
ENDBRANCH  37  38
ENDBRANCH  29  32
ENDBRANCH  27  28
ENDBRANCH  26  27
ENDBRANCH   1  26
TORSDOF 20
ENDMDL
MODEL 2
REMARK VINA RESULT:     -10.8      1.848      2.795
REMARK SMILES CCCc1c(C(=O)NCCCCCCNC(=O)c2ccc(-c3c4nc(c(-c5ccc(S(=O)(=O)[O-])cc5)c5ccc([nH]5)c(-c5ccc(S(=O)(=O)[O-])cc5)c5nc(c(-c6ccc(S(=O)(=O)[O-])cc6)c6ccc3[nH]6)C=C5)C=C4)cc2)nnn1-c1ccccc1[N+](=O)[O-]
REMARK SMILES IDX 12 1 11 2 10 3 9 4 8 5 6 6 7 7 5 9 4 10 80 11 78 12 79 13
REMARK SMILES IDX 3 14 2 15 1 16 81 17 82 18 86 19 83 20 85 21 84 22 87 23
REMARK SMILES IDX 88 24 89 25 13 26 14 27 15 28 16 29 17 31 18 32 19 33 77 34
REMARK SMILES IDX 20 35 76 36 21 37 22 38 23 39 70 40 24 41 75 42 69 43 71 44
REMARK SMILES IDX 25 45 74 46 68 47 67 48 26 50 56 51 37 52 55 53 38 54 41 55
REMARK SMILES IDX 54 56 72 57 39 58 40 59 53 61 73 62 42 63 27 64 28 65 36 66
REMARK SMILES IDX 29 67 35 68 30 69 31 70 32 71 33 72 34 73 57 74 58 75 66 76
REMARK SMILES IDX 59 77 65 78 60 79 61 80 62 81 63 82 64 83 43 84 44 85 52 86
REMARK SMILES IDX 45 87 51 88 46 89 47 90 48 91 49 92 50 93
REMARK H PARENT 8 8 15 30 71 49 41 60
REMARK Flexibility Score: inf
ROOT
ATOM      1  C   UNL A   1      36.737  32.436  28.603  1.00  0.00     0.002 C 
ENDROOT
BRANCH   1   2
ATOM      2  C   UNL A   1      36.250  31.308  27.674  1.00  0.00     0.002 C 
BRANCH   2   3
ATOM      3  C   UNL A   1      36.031  29.907  28.252  1.00  0.00     0.021 C 
BRANCH   3   4
ATOM      4  C   UNL A   1      34.623  29.343  28.185  1.00  0.00     0.116 C 
BRANCH   4   5
ATOM      5  N   UNL A   1      33.586  30.160  27.645  1.00  0.00    -0.351 N 
ATOM      6  C   UNL A   1      32.432  29.751  27.010  1.00  0.00     0.273 C 
ATOM      7  O   UNL A   1      31.608  30.649  26.802  1.00  0.00    -0.267 OA
ATOM      8  H   UNL A   1      33.709  31.132  27.736  1.00  0.00     0.163 HD
BRANCH   6   9
ATOM      9  C   UNL A   1      32.168  28.372  26.540  1.00  0.00     0.174 A 
ATOM     10  C   UNL A   1      32.471  27.571  25.420  1.00  0.00     0.078 A 
ATOM     11  N   UNL A   1      31.861  26.346  25.735  1.00  0.00    -0.210 N 
ATOM     12  N   UNL A   1      31.397  27.612  27.407  1.00  0.00    -0.124 NA
ATOM     13  N   UNL A   1      31.136  26.446  26.858  1.00  0.00    -0.061 NA
BRANCH  10  14
ATOM     14  C   UNL A   1      33.078  27.765  24.056  1.00  0.00     0.059 C 
BRANCH  14  15
ATOM     15  C   UNL A   1      32.417  28.655  23.006  1.00  0.00     0.003 C 
ATOM     16  C   UNL A   1      30.944  28.482  22.684  1.00  0.00     0.004 C 
ENDBRANCH  14  15
ENDBRANCH  10  14
BRANCH  11  17
ATOM     17  C   UNL A   1      31.773  25.156  24.971  1.00  0.00     0.144 A 
ATOM     18  C   UNL A   1      30.638  24.985  24.161  1.00  0.00     0.036 A 
ATOM     19  C   UNL A   1      32.782  24.183  24.942  1.00  0.00     0.294 A 
ATOM     20  C   UNL A   1      30.561  23.902  23.280  1.00  0.00     0.003 A 
ATOM     21  C   UNL A   1      32.703  23.096  24.057  1.00  0.00     0.088 A 
ATOM     22  C   UNL A   1      31.596  22.969  23.217  1.00  0.00     0.007 A 
BRANCH  19  23
ATOM     23  N   UNL A   1      33.902  24.204  25.876  1.00  0.00     0.065 N 
ATOM     24  O   UNL A   1      34.863  24.933  25.594  1.00  0.00    -0.258 OA
ATOM     25  O   UNL A   1      33.826  23.490  26.883  1.00  0.00    -0.258 OA
ENDBRANCH  19  23
ENDBRANCH  11  17
ENDBRANCH   6   9
ENDBRANCH   4   5
ENDBRANCH   3   4
ENDBRANCH   2   3
ENDBRANCH   1   2
BRANCH   1  26
ATOM     26  C   UNL A   1      35.712  33.386  29.239  1.00  0.00     0.021 C 
BRANCH  26  27
ATOM     27  C   UNL A   1      34.598  32.725  30.027  1.00  0.00     0.116 C 
BRANCH  27  28
ATOM     28  N   UNL A   1      34.539  33.135  31.433  1.00  0.00    -0.352 N 
ATOM     29  C   UNL A   1      35.252  32.621  32.510  1.00  0.00     0.251 C 
ATOM     30  H   UNL A   1      33.915  33.867  31.640  1.00  0.00     0.163 HD
ATOM     31  O   UNL A   1      34.869  32.795  33.656  1.00  0.00    -0.269 OA
BRANCH  29  32
ATOM     32  C   UNL A   1      36.492  31.871  32.236  1.00  0.00     0.039 A 
ATOM     33  C   UNL A   1      36.514  30.510  31.905  1.00  0.00     0.014 A 
ATOM     34  C   UNL A   1      37.675  32.592  32.307  1.00  0.00     0.014 A 
ATOM     35  C   UNL A   1      37.739  29.913  31.600  1.00  0.00     0.010 A 
ATOM     36  C   UNL A   1      38.807  32.090  31.749  1.00  0.00     0.010 A 
ATOM     37  C   UNL A   1      38.877  30.723  31.528  1.00  0.00    -0.014 A 
BRANCH  37  38
ATOM     38  C   UNL A   1      40.205  30.232  31.200  1.00  0.00     0.031 A 
ATOM     39  C   UNL A   1      41.036  29.895  32.383  1.00  0.00     0.074 A 
ATOM     40  C   UNL A   1      40.455  29.770  29.952  1.00  0.00     0.049 A 
ATOM     41  N   UNL A   1      42.111  30.485  32.787  1.00  0.00    -0.248 NA
ATOM     42  C   UNL A   1      40.515  28.898  33.339  1.00  0.00     0.031 C 
ATOM     43  C   UNL A   1      39.522  29.698  28.813  1.00  0.00     0.029 A 
ATOM     44  N   UNL A   1      41.527  29.085  29.482  1.00  0.00    -0.354 N 
ATOM     45  C   UNL A   1      42.536  29.764  33.898  1.00  0.00     0.074 A 
ATOM     46  C   UNL A   1      41.394  29.005  34.337  1.00  0.00     0.031 C 
ATOM     47  C   UNL A   1      39.963  28.777  27.929  1.00  0.00     0.029 A 
ATOM     48  C   UNL A   1      41.263  28.297  28.364  1.00  0.00     0.049 A 
ATOM     49  H   UNL A   1      42.418  29.139  29.898  1.00  0.00     0.167 HD
ATOM     50  C   UNL A   1      43.860  29.594  34.177  1.00  0.00     0.031 A 
ATOM     51  C   UNL A   1      42.014  27.260  27.903  1.00  0.00     0.031 A 
ATOM     52  C   UNL A   1      44.680  30.437  33.341  1.00  0.00     0.049 A 
ATOM     53  C   UNL A   1      43.364  27.414  28.517  1.00  0.00     0.074 A 
ATOM     54  C   UNL A   1      44.739  31.795  33.091  1.00  0.00     0.029 A 
ATOM     55  N   UNL A   1      45.314  29.828  32.278  1.00  0.00    -0.354 N 
ATOM     56  N   UNL A   1      44.142  28.437  28.280  1.00  0.00    -0.248 NA
ATOM     57  C   UNL A   1      43.619  26.721  29.773  1.00  0.00     0.031 C 
ATOM     58  C   UNL A   1      44.933  31.894  31.682  1.00  0.00     0.029 A 
ATOM     59  C   UNL A   1      45.089  30.604  31.170  1.00  0.00     0.049 A 
ATOM     60  H   UNL A   1      45.831  28.992  32.308  1.00  0.00     0.167 HD
ATOM     61  C   UNL A   1      44.660  28.787  29.522  1.00  0.00     0.074 A 
ATOM     62  C   UNL A   1      44.368  27.642  30.388  1.00  0.00     0.031 C 
ATOM     63  C   UNL A   1      44.989  30.081  29.822  1.00  0.00     0.031 A 
BRANCH  50  64
ATOM     64  C   UNL A   1      44.438  28.374  34.859  1.00  0.00    -0.014 A 
ATOM     65  C   UNL A   1      44.784  27.264  34.060  1.00  0.00     0.010 A 
ATOM     66  C   UNL A   1      44.398  28.164  36.253  1.00  0.00     0.010 A 
ATOM     67  C   UNL A   1      44.976  25.996  34.619  1.00  0.00     0.020 A 
ATOM     68  C   UNL A   1      44.636  26.914  36.825  1.00  0.00     0.020 A 
ATOM     69  C   UNL A   1      44.882  25.827  36.000  1.00  0.00     0.054 A 
BRANCH  69  70
ATOM     70  S   UNL A   1      45.011  24.167  36.703  1.00  0.00     0.124 S 
ATOM     71  O   UNL A   1      44.743  24.421  38.116  1.00  0.00    -0.237 OA
ATOM     72  O   UNL A   1      43.970  23.444  35.977  1.00  0.00    -0.237 OA
ATOM     73  O   UNL A   1      46.380  23.769  36.385  1.00  0.00    -0.744 OA
ENDBRANCH  69  70
ENDBRANCH  50  64
BRANCH  51  74
ATOM     74  C   UNL A   1      41.501  25.973  27.339  1.00  0.00    -0.014 A 
ATOM     75  C   UNL A   1      42.250  25.208  26.422  1.00  0.00     0.010 A 
ATOM     76  C   UNL A   1      40.366  25.352  27.906  1.00  0.00     0.010 A 
ATOM     77  C   UNL A   1      41.917  23.865  26.143  1.00  0.00     0.020 A 
ATOM     78  C   UNL A   1      40.020  24.025  27.626  1.00  0.00     0.020 A 
ATOM     79  C   UNL A   1      40.816  23.275  26.769  1.00  0.00     0.054 A 
BRANCH  79  80
ATOM     80  S   UNL A   1      40.499  21.491  26.584  1.00  0.00     0.124 S 
ATOM     81  O   UNL A   1      41.504  21.095  25.603  1.00  0.00    -0.237 OA
ATOM     82  O   UNL A   1      40.702  20.991  27.941  1.00  0.00    -0.237 OA
ATOM     83  O   UNL A   1      39.115  21.439  26.113  1.00  0.00    -0.744 OA
ENDBRANCH  79  80
ENDBRANCH  51  74
BRANCH  63  84
ATOM     84  C   UNL A   1      45.026  31.113  28.717  1.00  0.00    -0.014 A 
ATOM     85  C   UNL A   1      43.926  31.908  28.338  1.00  0.00     0.010 A 
ATOM     86  C   UNL A   1      46.288  31.427  28.182  1.00  0.00     0.010 A 
ATOM     87  C   UNL A   1      44.085  32.971  27.434  1.00  0.00     0.020 A 
ATOM     88  C   UNL A   1      46.457  32.493  27.299  1.00  0.00     0.020 A 
ATOM     89  C   UNL A   1      45.354  33.256  26.920  1.00  0.00     0.054 A 
BRANCH  89  90
ATOM     90  S   UNL A   1      45.569  34.655  25.784  1.00  0.00     0.124 S 
ATOM     91  O   UNL A   1      45.446  35.807  26.673  1.00  0.00    -0.237 OA
ATOM     92  O   UNL A   1      46.902  34.425  25.232  1.00  0.00    -0.237 OA
ATOM     93  O   UNL A   1      44.476  34.496  24.825  1.00  0.00    -0.744 OA
ENDBRANCH  89  90
ENDBRANCH  63  84
ENDBRANCH  37  38
ENDBRANCH  29  32
ENDBRANCH  27  28
ENDBRANCH  26  27
ENDBRANCH   1  26
TORSDOF 20
ENDMDL
MODEL 3
REMARK VINA RESULT:     -10.8      2.570      9.062
REMARK SMILES CCCc1c(C(=O)NCCCCCCNC(=O)c2ccc(-c3c4nc(c(-c5ccc(S(=O)(=O)[O-])cc5)c5ccc([nH]5)c(-c5ccc(S(=O)(=O)[O-])cc5)c5nc(c(-c6ccc(S(=O)(=O)[O-])cc6)c6ccc3[nH]6)C=C5)C=C4)cc2)nnn1-c1ccccc1[N+](=O)[O-]
REMARK SMILES IDX 12 1 11 2 10 3 9 4 8 5 6 6 7 7 5 9 4 10 80 11 78 12 79 13
REMARK SMILES IDX 3 14 2 15 1 16 81 17 82 18 86 19 83 20 85 21 84 22 87 23
REMARK SMILES IDX 88 24 89 25 13 26 14 27 15 28 16 29 17 31 18 32 19 33 77 34
REMARK SMILES IDX 20 35 76 36 21 37 22 38 23 39 70 40 24 41 75 42 69 43 71 44
REMARK SMILES IDX 25 45 74 46 68 47 67 48 26 50 56 51 37 52 55 53 38 54 41 55
REMARK SMILES IDX 54 56 72 57 39 58 40 59 53 61 73 62 42 63 27 64 28 65 36 66
REMARK SMILES IDX 29 67 35 68 30 69 31 70 32 71 33 72 34 73 57 74 58 75 66 76
REMARK SMILES IDX 59 77 65 78 60 79 61 80 62 81 63 82 64 83 43 84 44 85 52 86
REMARK SMILES IDX 45 87 51 88 46 89 47 90 48 91 49 92 50 93
REMARK H PARENT 8 8 15 30 71 49 41 60
REMARK Flexibility Score: inf
ROOT
ATOM      1  C   UNL A   1      37.654  22.146  25.309  1.00  0.00     0.002 C 
ENDROOT
BRANCH   1   2
ATOM      2  C   UNL A   1      36.204  21.781  25.679  1.00  0.00     0.002 C 
BRANCH   2   3
ATOM      3  C   UNL A   1      35.284  22.864  26.249  1.00  0.00     0.021 C 
BRANCH   3   4
ATOM      4  C   UNL A   1      34.171  22.408  27.176  1.00  0.00     0.116 C 
BRANCH   4   5
ATOM      5  N   UNL A   1      33.144  21.571  26.649  1.00  0.00    -0.351 N 
ATOM      6  C   UNL A   1      32.078  21.939  25.855  1.00  0.00     0.273 C 
ATOM      7  O   UNL A   1      31.436  20.995  25.380  1.00  0.00    -0.267 OA
ATOM      8  H   UNL A   1      33.202  20.616  26.881  1.00  0.00     0.163 HD
BRANCH   6   9
ATOM      9  C   UNL A   1      31.653  23.335  25.602  1.00  0.00     0.174 A 
ATOM     10  C   UNL A   1      31.533  24.210  24.503  1.00  0.00     0.078 A 
ATOM     11  N   UNL A   1      31.033  25.384  25.091  1.00  0.00    -0.210 N 
ATOM     12  N   UNL A   1      31.260  24.026  26.738  1.00  0.00    -0.124 NA
ATOM     13  N   UNL A   1      31.000  25.276  26.426  1.00  0.00    -0.061 NA
BRANCH  10  14
ATOM     14  C   UNL A   1      31.935  24.222  23.053  1.00  0.00     0.059 C 
BRANCH  14  15
ATOM     15  C   UNL A   1      32.946  23.222  22.495  1.00  0.00     0.003 C 
ATOM     16  C   UNL A   1      34.411  23.333  22.875  1.00  0.00     0.004 C 
ENDBRANCH  14  15
ENDBRANCH  10  14
BRANCH  11  17
ATOM     17  C   UNL A   1      30.755  26.642  24.501  1.00  0.00     0.144 A 
ATOM     18  C   UNL A   1      29.503  26.810  23.886  1.00  0.00     0.036 A 
ATOM     19  C   UNL A   1      31.638  27.730  24.555  1.00  0.00     0.294 A 
ATOM     20  C   UNL A   1      29.118  28.068  23.411  1.00  0.00     0.003 A 
ATOM     21  C   UNL A   1      31.249  28.992  24.077  1.00  0.00     0.088 A 
ATOM     22  C   UNL A   1      29.981  29.158  23.520  1.00  0.00     0.007 A 
BRANCH  19  23
ATOM     23  N   UNL A   1      33.013  27.586  25.020  1.00  0.00     0.065 N 
ATOM     24  O   UNL A   1      33.872  27.306  24.172  1.00  0.00    -0.258 OA
ATOM     25  O   UNL A   1      33.234  27.744  26.226  1.00  0.00    -0.258 OA
ENDBRANCH  19  23
ENDBRANCH  11  17
ENDBRANCH   6   9
ENDBRANCH   4   5
ENDBRANCH   3   4
ENDBRANCH   2   3
ENDBRANCH   1   2
BRANCH   1  26
ATOM     26  C   UNL A   1      38.807  21.267  25.816  1.00  0.00     0.021 C 
BRANCH  26  27
ATOM     27  C   UNL A   1      39.983  22.006  26.425  1.00  0.00     0.116 C 
BRANCH  27  28
ATOM     28  N   UNL A   1      41.267  21.714  25.783  1.00  0.00    -0.352 N 
ATOM     29  C   UNL A   1      42.286  22.599  25.454  1.00  0.00     0.251 C 
ATOM     30  H   UNL A   1      41.428  20.769  25.557  1.00  0.00     0.163 HD
ATOM     31  O   UNL A   1      43.132  22.303  24.625  1.00  0.00    -0.269 OA
BRANCH  29  32
ATOM     32  C   UNL A   1      42.331  23.904  26.142  1.00  0.00     0.039 A 
ATOM     33  C   UNL A   1      41.765  25.073  25.618  1.00  0.00     0.014 A 
ATOM     34  C   UNL A   1      42.964  23.926  27.376  1.00  0.00     0.014 A 
ATOM     35  C   UNL A   1      41.806  26.240  26.384  1.00  0.00     0.010 A 
ATOM     36  C   UNL A   1      42.760  24.970  28.221  1.00  0.00     0.010 A 
ATOM     37  C   UNL A   1      42.310  26.167  27.686  1.00  0.00    -0.014 A 
BRANCH  37  38
ATOM     38  C   UNL A   1      42.389  27.301  28.592  1.00  0.00     0.031 A 
ATOM     39  C   UNL A   1      43.589  28.152  28.394  1.00  0.00     0.074 A 
ATOM     40  C   UNL A   1      41.274  27.714  29.240  1.00  0.00     0.049 A 
ATOM     41  N   UNL A   1      44.579  28.323  29.205  1.00  0.00    -0.248 NA
ATOM     42  C   UNL A   1      43.809  28.748  27.061  1.00  0.00     0.031 C 
ATOM     43  C   UNL A   1      39.919  27.141  29.159  1.00  0.00     0.029 A 
ATOM     44  N   UNL A   1      41.059  28.847  29.954  1.00  0.00    -0.354 N 
ATOM     45  C   UNL A   1      45.412  29.249  28.585  1.00  0.00     0.074 A 
ATOM     46  C   UNL A   1      45.037  29.250  27.196  1.00  0.00     0.031 C 
ATOM     47  C   UNL A   1      39.016  28.069  29.542  1.00  0.00     0.029 A 
ATOM     48  C   UNL A   1      39.725  29.242  30.020  1.00  0.00     0.049 A 
ATOM     49  H   UNL A   1      41.786  29.349  30.389  1.00  0.00     0.167 HD
ATOM     50  C   UNL A   1      46.116  30.170  29.304  1.00  0.00     0.031 A 
ATOM     51  C   UNL A   1      39.258  30.479  30.343  1.00  0.00     0.031 A 
ATOM     52  C   UNL A   1      46.060  29.882  30.717  1.00  0.00     0.049 A 
ATOM     53  C   UNL A   1      40.373  31.179  31.043  1.00  0.00     0.074 A 
ATOM     54  C   UNL A   1      46.379  28.788  31.498  1.00  0.00     0.029 A 
ATOM     55  N   UNL A   1      45.200  30.650  31.473  1.00  0.00    -0.354 N 
ATOM     56  N   UNL A   1      40.868  30.772  32.181  1.00  0.00    -0.248 NA
ATOM     57  C   UNL A   1      41.269  31.997  30.236  1.00  0.00     0.031 C 
ATOM     58  C   UNL A   1      45.316  28.698  32.443  1.00  0.00     0.029 A 
ATOM     59  C   UNL A   1      44.471  29.795  32.257  1.00  0.00     0.049 A 
ATOM     60  H   UNL A   1      45.124  31.631  31.453  1.00  0.00     0.167 HD
ATOM     61  C   UNL A   1      42.245  30.889  32.034  1.00  0.00     0.074 A 
ATOM     62  C   UNL A   1      42.427  31.729  30.847  1.00  0.00     0.031 C 
ATOM     63  C   UNL A   1      43.109  30.049  32.683  1.00  0.00     0.031 A 
BRANCH  50  64
ATOM     64  C   UNL A   1      46.467  31.554  28.804  1.00  0.00    -0.014 A 
ATOM     65  C   UNL A   1      45.446  32.526  28.761  1.00  0.00     0.010 A 
ATOM     66  C   UNL A   1      47.663  31.860  28.123  1.00  0.00     0.010 A 
ATOM     67  C   UNL A   1      45.580  33.690  27.995  1.00  0.00     0.020 A 
ATOM     68  C   UNL A   1      47.826  33.039  27.395  1.00  0.00     0.020 A 
ATOM     69  C   UNL A   1      46.766  33.928  27.301  1.00  0.00     0.054 A 
BRANCH  69  70
ATOM     70  S   UNL A   1      46.887  35.370  26.218  1.00  0.00     0.124 S 
ATOM     71  O   UNL A   1      48.291  35.742  26.374  1.00  0.00    -0.237 OA
ATOM     72  O   UNL A   1      46.516  34.812  24.921  1.00  0.00    -0.237 OA
ATOM     73  O   UNL A   1      45.922  36.306  26.790  1.00  0.00    -0.744 OA
ENDBRANCH  69  70
ENDBRANCH  50  64
BRANCH  51  74
ATOM     74  C   UNL A   1      38.101  31.186  29.710  1.00  0.00    -0.014 A 
ATOM     75  C   UNL A   1      36.845  30.567  29.549  1.00  0.00     0.010 A 
ATOM     76  C   UNL A   1      38.156  32.580  29.493  1.00  0.00     0.010 A 
ATOM     77  C   UNL A   1      35.689  31.322  29.255  1.00  0.00     0.020 A 
ATOM     78  C   UNL A   1      37.017  33.336  29.188  1.00  0.00     0.020 A 
ATOM     79  C   UNL A   1      35.781  32.708  29.101  1.00  0.00     0.054 A 
BRANCH  79  80
ATOM     80  S   UNL A   1      34.274  33.717  28.932  1.00  0.00     0.124 S 
ATOM     81  O   UNL A   1      34.783  34.939  28.320  1.00  0.00    -0.237 OA
ATOM     82  O   UNL A   1      33.428  32.884  28.083  1.00  0.00    -0.237 OA
ATOM     83  O   UNL A   1      33.805  33.861  30.311  1.00  0.00    -0.744 OA
ENDBRANCH  79  80
ENDBRANCH  51  74
BRANCH  63  84
ATOM     84  C   UNL A   1      42.583  29.135  33.767  1.00  0.00    -0.014 A 
ATOM     85  C   UNL A   1      41.821  27.974  33.524  1.00  0.00     0.010 A 
ATOM     86  C   UNL A   1      43.056  29.359  35.072  1.00  0.00     0.010 A 
ATOM     87  C   UNL A   1      41.528  27.077  34.564  1.00  0.00     0.020 A 
ATOM     88  C   UNL A   1      42.784  28.462  36.106  1.00  0.00     0.020 A 
ATOM     89  C   UNL A   1      42.014  27.329  35.852  1.00  0.00     0.054 A 
BRANCH  89  90
ATOM     90  S   UNL A   1      41.670  26.151  37.187  1.00  0.00     0.124 S 
ATOM     91  O   UNL A   1      41.620  24.874  36.480  1.00  0.00    -0.237 OA
ATOM     92  O   UNL A   1      42.810  26.330  38.083  1.00  0.00    -0.237 OA
ATOM     93  O   UNL A   1      40.390  26.605  37.732  1.00  0.00    -0.744 OA
ENDBRANCH  89  90
ENDBRANCH  63  84
ENDBRANCH  37  38
ENDBRANCH  29  32
ENDBRANCH  27  28
ENDBRANCH  26  27
ENDBRANCH   1  26
TORSDOF 20
ENDMDL
