MODEL 1
REMARK VINA RESULT:     -10.8      0.000      0.000
REMARK SMILES CCc1ccc2[nH]c(C(=O)c3cc(C)ccn3)c(CC(=O)NCCCCCCNC(=O)c3ccc(-c4c5nc(c(-c6ccc(S(=O)(=O)[O-])cc6)c6ccc([nH]6)c(-c6ccc(S(=O)(=O)[O-])cc6)c6nc(c(-c7ccc(S(=O)(=O)[O-])cc7)c7ccc4[nH]7)C=C6)C=C5)cc3)c2c1
REMARK SMILES IDX 25 1 24 2 23 3 22 4 20 5 21 6 19 8 18 9 3 10 4 11 93 12 5 13
REMARK SMILES IDX 92 14 6 15 7 16 8 17 2 19 1 20 9 21 10 22 11 23 12 24 17 25
REMARK SMILES IDX 13 26 16 27 14 28 15 29 26 30 27 31 28 32 29 33 30 34 31 36
REMARK SMILES IDX 32 37 33 38 91 39 34 40 90 41 35 42 36 43 37 44 84 45 38 46
REMARK SMILES IDX 89 47 83 48 85 49 39 50 88 51 82 52 81 53 40 55 70 56 51 57
REMARK SMILES IDX 69 58 52 59 55 60 68 61 86 62 53 63 54 64 67 66 87 67 56 68
REMARK SMILES IDX 41 69 42 70 50 71 43 72 49 73 44 74 45 75 46 76 47 77 48 78
REMARK SMILES IDX 71 79 72 80 80 81 73 82 79 83 74 84 75 85 76 86 77 87 78 88
REMARK SMILES IDX 57 89 58 90 66 91 59 92 65 93 60 94 61 95 62 96 63 97 64 98
REMARK H PARENT 22 7 7 18 29 35 85 54 55 65
REMARK Flexibility Score: inf
ROOT
ATOM      1  C   UNL A   1      40.538  22.878  26.417  1.00  0.00     0.002 C 
ENDROOT
BRANCH   1   2
ATOM      2  C   UNL A   1      39.624  24.030  26.858  1.00  0.00     0.021 C 
BRANCH   2   3
ATOM      3  C   UNL A   1      38.148  23.821  26.524  1.00  0.00     0.116 C 
BRANCH   3   4
ATOM      4  N   UNL A   1      37.956  23.351  25.168  1.00  0.00    -0.356 N 
ATOM      5  C   UNL A   1      37.056  22.454  24.669  1.00  0.00     0.224 C 
ATOM      6  O   UNL A   1      36.993  22.358  23.439  1.00  0.00    -0.275 OA
ATOM      7  H   UNL A   1      38.570  23.738  24.503  1.00  0.00     0.163 HD
BRANCH   5   8
ATOM      8  C   UNL A   1      36.071  21.719  25.571  1.00  0.00     0.138 C 
BRANCH   8   9
ATOM      9  C   UNL A   1      34.693  21.498  25.000  1.00  0.00    -0.002 A 
ATOM     10  C   UNL A   1      33.915  17.848  24.062  1.00  0.00    -0.048 A 
ATOM     11  C   UNL A   1      32.647  18.127  23.535  1.00  0.00     0.006 A 
ATOM     12  C   UNL A   1      34.654  18.900  24.627  1.00  0.00     0.014 A 
ATOM     13  C   UNL A   1      32.114  19.422  23.528  1.00  0.00     0.027 A 
ATOM     14  C   UNL A   1      34.158  20.223  24.607  1.00  0.00     0.004 A 
ATOM     15  C   UNL A   1      32.901  20.448  24.061  1.00  0.00     0.046 A 
ATOM     16  N   UNL A   1      32.658  21.796  24.151  1.00  0.00    -0.352 N 
ATOM     17  C   UNL A   1      33.696  22.451  24.786  1.00  0.00     0.093 A 
ATOM     18  H   UNL A   1      31.849  22.239  23.808  1.00  0.00     0.167 HD
BRANCH  10  19
ATOM     19  C   UNL A   1      34.424  16.423  23.994  1.00  0.00     0.032 C 
ATOM     20  C   UNL A   1      35.149  15.894  25.228  1.00  0.00     0.009 C 
ENDBRANCH  10  19
BRANCH  17  21
ATOM     21  C   UNL A   1      33.715  23.873  25.120  1.00  0.00     0.227 C 
ATOM     22  O   UNL A   1      33.822  24.295  26.271  1.00  0.00    -0.285 OA
BRANCH  21  23
ATOM     23  C   UNL A   1      33.530  24.878  24.039  1.00  0.00     0.113 A 
ATOM     24  C   UNL A   1      33.759  26.225  24.301  1.00  0.00     0.036 A 
ATOM     25  N   UNL A   1      33.169  24.395  22.824  1.00  0.00    -0.253 NA
ATOM     26  C   UNL A   1      33.604  27.139  23.257  1.00  0.00    -0.047 A 
ATOM     27  C   UNL A   1      33.053  25.293  21.827  1.00  0.00     0.112 A 
ATOM     28  C   UNL A   1      33.835  28.605  23.464  1.00  0.00     0.044 C 
ATOM     29  C   UNL A   1      33.253  26.656  21.992  1.00  0.00     0.023 A 
ENDBRANCH  21  23
ENDBRANCH  17  21
ENDBRANCH   8   9
ENDBRANCH   5   8
ENDBRANCH   3   4
ENDBRANCH   2   3
ENDBRANCH   1   2
BRANCH   1  30
ATOM     30  C   UNL A   1      40.407  21.585  27.232  1.00  0.00     0.002 C 
BRANCH  30  31
ATOM     31  C   UNL A   1      40.708  20.293  26.467  1.00  0.00     0.021 C 
BRANCH  31  32
ATOM     32  C   UNL A   1      41.988  19.579  26.890  1.00  0.00     0.116 C 
BRANCH  32  33
ATOM     33  N   UNL A   1      42.825  19.230  25.752  1.00  0.00    -0.352 N 
ATOM     34  C   UNL A   1      43.650  20.027  24.999  1.00  0.00     0.251 C 
ATOM     35  H   UNL A   1      42.795  18.282  25.483  1.00  0.00     0.163 HD
ATOM     36  O   UNL A   1      44.139  19.592  23.959  1.00  0.00    -0.269 OA
BRANCH  34  37
ATOM     37  C   UNL A   1      43.938  21.414  25.425  1.00  0.00     0.039 A 
ATOM     38  C   UNL A   1      44.322  21.649  26.748  1.00  0.00     0.014 A 
ATOM     39  C   UNL A   1      43.812  22.481  24.531  1.00  0.00     0.014 A 
ATOM     40  C   UNL A   1      44.639  22.947  27.159  1.00  0.00     0.010 A 
ATOM     41  C   UNL A   1      44.186  23.765  24.925  1.00  0.00     0.010 A 
ATOM     42  C   UNL A   1      44.602  24.011  26.242  1.00  0.00    -0.014 A 
BRANCH  42  43
ATOM     43  C   UNL A   1      45.001  25.385  26.640  1.00  0.00     0.031 A 
ATOM     44  C   UNL A   1      43.980  26.340  27.198  1.00  0.00     0.074 A 
ATOM     45  C   UNL A   1      46.268  25.797  26.437  1.00  0.00     0.049 A 
ATOM     46  N   UNL A   1      44.123  27.597  27.530  1.00  0.00    -0.248 NA
ATOM     47  C   UNL A   1      42.616  25.820  27.384  1.00  0.00     0.031 C 
ATOM     48  C   UNL A   1      47.345  24.979  25.871  1.00  0.00     0.029 A 
ATOM     49  N   UNL A   1      46.865  27.010  26.675  1.00  0.00    -0.354 N 
ATOM     50  C   UNL A   1      42.867  28.024  27.948  1.00  0.00     0.074 A 
ATOM     51  C   UNL A   1      41.967  26.902  27.787  1.00  0.00     0.031 C 
ATOM     52  C   UNL A   1      48.472  25.707  25.827  1.00  0.00     0.029 A 
ATOM     53  C   UNL A   1      48.192  27.051  26.323  1.00  0.00     0.049 A 
ATOM     54  H   UNL A   1      46.386  27.778  27.062  1.00  0.00     0.167 HD
ATOM     55  C   UNL A   1      42.500  29.233  28.436  1.00  0.00     0.031 A 
ATOM     56  C   UNL A   1      49.086  28.059  26.384  1.00  0.00     0.031 A 
ATOM     57  C   UNL A   1      43.400  30.342  28.608  1.00  0.00     0.049 A 
ATOM     58  C   UNL A   1      48.654  29.392  26.925  1.00  0.00     0.074 A 
ATOM     59  C   UNL A   1      43.133  31.591  29.143  1.00  0.00     0.029 A 
ATOM     60  N   UNL A   1      44.740  30.338  28.252  1.00  0.00    -0.354 N 
ATOM     61  N   UNL A   1      47.473  29.760  27.363  1.00  0.00    -0.248 NA
ATOM     62  C   UNL A   1      49.676  30.446  26.988  1.00  0.00     0.031 C 
ATOM     63  C   UNL A   1      44.302  32.357  29.071  1.00  0.00     0.029 A 
ATOM     64  C   UNL A   1      45.309  31.568  28.537  1.00  0.00     0.049 A 
ATOM     65  H   UNL A   1      45.216  29.574  27.855  1.00  0.00     0.167 HD
ATOM     66  C   UNL A   1      47.618  31.079  27.778  1.00  0.00     0.074 A 
ATOM     67  C   UNL A   1      49.002  31.441  27.549  1.00  0.00     0.031 C 
ATOM     68  C   UNL A   1      46.689  31.914  28.303  1.00  0.00     0.031 A 
BRANCH  55  69
ATOM     69  C   UNL A   1      41.055  29.419  28.814  1.00  0.00    -0.014 A 
ATOM     70  C   UNL A   1      40.063  29.587  27.830  1.00  0.00     0.010 A 
ATOM     71  C   UNL A   1      40.677  29.394  30.169  1.00  0.00     0.010 A 
ATOM     72  C   UNL A   1      38.727  29.772  28.196  1.00  0.00     0.020 A 
ATOM     73  C   UNL A   1      39.337  29.551  30.538  1.00  0.00     0.020 A 
ATOM     74  C   UNL A   1      38.374  29.758  29.548  1.00  0.00     0.054 A 
BRANCH  74  75
ATOM     75  S   UNL A   1      36.631  29.988  29.995  1.00  0.00     0.124 S 
ATOM     76  O   UNL A   1      36.540  31.442  30.109  1.00  0.00    -0.237 OA
ATOM     77  O   UNL A   1      35.927  29.402  28.857  1.00  0.00    -0.237 OA
ATOM     78  O   UNL A   1      36.496  29.254  31.251  1.00  0.00    -0.744 OA
ENDBRANCH  74  75
ENDBRANCH  55  69
BRANCH  56  79
ATOM     79  C   UNL A   1      50.485  27.836  25.933  1.00  0.00    -0.014 A 
ATOM     80  C   UNL A   1      50.841  28.046  24.589  1.00  0.00     0.010 A 
ATOM     81  C   UNL A   1      51.474  27.430  26.847  1.00  0.00     0.010 A 
ATOM     82  C   UNL A   1      52.157  27.838  24.164  1.00  0.00     0.020 A 
ATOM     83  C   UNL A   1      52.795  27.244  26.432  1.00  0.00     0.020 A 
ATOM     84  C   UNL A   1      53.126  27.439  25.089  1.00  0.00     0.054 A 
BRANCH  84  85
ATOM     85  S   UNL A   1      54.838  27.228  24.528  1.00  0.00     0.124 S 
ATOM     86  O   UNL A   1      54.796  27.824  23.196  1.00  0.00    -0.237 OA
ATOM     87  O   UNL A   1      55.595  27.971  25.531  1.00  0.00    -0.237 OA
ATOM     88  O   UNL A   1      55.030  25.779  24.561  1.00  0.00    -0.744 OA
ENDBRANCH  84  85
ENDBRANCH  56  79
BRANCH  68  89
ATOM     89  C   UNL A   1      47.140  33.294  28.697  1.00  0.00    -0.014 A 
ATOM     90  C   UNL A   1      47.054  34.371  27.798  1.00  0.00     0.010 A 
ATOM     91  C   UNL A   1      47.607  33.525  30.004  1.00  0.00     0.010 A 
ATOM     92  C   UNL A   1      47.451  35.652  28.192  1.00  0.00     0.020 A 
ATOM     93  C   UNL A   1      47.982  34.808  30.408  1.00  0.00     0.020 A 
ATOM     94  C   UNL A   1      47.913  35.861  29.496  1.00  0.00     0.054 A 
BRANCH  94  95
ATOM     95  S   UNL A   1      48.376  37.542  29.999  1.00  0.00     0.124 S 
ATOM     96  O   UNL A   1      48.834  37.332  31.370  1.00  0.00    -0.237 OA
ATOM     97  O   UNL A   1      49.417  37.892  29.035  1.00  0.00    -0.237 OA
ATOM     98  O   UNL A   1      47.132  38.297  29.866  1.00  0.00    -0.744 OA
ENDBRANCH  94  95
ENDBRANCH  68  89
ENDBRANCH  42  43
ENDBRANCH  34  37
ENDBRANCH  32  33
ENDBRANCH  31  32
ENDBRANCH  30  31
ENDBRANCH   1  30
TORSDOF 20
ENDMDL
MODEL 2
REMARK VINA RESULT:     -10.8      1.080      7.963
REMARK SMILES CCc1ccc2[nH]c(C(=O)c3cc(C)ccn3)c(CC(=O)NCCCCCCNC(=O)c3ccc(-c4c5nc(c(-c6ccc(S(=O)(=O)[O-])cc6)c6ccc([nH]6)c(-c6ccc(S(=O)(=O)[O-])cc6)c6nc(c(-c7ccc(S(=O)(=O)[O-])cc7)c7ccc4[nH]7)C=C6)C=C5)cc3)c2c1
REMARK SMILES IDX 25 1 24 2 23 3 22 4 20 5 21 6 19 8 18 9 3 10 4 11 93 12 5 13
REMARK SMILES IDX 92 14 6 15 7 16 8 17 2 19 1 20 9 21 10 22 11 23 12 24 17 25
REMARK SMILES IDX 13 26 16 27 14 28 15 29 26 30 27 31 28 32 29 33 30 34 31 36
REMARK SMILES IDX 32 37 33 38 91 39 34 40 90 41 35 42 36 43 37 44 84 45 38 46
REMARK SMILES IDX 89 47 83 48 85 49 39 50 88 51 82 52 81 53 40 55 70 56 51 57
REMARK SMILES IDX 69 58 52 59 55 60 68 61 86 62 53 63 54 64 67 66 87 67 56 68
REMARK SMILES IDX 41 69 42 70 50 71 43 72 49 73 44 74 45 75 46 76 47 77 48 78
REMARK SMILES IDX 71 79 72 80 80 81 73 82 79 83 74 84 75 85 76 86 77 87 78 88
REMARK SMILES IDX 57 89 58 90 66 91 59 92 65 93 60 94 61 95 62 96 63 97 64 98
REMARK H PARENT 22 7 7 18 29 35 85 54 55 65
REMARK Flexibility Score: inf
ROOT
ATOM      1  C   UNL A   1      40.385  23.272  26.560  1.00  0.00     0.002 C 
ENDROOT
BRANCH   1   2
ATOM      2  C   UNL A   1      39.286  24.332  26.717  1.00  0.00     0.021 C 
BRANCH   2   3
ATOM      3  C   UNL A   1      37.883  23.835  26.372  1.00  0.00     0.116 C 
BRANCH   3   4
ATOM      4  N   UNL A   1      37.735  23.554  24.960  1.00  0.00    -0.356 N 
ATOM      5  C   UNL A   1      36.606  23.382  24.212  1.00  0.00     0.224 C 
ATOM      6  O   UNL A   1      36.756  23.321  22.987  1.00  0.00    -0.275 OA
ATOM      7  H   UNL A   1      38.580  23.474  24.461  1.00  0.00     0.163 HD
BRANCH   5   8
ATOM      8  C   UNL A   1      35.216  23.416  24.838  1.00  0.00     0.138 C 
BRANCH   8   9
ATOM      9  C   UNL A   1      34.076  23.027  23.933  1.00  0.00    -0.002 A 
ATOM     10  C   UNL A   1      33.136  19.297  24.056  1.00  0.00    -0.048 A 
ATOM     11  C   UNL A   1      32.153  19.387  23.060  1.00  0.00     0.006 A 
ATOM     12  C   UNL A   1      33.796  20.469  24.457  1.00  0.00     0.014 A 
ATOM     13  C   UNL A   1      31.837  20.601  22.438  1.00  0.00     0.027 A 
ATOM     14  C   UNL A   1      33.521  21.704  23.827  1.00  0.00     0.004 A 
ATOM     15  C   UNL A   1      32.548  21.737  22.837  1.00  0.00     0.046 A 
ATOM     16  N   UNL A   1      32.479  23.032  22.383  1.00  0.00    -0.352 N 
ATOM     17  C   UNL A   1      33.341  23.854  23.082  1.00  0.00     0.093 A 
ATOM     18  H   UNL A   1      31.891  23.334  21.655  1.00  0.00     0.167 HD
BRANCH  10  19
ATOM     19  C   UNL A   1      33.437  17.935  24.647  1.00  0.00     0.032 C 
ATOM     20  C   UNL A   1      34.696  17.234  24.146  1.00  0.00     0.009 C 
ENDBRANCH  10  19
BRANCH  17  21
ATOM     21  C   UNL A   1      33.450  25.300  22.909  1.00  0.00     0.227 C 
ATOM     22  O   UNL A   1      34.030  25.825  21.958  1.00  0.00    -0.285 OA
BRANCH  21  23
ATOM     23  C   UNL A   1      32.899  26.204  23.954  1.00  0.00     0.113 A 
ATOM     24  C   UNL A   1      33.764  26.935  24.763  1.00  0.00     0.036 A 
ATOM     25  N   UNL A   1      31.547  26.280  24.030  1.00  0.00    -0.253 NA
ATOM     26  C   UNL A   1      33.213  27.795  25.715  1.00  0.00    -0.047 A 
ATOM     27  C   UNL A   1      31.041  27.138  24.938  1.00  0.00     0.112 A 
ATOM     28  C   UNL A   1      34.083  28.614  26.620  1.00  0.00     0.044 C 
ATOM     29  C   UNL A   1      31.821  27.902  25.792  1.00  0.00     0.023 A 
ENDBRANCH  21  23
ENDBRANCH  17  21
ENDBRANCH   8   9
ENDBRANCH   5   8
ENDBRANCH   3   4
ENDBRANCH   2   3
ENDBRANCH   1   2
BRANCH   1  30
ATOM     30  C   UNL A   1      40.678  22.437  27.812  1.00  0.00     0.002 C 
BRANCH  30  31
ATOM     31  C   UNL A   1      40.853  20.934  27.574  1.00  0.00     0.021 C 
BRANCH  31  32
ATOM     32  C   UNL A   1      40.804  20.505  26.110  1.00  0.00     0.116 C 
BRANCH  32  33
ATOM     33  N   UNL A   1      41.955  19.699  25.734  1.00  0.00    -0.352 N 
ATOM     34  C   UNL A   1      43.247  20.087  25.483  1.00  0.00     0.251 C 
ATOM     35  H   UNL A   1      41.781  18.733  25.645  1.00  0.00     0.163 HD
ATOM     36  O   UNL A   1      44.044  19.287  24.997  1.00  0.00    -0.269 OA
BRANCH  34  37
ATOM     37  C   UNL A   1      43.680  21.471  25.778  1.00  0.00     0.039 A 
ATOM     38  C   UNL A   1      43.535  22.450  24.792  1.00  0.00     0.014 A 
ATOM     39  C   UNL A   1      44.243  21.800  27.015  1.00  0.00     0.014 A 
ATOM     40  C   UNL A   1      43.899  23.771  25.066  1.00  0.00     0.010 A 
ATOM     41  C   UNL A   1      44.549  23.127  27.307  1.00  0.00     0.010 A 
ATOM     42  C   UNL A   1      44.381  24.126  26.337  1.00  0.00    -0.014 A 
BRANCH  42  43
ATOM     43  C   UNL A   1      44.707  25.536  26.671  1.00  0.00     0.031 A 
ATOM     44  C   UNL A   1      46.111  26.051  26.498  1.00  0.00     0.074 A 
ATOM     45  C   UNL A   1      43.756  26.335  27.194  1.00  0.00     0.049 A 
ATOM     46  N   UNL A   1      46.602  27.224  26.804  1.00  0.00    -0.248 NA
ATOM     47  C   UNL A   1      47.095  25.117  25.927  1.00  0.00     0.031 C 
ATOM     48  C   UNL A   1      42.366  25.946  27.444  1.00  0.00     0.029 A 
ATOM     49  N   UNL A   1      43.816  27.639  27.618  1.00  0.00    -0.354 N 
ATOM     50  C   UNL A   1      47.953  27.165  26.481  1.00  0.00     0.074 A 
ATOM     51  C   UNL A   1      48.212  25.827  25.995  1.00  0.00     0.031 C 
ATOM     52  C   UNL A   1      41.702  26.995  27.957  1.00  0.00     0.029 A 
ATOM     53  C   UNL A   1      42.624  28.115  28.108  1.00  0.00     0.049 A 
ATOM     54  H   UNL A   1      44.637  28.181  27.575  1.00  0.00     0.167 HD
ATOM     55  C   UNL A   1      48.890  28.140  26.566  1.00  0.00     0.031 A 
ATOM     56  C   UNL A   1      42.308  29.318  28.629  1.00  0.00     0.031 A 
ATOM     57  C   UNL A   1      48.627  29.474  27.037  1.00  0.00     0.049 A 
ATOM     58  C   UNL A   1      43.365  30.382  28.717  1.00  0.00     0.074 A 
ATOM     59  C   UNL A   1      49.499  30.547  27.112  1.00  0.00     0.029 A 
ATOM     60  N   UNL A   1      47.403  29.921  27.511  1.00  0.00    -0.354 N 
ATOM     61  N   UNL A   1      44.625  30.323  28.358  1.00  0.00    -0.248 NA
ATOM     62  C   UNL A   1      42.956  31.680  29.273  1.00  0.00     0.031 C 
ATOM     63  C   UNL A   1      48.812  31.631  27.672  1.00  0.00     0.029 A 
ATOM     64  C   UNL A   1      47.501  31.246  27.899  1.00  0.00     0.049 A 
ATOM     65  H   UNL A   1      46.586  29.375  27.565  1.00  0.00     0.167 HD
ATOM     66  C   UNL A   1      45.153  31.582  28.621  1.00  0.00     0.074 A 
ATOM     67  C   UNL A   1      44.073  32.386  29.158  1.00  0.00     0.031 C 
ATOM     68  C   UNL A   1      46.417  32.033  28.433  1.00  0.00     0.031 A 
BRANCH  55  69
ATOM     69  C   UNL A   1      50.293  27.794  26.144  1.00  0.00    -0.014 A 
ATOM     70  C   UNL A   1      50.689  27.888  24.798  1.00  0.00     0.010 A 
ATOM     71  C   UNL A   1      51.236  27.400  27.109  1.00  0.00     0.010 A 
ATOM     72  C   UNL A   1      51.991  27.550  24.418  1.00  0.00     0.020 A 
ATOM     73  C   UNL A   1      52.548  27.088  26.737  1.00  0.00     0.020 A 
ATOM     74  C   UNL A   1      52.910  27.147  25.389  1.00  0.00     0.054 A 
BRANCH  74  75
ATOM     75  S   UNL A   1      54.597  26.727  24.872  1.00  0.00     0.124 S 
ATOM     76  O   UNL A   1      54.412  25.394  24.302  1.00  0.00    -0.237 OA
ATOM     77  O   UNL A   1      54.912  27.782  23.911  1.00  0.00    -0.237 OA
ATOM     78  O   UNL A   1      55.363  26.772  26.115  1.00  0.00    -0.744 OA
ENDBRANCH  74  75
ENDBRANCH  55  69
BRANCH  56  79
ATOM     79  C   UNL A   1      40.920  29.582  29.093  1.00  0.00    -0.014 A 
ATOM     80  C   UNL A   1      39.881  29.757  28.162  1.00  0.00     0.010 A 
ATOM     81  C   UNL A   1      40.625  29.641  30.466  1.00  0.00     0.010 A 
ATOM     82  C   UNL A   1      38.575  30.005  28.597  1.00  0.00     0.020 A 
ATOM     83  C   UNL A   1      39.317  29.863  30.906  1.00  0.00     0.020 A 
ATOM     84  C   UNL A   1      38.302  30.055  29.967  1.00  0.00     0.054 A 
BRANCH  84  85
ATOM     85  S   UNL A   1      36.591  30.322  30.510  1.00  0.00     0.124 S 
ATOM     86  O   UNL A   1      35.850  30.173  29.261  1.00  0.00    -0.237 OA
ATOM     87  O   UNL A   1      36.400  29.258  31.491  1.00  0.00    -0.237 OA
ATOM     88  O   UNL A   1      36.618  31.674  31.066  1.00  0.00    -0.744 OA
ENDBRANCH  84  85
ENDBRANCH  56  79
BRANCH  68  89
ATOM     89  C   UNL A   1      46.699  33.469  28.779  1.00  0.00    -0.014 A 
ATOM     90  C   UNL A   1      46.508  34.495  27.837  1.00  0.00     0.010 A 
ATOM     91  C   UNL A   1      47.110  33.801  30.084  1.00  0.00     0.010 A 
ATOM     92  C   UNL A   1      46.748  35.827  28.187  1.00  0.00     0.020 A 
ATOM     93  C   UNL A   1      47.326  35.133  30.444  1.00  0.00     0.020 A 
ATOM     94  C   UNL A   1      47.157  36.137  29.489  1.00  0.00     0.054 A 
BRANCH  94  95
ATOM     95  S   UNL A   1      47.413  37.876  29.934  1.00  0.00     0.124 S 
ATOM     96  O   UNL A   1      46.840  37.934  31.275  1.00  0.00    -0.237 OA
ATOM     97  O   UNL A   1      48.866  38.016  29.865  1.00  0.00    -0.237 OA
ATOM     98  O   UNL A   1      46.674  38.608  28.908  1.00  0.00    -0.744 OA
ENDBRANCH  94  95
ENDBRANCH  68  89
ENDBRANCH  42  43
ENDBRANCH  34  37
ENDBRANCH  32  33
ENDBRANCH  31  32
ENDBRANCH  30  31
ENDBRANCH   1  30
TORSDOF 20
ENDMDL
MODEL 3
REMARK VINA RESULT:     -10.7      0.822      8.589
REMARK SMILES CCc1ccc2[nH]c(C(=O)c3cc(C)ccn3)c(CC(=O)NCCCCCCNC(=O)c3ccc(-c4c5nc(c(-c6ccc(S(=O)(=O)[O-])cc6)c6ccc([nH]6)c(-c6ccc(S(=O)(=O)[O-])cc6)c6nc(c(-c7ccc(S(=O)(=O)[O-])cc7)c7ccc4[nH]7)C=C6)C=C5)cc3)c2c1
REMARK SMILES IDX 25 1 24 2 23 3 22 4 20 5 21 6 19 8 18 9 3 10 4 11 93 12 5 13
REMARK SMILES IDX 92 14 6 15 7 16 8 17 2 19 1 20 9 21 10 22 11 23 12 24 17 25
REMARK SMILES IDX 13 26 16 27 14 28 15 29 26 30 27 31 28 32 29 33 30 34 31 36
REMARK SMILES IDX 32 37 33 38 91 39 34 40 90 41 35 42 36 43 37 44 84 45 38 46
REMARK SMILES IDX 89 47 83 48 85 49 39 50 88 51 82 52 81 53 40 55 70 56 51 57
REMARK SMILES IDX 69 58 52 59 55 60 68 61 86 62 53 63 54 64 67 66 87 67 56 68
REMARK SMILES IDX 41 69 42 70 50 71 43 72 49 73 44 74 45 75 46 76 47 77 48 78
REMARK SMILES IDX 71 79 72 80 80 81 73 82 79 83 74 84 75 85 76 86 77 87 78 88
REMARK SMILES IDX 57 89 58 90 66 91 59 92 65 93 60 94 61 95 62 96 63 97 64 98
REMARK H PARENT 22 7 7 18 29 35 85 54 55 65
REMARK Flexibility Score: inf
ROOT
ATOM      1  C   UNL A   1      40.744  22.851  26.741  1.00  0.00     0.002 C 
ENDROOT
BRANCH   1   2
ATOM      2  C   UNL A   1      39.325  23.372  26.473  1.00  0.00     0.021 C 
BRANCH   2   3
ATOM      3  C   UNL A   1      38.317  22.283  26.107  1.00  0.00     0.116 C 
BRANCH   3   4
ATOM      4  N   UNL A   1      37.834  22.421  24.750  1.00  0.00    -0.356 N 
ATOM      5  C   UNL A   1      36.755  23.105  24.267  1.00  0.00     0.224 C 
ATOM      6  O   UNL A   1      36.663  23.200  23.039  1.00  0.00    -0.275 OA
ATOM      7  H   UNL A   1      38.364  21.947  24.069  1.00  0.00     0.163 HD
BRANCH   5   8
ATOM      8  C   UNL A   1      35.795  23.845  25.192  1.00  0.00     0.138 C 
BRANCH   8   9
ATOM      9  C   UNL A   1      34.330  23.709  24.867  1.00  0.00    -0.002 A 
ATOM     10  C   UNL A   1      32.667  26.935  23.587  1.00  0.00    -0.048 A 
ATOM     11  C   UNL A   1      31.381  26.383  23.502  1.00  0.00     0.006 A 
ATOM     12  C   UNL A   1      33.730  26.106  23.979  1.00  0.00     0.014 A 
ATOM     13  C   UNL A   1      31.126  25.044  23.826  1.00  0.00     0.027 A 
ATOM     14  C   UNL A   1      33.499  24.760  24.343  1.00  0.00     0.004 A 
ATOM     15  C   UNL A   1      32.205  24.265  24.254  1.00  0.00     0.046 A 
ATOM     16  N   UNL A   1      32.246  22.956  24.667  1.00  0.00    -0.352 N 
ATOM     17  C   UNL A   1      33.535  22.566  24.973  1.00  0.00     0.093 A 
ATOM     18  H   UNL A   1      31.458  22.370  24.735  1.00  0.00     0.167 HD
BRANCH  10  19
ATOM     19  C   UNL A   1      32.842  28.402  23.251  1.00  0.00     0.032 C 
ATOM     20  C   UNL A   1      34.148  28.798  22.571  1.00  0.00     0.009 C 
ENDBRANCH  10  19
BRANCH  17  21
ATOM     21  C   UNL A   1      33.938  21.216  25.358  1.00  0.00     0.227 C 
ATOM     22  O   UNL A   1      34.636  20.974  26.343  1.00  0.00    -0.285 OA
BRANCH  21  23
ATOM     23  C   UNL A   1      33.552  20.066  24.497  1.00  0.00     0.113 A 
ATOM     24  C   UNL A   1      34.178  18.835  24.665  1.00  0.00     0.036 A 
ATOM     25  N   UNL A   1      32.562  20.295  23.597  1.00  0.00    -0.253 NA
ATOM     26  C   UNL A   1      33.772  17.769  23.860  1.00  0.00    -0.047 A 
ATOM     27  C   UNL A   1      32.171  19.244  22.852  1.00  0.00     0.112 A 
ATOM     28  C   UNL A   1      34.400  16.414  23.986  1.00  0.00     0.044 C 
ATOM     29  C   UNL A   1      32.738  17.982  22.942  1.00  0.00     0.023 A 
ENDBRANCH  21  23
ENDBRANCH  17  21
ENDBRANCH   8   9
ENDBRANCH   5   8
ENDBRANCH   3   4
ENDBRANCH   2   3
ENDBRANCH   1   2
BRANCH   1  30
ATOM     30  C   UNL A   1      40.861  21.801  27.853  1.00  0.00     0.002 C 
BRANCH  30  31
ATOM     31  C   UNL A   1      41.375  20.428  27.410  1.00  0.00     0.021 C 
BRANCH  31  32
ATOM     32  C   UNL A   1      41.349  20.188  25.904  1.00  0.00     0.116 C 
BRANCH  32  33
ATOM     33  N   UNL A   1      42.515  19.449  25.444  1.00  0.00    -0.352 N 
ATOM     34  C   UNL A   1      43.770  19.906  25.131  1.00  0.00     0.251 C 
ATOM     35  H   UNL A   1      42.383  18.477  25.343  1.00  0.00     0.163 HD
ATOM     36  O   UNL A   1      44.576  19.156  24.583  1.00  0.00    -0.269 OA
BRANCH  34  37
ATOM     37  C   UNL A   1      44.151  21.303  25.435  1.00  0.00     0.039 A 
ATOM     38  C   UNL A   1      43.946  22.286  24.464  1.00  0.00     0.014 A 
ATOM     39  C   UNL A   1      44.725  21.640  26.664  1.00  0.00     0.014 A 
ATOM     40  C   UNL A   1      44.260  23.618  24.747  1.00  0.00     0.010 A 
ATOM     41  C   UNL A   1      44.982  22.976  26.967  1.00  0.00     0.010 A 
ATOM     42  C   UNL A   1      44.753  23.978  26.012  1.00  0.00    -0.014 A 
BRANCH  42  43
ATOM     43  C   UNL A   1      45.027  25.396  26.357  1.00  0.00     0.031 A 
ATOM     44  C   UNL A   1      46.422  25.950  26.237  1.00  0.00     0.074 A 
ATOM     45  C   UNL A   1      44.036  26.168  26.843  1.00  0.00     0.049 A 
ATOM     46  N   UNL A   1      46.869  27.136  26.561  1.00  0.00    -0.248 NA
ATOM     47  C   UNL A   1      47.453  25.044  25.705  1.00  0.00     0.031 C 
ATOM     48  C   UNL A   1      42.648  25.742  27.041  1.00  0.00     0.029 A 
ATOM     49  N   UNL A   1      44.044  27.474  27.268  1.00  0.00    -0.354 N 
ATOM     50  C   UNL A   1      48.232  27.115  26.289  1.00  0.00     0.074 A 
ATOM     51  C   UNL A   1      48.546  25.784  25.814  1.00  0.00     0.031 C 
ATOM     52  C   UNL A   1      41.936  26.772  27.527  1.00  0.00     0.029 A 
ATOM     53  C   UNL A   1      42.821  27.917  27.713  1.00  0.00     0.049 A 
ATOM     54  H   UNL A   1      44.850  28.039  27.256  1.00  0.00     0.167 HD
ATOM     55  C   UNL A   1      49.137  28.115  26.409  1.00  0.00     0.031 A 
ATOM     56  C   UNL A   1      42.452  29.110  28.220  1.00  0.00     0.031 A 
ATOM     57  C   UNL A   1      48.821  29.441  26.869  1.00  0.00     0.049 A 
ATOM     58  C   UNL A   1      43.475  30.204  28.348  1.00  0.00     0.074 A 
ATOM     59  C   UNL A   1      49.659  30.538  26.976  1.00  0.00     0.029 A 
ATOM     60  N   UNL A   1      47.567  29.854  27.296  1.00  0.00    -0.354 N 
ATOM     61  N   UNL A   1      44.750  30.179  28.037  1.00  0.00    -0.248 NA
ATOM     62  C   UNL A   1      43.010  31.489  28.887  1.00  0.00     0.031 C 
ATOM     63  C   UNL A   1      48.922  31.602  27.508  1.00  0.00     0.029 A 
ATOM     64  C   UNL A   1      47.614  31.181  27.686  1.00  0.00     0.049 A 
ATOM     65  H   UNL A   1      46.764  29.286  27.319  1.00  0.00     0.167 HD
ATOM     66  C   UNL A   1      45.232  31.452  28.319  1.00  0.00     0.074 A 
ATOM     67  C   UNL A   1      44.111  32.226  28.813  1.00  0.00     0.031 C 
ATOM     68  C   UNL A   1      46.489  31.937  28.177  1.00  0.00     0.031 A 
BRANCH  55  69
ATOM     69  C   UNL A   1      50.564  27.808  26.041  1.00  0.00    -0.014 A 
ATOM     70  C   UNL A   1      51.036  28.013  24.732  1.00  0.00     0.010 A 
ATOM     71  C   UNL A   1      51.455  27.338  27.023  1.00  0.00     0.010 A 
ATOM     72  C   UNL A   1      52.359  27.710  24.400  1.00  0.00     0.020 A 
ATOM     73  C   UNL A   1      52.787  27.060  26.702  1.00  0.00     0.020 A 
ATOM     74  C   UNL A   1      53.225  27.231  25.386  1.00  0.00     0.054 A 
BRANCH  74  75
ATOM     75  S   UNL A   1      54.941  26.858  24.933  1.00  0.00     0.124 S 
ATOM     76  O   UNL A   1      55.667  27.293  26.124  1.00  0.00    -0.237 OA
ATOM     77  O   UNL A   1      54.909  25.414  24.711  1.00  0.00    -0.237 OA
ATOM     78  O   UNL A   1      55.166  27.664  23.735  1.00  0.00    -0.744 OA
ENDBRANCH  74  75
ENDBRANCH  55  69
BRANCH  56  79
ATOM     79  C   UNL A   1      41.041  29.336  28.631  1.00  0.00    -0.014 A 
ATOM     80  C   UNL A   1      40.018  29.376  27.667  1.00  0.00     0.010 A 
ATOM     81  C   UNL A   1      40.709  29.494  29.988  1.00  0.00     0.010 A 
ATOM     82  C   UNL A   1      38.690  29.586  28.052  1.00  0.00     0.020 A 
ATOM     83  C   UNL A   1      39.380  29.680  30.380  1.00  0.00     0.020 A 
ATOM     84  C   UNL A   1      38.380  29.736  29.407  1.00  0.00     0.054 A 
BRANCH  84  85
ATOM     85  S   UNL A   1      36.644  29.954  29.889  1.00  0.00     0.124 S 
ATOM     86  O   UNL A   1      36.563  31.398  30.083  1.00  0.00    -0.237 OA
ATOM     87  O   UNL A   1      35.925  29.429  28.732  1.00  0.00    -0.237 OA
ATOM     88  O   UNL A   1      36.526  29.150  31.104  1.00  0.00    -0.744 OA
ENDBRANCH  84  85
ENDBRANCH  56  79
BRANCH  68  89
ATOM     89  C   UNL A   1      46.719  33.381  28.533  1.00  0.00    -0.014 A 
ATOM     90  C   UNL A   1      47.060  33.761  29.843  1.00  0.00     0.010 A 
ATOM     91  C   UNL A   1      46.645  34.364  27.529  1.00  0.00     0.010 A 
ATOM     92  C   UNL A   1      47.298  35.104  30.148  1.00  0.00     0.020 A 
ATOM     93  C   UNL A   1      46.907  35.704  27.825  1.00  0.00     0.020 A 
ATOM     94  C   UNL A   1      47.219  36.067  29.136  1.00  0.00     0.054 A 
BRANCH  94  95
ATOM     95  S   UNL A   1      47.582  37.797  29.545  1.00  0.00     0.124 S 
ATOM     96  O   UNL A   1      47.087  37.894  30.915  1.00  0.00    -0.237 OA
ATOM     97  O   UNL A   1      49.034  37.866  29.395  1.00  0.00    -0.237 OA
ATOM     98  O   UNL A   1      46.822  38.553  28.553  1.00  0.00    -0.744 OA
ENDBRANCH  94  95
ENDBRANCH  68  89
ENDBRANCH  42  43
ENDBRANCH  34  37
ENDBRANCH  32  33
ENDBRANCH  31  32
ENDBRANCH  30  31
ENDBRANCH   1  30
TORSDOF 20
ENDMDL
