MODEL 1
REMARK VINA RESULT:     -12.4      0.000      0.000
REMARK SMILES CC(C)OC(=O)c1c(NC(=O)[C@H]2[C@@H](C(=O)NCCCCCCNC(=O)c3ccc(-c4c5nc(c(-c6ccc(S(=O)(=O)[O-])cc6)c6ccc([nH]6)c(-c6ccc(S(=O)(=O)[O-])cc6)c6nc(c(-c7ccc(S(=O)(=O)[O-])cc7)c7ccc4[nH]7)C=C6)C=C5)cc3)[C@@H]3C=C[C@H]2CC3)sc2c1CCC2
REMARK SMILES IDX 18 1 17 2 16 3 14 4 15 5 13 7 12 8 89 9 86 10 88 11 90 12
REMARK SMILES IDX 87 13 91 14 10 15 9 16 11 18 8 19 7 20 94 21 92 22 93 23
REMARK SMILES IDX 95 24 97 25 96 26 5 27 6 28 4 29 2 30 1 31 3 32 19 33 20 34
REMARK SMILES IDX 21 35 22 36 23 37 24 38 25 40 26 41 27 42 85 43 28 44 84 45
REMARK SMILES IDX 29 46 30 47 31 48 78 49 32 50 83 51 77 52 79 53 33 54 82 55
REMARK SMILES IDX 76 56 75 57 34 59 64 60 45 61 63 62 46 63 49 64 62 65 80 66
REMARK SMILES IDX 47 67 48 68 61 70 81 71 50 72 35 73 36 74 44 75 37 76 43 77
REMARK SMILES IDX 38 78 39 79 40 80 41 81 42 82 65 83 66 84 74 85 67 86 73 87
REMARK SMILES IDX 68 88 69 89 70 90 71 91 72 92 51 93 52 94 60 95 53 96 59 97
REMARK SMILES IDX 54 98 55 99 56 100 57 101 58 102
REMARK H PARENT 16 6 9 17 23 39 79 58 49 69
REMARK Flexibility Score: inf
ROOT
ATOM      1  C   UNL A   1      34.791  22.823  26.839  1.00  0.00     0.021 C 
ENDROOT
BRANCH   1   2
ATOM      2  C   UNL A   1      33.666  22.517  27.821  1.00  0.00     0.116 C 
BRANCH   2   3
ATOM      3  N   UNL A   1      32.357  22.309  27.231  1.00  0.00    -0.356 N 
ATOM      4  C   UNL A   1      31.943  22.429  25.928  1.00  0.00     0.224 C 
ATOM      5  O   UNL A   1      30.929  21.795  25.636  1.00  0.00    -0.275 OA
ATOM      6  H   UNL A   1      31.654  22.038  27.866  1.00  0.00     0.163 HD
BRANCH   4   7
ATOM      7  C   UNL A   1      32.736  23.272  24.899  1.00  0.00     0.098 C 
ATOM      8  C   UNL A   1      32.258  24.805  24.694  1.00  0.00     0.099 C 
ATOM      9  C   UNL A   1      31.581  24.861  23.286  1.00  0.00     0.025 C 
ATOM     10  C   UNL A   1      32.714  22.582  23.486  1.00  0.00     0.025 C 
ATOM     11  C   UNL A   1      32.725  24.664  22.306  1.00  0.00    -0.027 C 
ATOM     12  C   UNL A   1      30.543  23.745  23.097  1.00  0.00     0.009 C 
ATOM     13  C   UNL A   1      33.350  23.490  22.454  1.00  0.00    -0.027 C 
ATOM     14  C   UNL A   1      31.240  22.386  23.070  1.00  0.00     0.009 C 
BRANCH   8  15
ATOM     15  C   UNL A   1      31.589  25.544  25.887  1.00  0.00     0.229 C 
ATOM     16  N   UNL A   1      30.546  26.431  25.755  1.00  0.00    -0.317 N 
ATOM     17  H   UNL A   1      29.999  26.551  26.564  1.00  0.00     0.170 HD
ATOM     18  O   UNL A   1      32.049  25.423  27.029  1.00  0.00    -0.274 OA
BRANCH  16  19
ATOM     19  C   UNL A   1      30.143  27.177  24.667  1.00  0.00     0.110 A 
ATOM     20  C   UNL A   1      30.790  28.251  24.046  1.00  0.00     0.098 A 
ATOM     21  C   UNL A   1      29.805  28.961  23.288  1.00  0.00    -0.017 A 
ATOM     22  S   UNL A   1      28.737  26.702  23.783  1.00  0.00    -0.122 S 
ATOM     23  C   UNL A   1      28.626  28.270  23.210  1.00  0.00     0.011 A 
ATOM     24  C   UNL A   1      29.670  30.275  22.606  1.00  0.00     0.038 C 
ATOM     25  C   UNL A   1      27.482  29.027  22.664  1.00  0.00     0.047 C 
ATOM     26  C   UNL A   1      28.115  30.442  22.498  1.00  0.00     0.010 C 
BRANCH  20  27
ATOM     27  C   UNL A   1      32.186  28.583  24.309  1.00  0.00     0.341 C 
ATOM     28  O   UNL A   1      33.098  27.818  24.002  1.00  0.00    -0.246 OA
BRANCH  27  29
ATOM     29  O   UNL A   1      32.370  29.817  24.857  1.00  0.00    -0.459 OA
BRANCH  29  30
ATOM     30  C   UNL A   1      31.862  30.092  26.186  1.00  0.00     0.170 C 
ATOM     31  C   UNL A   1      32.870  29.920  27.323  1.00  0.00     0.052 C 
ATOM     32  C   UNL A   1      31.184  31.458  26.210  1.00  0.00     0.052 C 
ENDBRANCH  29  30
ENDBRANCH  27  29
ENDBRANCH  20  27
ENDBRANCH  16  19
ENDBRANCH   8  15
ENDBRANCH   4   7
ENDBRANCH   2   3
ENDBRANCH   1   2
BRANCH   1  33
ATOM     33  C   UNL A   1      35.499  21.638  26.183  1.00  0.00     0.002 C 
BRANCH  33  34
ATOM     34  C   UNL A   1      36.245  21.857  24.862  1.00  0.00     0.002 C 
BRANCH  34  35
ATOM     35  C   UNL A   1      37.778  21.842  24.853  1.00  0.00     0.021 C 
BRANCH  35  36
ATOM     36  C   UNL A   1      38.473  22.308  26.124  1.00  0.00     0.116 C 
BRANCH  36  37
ATOM     37  N   UNL A   1      39.733  21.620  26.404  1.00  0.00    -0.352 N 
ATOM     38  C   UNL A   1      40.991  22.175  26.578  1.00  0.00     0.251 C 
ATOM     39  H   UNL A   1      39.681  20.639  26.477  1.00  0.00     0.163 HD
ATOM     40  O   UNL A   1      42.000  21.501  26.395  1.00  0.00    -0.269 OA
BRANCH  38  41
ATOM     41  C   UNL A   1      41.100  23.589  26.988  1.00  0.00     0.039 A 
ATOM     42  C   UNL A   1      40.178  24.559  26.588  1.00  0.00     0.014 A 
ATOM     43  C   UNL A   1      42.154  23.932  27.826  1.00  0.00     0.014 A 
ATOM     44  C   UNL A   1      40.288  25.847  27.116  1.00  0.00     0.010 A 
ATOM     45  C   UNL A   1      42.135  25.121  28.501  1.00  0.00     0.010 A 
ATOM     46  C   UNL A   1      41.259  26.116  28.095  1.00  0.00    -0.014 A 
BRANCH  46  47
ATOM     47  C   UNL A   1      41.333  27.404  28.774  1.00  0.00     0.031 A 
ATOM     48  C   UNL A   1      42.385  28.315  28.259  1.00  0.00     0.074 A 
ATOM     49  C   UNL A   1      40.406  27.841  29.657  1.00  0.00     0.049 A 
ATOM     50  N   UNL A   1      43.506  28.610  28.825  1.00  0.00    -0.248 NA
ATOM     51  C   UNL A   1      42.253  28.835  26.888  1.00  0.00     0.031 C 
ATOM     52  C   UNL A   1      39.139  27.206  30.048  1.00  0.00     0.029 A 
ATOM     53  N   UNL A   1      40.353  29.027  30.319  1.00  0.00    -0.354 N 
ATOM     54  C   UNL A   1      44.117  29.543  27.998  1.00  0.00     0.074 A 
ATOM     55  C   UNL A   1      43.411  29.484  26.742  1.00  0.00     0.031 C 
ATOM     56  C   UNL A   1      38.349  28.109  30.670  1.00  0.00     0.029 A 
ATOM     57  C   UNL A   1      39.121  29.315  30.897  1.00  0.00     0.049 A 
ATOM     58  H   UNL A   1      41.126  29.634  30.386  1.00  0.00     0.167 HD
ATOM     59  C   UNL A   1      44.980  30.473  28.496  1.00  0.00     0.031 A 
ATOM     60  C   UNL A   1      38.757  30.468  31.512  1.00  0.00     0.031 A 
ATOM     61  C   UNL A   1      45.361  30.168  29.853  1.00  0.00     0.049 A 
ATOM     62  C   UNL A   1      40.010  31.142  31.926  1.00  0.00     0.074 A 
ATOM     63  C   UNL A   1      45.979  29.102  30.476  1.00  0.00     0.029 A 
ATOM     64  N   UNL A   1      44.715  30.867  30.848  1.00  0.00    -0.354 N 
ATOM     65  N   UNL A   1      40.822  30.653  32.822  1.00  0.00    -0.248 NA
ATOM     66  C   UNL A   1      40.595  32.123  31.027  1.00  0.00     0.031 C 
ATOM     67  C   UNL A   1      45.289  28.948  31.715  1.00  0.00     0.029 A 
ATOM     68  C   UNL A   1      44.343  29.972  31.818  1.00  0.00     0.049 A 
ATOM     69  H   UNL A   1      44.551  31.838  30.861  1.00  0.00     0.167 HD
ATOM     70  C   UNL A   1      42.092  30.915  32.331  1.00  0.00     0.074 A 
ATOM     71  C   UNL A   1      41.890  31.913  31.281  1.00  0.00     0.031 C 
ATOM     72  C   UNL A   1      43.147  30.097  32.627  1.00  0.00     0.031 A 
BRANCH  59  73
ATOM     73  C   UNL A   1      45.144  31.861  27.924  1.00  0.00    -0.014 A 
ATOM     74  C   UNL A   1      46.446  32.335  27.663  1.00  0.00     0.010 A 
ATOM     75  C   UNL A   1      44.101  32.809  27.897  1.00  0.00     0.010 A 
ATOM     76  C   UNL A   1      46.697  33.698  27.460  1.00  0.00     0.020 A 
ATOM     77  C   UNL A   1      44.334  34.164  27.652  1.00  0.00     0.020 A 
ATOM     78  C   UNL A   1      45.637  34.605  27.470  1.00  0.00     0.054 A 
BRANCH  78  79
ATOM     79  S   UNL A   1      45.982  36.374  27.315  1.00  0.00     0.124 S 
ATOM     80  O   UNL A   1      46.935  36.589  28.398  1.00  0.00    -0.237 OA
ATOM     81  O   UNL A   1      46.524  36.464  25.962  1.00  0.00    -0.237 OA
ATOM     82  O   UNL A   1      44.671  36.993  27.498  1.00  0.00    -0.744 OA
ENDBRANCH  78  79
ENDBRANCH  59  73
BRANCH  60  83
ATOM     83  C   UNL A   1      37.440  31.150  31.497  1.00  0.00    -0.014 A 
ATOM     84  C   UNL A   1      36.644  31.210  32.657  1.00  0.00     0.010 A 
ATOM     85  C   UNL A   1      37.102  32.004  30.427  1.00  0.00     0.010 A 
ATOM     86  C   UNL A   1      35.599  32.143  32.772  1.00  0.00     0.020 A 
ATOM     87  C   UNL A   1      36.059  32.933  30.532  1.00  0.00     0.020 A 
ATOM     88  C   UNL A   1      35.329  33.018  31.716  1.00  0.00     0.054 A 
BRANCH  88  89
ATOM     89  S   UNL A   1      34.118  34.355  31.947  1.00  0.00     0.124 S 
ATOM     90  O   UNL A   1      33.235  33.802  32.970  1.00  0.00    -0.237 OA
ATOM     91  O   UNL A   1      34.956  35.473  32.371  1.00  0.00    -0.237 OA
ATOM     92  O   UNL A   1      33.516  34.505  30.624  1.00  0.00    -0.744 OA
ENDBRANCH  88  89
ENDBRANCH  60  83
BRANCH  72  93
ATOM     93  C   UNL A   1      42.988  29.092  33.747  1.00  0.00    -0.014 A 
ATOM     94  C   UNL A   1      43.452  29.290  35.063  1.00  0.00     0.010 A 
ATOM     95  C   UNL A   1      42.202  27.956  33.482  1.00  0.00     0.010 A 
ATOM     96  C   UNL A   1      43.156  28.362  36.077  1.00  0.00     0.020 A 
ATOM     97  C   UNL A   1      41.889  27.040  34.488  1.00  0.00     0.020 A 
ATOM     98  C   UNL A   1      42.376  27.241  35.780  1.00  0.00     0.054 A 
BRANCH  98  99
ATOM     99  S   UNL A   1      41.959  26.062  37.096  1.00  0.00     0.124 S 
ATOM    100  O   UNL A   1      40.586  26.428  37.429  1.00  0.00    -0.237 OA
ATOM    101  O   UNL A   1      42.124  24.768  36.438  1.00  0.00    -0.237 OA
ATOM    102  O   UNL A   1      42.944  26.343  38.140  1.00  0.00    -0.744 OA
ENDBRANCH  98  99
ENDBRANCH  72  93
ENDBRANCH  46  47
ENDBRANCH  38  41
ENDBRANCH  36  37
ENDBRANCH  35  36
ENDBRANCH  34  35
ENDBRANCH  33  34
ENDBRANCH   1  33
TORSDOF 21
ENDMDL
MODEL 2
REMARK VINA RESULT:     -12.4      3.037      7.205
REMARK SMILES CC(C)OC(=O)c1c(NC(=O)[C@H]2[C@@H](C(=O)NCCCCCCNC(=O)c3ccc(-c4c5nc(c(-c6ccc(S(=O)(=O)[O-])cc6)c6ccc([nH]6)c(-c6ccc(S(=O)(=O)[O-])cc6)c6nc(c(-c7ccc(S(=O)(=O)[O-])cc7)c7ccc4[nH]7)C=C6)C=C5)cc3)[C@@H]3C=C[C@H]2CC3)sc2c1CCC2
REMARK SMILES IDX 18 1 17 2 16 3 14 4 15 5 13 7 12 8 89 9 86 10 88 11 90 12
REMARK SMILES IDX 87 13 91 14 10 15 9 16 11 18 8 19 7 20 94 21 92 22 93 23
REMARK SMILES IDX 95 24 97 25 96 26 5 27 6 28 4 29 2 30 1 31 3 32 19 33 20 34
REMARK SMILES IDX 21 35 22 36 23 37 24 38 25 40 26 41 27 42 85 43 28 44 84 45
REMARK SMILES IDX 29 46 30 47 31 48 78 49 32 50 83 51 77 52 79 53 33 54 82 55
REMARK SMILES IDX 76 56 75 57 34 59 64 60 45 61 63 62 46 63 49 64 62 65 80 66
REMARK SMILES IDX 47 67 48 68 61 70 81 71 50 72 35 73 36 74 44 75 37 76 43 77
REMARK SMILES IDX 38 78 39 79 40 80 41 81 42 82 65 83 66 84 74 85 67 86 73 87
REMARK SMILES IDX 68 88 69 89 70 90 71 91 72 92 51 93 52 94 60 95 53 96 59 97
REMARK SMILES IDX 54 98 55 99 56 100 57 101 58 102
REMARK H PARENT 16 6 9 17 23 39 79 58 49 69
REMARK Flexibility Score: inf
ROOT
ATOM      1  C   UNL A   1      37.801  23.139  25.232  1.00  0.00     0.021 C 
ENDROOT
BRANCH   1   2
ATOM      2  C   UNL A   1      36.870  24.097  25.967  1.00  0.00     0.116 C 
BRANCH   2   3
ATOM      3  N   UNL A   1      35.877  23.476  26.822  1.00  0.00    -0.356 N 
ATOM      4  C   UNL A   1      34.692  22.862  26.500  1.00  0.00     0.224 C 
ATOM      5  O   UNL A   1      34.268  22.063  27.337  1.00  0.00    -0.275 OA
ATOM      6  H   UNL A   1      36.085  23.497  27.784  1.00  0.00     0.163 HD
BRANCH   4   7
ATOM      7  C   UNL A   1      33.975  23.133  25.155  1.00  0.00     0.098 C 
ATOM      8  C   UNL A   1      32.393  23.464  25.230  1.00  0.00     0.099 C 
ATOM      9  C   UNL A   1      31.661  22.208  24.652  1.00  0.00     0.025 C 
ATOM     10  C   UNL A   1      34.152  21.913  24.179  1.00  0.00     0.025 C 
ATOM     11  C   UNL A   1      32.003  22.217  23.173  1.00  0.00    -0.027 C 
ATOM     12  C   UNL A   1      32.162  20.904  25.289  1.00  0.00     0.009 C 
ATOM     13  C   UNL A   1      33.316  22.118  22.933  1.00  0.00    -0.027 C 
ATOM     14  C   UNL A   1      33.613  20.650  24.885  1.00  0.00     0.009 C 
BRANCH   8  15
ATOM     15  C   UNL A   1      31.831  24.146  26.509  1.00  0.00     0.229 C 
ATOM     16  N   UNL A   1      31.237  25.386  26.523  1.00  0.00    -0.317 N 
ATOM     17  H   UNL A   1      30.630  25.547  27.282  1.00  0.00     0.170 HD
ATOM     18  O   UNL A   1      31.986  23.612  27.616  1.00  0.00    -0.274 OA
BRANCH  16  19
ATOM     19  C   UNL A   1      31.355  26.441  25.642  1.00  0.00     0.110 A 
ATOM     20  C   UNL A   1      31.366  27.815  25.908  1.00  0.00     0.098 A 
ATOM     21  C   UNL A   1      31.054  28.487  24.684  1.00  0.00    -0.017 A 
ATOM     22  S   UNL A   1      31.698  26.126  23.979  1.00  0.00    -0.122 S 
ATOM     23  C   UNL A   1      31.071  27.634  23.614  1.00  0.00     0.011 A 
ATOM     24  C   UNL A   1      30.649  29.848  24.242  1.00  0.00     0.038 C 
ATOM     25  C   UNL A   1      30.523  28.181  22.357  1.00  0.00     0.047 C 
ATOM     26  C   UNL A   1      30.008  29.571  22.838  1.00  0.00     0.010 C 
BRANCH  20  27
ATOM     27  C   UNL A   1      31.529  28.351  27.254  1.00  0.00     0.341 C 
ATOM     28  O   UNL A   1      31.411  27.639  28.250  1.00  0.00    -0.246 OA
BRANCH  27  29
ATOM     29  O   UNL A   1      31.877  29.668  27.291  1.00  0.00    -0.459 OA
BRANCH  29  30
ATOM     30  C   UNL A   1      33.234  30.058  26.963  1.00  0.00     0.170 C 
ATOM     31  C   UNL A   1      33.671  31.423  27.495  1.00  0.00     0.052 C 
ATOM     32  C   UNL A   1      34.202  28.945  27.348  1.00  0.00     0.052 C 
ENDBRANCH  29  30
ENDBRANCH  27  29
ENDBRANCH  20  27
ENDBRANCH  16  19
ENDBRANCH   8  15
ENDBRANCH   4   7
ENDBRANCH   2   3
ENDBRANCH   1   2
BRANCH   1  33
ATOM     33  C   UNL A   1      37.828  21.683  25.698  1.00  0.00     0.002 C 
BRANCH  33  34
ATOM     34  C   UNL A   1      37.551  20.572  24.679  1.00  0.00     0.002 C 
BRANCH  34  35
ATOM     35  C   UNL A   1      38.223  19.205  24.857  1.00  0.00     0.021 C 
BRANCH  35  36
ATOM     36  C   UNL A   1      39.117  19.036  26.077  1.00  0.00     0.116 C 
BRANCH  36  37
ATOM     37  N   UNL A   1      40.504  18.696  25.760  1.00  0.00    -0.352 N 
ATOM     38  C   UNL A   1      41.597  19.544  25.683  1.00  0.00     0.251 C 
ATOM     39  H   UNL A   1      40.683  17.745  25.578  1.00  0.00     0.163 HD
ATOM     40  O   UNL A   1      42.583  19.230  25.026  1.00  0.00    -0.269 OA
BRANCH  38  41
ATOM     41  C   UNL A   1      41.558  20.831  26.405  1.00  0.00     0.039 A 
ATOM     42  C   UNL A   1      41.155  20.932  27.739  1.00  0.00     0.014 A 
ATOM     43  C   UNL A   1      41.971  21.963  25.713  1.00  0.00     0.014 A 
ATOM     44  C   UNL A   1      41.260  22.167  28.380  1.00  0.00     0.010 A 
ATOM     45  C   UNL A   1      42.273  23.111  26.394  1.00  0.00     0.010 A 
ATOM     46  C   UNL A   1      41.845  23.252  27.705  1.00  0.00    -0.014 A 
BRANCH  46  47
ATOM     47  C   UNL A   1      42.100  24.526  28.368  1.00  0.00     0.031 A 
ATOM     48  C   UNL A   1      41.032  25.540  28.189  1.00  0.00     0.074 A 
ATOM     49  C   UNL A   1      43.109  24.726  29.246  1.00  0.00     0.049 A 
ATOM     50  N   UNL A   1      41.071  26.589  27.438  1.00  0.00    -0.248 NA
ATOM     51  C   UNL A   1      39.710  25.281  28.785  1.00  0.00     0.031 C 
ATOM     52  C   UNL A   1      44.070  23.750  29.779  1.00  0.00     0.029 A 
ATOM     53  N   UNL A   1      43.419  25.851  29.946  1.00  0.00    -0.354 N 
ATOM     54  C   UNL A   1      39.871  27.256  27.652  1.00  0.00     0.074 A 
ATOM     55  C   UNL A   1      39.005  26.312  28.315  1.00  0.00     0.031 C 
ATOM     56  C   UNL A   1      44.676  24.258  30.875  1.00  0.00     0.029 A 
ATOM     57  C   UNL A   1      44.299  25.651  31.004  1.00  0.00     0.049 A 
ATOM     58  H   UNL A   1      43.051  26.735  29.720  1.00  0.00     0.167 HD
ATOM     59  C   UNL A   1      39.777  28.607  27.506  1.00  0.00     0.031 A 
ATOM     60  C   UNL A   1      44.685  26.566  31.928  1.00  0.00     0.031 A 
ATOM     61  C   UNL A   1      40.943  29.151  26.852  1.00  0.00     0.049 A 
ATOM     62  C   UNL A   1      44.443  27.900  31.331  1.00  0.00     0.074 A 
ATOM     63  C   UNL A   1      41.559  28.952  25.634  1.00  0.00     0.029 A 
ATOM     64  N   UNL A   1      41.886  29.741  27.664  1.00  0.00    -0.354 N 
ATOM     65  N   UNL A   1      45.089  28.344  30.289  1.00  0.00    -0.248 NA
ATOM     66  C   UNL A   1      43.176  28.558  31.604  1.00  0.00     0.031 C 
ATOM     67  C   UNL A   1      42.956  28.991  25.916  1.00  0.00     0.029 A 
ATOM     68  C   UNL A   1      43.119  29.289  27.272  1.00  0.00     0.049 A 
ATOM     69  H   UNL A   1      41.706  30.375  28.395  1.00  0.00     0.167 HD
ATOM     70  C   UNL A   1      44.132  29.005  29.533  1.00  0.00     0.074 A 
ATOM     71  C   UNL A   1      43.003  29.196  30.443  1.00  0.00     0.031 C 
ATOM     72  C   UNL A   1      44.237  29.085  28.173  1.00  0.00     0.031 A 
BRANCH  59  73
ATOM     73  C   UNL A   1      38.848  29.480  28.315  1.00  0.00    -0.014 A 
ATOM     74  C   UNL A   1      37.732  30.057  27.676  1.00  0.00     0.010 A 
ATOM     75  C   UNL A   1      39.179  29.974  29.594  1.00  0.00     0.010 A 
ATOM     76  C   UNL A   1      37.033  31.123  28.254  1.00  0.00     0.020 A 
ATOM     77  C   UNL A   1      38.461  31.008  30.199  1.00  0.00     0.020 A 
ATOM     78  C   UNL A   1      37.414  31.600  29.509  1.00  0.00     0.054 A 
BRANCH  78  79
ATOM     79  S   UNL A   1      36.575  33.046  30.200  1.00  0.00     0.124 S 
ATOM     80  O   UNL A   1      35.409  32.440  30.834  1.00  0.00    -0.237 OA
ATOM     81  O   UNL A   1      37.585  33.583  31.107  1.00  0.00    -0.237 OA
ATOM     82  O   UNL A   1      36.296  33.871  29.027  1.00  0.00    -0.744 OA
ENDBRANCH  78  79
ENDBRANCH  59  73
BRANCH  60  83
ATOM     83  C   UNL A   1      44.960  26.365  33.372  1.00  0.00    -0.014 A 
ATOM     84  C   UNL A   1      43.917  26.082  34.274  1.00  0.00     0.010 A 
ATOM     85  C   UNL A   1      46.283  26.154  33.813  1.00  0.00     0.010 A 
ATOM     86  C   UNL A   1      44.184  25.532  35.541  1.00  0.00     0.020 A 
ATOM     87  C   UNL A   1      46.557  25.611  35.075  1.00  0.00     0.020 A 
ATOM     88  C   UNL A   1      45.503  25.276  35.924  1.00  0.00     0.054 A 
BRANCH  88  89
ATOM     89  S   UNL A   1      45.828  24.378  37.472  1.00  0.00     0.124 S 
ATOM     90  O   UNL A   1      44.521  24.395  38.122  1.00  0.00    -0.237 OA
ATOM     91  O   UNL A   1      46.279  23.075  36.994  1.00  0.00    -0.237 OA
ATOM     92  O   UNL A   1      46.857  25.184  38.126  1.00  0.00    -0.744 OA
ENDBRANCH  88  89
ENDBRANCH  60  83
BRANCH  72  93
ATOM     93  C   UNL A   1      45.559  28.727  27.529  1.00  0.00    -0.014 A 
ATOM     94  C   UNL A   1      46.612  29.640  27.318  1.00  0.00     0.010 A 
ATOM     95  C   UNL A   1      45.793  27.367  27.260  1.00  0.00     0.010 A 
ATOM     96  C   UNL A   1      47.854  29.204  26.827  1.00  0.00     0.020 A 
ATOM     97  C   UNL A   1      47.031  26.923  26.791  1.00  0.00     0.020 A 
ATOM     98  C   UNL A   1      48.054  27.844  26.566  1.00  0.00     0.054 A 
BRANCH  98  99
ATOM     99  S   UNL A   1      49.671  27.272  25.970  1.00  0.00     0.124 S 
ATOM    100  O   UNL A   1      49.955  28.200  24.880  1.00  0.00    -0.237 OA
ATOM    101  O   UNL A   1      50.520  27.409  27.151  1.00  0.00    -0.237 OA
ATOM    102  O   UNL A   1      49.421  25.892  25.556  1.00  0.00    -0.744 OA
ENDBRANCH  98  99
ENDBRANCH  72  93
ENDBRANCH  46  47
ENDBRANCH  38  41
ENDBRANCH  36  37
ENDBRANCH  35  36
ENDBRANCH  34  35
ENDBRANCH  33  34
ENDBRANCH   1  33
TORSDOF 21
ENDMDL
MODEL 3
REMARK VINA RESULT:     -12.3      2.004      3.096
REMARK SMILES CC(C)OC(=O)c1c(NC(=O)[C@H]2[C@@H](C(=O)NCCCCCCNC(=O)c3ccc(-c4c5nc(c(-c6ccc(S(=O)(=O)[O-])cc6)c6ccc([nH]6)c(-c6ccc(S(=O)(=O)[O-])cc6)c6nc(c(-c7ccc(S(=O)(=O)[O-])cc7)c7ccc4[nH]7)C=C6)C=C5)cc3)[C@@H]3C=C[C@H]2CC3)sc2c1CCC2
REMARK SMILES IDX 18 1 17 2 16 3 14 4 15 5 13 7 12 8 89 9 86 10 88 11 90 12
REMARK SMILES IDX 87 13 91 14 10 15 9 16 11 18 8 19 7 20 94 21 92 22 93 23
REMARK SMILES IDX 95 24 97 25 96 26 5 27 6 28 4 29 2 30 1 31 3 32 19 33 20 34
REMARK SMILES IDX 21 35 22 36 23 37 24 38 25 40 26 41 27 42 85 43 28 44 84 45
REMARK SMILES IDX 29 46 30 47 31 48 78 49 32 50 83 51 77 52 79 53 33 54 82 55
REMARK SMILES IDX 76 56 75 57 34 59 64 60 45 61 63 62 46 63 49 64 62 65 80 66
REMARK SMILES IDX 47 67 48 68 61 70 81 71 50 72 35 73 36 74 44 75 37 76 43 77
REMARK SMILES IDX 38 78 39 79 40 80 41 81 42 82 65 83 66 84 74 85 67 86 73 87
REMARK SMILES IDX 68 88 69 89 70 90 71 91 72 92 51 93 52 94 60 95 53 96 59 97
REMARK SMILES IDX 54 98 55 99 56 100 57 101 58 102
REMARK H PARENT 16 6 9 17 23 39 79 58 49 69
REMARK Flexibility Score: inf
ROOT
ATOM      1  C   UNL A   1      37.726  22.493  25.223  1.00  0.00     0.021 C 
ENDROOT
BRANCH   1   2
ATOM      2  C   UNL A   1      36.956  23.715  25.709  1.00  0.00     0.116 C 
BRANCH   2   3
ATOM      3  N   UNL A   1      35.904  23.451  26.672  1.00  0.00    -0.356 N 
ATOM      4  C   UNL A   1      34.600  23.068  26.477  1.00  0.00     0.224 C 
ATOM      5  O   UNL A   1      34.066  22.508  27.435  1.00  0.00    -0.275 OA
ATOM      6  H   UNL A   1      36.166  23.564  27.615  1.00  0.00     0.163 HD
BRANCH   4   7
ATOM      7  C   UNL A   1      33.881  23.293  25.124  1.00  0.00     0.098 C 
ATOM      8  C   UNL A   1      32.280  23.524  25.183  1.00  0.00     0.099 C 
ATOM      9  C   UNL A   1      31.635  22.224  24.599  1.00  0.00     0.025 C 
ATOM     10  C   UNL A   1      34.145  22.086  24.151  1.00  0.00     0.025 C 
ATOM     11  C   UNL A   1      31.991  22.254  23.123  1.00  0.00    -0.027 C 
ATOM     12  C   UNL A   1      32.211  20.954  25.243  1.00  0.00     0.009 C 
ATOM     13  C   UNL A   1      33.310  22.237  22.897  1.00  0.00    -0.027 C 
ATOM     14  C   UNL A   1      33.679  20.792  24.853  1.00  0.00     0.009 C 
BRANCH   8  15
ATOM     15  C   UNL A   1      31.664  24.170  26.456  1.00  0.00     0.229 C 
ATOM     16  N   UNL A   1      31.300  25.493  26.549  1.00  0.00    -0.317 N 
ATOM     17  H   UNL A   1      30.625  25.689  27.238  1.00  0.00     0.170 HD
ATOM     18  O   UNL A   1      31.560  23.509  27.498  1.00  0.00    -0.274 OA
BRANCH  16  19
ATOM     19  C   UNL A   1      31.728  26.588  25.827  1.00  0.00     0.110 A 
ATOM     20  C   UNL A   1      31.158  27.171  24.690  1.00  0.00     0.098 A 
ATOM     21  C   UNL A   1      32.174  27.960  24.063  1.00  0.00    -0.017 A 
ATOM     22  S   UNL A   1      33.049  27.532  26.417  1.00  0.00    -0.122 S 
ATOM     23  C   UNL A   1      33.281  28.092  24.858  1.00  0.00     0.011 A 
ATOM     24  C   UNL A   1      32.404  28.632  22.757  1.00  0.00     0.038 C 
ATOM     25  C   UNL A   1      34.468  28.675  24.201  1.00  0.00     0.047 C 
ATOM     26  C   UNL A   1      33.962  28.801  22.732  1.00  0.00     0.010 C 
BRANCH  20  27
ATOM     27  C   UNL A   1      29.811  26.849  24.235  1.00  0.00     0.341 C 
ATOM     28  O   UNL A   1      29.077  26.099  24.877  1.00  0.00    -0.246 OA
BRANCH  27  29
ATOM     29  O   UNL A   1      29.439  27.493  23.094  1.00  0.00    -0.459 OA
BRANCH  29  30
ATOM     30  C   UNL A   1      28.708  28.741  23.184  1.00  0.00     0.170 C 
ATOM     31  C   UNL A   1      29.099  29.805  22.158  1.00  0.00     0.052 C 
ATOM     32  C   UNL A   1      27.208  28.465  23.194  1.00  0.00     0.052 C 
ENDBRANCH  29  30
ENDBRANCH  27  29
ENDBRANCH  20  27
ENDBRANCH  16  19
ENDBRANCH   8  15
ENDBRANCH   4   7
ENDBRANCH   2   3
ENDBRANCH   1   2
BRANCH   1  33
ATOM     33  C   UNL A   1      38.844  21.959  26.119  1.00  0.00     0.002 C 
BRANCH  33  34
ATOM     34  C   UNL A   1      39.603  22.938  27.023  1.00  0.00     0.002 C 
BRANCH  34  35
ATOM     35  C   UNL A   1      40.831  23.672  26.471  1.00  0.00     0.021 C 
BRANCH  35  36
ATOM     36  C   UNL A   1      42.179  23.289  27.064  1.00  0.00     0.116 C 
BRANCH  36  37
ATOM     37  N   UNL A   1      43.298  23.402  26.129  1.00  0.00    -0.352 N 
ATOM     38  C   UNL A   1      43.761  24.536  25.482  1.00  0.00     0.251 C 
ATOM     39  H   UNL A   1      43.783  22.567  25.936  1.00  0.00     0.163 HD
ATOM     40  O   UNL A   1      44.408  24.440  24.444  1.00  0.00    -0.269 OA
BRANCH  38  41
ATOM     41  C   UNL A   1      43.465  25.863  26.059  1.00  0.00     0.039 A 
ATOM     42  C   UNL A   1      42.559  26.750  25.473  1.00  0.00     0.014 A 
ATOM     43  C   UNL A   1      44.104  26.199  27.246  1.00  0.00     0.014 A 
ATOM     44  C   UNL A   1      42.249  27.933  26.147  1.00  0.00     0.010 A 
ATOM     45  C   UNL A   1      43.644  27.243  28.001  1.00  0.00     0.010 A 
ATOM     46  C   UNL A   1      42.780  28.163  27.428  1.00  0.00    -0.014 A 
BRANCH  46  47
ATOM     47  C   UNL A   1      42.386  29.316  28.230  1.00  0.00     0.031 A 
ATOM     48  C   UNL A   1      43.333  30.457  28.178  1.00  0.00     0.074 A 
ATOM     49  C   UNL A   1      41.173  29.444  28.814  1.00  0.00     0.049 A 
ATOM     50  N   UNL A   1      44.154  30.831  29.101  1.00  0.00    -0.248 NA
ATOM     51  C   UNL A   1      43.505  31.169  26.901  1.00  0.00     0.031 C 
ATOM     52  C   UNL A   1      40.005  28.557  28.710  1.00  0.00     0.029 A 
ATOM     53  N   UNL A   1      40.687  30.480  29.549  1.00  0.00    -0.354 N 
ATOM     54  C   UNL A   1      44.776  31.974  28.617  1.00  0.00     0.074 A 
ATOM     55  C   UNL A   1      44.496  32.011  27.202  1.00  0.00     0.031 C 
ATOM     56  C   UNL A   1      38.900  29.206  29.142  1.00  0.00     0.029 A 
ATOM     57  C   UNL A   1      39.308  30.465  29.731  1.00  0.00     0.049 A 
ATOM     58  H   UNL A   1      41.265  31.184  29.923  1.00  0.00     0.167 HD
ATOM     59  C   UNL A   1      45.246  32.936  29.461  1.00  0.00     0.031 A 
ATOM     60  C   UNL A   1      38.552  31.426  30.319  1.00  0.00     0.031 A 
ATOM     61  C   UNL A   1      45.268  32.474  30.827  1.00  0.00     0.049 A 
ATOM     62  C   UNL A   1      39.463  32.215  31.181  1.00  0.00     0.074 A 
ATOM     63  C   UNL A   1      45.880  31.434  31.496  1.00  0.00     0.029 A 
ATOM     64  N   UNL A   1      44.230  32.886  31.634  1.00  0.00    -0.354 N 
ATOM     65  N   UNL A   1      40.060  31.721  32.230  1.00  0.00    -0.248 NA
ATOM     66  C   UNL A   1      40.072  33.413  30.625  1.00  0.00     0.031 C 
ATOM     67  C   UNL A   1      44.906  30.968  32.426  1.00  0.00     0.029 A 
ATOM     68  C   UNL A   1      43.782  31.794  32.332  1.00  0.00     0.049 A 
ATOM     69  H   UNL A   1      43.875  33.802  31.698  1.00  0.00     0.167 HD
ATOM     70  C   UNL A   1      41.337  32.263  32.200  1.00  0.00     0.074 A 
ATOM     71  C   UNL A   1      41.250  33.375  31.255  1.00  0.00     0.031 C 
ATOM     72  C   UNL A   1      42.403  31.589  32.727  1.00  0.00     0.031 A 
BRANCH  59  73
ATOM     73  C   UNL A   1      45.282  34.407  29.125  1.00  0.00    -0.014 A 
ATOM     74  C   UNL A   1      46.440  34.933  28.514  1.00  0.00     0.010 A 
ATOM     75  C   UNL A   1      44.350  35.334  29.632  1.00  0.00     0.010 A 
ATOM     76  C   UNL A   1      46.683  36.311  28.483  1.00  0.00     0.020 A 
ATOM     77  C   UNL A   1      44.561  36.713  29.566  1.00  0.00     0.020 A 
ATOM     78  C   UNL A   1      45.745  37.192  29.023  1.00  0.00     0.054 A 
BRANCH  78  79
ATOM     79  S   UNL A   1      46.115  38.961  29.075  1.00  0.00     0.124 S 
ATOM     80  O   UNL A   1      45.179  39.433  30.090  1.00  0.00    -0.237 OA
ATOM     81  O   UNL A   1      47.525  38.969  29.456  1.00  0.00    -0.237 OA
ATOM     82  O   UNL A   1      45.842  39.406  27.711  1.00  0.00    -0.744 OA
ENDBRANCH  78  79
ENDBRANCH  59  73
BRANCH  60  83
ATOM     83  C   UNL A   1      37.186  31.880  29.959  1.00  0.00    -0.014 A 
ATOM     84  C   UNL A   1      36.281  32.304  30.951  1.00  0.00     0.010 A 
ATOM     85  C   UNL A   1      36.876  32.183  28.617  1.00  0.00     0.010 A 
ATOM     86  C   UNL A   1      35.150  33.071  30.619  1.00  0.00     0.020 A 
ATOM     87  C   UNL A   1      35.749  32.942  28.279  1.00  0.00     0.020 A 
ATOM     88  C   UNL A   1      34.905  33.407  29.286  1.00  0.00     0.054 A 
BRANCH  88  89
ATOM     89  S   UNL A   1      33.562  34.567  28.887  1.00  0.00     0.124 S 
ATOM     90  O   UNL A   1      32.771  33.809  27.923  1.00  0.00    -0.237 OA
ATOM     91  O   UNL A   1      32.934  34.786  30.187  1.00  0.00    -0.237 OA
ATOM     92  O   UNL A   1      34.262  35.728  28.339  1.00  0.00    -0.744 OA
ENDBRANCH  88  89
ENDBRANCH  60  83
BRANCH  72  93
ATOM     93  C   UNL A   1      42.132  30.399  33.623  1.00  0.00    -0.014 A 
ATOM     94  C   UNL A   1      41.908  29.088  33.155  1.00  0.00     0.010 A 
ATOM     95  C   UNL A   1      42.257  30.599  35.009  1.00  0.00     0.010 A 
ATOM     96  C   UNL A   1      41.788  28.015  34.055  1.00  0.00     0.020 A 
ATOM     97  C   UNL A   1      42.157  29.535  35.907  1.00  0.00     0.020 A 
ATOM     98  C   UNL A   1      41.913  28.248  35.428  1.00  0.00     0.054 A 
BRANCH  98  99
ATOM     99  S   UNL A   1      41.797  26.857  36.589  1.00  0.00     0.124 S 
ATOM    100  O   UNL A   1      41.767  25.701  35.699  1.00  0.00    -0.237 OA
ATOM    101  O   UNL A   1      43.010  27.002  37.392  1.00  0.00    -0.237 OA
ATOM    102  O   UNL A   1      40.553  27.111  37.314  1.00  0.00    -0.744 OA
ENDBRANCH  98  99
ENDBRANCH  72  93
ENDBRANCH  46  47
ENDBRANCH  38  41
ENDBRANCH  36  37
ENDBRANCH  35  36
ENDBRANCH  34  35
ENDBRANCH  33  34
ENDBRANCH   1  33
TORSDOF 21
ENDMDL
