MODEL 1
REMARK VINA RESULT:     -11.4      0.000      0.000
REMARK SMILES CCn1cnc(S(=O)(=O)N2CCC(C)(C(=O)NCCCCCCNC(=O)c3ccc(-c4c5nc(c(-c6ccc(S(=O)(=O)[O-])cc6)c6ccc([nH]6)c(-c6ccc(S(=O)(=O)[O-])cc6)c6nc(c(-c7ccc(S(=O)(=O)[O-])cc7)c7ccc4[nH]7)C=C6)C=C5)cc3)CC2)c1
REMARK SMILES IDX 20 1 19 2 18 3 17 4 15 5 16 6 13 8 10 9 11 10 88 11 12 12
REMARK SMILES IDX 87 13 14 14 7 15 8 16 9 17 6 18 3 19 4 20 89 21 5 22 2 23
REMARK SMILES IDX 1 24 21 25 22 26 23 27 24 28 25 29 26 31 27 32 28 33 86 34
REMARK SMILES IDX 29 35 85 36 30 37 31 38 32 39 79 40 33 41 84 42 78 43 80 44
REMARK SMILES IDX 34 45 83 46 77 47 76 48 35 50 65 51 46 52 64 53 47 54 50 55
REMARK SMILES IDX 63 56 81 57 48 58 49 59 62 61 82 62 51 63 36 64 37 65 45 66
REMARK SMILES IDX 38 67 44 68 39 69 40 70 41 71 42 72 43 73 66 74 67 75 75 76
REMARK SMILES IDX 68 77 74 78 69 79 70 80 71 81 72 82 73 83 52 84 53 85 61 86
REMARK SMILES IDX 54 87 60 88 55 89 56 90 57 91 58 92 59 93
REMARK H PARENT 17 7 24 30 80 49 50 60
REMARK Flexibility Score: inf
ROOT
ATOM      1  C   UNL A   1      39.674  22.652  27.011  1.00  0.00     0.002 C 
ENDROOT
BRANCH   1   2
ATOM      2  C   UNL A   1      38.651  23.636  26.445  1.00  0.00     0.021 C 
BRANCH   2   3
ATOM      3  C   UNL A   1      37.406  22.949  25.901  1.00  0.00     0.116 C 
BRANCH   3   4
ATOM      4  N   UNL A   1      37.370  22.993  24.441  1.00  0.00    -0.356 N 
ATOM      5  C   UNL A   1      36.320  22.948  23.566  1.00  0.00     0.226 C 
ATOM      6  O   UNL A   1      36.572  22.939  22.361  1.00  0.00    -0.275 OA
ATOM      7  H   UNL A   1      38.254  23.068  24.015  1.00  0.00     0.163 HD
BRANCH   5   8
ATOM      8  C   UNL A   1      34.883  22.946  24.103  1.00  0.00     0.049 C 
ATOM      9  N   UNL A   1      33.234  25.341  23.819  1.00  0.00    -0.196 NA
ATOM     10  C   UNL A   1      33.522  24.616  22.592  1.00  0.00     0.103 C 
ATOM     11  C   UNL A   1      34.371  25.417  24.730  1.00  0.00     0.103 C 
ATOM     12  C   UNL A   1      33.919  23.170  22.886  1.00  0.00     0.033 C 
ATOM     13  C   UNL A   1      34.705  24.022  25.222  1.00  0.00     0.033 C 
ATOM     14  C   UNL A   1      34.723  21.583  24.849  1.00  0.00     0.022 C 
BRANCH   9  15
ATOM     15  S   UNL A   1      31.651  25.698  24.311  1.00  0.00     0.262 S 
ATOM     16  O   UNL A   1      31.121  24.517  24.972  1.00  0.00    -0.205 OA
ATOM     17  O   UNL A   1      30.981  26.335  23.205  1.00  0.00    -0.205 OA
BRANCH  15  18
ATOM     18  C   UNL A   1      31.631  26.916  25.580  1.00  0.00     0.188 A 
ATOM     19  N   UNL A   1      31.830  28.824  26.657  1.00  0.00    -0.336 N 
ATOM     20  C   UNL A   1      31.324  27.879  27.495  1.00  0.00     0.201 A 
ATOM     21  C   UNL A   1      32.054  28.215  25.462  1.00  0.00     0.129 A 
ATOM     22  N   UNL A   1      31.170  26.723  26.879  1.00  0.00    -0.224 NA
BRANCH  19  23
ATOM     23  C   UNL A   1      32.009  30.242  26.895  1.00  0.00     0.120 C 
ATOM     24  C   UNL A   1      33.425  30.611  27.311  1.00  0.00     0.027 C 
ENDBRANCH  19  23
ENDBRANCH  15  18
ENDBRANCH   9  15
ENDBRANCH   5   8
ENDBRANCH   3   4
ENDBRANCH   2   3
ENDBRANCH   1   2
BRANCH   1  25
ATOM     25  C   UNL A   1      39.773  21.319  26.256  1.00  0.00     0.002 C 
BRANCH  25  26
ATOM     26  C   UNL A   1      40.971  20.427  26.615  1.00  0.00     0.021 C 
BRANCH  26  27
ATOM     27  C   UNL A   1      42.193  21.205  27.068  1.00  0.00     0.116 C 
BRANCH  27  28
ATOM     28  N   UNL A   1      43.011  21.649  25.941  1.00  0.00    -0.352 N 
ATOM     29  C   UNL A   1      43.119  22.921  25.417  1.00  0.00     0.251 C 
ATOM     30  H   UNL A   1      43.551  20.954  25.500  1.00  0.00     0.163 HD
ATOM     31  O   UNL A   1      43.507  23.092  24.268  1.00  0.00    -0.269 OA
BRANCH  29  32
ATOM     32  C   UNL A   1      42.770  24.064  26.279  1.00  0.00     0.039 A 
ATOM     33  C   UNL A   1      43.266  24.189  27.577  1.00  0.00     0.014 A 
ATOM     34  C   UNL A   1      41.940  25.043  25.738  1.00  0.00     0.014 A 
ATOM     35  C   UNL A   1      42.963  25.344  28.295  1.00  0.00     0.010 A 
ATOM     36  C   UNL A   1      41.808  26.253  26.362  1.00  0.00     0.010 A 
ATOM     37  C   UNL A   1      42.246  26.380  27.670  1.00  0.00    -0.014 A 
BRANCH  37  38
ATOM     38  C   UNL A   1      42.029  27.661  28.327  1.00  0.00     0.031 A 
ATOM     39  C   UNL A   1      43.118  28.639  28.094  1.00  0.00     0.074 A 
ATOM     40  C   UNL A   1      40.869  28.012  28.926  1.00  0.00     0.049 A 
ATOM     41  N   UNL A   1      44.061  28.952  28.915  1.00  0.00    -0.248 NA
ATOM     42  C   UNL A   1      43.299  29.190  26.740  1.00  0.00     0.031 C 
ATOM     43  C   UNL A   1      39.592  27.286  28.962  1.00  0.00     0.029 A 
ATOM     44  N   UNL A   1      40.561  29.169  29.569  1.00  0.00    -0.354 N 
ATOM     45  C   UNL A   1      44.807  29.934  28.278  1.00  0.00     0.074 A 
ATOM     46  C   UNL A   1      44.431  29.884  26.888  1.00  0.00     0.031 C 
ATOM     47  C   UNL A   1      38.606  28.113  29.380  1.00  0.00     0.029 A 
ATOM     48  C   UNL A   1      39.204  29.360  29.818  1.00  0.00     0.049 A 
ATOM     49  H   UNL A   1      41.246  29.823  29.839  1.00  0.00     0.167 HD
ATOM     50  C   UNL A   1      45.468  30.886  28.994  1.00  0.00     0.031 A 
ATOM     51  C   UNL A   1      38.622  30.467  30.348  1.00  0.00     0.031 A 
ATOM     52  C   UNL A   1      45.486  30.566  30.400  1.00  0.00     0.049 A 
ATOM     53  C   UNL A   1      39.687  31.193  31.082  1.00  0.00     0.074 A 
ATOM     54  C   UNL A   1      45.994  29.535  31.164  1.00  0.00     0.029 A 
ATOM     55  N   UNL A   1      44.529  31.182  31.173  1.00  0.00    -0.354 N 
ATOM     56  N   UNL A   1      40.288  30.707  32.132  1.00  0.00    -0.248 NA
ATOM     57  C   UNL A   1      40.411  32.234  30.373  1.00  0.00     0.031 C 
ATOM     58  C   UNL A   1      45.004  29.297  32.163  1.00  0.00     0.029 A 
ATOM     59  C   UNL A   1      43.988  30.245  32.014  1.00  0.00     0.049 A 
ATOM     60  H   UNL A   1      44.275  32.133  31.129  1.00  0.00     0.167 HD
ATOM     61  C   UNL A   1      41.623  31.045  31.964  1.00  0.00     0.074 A 
ATOM     62  C   UNL A   1      41.622  32.062  30.912  1.00  0.00     0.031 C 
ATOM     63  C   UNL A   1      42.619  30.274  32.493  1.00  0.00     0.031 A 
BRANCH  50  64
ATOM     64  C   UNL A   1      45.712  32.289  28.507  1.00  0.00    -0.014 A 
ATOM     65  C   UNL A   1      46.773  33.024  29.073  1.00  0.00     0.010 A 
ATOM     66  C   UNL A   1      44.784  33.002  27.720  1.00  0.00     0.010 A 
ATOM     67  C   UNL A   1      46.872  34.410  28.898  1.00  0.00     0.020 A 
ATOM     68  C   UNL A   1      44.897  34.378  27.505  1.00  0.00     0.020 A 
ATOM     69  C   UNL A   1      45.928  35.077  28.117  1.00  0.00     0.054 A 
BRANCH  69  70
ATOM     70  S   UNL A   1      46.037  36.874  27.945  1.00  0.00     0.124 S 
ATOM     71  O   UNL A   1      44.636  37.249  27.792  1.00  0.00    -0.237 OA
ATOM     72  O   UNL A   1      46.666  37.263  29.205  1.00  0.00    -0.237 OA
ATOM     73  O   UNL A   1      46.871  37.053  26.759  1.00  0.00    -0.744 OA
ENDBRANCH  69  70
ENDBRANCH  50  64
BRANCH  51  74
ATOM     74  C   UNL A   1      37.346  31.121  29.946  1.00  0.00    -0.014 A 
ATOM     75  C   UNL A   1      36.313  31.332  30.882  1.00  0.00     0.010 A 
ATOM     76  C   UNL A   1      37.270  31.820  28.725  1.00  0.00     0.010 A 
ATOM     77  C   UNL A   1      35.284  32.261  30.635  1.00  0.00     0.020 A 
ATOM     78  C   UNL A   1      36.247  32.744  28.470  1.00  0.00     0.020 A 
ATOM     79  C   UNL A   1      35.272  32.979  29.437  1.00  0.00     0.054 A 
BRANCH  79  80
ATOM     80  S   UNL A   1      34.056  34.314  29.206  1.00  0.00     0.124 S 
ATOM     81  O   UNL A   1      33.658  34.612  30.578  1.00  0.00    -0.237 OA
ATOM     82  O   UNL A   1      34.843  35.347  28.537  1.00  0.00    -0.237 OA
ATOM     83  O   UNL A   1      33.024  33.694  28.378  1.00  0.00    -0.744 OA
ENDBRANCH  79  80
ENDBRANCH  51  74
BRANCH  63  84
ATOM     84  C   UNL A   1      42.254  29.241  33.537  1.00  0.00    -0.014 A 
ATOM     85  C   UNL A   1      42.053  27.870  33.277  1.00  0.00     0.010 A 
ATOM     86  C   UNL A   1      42.255  29.673  34.874  1.00  0.00     0.010 A 
ATOM     87  C   UNL A   1      41.835  26.966  34.333  1.00  0.00     0.020 A 
ATOM     88  C   UNL A   1      42.058  28.779  35.927  1.00  0.00     0.020 A 
ATOM     89  C   UNL A   1      41.839  27.429  35.653  1.00  0.00     0.054 A 
BRANCH  89  90
ATOM     90  S   UNL A   1      41.590  26.263  37.022  1.00  0.00     0.124 S 
ATOM     91  O   UNL A   1      40.366  26.760  37.644  1.00  0.00    -0.237 OA
ATOM     92  O   UNL A   1      41.472  24.978  36.336  1.00  0.00    -0.237 OA
ATOM     93  O   UNL A   1      42.799  26.413  37.832  1.00  0.00    -0.744 OA
ENDBRANCH  89  90
ENDBRANCH  63  84
ENDBRANCH  37  38
ENDBRANCH  29  32
ENDBRANCH  27  28
ENDBRANCH  26  27
ENDBRANCH  25  26
ENDBRANCH   1  25
TORSDOF 19
ENDMDL
MODEL 2
REMARK VINA RESULT:     -11.1      2.619      9.486
REMARK SMILES CCn1cnc(S(=O)(=O)N2CCC(C)(C(=O)NCCCCCCNC(=O)c3ccc(-c4c5nc(c(-c6ccc(S(=O)(=O)[O-])cc6)c6ccc([nH]6)c(-c6ccc(S(=O)(=O)[O-])cc6)c6nc(c(-c7ccc(S(=O)(=O)[O-])cc7)c7ccc4[nH]7)C=C6)C=C5)cc3)CC2)c1
REMARK SMILES IDX 20 1 19 2 18 3 17 4 15 5 16 6 13 8 10 9 11 10 88 11 12 12
REMARK SMILES IDX 87 13 14 14 7 15 8 16 9 17 6 18 3 19 4 20 89 21 5 22 2 23
REMARK SMILES IDX 1 24 21 25 22 26 23 27 24 28 25 29 26 31 27 32 28 33 86 34
REMARK SMILES IDX 29 35 85 36 30 37 31 38 32 39 79 40 33 41 84 42 78 43 80 44
REMARK SMILES IDX 34 45 83 46 77 47 76 48 35 50 65 51 46 52 64 53 47 54 50 55
REMARK SMILES IDX 63 56 81 57 48 58 49 59 62 61 82 62 51 63 36 64 37 65 45 66
REMARK SMILES IDX 38 67 44 68 39 69 40 70 41 71 42 72 43 73 66 74 67 75 75 76
REMARK SMILES IDX 68 77 74 78 69 79 70 80 71 81 72 82 73 83 52 84 53 85 61 86
REMARK SMILES IDX 54 87 60 88 55 89 56 90 57 91 58 92 59 93
REMARK H PARENT 17 7 24 30 80 49 50 60
REMARK Flexibility Score: inf
ROOT
ATOM      1  C   UNL A   1      35.857  31.031  27.924  1.00  0.00     0.002 C 
ENDROOT
BRANCH   1   2
ATOM      2  C   UNL A   1      35.247  29.653  27.675  1.00  0.00     0.021 C 
BRANCH   2   3
ATOM      3  C   UNL A   1      33.916  29.718  26.939  1.00  0.00     0.116 C 
BRANCH   3   4
ATOM      4  N   UNL A   1      32.857  29.056  27.695  1.00  0.00    -0.356 N 
ATOM      5  C   UNL A   1      31.893  28.168  27.304  1.00  0.00     0.226 C 
ATOM      6  O   UNL A   1      31.069  27.803  28.143  1.00  0.00    -0.275 OA
ATOM      7  H   UNL A   1      32.833  29.289  28.651  1.00  0.00     0.163 HD
BRANCH   5   8
ATOM      8  C   UNL A   1      31.889  27.635  25.865  1.00  0.00     0.049 C 
ATOM      9  N   UNL A   1      32.531  24.829  25.365  1.00  0.00    -0.196 NA
ATOM     10  C   UNL A   1      31.256  25.086  26.019  1.00  0.00     0.103 C 
ATOM     11  C   UNL A   1      33.611  25.686  25.841  1.00  0.00     0.103 C 
ATOM     12  C   UNL A   1      30.791  26.520  25.773  1.00  0.00     0.033 C 
ATOM     13  C   UNL A   1      33.308  27.122  25.458  1.00  0.00     0.033 C 
ATOM     14  C   UNL A   1      31.658  28.888  24.962  1.00  0.00     0.022 C 
BRANCH   9  15
ATOM     15  S   UNL A   1      32.651  23.927  23.935  1.00  0.00     0.262 S 
ATOM     16  O   UNL A   1      33.789  24.436  23.190  1.00  0.00    -0.205 OA
ATOM     17  O   UNL A   1      31.330  23.831  23.364  1.00  0.00    -0.205 OA
BRANCH  15  18
ATOM     18  C   UNL A   1      33.095  22.257  24.264  1.00  0.00     0.188 A 
ATOM     19  N   UNL A   1      33.033  20.063  24.418  1.00  0.00    -0.336 N 
ATOM     20  C   UNL A   1      34.245  20.515  24.839  1.00  0.00     0.201 A 
ATOM     21  C   UNL A   1      32.296  21.156  24.087  1.00  0.00     0.129 A 
ATOM     22  N   UNL A   1      34.330  21.828  24.741  1.00  0.00    -0.224 NA
BRANCH  19  23
ATOM     23  C   UNL A   1      32.592  18.695  24.229  1.00  0.00     0.120 C 
ATOM     24  C   UNL A   1      32.408  18.316  22.768  1.00  0.00     0.027 C 
ENDBRANCH  19  23
ENDBRANCH  15  18
ENDBRANCH   9  15
ENDBRANCH   5   8
ENDBRANCH   3   4
ENDBRANCH   2   3
ENDBRANCH   1   2
BRANCH   1  25
ATOM     25  C   UNL A   1      34.904  32.212  27.688  1.00  0.00     0.002 C 
BRANCH  25  26
ATOM     26  C   UNL A   1      34.165  32.741  28.927  1.00  0.00     0.021 C 
BRANCH  26  27
ATOM     27  C   UNL A   1      34.557  34.156  29.309  1.00  0.00     0.116 C 
BRANCH  27  28
ATOM     28  N   UNL A   1      34.542  34.360  30.756  1.00  0.00    -0.352 N 
ATOM     29  C   UNL A   1      35.177  33.613  31.727  1.00  0.00     0.251 C 
ATOM     30  H   UNL A   1      34.012  35.125  31.078  1.00  0.00     0.163 HD
ATOM     31  O   UNL A   1      34.783  33.632  32.886  1.00  0.00    -0.269 OA
BRANCH  29  32
ATOM     32  C   UNL A   1      36.345  32.805  31.336  1.00  0.00     0.039 A 
ATOM     33  C   UNL A   1      37.546  33.391  30.931  1.00  0.00     0.014 A 
ATOM     34  C   UNL A   1      36.220  31.420  31.411  1.00  0.00     0.014 A 
ATOM     35  C   UNL A   1      38.633  32.560  30.665  1.00  0.00     0.010 A 
ATOM     36  C   UNL A   1      37.331  30.626  31.342  1.00  0.00     0.010 A 
ATOM     37  C   UNL A   1      38.519  31.177  30.891  1.00  0.00    -0.014 A 
BRANCH  37  38
ATOM     38  C   UNL A   1      39.666  30.287  30.767  1.00  0.00     0.031 A 
ATOM     39  C   UNL A   1      40.330  29.993  32.058  1.00  0.00     0.074 A 
ATOM     40  C   UNL A   1      39.986  29.629  29.631  1.00  0.00     0.049 A 
ATOM     41  N   UNL A   1      41.425  30.514  32.498  1.00  0.00    -0.248 NA
ATOM     42  C   UNL A   1      39.614  29.180  33.056  1.00  0.00     0.031 C 
ATOM     43  C   UNL A   1      39.246  29.561  28.363  1.00  0.00     0.029 A 
ATOM     44  N   UNL A   1      41.027  28.786  29.402  1.00  0.00    -0.354 N 
ATOM     45  C   UNL A   1      41.672  29.900  33.718  1.00  0.00     0.074 A 
ATOM     46  C   UNL A   1      40.439  29.263  34.103  1.00  0.00     0.031 C 
ATOM     47  C   UNL A   1      39.733  28.553  27.601  1.00  0.00     0.029 A 
ATOM     48  C   UNL A   1      40.928  28.030  28.237  1.00  0.00     0.049 A 
ATOM     49  H   UNL A   1      41.795  28.714  30.015  1.00  0.00     0.167 HD
ATOM     50  C   UNL A   1      42.945  29.738  34.174  1.00  0.00     0.031 A 
ATOM     51  C   UNL A   1      41.772  27.047  27.830  1.00  0.00     0.031 A 
ATOM     52  C   UNL A   1      43.887  30.489  33.381  1.00  0.00     0.049 A 
ATOM     53  C   UNL A   1      43.056  27.275  28.535  1.00  0.00     0.074 A 
ATOM     54  C   UNL A   1      44.081  31.824  33.095  1.00  0.00     0.029 A 
ATOM     55  N   UNL A   1      44.547  29.785  32.399  1.00  0.00    -0.354 N 
ATOM     56  N   UNL A   1      43.799  28.329  28.343  1.00  0.00    -0.248 NA
ATOM     57  C   UNL A   1      43.272  26.579  29.792  1.00  0.00     0.031 C 
ATOM     58  C   UNL A   1      44.449  31.855  31.717  1.00  0.00     0.029 A 
ATOM     59  C   UNL A   1      44.545  30.539  31.255  1.00  0.00     0.049 A 
ATOM     60  H   UNL A   1      44.951  28.893  32.501  1.00  0.00     0.167 HD
ATOM     61  C   UNL A   1      44.242  28.686  29.609  1.00  0.00     0.074 A 
ATOM     62  C   UNL A   1      43.961  27.519  30.446  1.00  0.00     0.031 C 
ATOM     63  C   UNL A   1      44.535  29.985  29.915  1.00  0.00     0.031 A 
BRANCH  50  64
ATOM     64  C   UNL A   1      43.391  28.589  35.039  1.00  0.00    -0.014 A 
ATOM     65  C   UNL A   1      44.070  28.874  36.240  1.00  0.00     0.010 A 
ATOM     66  C   UNL A   1      43.410  27.252  34.592  1.00  0.00     0.010 A 
ATOM     67  C   UNL A   1      44.771  27.879  36.933  1.00  0.00     0.020 A 
ATOM     68  C   UNL A   1      44.072  26.244  35.296  1.00  0.00     0.020 A 
ATOM     69  C   UNL A   1      44.769  26.570  36.451  1.00  0.00     0.054 A 
BRANCH  69  70
ATOM     70  S   UNL A   1      45.725  25.308  37.325  1.00  0.00     0.124 S 
ATOM     71  O   UNL A   1      46.755  24.976  36.346  1.00  0.00    -0.237 OA
ATOM     72  O   UNL A   1      46.181  26.035  38.507  1.00  0.00    -0.237 OA
ATOM     73  O   UNL A   1      44.744  24.258  37.587  1.00  0.00    -0.744 OA
ENDBRANCH  69  70
ENDBRANCH  50  64
BRANCH  51  74
ATOM     74  C   UNL A   1      41.432  25.742  27.198  1.00  0.00    -0.014 A 
ATOM     75  C   UNL A   1      42.428  24.949  26.592  1.00  0.00     0.010 A 
ATOM     76  C   UNL A   1      40.191  25.133  27.470  1.00  0.00     0.010 A 
ATOM     77  C   UNL A   1      42.214  23.581  26.337  1.00  0.00     0.020 A 
ATOM     78  C   UNL A   1      39.969  23.773  27.214  1.00  0.00     0.020 A 
ATOM     79  C   UNL A   1      40.991  22.996  26.672  1.00  0.00     0.054 A 
BRANCH  79  80
ATOM     80  S   UNL A   1      40.788  21.194  26.520  1.00  0.00     0.124 S 
ATOM     81  O   UNL A   1      39.502  21.082  25.838  1.00  0.00    -0.237 OA
ATOM     82  O   UNL A   1      41.956  20.808  25.732  1.00  0.00    -0.237 OA
ATOM     83  O   UNL A   1      40.800  20.731  27.906  1.00  0.00    -0.744 OA
ENDBRANCH  79  80
ENDBRANCH  51  74
BRANCH  63  84
ATOM     84  C   UNL A   1      44.693  30.975  28.781  1.00  0.00    -0.014 A 
ATOM     85  C   UNL A   1      43.653  31.768  28.254  1.00  0.00     0.010 A 
ATOM     86  C   UNL A   1      46.003  31.205  28.326  1.00  0.00     0.010 A 
ATOM     87  C   UNL A   1      43.923  32.748  27.281  1.00  0.00     0.020 A 
ATOM     88  C   UNL A   1      46.280  32.187  27.374  1.00  0.00     0.020 A 
ATOM     89  C   UNL A   1      45.238  32.949  26.847  1.00  0.00     0.054 A 
BRANCH  89  90
ATOM     90  S   UNL A   1      45.598  34.233  25.615  1.00  0.00     0.124 S 
ATOM     91  O   UNL A   1      47.050  34.153  25.488  1.00  0.00    -0.237 OA
ATOM     92  O   UNL A   1      44.837  33.788  24.450  1.00  0.00    -0.237 OA
ATOM     93  O   UNL A   1      45.100  35.461  26.235  1.00  0.00    -0.744 OA
ENDBRANCH  89  90
ENDBRANCH  63  84
ENDBRANCH  37  38
ENDBRANCH  29  32
ENDBRANCH  27  28
ENDBRANCH  26  27
ENDBRANCH  25  26
ENDBRANCH   1  25
TORSDOF 19
ENDMDL
MODEL 3
REMARK VINA RESULT:     -11.1      1.693      2.200
REMARK SMILES CCn1cnc(S(=O)(=O)N2CCC(C)(C(=O)NCCCCCCNC(=O)c3ccc(-c4c5nc(c(-c6ccc(S(=O)(=O)[O-])cc6)c6ccc([nH]6)c(-c6ccc(S(=O)(=O)[O-])cc6)c6nc(c(-c7ccc(S(=O)(=O)[O-])cc7)c7ccc4[nH]7)C=C6)C=C5)cc3)CC2)c1
REMARK SMILES IDX 20 1 19 2 18 3 17 4 15 5 16 6 13 8 10 9 11 10 88 11 12 12
REMARK SMILES IDX 87 13 14 14 7 15 8 16 9 17 6 18 3 19 4 20 89 21 5 22 2 23
REMARK SMILES IDX 1 24 21 25 22 26 23 27 24 28 25 29 26 31 27 32 28 33 86 34
REMARK SMILES IDX 29 35 85 36 30 37 31 38 32 39 79 40 33 41 84 42 78 43 80 44
REMARK SMILES IDX 34 45 83 46 77 47 76 48 35 50 65 51 46 52 64 53 47 54 50 55
REMARK SMILES IDX 63 56 81 57 48 58 49 59 62 61 82 62 51 63 36 64 37 65 45 66
REMARK SMILES IDX 38 67 44 68 39 69 40 70 41 71 42 72 43 73 66 74 67 75 75 76
REMARK SMILES IDX 68 77 74 78 69 79 70 80 71 81 72 82 73 83 52 84 53 85 61 86
REMARK SMILES IDX 54 87 60 88 55 89 56 90 57 91 58 92 59 93
REMARK H PARENT 17 7 24 30 80 49 50 60
REMARK Flexibility Score: inf
ROOT
ATOM      1  C   UNL A   1      39.705  22.469  27.098  1.00  0.00     0.002 C 
ENDROOT
BRANCH   1   2
ATOM      2  C   UNL A   1      39.098  23.760  26.553  1.00  0.00     0.021 C 
BRANCH   2   3
ATOM      3  C   UNL A   1      37.643  23.599  26.133  1.00  0.00     0.116 C 
BRANCH   3   4
ATOM      4  N   UNL A   1      37.514  23.523  24.680  1.00  0.00    -0.356 N 
ATOM      5  C   UNL A   1      36.453  23.179  23.889  1.00  0.00     0.226 C 
ATOM      6  O   UNL A   1      36.631  23.134  22.671  1.00  0.00    -0.275 OA
ATOM      7  H   UNL A   1      38.333  23.759  24.186  1.00  0.00     0.163 HD
BRANCH   5   8
ATOM      8  C   UNL A   1      35.087  22.899  24.528  1.00  0.00     0.049 C 
ATOM      9  N   UNL A   1      33.060  25.003  24.576  1.00  0.00    -0.196 NA
ATOM     10  C   UNL A   1      33.352  24.428  23.272  1.00  0.00     0.103 C 
ATOM     11  C   UNL A   1      34.245  25.199  25.404  1.00  0.00     0.103 C 
ATOM     12  C   UNL A   1      33.998  23.050  23.410  1.00  0.00     0.033 C 
ATOM     13  C   UNL A   1      34.839  23.845  25.746  1.00  0.00     0.033 C 
ATOM     14  C   UNL A   1      35.212  21.478  25.163  1.00  0.00     0.022 C 
BRANCH   9  15
ATOM     15  S   UNL A   1      31.489  25.055  25.213  1.00  0.00     0.262 S 
ATOM     16  O   UNL A   1      31.590  25.499  26.593  1.00  0.00    -0.205 OA
ATOM     17  O   UNL A   1      30.823  23.832  24.839  1.00  0.00    -0.205 OA
BRANCH  15  18
ATOM     18  C   UNL A   1      30.528  26.314  24.450  1.00  0.00     0.188 A 
ATOM     19  N   UNL A   1      29.929  28.195  23.478  1.00  0.00    -0.336 N 
ATOM     20  C   UNL A   1      28.853  27.369  23.573  1.00  0.00     0.201 A 
ATOM     21  C   UNL A   1      30.976  27.549  24.057  1.00  0.00     0.129 A 
ATOM     22  N   UNL A   1      29.176  26.218  24.133  1.00  0.00    -0.224 NA
BRANCH  19  23
ATOM     23  C   UNL A   1      30.032  29.473  22.803  1.00  0.00     0.120 C 
ATOM     24  C   UNL A   1      28.986  30.481  23.255  1.00  0.00     0.027 C 
ENDBRANCH  19  23
ENDBRANCH  15  18
ENDBRANCH   9  15
ENDBRANCH   5   8
ENDBRANCH   3   4
ENDBRANCH   2   3
ENDBRANCH   1   2
BRANCH   1  25
ATOM     25  C   UNL A   1      40.015  21.403  26.038  1.00  0.00     0.002 C 
BRANCH  25  26
ATOM     26  C   UNL A   1      40.770  20.158  26.532  1.00  0.00     0.021 C 
BRANCH  26  27
ATOM     27  C   UNL A   1      42.037  20.483  27.302  1.00  0.00     0.116 C 
BRANCH  27  28
ATOM     28  N   UNL A   1      43.196  20.617  26.422  1.00  0.00    -0.352 N 
ATOM     29  C   UNL A   1      43.787  21.777  25.965  1.00  0.00     0.251 C 
ATOM     30  H   UNL A   1      43.606  19.776  26.118  1.00  0.00     0.163 HD
ATOM     31  O   UNL A   1      44.475  21.770  24.952  1.00  0.00    -0.269 OA
BRANCH  29  32
ATOM     32  C   UNL A   1      43.580  23.018  26.733  1.00  0.00     0.039 A 
ATOM     33  C   UNL A   1      44.187  23.230  27.972  1.00  0.00     0.014 A 
ATOM     34  C   UNL A   1      42.770  23.996  26.162  1.00  0.00     0.014 A 
ATOM     35  C   UNL A   1      44.015  24.465  28.593  1.00  0.00     0.010 A 
ATOM     36  C   UNL A   1      42.763  25.265  26.672  1.00  0.00     0.010 A 
ATOM     37  C   UNL A   1      43.313  25.485  27.924  1.00  0.00    -0.014 A 
BRANCH  37  38
ATOM     38  C   UNL A   1      43.229  26.834  28.466  1.00  0.00     0.031 A 
ATOM     39  C   UNL A   1      44.429  27.659  28.189  1.00  0.00     0.074 A 
ATOM     40  C   UNL A   1      42.103  27.363  28.995  1.00  0.00     0.049 A 
ATOM     41  N   UNL A   1      45.382  27.934  29.013  1.00  0.00    -0.248 NA
ATOM     42  C   UNL A   1      44.704  28.069  26.801  1.00  0.00     0.031 C 
ATOM     43  C   UNL A   1      40.751  26.790  29.048  1.00  0.00     0.029 A 
ATOM     44  N   UNL A   1      41.915  28.597  29.530  1.00  0.00    -0.354 N 
ATOM     45  C   UNL A   1      46.250  28.767  28.323  1.00  0.00     0.074 A 
ATOM     46  C   UNL A   1      45.904  28.641  26.930  1.00  0.00     0.031 C 
ATOM     47  C   UNL A   1      39.856  27.756  29.363  1.00  0.00     0.029 A 
ATOM     48  C   UNL A   1      40.584  28.961  29.717  1.00  0.00     0.049 A 
ATOM     49  H   UNL A   1      42.664  29.192  29.767  1.00  0.00     0.167 HD
ATOM     50  C   UNL A   1      46.999  29.696  28.980  1.00  0.00     0.031 A 
ATOM     51  C   UNL A   1      40.120  30.167  30.134  1.00  0.00     0.031 A 
ATOM     52  C   UNL A   1      46.947  29.498  30.407  1.00  0.00     0.049 A 
ATOM     53  C   UNL A   1      41.243  30.829  30.841  1.00  0.00     0.074 A 
ATOM     54  C   UNL A   1      47.315  28.486  31.269  1.00  0.00     0.029 A 
ATOM     55  N   UNL A   1      46.049  30.282  31.094  1.00  0.00    -0.354 N 
ATOM     56  N   UNL A   1      41.759  30.371  31.947  1.00  0.00    -0.248 NA
ATOM     57  C   UNL A   1      42.099  31.718  30.073  1.00  0.00     0.031 C 
ATOM     58  C   UNL A   1      46.281  28.447  32.251  1.00  0.00     0.029 A 
ATOM     59  C   UNL A   1      45.384  29.487  31.990  1.00  0.00     0.049 A 
ATOM     60  H   UNL A   1      45.907  31.248  30.963  1.00  0.00     0.167 HD
ATOM     61  C   UNL A   1      43.129  30.541  31.796  1.00  0.00     0.074 A 
ATOM     62  C   UNL A   1      43.269  31.458  30.664  1.00  0.00     0.031 C 
ATOM     63  C   UNL A   1      44.017  29.711  32.420  1.00  0.00     0.031 A 
BRANCH  50  64
ATOM     64  C   UNL A   1      47.414  31.016  28.386  1.00  0.00    -0.014 A 
ATOM     65  C   UNL A   1      46.448  32.035  28.266  1.00  0.00     0.010 A 
ATOM     66  C   UNL A   1      48.632  31.202  27.701  1.00  0.00     0.010 A 
ATOM     67  C   UNL A   1      46.673  33.160  27.463  1.00  0.00     0.020 A 
ATOM     68  C   UNL A   1      48.882  32.339  26.929  1.00  0.00     0.020 A 
ATOM     69  C   UNL A   1      47.890  33.300  26.796  1.00  0.00     0.054 A 
BRANCH  69  70
ATOM     70  S   UNL A   1      48.144  34.729  25.717  1.00  0.00     0.124 S 
ATOM     71  O   UNL A   1      48.171  35.830  26.674  1.00  0.00    -0.237 OA
ATOM     72  O   UNL A   1      49.420  34.408  25.082  1.00  0.00    -0.237 OA
ATOM     73  O   UNL A   1      46.986  34.695  24.828  1.00  0.00    -0.744 OA
ENDBRANCH  69  70
ENDBRANCH  50  64
BRANCH  51  74
ATOM     74  C   UNL A   1      38.937  30.923  29.637  1.00  0.00    -0.014 A 
ATOM     75  C   UNL A   1      37.839  30.254  29.060  1.00  0.00     0.010 A 
ATOM     76  C   UNL A   1      38.752  32.267  30.019  1.00  0.00     0.010 A 
ATOM     77  C   UNL A   1      36.585  30.883  28.937  1.00  0.00     0.020 A 
ATOM     78  C   UNL A   1      37.508  32.901  29.896  1.00  0.00     0.020 A 
ATOM     79  C   UNL A   1      36.422  32.197  29.379  1.00  0.00     0.054 A 
BRANCH  79  80
ATOM     80  S   UNL A   1      34.759  32.937  29.398  1.00  0.00     0.124 S 
ATOM     81  O   UNL A   1      34.296  32.625  30.747  1.00  0.00    -0.237 OA
ATOM     82  O   UNL A   1      35.036  34.347  29.135  1.00  0.00    -0.237 OA
ATOM     83  O   UNL A   1      34.063  32.236  28.322  1.00  0.00    -0.744 OA
ENDBRANCH  79  80
ENDBRANCH  51  74
BRANCH  63  84
ATOM     84  C   UNL A   1      43.511  28.819  33.532  1.00  0.00    -0.014 A 
ATOM     85  C   UNL A   1      43.512  29.158  34.900  1.00  0.00     0.010 A 
ATOM     86  C   UNL A   1      42.874  27.628  33.142  1.00  0.00     0.010 A 
ATOM     87  C   UNL A   1      42.910  28.312  35.849  1.00  0.00     0.020 A 
ATOM     88  C   UNL A   1      42.259  26.793  34.075  1.00  0.00     0.020 A 
ATOM     89  C   UNL A   1      42.287  27.132  35.427  1.00  0.00     0.054 A 
BRANCH  89  90
ATOM     90  S   UNL A   1      41.479  26.051  36.642  1.00  0.00     0.124 S 
ATOM     91  O   UNL A   1      42.615  25.421  37.310  1.00  0.00    -0.237 OA
ATOM     92  O   UNL A   1      40.713  26.992  37.456  1.00  0.00    -0.237 OA
ATOM     93  O   UNL A   1      40.668  25.151  35.823  1.00  0.00    -0.744 OA
ENDBRANCH  89  90
ENDBRANCH  63  84
ENDBRANCH  37  38
ENDBRANCH  29  32
ENDBRANCH  27  28
ENDBRANCH  26  27
ENDBRANCH  25  26
ENDBRANCH   1  25
TORSDOF 19
ENDMDL
