MODEL 1
REMARK VINA RESULT:     -10.0      0.000      0.000
REMARK SMILES CCCCCCNC(=O)Nc1cccc(-c2ccc([C@@H](C)C(=O)NCCCCCCNC(=O)c3ccc(-c4c5nc(c(-c6ccc(S(=O)(=O)[O-])cc6)c6ccc([nH]6)c(-c6ccc(S(=O)(=O)[O-])cc6)c6nc(c(-c7ccc(S(=O)(=O)[O-])cc7)c7ccc4[nH]7)C=C6)C=C5)cc3)cc2F)c1
REMARK SMILES IDX 25 1 24 2 22 3 23 4 20 6 21 7 19 8 16 9 17 10 95 11 18 12
REMARK SMILES IDX 94 13 96 14 15 15 11 16 12 17 97 18 13 19 14 20 10 21 7 22
REMARK SMILES IDX 8 23 9 25 6 27 5 28 4 29 3 30 2 31 1 32 26 33 27 34 28 35
REMARK SMILES IDX 29 36 30 37 31 38 32 39 33 41 34 42 35 43 93 44 36 45 92 46
REMARK SMILES IDX 37 47 38 48 39 49 86 50 40 51 91 52 85 53 87 54 41 55 90 56
REMARK SMILES IDX 84 57 83 58 42 60 72 61 53 62 71 63 54 64 57 65 70 66 88 67
REMARK SMILES IDX 55 68 56 69 69 71 89 72 58 73 43 74 44 75 52 76 45 77 51 78
REMARK SMILES IDX 46 79 47 80 48 81 49 82 50 83 73 84 74 85 82 86 75 87 81 88
REMARK SMILES IDX 76 89 77 90 78 91 79 92 80 93 59 94 60 95 68 96 61 97 67 98
REMARK SMILES IDX 62 99 63 100 64 101 65 102 66 103
REMARK H PARENT 24 5 7 24 10 26 31 40 87 59 57 70
REMARK Flexibility Score: inf
ROOT
ATOM      1  C   UNL A   1      42.183  23.044  28.776  1.00  0.00     0.116 C 
ENDROOT
BRANCH   1   2
ATOM      2  N   UNL A   1      41.447  23.885  27.854  1.00  0.00    -0.356 N 
ATOM      3  C   UNL A   1      40.535  23.596  26.888  1.00  0.00     0.227 C 
ATOM      4  O   UNL A   1      40.207  24.534  26.150  1.00  0.00    -0.274 OA
ATOM      5  H   UNL A   1      41.643  24.846  27.944  1.00  0.00     0.163 HD
BRANCH   3   6
ATOM      6  C   UNL A   1      39.898  22.213  26.692  1.00  0.00     0.105 C 
ATOM      7  C   UNL A   1      40.840  21.146  26.137  1.00  0.00     0.023 C 
BRANCH   6   8
ATOM      8  C   UNL A   1      38.512  22.231  26.062  1.00  0.00    -0.033 A 
ATOM      9  C   UNL A   1      35.890  22.337  24.910  1.00  0.00     0.018 A 
ATOM     10  C   UNL A   1      36.769  21.273  24.650  1.00  0.00     0.012 A 
ATOM     11  C   UNL A   1      36.359  23.341  25.767  1.00  0.00     0.131 A 
ATOM     12  C   UNL A   1      38.040  21.210  25.234  1.00  0.00     0.005 A 
ATOM     13  C   UNL A   1      37.644  23.303  26.321  1.00  0.00     0.044 A 
ATOM     14  F   UNL A   1      35.575  24.383  26.085  1.00  0.00    -0.206 F 
BRANCH   9  15
ATOM     15  C   UNL A   1      34.570  22.389  24.250  1.00  0.00    -0.013 A 
ATOM     16  C   UNL A   1      33.029  23.507  22.717  1.00  0.00     0.043 A 
ATOM     17  C   UNL A   1      32.171  22.410  22.743  1.00  0.00     0.026 A 
ATOM     18  C   UNL A   1      34.172  23.525  23.529  1.00  0.00     0.035 A 
ATOM     19  C   UNL A   1      32.529  21.281  23.473  1.00  0.00     0.003 A 
ATOM     20  C   UNL A   1      33.722  21.266  24.205  1.00  0.00     0.009 A 
BRANCH  16  21
ATOM     21  N   UNL A   1      32.782  24.516  21.776  1.00  0.00    -0.308 N 
ATOM     22  N   UNL A   1      31.203  25.887  22.886  1.00  0.00    -0.338 N 
ATOM     23  C   UNL A   1      31.790  25.443  21.747  1.00  0.00     0.319 C 
ATOM     24  H   UNL A   1      30.376  26.403  22.749  1.00  0.00     0.165 HD
ATOM     25  O   UNL A   1      31.475  25.970  20.679  1.00  0.00    -0.249 OA
ATOM     26  H   UNL A   1      33.420  24.559  21.029  1.00  0.00     0.171 HD
BRANCH  22  27
ATOM     27  C   UNL A   1      31.596  25.724  24.278  1.00  0.00     0.117 C 
BRANCH  27  28
ATOM     28  C   UNL A   1      30.812  26.602  25.243  1.00  0.00     0.021 C 
BRANCH  28  29
ATOM     29  C   UNL A   1      31.539  27.853  25.731  1.00  0.00     0.002 C 
BRANCH  29  30
ATOM     30  C   UNL A   1      33.000  27.990  25.295  1.00  0.00    -0.000 C 
BRANCH  30  31
ATOM     31  C   UNL A   1      33.288  29.068  24.250  1.00  0.00    -0.003 C 
ATOM     32  C   UNL A   1      33.756  28.527  22.909  1.00  0.00     0.004 C 
ENDBRANCH  30  31
ENDBRANCH  29  30
ENDBRANCH  28  29
ENDBRANCH  27  28
ENDBRANCH  22  27
ENDBRANCH  16  21
ENDBRANCH   9  15
ENDBRANCH   6   8
ENDBRANCH   3   6
ENDBRANCH   1   2
BRANCH   1  33
ATOM     33  C   UNL A   1      43.631  22.872  28.317  1.00  0.00     0.021 C 
BRANCH  33  34
ATOM     34  C   UNL A   1      44.425  24.182  28.313  1.00  0.00     0.002 C 
BRANCH  34  35
ATOM     35  C   UNL A   1      45.130  24.512  26.994  1.00  0.00     0.002 C 
BRANCH  35  36
ATOM     36  C   UNL A   1      46.105  25.693  27.032  1.00  0.00     0.021 C 
BRANCH  36  37
ATOM     37  C   UNL A   1      45.714  26.904  26.189  1.00  0.00     0.116 C 
BRANCH  37  38
ATOM     38  N   UNL A   1      44.631  26.614  25.263  1.00  0.00    -0.352 N 
ATOM     39  C   UNL A   1      43.276  26.771  25.439  1.00  0.00     0.251 C 
ATOM     40  H   UNL A   1      44.906  26.254  24.389  1.00  0.00     0.163 HD
ATOM     41  O   UNL A   1      42.489  26.299  24.632  1.00  0.00    -0.269 OA
BRANCH  39  42
ATOM     42  C   UNL A   1      42.783  27.508  26.621  1.00  0.00     0.039 A 
ATOM     43  C   UNL A   1      42.064  26.818  27.599  1.00  0.00     0.014 A 
ATOM     44  C   UNL A   1      43.039  28.874  26.761  1.00  0.00     0.014 A 
ATOM     45  C   UNL A   1      41.654  27.489  28.754  1.00  0.00     0.010 A 
ATOM     46  C   UNL A   1      42.679  29.527  27.938  1.00  0.00     0.010 A 
ATOM     47  C   UNL A   1      41.987  28.841  28.948  1.00  0.00    -0.014 A 
BRANCH  47  48
ATOM     48  C   UNL A   1      41.635  29.544  30.209  1.00  0.00     0.031 A 
ATOM     49  C   UNL A   1      42.470  29.354  31.444  1.00  0.00     0.074 A 
ATOM     50  C   UNL A   1      40.530  30.315  30.253  1.00  0.00     0.049 A 
ATOM     51  N   UNL A   1      42.292  29.848  32.643  1.00  0.00    -0.248 NA
ATOM     52  C   UNL A   1      43.650  28.482  31.324  1.00  0.00     0.031 C 
ATOM     53  C   UNL A   1      39.620  30.559  29.130  1.00  0.00     0.029 A 
ATOM     54  N   UNL A   1      39.980  31.035  31.285  1.00  0.00    -0.354 N 
ATOM     55  C   UNL A   1      43.328  29.342  33.419  1.00  0.00     0.074 A 
ATOM     56  C   UNL A   1      44.101  28.463  32.570  1.00  0.00     0.031 C 
ATOM     57  C   UNL A   1      38.649  31.397  29.524  1.00  0.00     0.029 A 
ATOM     58  C   UNL A   1      38.837  31.715  30.936  1.00  0.00     0.049 A 
ATOM     59  H   UNL A   1      40.369  31.064  32.188  1.00  0.00     0.167 HD
ATOM     60  C   UNL A   1      43.622  29.604  34.716  1.00  0.00     0.031 A 
ATOM     61  C   UNL A   1      38.025  32.502  31.669  1.00  0.00     0.031 A 
ATOM     62  C   UNL A   1      42.852  30.481  35.558  1.00  0.00     0.049 A 
ATOM     63  C   UNL A   1      38.353  32.747  33.118  1.00  0.00     0.074 A 
ATOM     64  C   UNL A   1      43.092  30.839  36.874  1.00  0.00     0.029 A 
ATOM     65  N   UNL A   1      41.693  31.138  35.171  1.00  0.00    -0.354 N 
ATOM     66  N   UNL A   1      39.365  32.298  33.820  1.00  0.00    -0.248 NA
ATOM     67  C   UNL A   1      37.432  33.611  33.868  1.00  0.00     0.031 C 
ATOM     68  C   UNL A   1      42.048  31.664  37.300  1.00  0.00     0.029 A 
ATOM     69  C   UNL A   1      41.193  31.877  36.231  1.00  0.00     0.049 A 
ATOM     70  H   UNL A   1      41.286  31.085  34.277  1.00  0.00     0.167 HD
ATOM     71  C   UNL A   1      39.221  32.852  35.087  1.00  0.00     0.074 A 
ATOM     72  C   UNL A   1      38.032  33.679  35.049  1.00  0.00     0.031 C 
ATOM     73  C   UNL A   1      40.007  32.694  36.181  1.00  0.00     0.031 A 
BRANCH  60  74
ATOM     74  C   UNL A   1      44.832  28.928  35.308  1.00  0.00    -0.014 A 
ATOM     75  C   UNL A   1      46.100  29.535  35.255  1.00  0.00     0.010 A 
ATOM     76  C   UNL A   1      44.692  27.695  35.971  1.00  0.00     0.010 A 
ATOM     77  C   UNL A   1      47.211  28.905  35.823  1.00  0.00     0.020 A 
ATOM     78  C   UNL A   1      45.795  27.076  36.566  1.00  0.00     0.020 A 
ATOM     79  C   UNL A   1      47.051  27.679  36.474  1.00  0.00     0.054 A 
BRANCH  79  80
ATOM     80  S   UNL A   1      48.506  26.902  37.228  1.00  0.00     0.124 S 
ATOM     81  O   UNL A   1      47.932  25.694  37.815  1.00  0.00    -0.237 OA
ATOM     82  O   UNL A   1      49.384  26.686  36.081  1.00  0.00    -0.237 OA
ATOM     83  O   UNL A   1      48.973  27.898  38.189  1.00  0.00    -0.744 OA
ENDBRANCH  79  80
ENDBRANCH  60  74
BRANCH  61  84
ATOM     84  C   UNL A   1      36.832  33.134  31.041  1.00  0.00    -0.014 A 
ATOM     85  C   UNL A   1      36.978  33.989  29.934  1.00  0.00     0.010 A 
ATOM     86  C   UNL A   1      35.542  32.876  31.538  1.00  0.00     0.010 A 
ATOM     87  C   UNL A   1      35.859  34.588  29.349  1.00  0.00     0.020 A 
ATOM     88  C   UNL A   1      34.417  33.449  30.937  1.00  0.00     0.020 A 
ATOM     89  C   UNL A   1      34.585  34.311  29.852  1.00  0.00     0.054 A 
BRANCH  89  90
ATOM     90  S   UNL A   1      33.143  35.058  29.042  1.00  0.00     0.124 S 
ATOM     91  O   UNL A   1      32.256  35.310  30.173  1.00  0.00    -0.237 OA
ATOM     92  O   UNL A   1      33.718  36.242  28.409  1.00  0.00    -0.237 OA
ATOM     93  O   UNL A   1      32.697  34.020  28.115  1.00  0.00    -0.744 OA
ENDBRANCH  89  90
ENDBRANCH  61  84
BRANCH  73  94
ATOM     94  C   UNL A   1      39.630  33.458  37.425  1.00  0.00    -0.014 A 
ATOM     95  C   UNL A   1      38.733  32.925  38.367  1.00  0.00     0.010 A 
ATOM     96  C   UNL A   1      40.231  34.705  37.678  1.00  0.00     0.010 A 
ATOM     97  C   UNL A   1      38.420  33.642  39.527  1.00  0.00     0.020 A 
ATOM     98  C   UNL A   1      39.945  35.409  38.851  1.00  0.00     0.020 A 
ATOM     99  C   UNL A   1      39.030  34.877  39.762  1.00  0.00     0.054 A 
BRANCH  99 100
ATOM    100  S   UNL A   1      38.642  35.762  41.297  1.00  0.00     0.124 S 
ATOM    101  O   UNL A   1      39.809  35.467  42.123  1.00  0.00    -0.237 OA
ATOM    102  O   UNL A   1      38.526  37.147  40.846  1.00  0.00    -0.237 OA
ATOM    103  O   UNL A   1      37.392  35.152  41.744  1.00  0.00    -0.744 OA
ENDBRANCH  99 100
ENDBRANCH  73  94
ENDBRANCH  47  48
ENDBRANCH  39  42
ENDBRANCH  37  38
ENDBRANCH  36  37
ENDBRANCH  35  36
ENDBRANCH  34  35
ENDBRANCH  33  34
ENDBRANCH   1  33
TORSDOF 24
ENDMDL
MODEL 2
REMARK VINA RESULT:     -10.0      6.365      9.647
REMARK SMILES CCCCCCNC(=O)Nc1cccc(-c2ccc([C@@H](C)C(=O)NCCCCCCNC(=O)c3ccc(-c4c5nc(c(-c6ccc(S(=O)(=O)[O-])cc6)c6ccc([nH]6)c(-c6ccc(S(=O)(=O)[O-])cc6)c6nc(c(-c7ccc(S(=O)(=O)[O-])cc7)c7ccc4[nH]7)C=C6)C=C5)cc3)cc2F)c1
REMARK SMILES IDX 25 1 24 2 22 3 23 4 20 6 21 7 19 8 16 9 17 10 95 11 18 12
REMARK SMILES IDX 94 13 96 14 15 15 11 16 12 17 97 18 13 19 14 20 10 21 7 22
REMARK SMILES IDX 8 23 9 25 6 27 5 28 4 29 3 30 2 31 1 32 26 33 27 34 28 35
REMARK SMILES IDX 29 36 30 37 31 38 32 39 33 41 34 42 35 43 93 44 36 45 92 46
REMARK SMILES IDX 37 47 38 48 39 49 86 50 40 51 91 52 85 53 87 54 41 55 90 56
REMARK SMILES IDX 84 57 83 58 42 60 72 61 53 62 71 63 54 64 57 65 70 66 88 67
REMARK SMILES IDX 55 68 56 69 69 71 89 72 58 73 43 74 44 75 52 76 45 77 51 78
REMARK SMILES IDX 46 79 47 80 48 81 49 82 50 83 73 84 74 85 82 86 75 87 81 88
REMARK SMILES IDX 76 89 77 90 78 91 79 92 80 93 59 94 60 95 68 96 61 97 67 98
REMARK SMILES IDX 62 99 63 100 64 101 65 102 66 103
REMARK H PARENT 24 5 7 24 10 26 31 40 87 59 57 70
REMARK Flexibility Score: inf
ROOT
ATOM      1  C   UNL A   1      37.519  29.951  29.138  1.00  0.00     0.116 C 
ENDROOT
BRANCH   1   2
ATOM      2  N   UNL A   1      36.489  30.603  29.920  1.00  0.00    -0.356 N 
ATOM      3  C   UNL A   1      35.492  31.462  29.575  1.00  0.00     0.227 C 
ATOM      4  O   UNL A   1      34.870  31.978  30.513  1.00  0.00    -0.274 OA
ATOM      5  H   UNL A   1      36.515  30.385  30.880  1.00  0.00     0.163 HD
BRANCH   3   6
ATOM      6  C   UNL A   1      35.100  31.790  28.128  1.00  0.00     0.105 C 
ATOM      7  C   UNL A   1      34.722  33.250  27.882  1.00  0.00     0.023 C 
BRANCH   6   8
ATOM      8  C   UNL A   1      34.178  30.773  27.470  1.00  0.00    -0.033 A 
ATOM      9  C   UNL A   1      32.504  28.806  26.228  1.00  0.00     0.018 A 
ATOM     10  C   UNL A   1      32.012  30.067  26.600  1.00  0.00     0.012 A 
ATOM     11  C   UNL A   1      33.859  28.561  26.488  1.00  0.00     0.131 A 
ATOM     12  C   UNL A   1      32.836  31.036  27.183  1.00  0.00     0.005 A 
ATOM     13  C   UNL A   1      34.678  29.512  27.109  1.00  0.00     0.044 A 
ATOM     14  F   UNL A   1      34.416  27.389  26.145  1.00  0.00    -0.206 F 
BRANCH   9  15
ATOM     15  C   UNL A   1      31.597  27.795  25.647  1.00  0.00    -0.013 A 
ATOM     16  C   UNL A   1      30.298  25.742  25.905  1.00  0.00     0.043 A 
ATOM     17  C   UNL A   1      29.651  25.970  24.693  1.00  0.00     0.026 A 
ATOM     18  C   UNL A   1      31.319  26.602  26.332  1.00  0.00     0.035 A 
ATOM     19  C   UNL A   1      29.932  27.131  23.980  1.00  0.00     0.003 A 
ATOM     20  C   UNL A   1      30.882  28.040  24.460  1.00  0.00     0.009 A 
BRANCH  16  21
ATOM     21  N   UNL A   1      29.813  24.714  26.728  1.00  0.00    -0.308 N 
ATOM     22  N   UNL A   1      31.309  22.936  26.273  1.00  0.00    -0.338 N 
ATOM     23  C   UNL A   1      30.110  23.389  26.715  1.00  0.00     0.319 C 
ATOM     24  H   UNL A   1      31.353  21.964  26.123  1.00  0.00     0.165 HD
ATOM     25  O   UNL A   1      29.320  22.579  27.203  1.00  0.00    -0.249 OA
ATOM     26  H   UNL A   1      29.166  24.994  27.413  1.00  0.00     0.171 HD
BRANCH  22  27
ATOM     27  C   UNL A   1      32.543  23.653  25.983  1.00  0.00     0.117 C 
BRANCH  27  28
ATOM     28  C   UNL A   1      33.242  23.184  24.717  1.00  0.00     0.021 C 
BRANCH  28  29
ATOM     29  C   UNL A   1      33.516  24.268  23.677  1.00  0.00     0.002 C 
BRANCH  29  30
ATOM     30  C   UNL A   1      32.373  24.567  22.704  1.00  0.00    -0.000 C 
BRANCH  30  31
ATOM     31  C   UNL A   1      32.563  25.787  21.802  1.00  0.00    -0.003 C 
ATOM     32  C   UNL A   1      33.519  26.829  22.357  1.00  0.00     0.004 C 
ENDBRANCH  30  31
ENDBRANCH  29  30
ENDBRANCH  28  29
ENDBRANCH  27  28
ENDBRANCH  22  27
ENDBRANCH  16  21
ENDBRANCH   9  15
ENDBRANCH   6   8
ENDBRANCH   3   6
ENDBRANCH   1   2
BRANCH   1  33
ATOM     33  C   UNL A   1      38.565  29.305  30.047  1.00  0.00     0.021 C 
BRANCH  33  34
ATOM     34  C   UNL A   1      39.843  28.899  29.306  1.00  0.00     0.002 C 
BRANCH  34  35
ATOM     35  C   UNL A   1      40.356  27.490  29.621  1.00  0.00     0.002 C 
BRANCH  35  36
ATOM     36  C   UNL A   1      39.878  26.378  28.682  1.00  0.00     0.021 C 
BRANCH  36  37
ATOM     37  C   UNL A   1      40.061  26.645  27.190  1.00  0.00     0.116 C 
BRANCH  37  38
ATOM     38  N   UNL A   1      41.114  25.833  26.603  1.00  0.00    -0.352 N 
ATOM     39  C   UNL A   1      42.417  26.172  26.326  1.00  0.00     0.251 C 
ATOM     40  H   UNL A   1      40.858  24.911  26.371  1.00  0.00     0.163 HD
ATOM     41  O   UNL A   1      43.120  25.431  25.654  1.00  0.00    -0.269 OA
BRANCH  39  42
ATOM     42  C   UNL A   1      42.954  27.449  26.838  1.00  0.00     0.039 A 
ATOM     43  C   UNL A   1      42.554  28.644  26.237  1.00  0.00     0.014 A 
ATOM     44  C   UNL A   1      43.844  27.462  27.916  1.00  0.00     0.014 A 
ATOM     45  C   UNL A   1      43.001  29.861  26.759  1.00  0.00     0.010 A 
ATOM     46  C   UNL A   1      44.243  28.676  28.470  1.00  0.00     0.010 A 
ATOM     47  C   UNL A   1      43.822  29.888  27.900  1.00  0.00    -0.014 A 
BRANCH  47  48
ATOM     48  C   UNL A   1      44.233  31.175  28.519  1.00  0.00     0.031 A 
ATOM     49  C   UNL A   1      43.420  31.777  29.632  1.00  0.00     0.074 A 
ATOM     50  C   UNL A   1      45.311  31.827  28.041  1.00  0.00     0.049 A 
ATOM     51  N   UNL A   1      43.598  32.911  30.260  1.00  0.00    -0.248 NA
ATOM     52  C   UNL A   1      42.245  31.016  30.086  1.00  0.00     0.031 C 
ATOM     53  C   UNL A   1      46.167  31.362  26.946  1.00  0.00     0.029 A 
ATOM     54  N   UNL A   1      45.872  33.025  28.412  1.00  0.00    -0.354 N 
ATOM     55  C   UNL A   1      42.557  33.003  31.177  1.00  0.00     0.074 A 
ATOM     56  C   UNL A   1      41.723  31.837  30.986  1.00  0.00     0.031 C 
ATOM     57  C   UNL A   1      47.161  32.245  26.760  1.00  0.00     0.029 A 
ATOM     58  C   UNL A   1      46.991  33.360  27.686  1.00  0.00     0.049 A 
ATOM     59  H   UNL A   1      45.508  33.589  29.132  1.00  0.00     0.167 HD
ATOM     60  C   UNL A   1      42.328  33.962  32.107  1.00  0.00     0.031 A 
ATOM     61  C   UNL A   1      47.788  34.444  27.752  1.00  0.00     0.031 A 
ATOM     62  C   UNL A   1      43.161  35.120  32.295  1.00  0.00     0.049 A 
ATOM     63  C   UNL A   1      47.491  35.513  28.769  1.00  0.00     0.074 A 
ATOM     64  C   UNL A   1      43.032  36.128  33.236  1.00  0.00     0.029 A 
ATOM     65  N   UNL A   1      44.275  35.430  31.529  1.00  0.00    -0.354 N 
ATOM     66  N   UNL A   1      46.529  35.558  29.659  1.00  0.00    -0.248 NA
ATOM     67  C   UNL A   1      48.392  36.672  28.795  1.00  0.00     0.031 C 
ATOM     68  C   UNL A   1      44.033  37.075  33.002  1.00  0.00     0.029 A 
ATOM     69  C   UNL A   1      44.827  36.626  31.960  1.00  0.00     0.049 A 
ATOM     70  H   UNL A   1      44.621  34.882  30.789  1.00  0.00     0.167 HD
ATOM     71  C   UNL A   1      46.729  36.734  30.373  1.00  0.00     0.074 A 
ATOM     72  C   UNL A   1      47.911  37.363  29.819  1.00  0.00     0.031 C 
ATOM     73  C   UNL A   1      46.002  37.243  31.399  1.00  0.00     0.031 A 
BRANCH  60  74
ATOM     74  C   UNL A   1      41.122  33.799  32.995  1.00  0.00    -0.014 A 
ATOM     75  C   UNL A   1      41.216  33.130  34.230  1.00  0.00     0.010 A 
ATOM     76  C   UNL A   1      39.891  34.365  32.618  1.00  0.00     0.010 A 
ATOM     77  C   UNL A   1      40.094  33.001  35.053  1.00  0.00     0.020 A 
ATOM     78  C   UNL A   1      38.773  34.263  33.452  1.00  0.00     0.020 A 
ATOM     79  C   UNL A   1      38.879  33.568  34.657  1.00  0.00     0.054 A 
BRANCH  79  80
ATOM     80  S   UNL A   1      37.449  33.410  35.761  1.00  0.00     0.124 S 
ATOM     81  O   UNL A   1      36.434  34.186  35.052  1.00  0.00    -0.237 OA
ATOM     82  O   UNL A   1      37.227  31.967  35.793  1.00  0.00    -0.237 OA
ATOM     83  O   UNL A   1      37.913  33.994  37.017  1.00  0.00    -0.744 OA
ENDBRANCH  79  80
ENDBRANCH  60  74
BRANCH  61  84
ATOM     84  C   UNL A   1      48.958  34.565  26.840  1.00  0.00    -0.014 A 
ATOM     85  C   UNL A   1      50.180  33.946  27.160  1.00  0.00     0.010 A 
ATOM     86  C   UNL A   1      48.856  35.291  25.639  1.00  0.00     0.010 A 
ATOM     87  C   UNL A   1      51.281  34.066  26.308  1.00  0.00     0.020 A 
ATOM     88  C   UNL A   1      49.946  35.388  24.769  1.00  0.00     0.020 A 
ATOM     89  C   UNL A   1      51.155  34.783  25.115  1.00  0.00     0.054 A 
BRANCH  89  90
ATOM     90  S   UNL A   1      52.582  34.880  23.998  1.00  0.00     0.124 S 
ATOM     91  O   UNL A   1      53.701  34.891  24.936  1.00  0.00    -0.237 OA
ATOM     92  O   UNL A   1      52.438  33.666  23.198  1.00  0.00    -0.237 OA
ATOM     93  O   UNL A   1      52.362  36.127  23.270  1.00  0.00    -0.744 OA
ENDBRANCH  89  90
ENDBRANCH  61  84
BRANCH  73  94
ATOM     94  C   UNL A   1      46.481  38.531  32.018  1.00  0.00    -0.014 A 
ATOM     95  C   UNL A   1      47.427  38.537  33.058  1.00  0.00     0.010 A 
ATOM     96  C   UNL A   1      46.016  39.757  31.506  1.00  0.00     0.010 A 
ATOM     97  C   UNL A   1      47.875  39.747  33.597  1.00  0.00     0.020 A 
ATOM     98  C   UNL A   1      46.487  40.969  32.021  1.00  0.00     0.020 A 
ATOM     99  C   UNL A   1      47.404  40.954  33.073  1.00  0.00     0.054 A 
BRANCH  99 100
ATOM    100  S   UNL A   1      48.039  42.508  33.759  1.00  0.00     0.124 S 
ATOM    101  O   UNL A   1      47.410  42.540  35.076  1.00  0.00    -0.237 OA
ATOM    102  O   UNL A   1      49.484  42.291  33.758  1.00  0.00    -0.237 OA
ATOM    103  O   UNL A   1      47.568  43.523  32.818  1.00  0.00    -0.744 OA
ENDBRANCH  99 100
ENDBRANCH  73  94
ENDBRANCH  47  48
ENDBRANCH  39  42
ENDBRANCH  37  38
ENDBRANCH  36  37
ENDBRANCH  35  36
ENDBRANCH  34  35
ENDBRANCH  33  34
ENDBRANCH   1  33
TORSDOF 24
ENDMDL
MODEL 3
REMARK VINA RESULT:      -9.9      5.684     12.187
REMARK SMILES CCCCCCNC(=O)Nc1cccc(-c2ccc([C@@H](C)C(=O)NCCCCCCNC(=O)c3ccc(-c4c5nc(c(-c6ccc(S(=O)(=O)[O-])cc6)c6ccc([nH]6)c(-c6ccc(S(=O)(=O)[O-])cc6)c6nc(c(-c7ccc(S(=O)(=O)[O-])cc7)c7ccc4[nH]7)C=C6)C=C5)cc3)cc2F)c1
REMARK SMILES IDX 25 1 24 2 22 3 23 4 20 6 21 7 19 8 16 9 17 10 95 11 18 12
REMARK SMILES IDX 94 13 96 14 15 15 11 16 12 17 97 18 13 19 14 20 10 21 7 22
REMARK SMILES IDX 8 23 9 25 6 27 5 28 4 29 3 30 2 31 1 32 26 33 27 34 28 35
REMARK SMILES IDX 29 36 30 37 31 38 32 39 33 41 34 42 35 43 93 44 36 45 92 46
REMARK SMILES IDX 37 47 38 48 39 49 86 50 40 51 91 52 85 53 87 54 41 55 90 56
REMARK SMILES IDX 84 57 83 58 42 60 72 61 53 62 71 63 54 64 57 65 70 66 88 67
REMARK SMILES IDX 55 68 56 69 69 71 89 72 58 73 43 74 44 75 52 76 45 77 51 78
REMARK SMILES IDX 46 79 47 80 48 81 49 82 50 83 73 84 74 85 82 86 75 87 81 88
REMARK SMILES IDX 76 89 77 90 78 91 79 92 80 93 59 94 60 95 68 96 61 97 67 98
REMARK SMILES IDX 62 99 63 100 64 101 65 102 66 103
REMARK H PARENT 24 5 7 24 10 26 31 40 87 59 57 70
REMARK Flexibility Score: inf
ROOT
ATOM      1  C   UNL A   1      37.577  31.478  28.743  1.00  0.00     0.116 C 
ENDROOT
BRANCH   1   2
ATOM      2  N   UNL A   1      36.450  31.557  29.650  1.00  0.00    -0.356 N 
ATOM      3  C   UNL A   1      35.171  31.987  29.478  1.00  0.00     0.227 C 
ATOM      4  O   UNL A   1      34.487  32.085  30.504  1.00  0.00    -0.274 OA
ATOM      5  H   UNL A   1      36.646  31.242  30.562  1.00  0.00     0.163 HD
BRANCH   3   6
ATOM      6  C   UNL A   1      34.552  32.321  28.113  1.00  0.00     0.105 C 
ATOM      7  C   UNL A   1      33.874  33.688  28.036  1.00  0.00     0.023 C 
BRANCH   6   8
ATOM      8  C   UNL A   1      33.771  31.184  27.470  1.00  0.00    -0.033 A 
ATOM      9  C   UNL A   1      32.367  28.995  26.266  1.00  0.00     0.018 A 
ATOM     10  C   UNL A   1      31.753  30.239  26.480  1.00  0.00     0.012 A 
ATOM     11  C   UNL A   1      33.705  28.880  26.666  1.00  0.00     0.131 A 
ATOM     12  C   UNL A   1      32.448  31.315  27.044  1.00  0.00     0.005 A 
ATOM     13  C   UNL A   1      34.392  29.941  27.268  1.00  0.00     0.044 A 
ATOM     14  F   UNL A   1      34.374  27.732  26.479  1.00  0.00    -0.206 F 
BRANCH   9  15
ATOM     15  C   UNL A   1      31.593  27.871  25.700  1.00  0.00    -0.013 A 
ATOM     16  C   UNL A   1      30.486  25.715  26.011  1.00  0.00     0.043 A 
ATOM     17  C   UNL A   1      29.885  25.816  24.759  1.00  0.00     0.026 A 
ATOM     18  C   UNL A   1      31.396  26.693  26.437  1.00  0.00     0.035 A 
ATOM     19  C   UNL A   1      30.088  26.962  23.997  1.00  0.00     0.003 A 
ATOM     20  C   UNL A   1      30.920  27.983  24.470  1.00  0.00     0.009 A 
BRANCH  16  21
ATOM     21  N   UNL A   1      30.061  24.687  26.866  1.00  0.00    -0.308 N 
ATOM     22  N   UNL A   1      31.134  22.781  25.959  1.00  0.00    -0.338 N 
ATOM     23  C   UNL A   1      30.149  23.342  26.705  1.00  0.00     0.319 C 
ATOM     24  H   UNL A   1      30.998  21.829  25.747  1.00  0.00     0.165 HD
ATOM     25  O   UNL A   1      29.384  22.599  27.323  1.00  0.00    -0.249 OA
ATOM     26  H   UNL A   1      29.639  24.984  27.703  1.00  0.00     0.171 HD
BRANCH  22  27
ATOM     27  C   UNL A   1      32.357  23.357  25.421  1.00  0.00     0.117 C 
BRANCH  27  28
ATOM     28  C   UNL A   1      32.844  22.682  24.147  1.00  0.00     0.021 C 
BRANCH  28  29
ATOM     29  C   UNL A   1      34.000  23.381  23.434  1.00  0.00     0.002 C 
BRANCH  29  30
ATOM     30  C   UNL A   1      34.452  24.712  24.040  1.00  0.00    -0.000 C 
BRANCH  30  31
ATOM     31  C   UNL A   1      33.743  25.961  23.515  1.00  0.00    -0.003 C 
ATOM     32  C   UNL A   1      33.264  25.848  22.077  1.00  0.00     0.004 C 
ENDBRANCH  30  31
ENDBRANCH  29  30
ENDBRANCH  28  29
ENDBRANCH  27  28
ENDBRANCH  22  27
ENDBRANCH  16  21
ENDBRANCH   9  15
ENDBRANCH   6   8
ENDBRANCH   3   6
ENDBRANCH   1   2
BRANCH   1  33
ATOM     33  C   UNL A   1      37.487  30.223  27.874  1.00  0.00     0.021 C 
BRANCH  33  34
ATOM     34  C   UNL A   1      37.792  28.932  28.641  1.00  0.00     0.002 C 
BRANCH  34  35
ATOM     35  C   UNL A   1      39.103  28.241  28.256  1.00  0.00     0.002 C 
BRANCH  35  36
ATOM     36  C   UNL A   1      39.578  27.132  29.201  1.00  0.00     0.021 C 
BRANCH  36  37
ATOM     37  C   UNL A   1      40.041  25.841  28.530  1.00  0.00     0.116 C 
BRANCH  37  38
ATOM     38  N   UNL A   1      40.218  25.990  27.095  1.00  0.00    -0.352 N 
ATOM     39  C   UNL A   1      41.368  26.252  26.387  1.00  0.00     0.251 C 
ATOM     40  H   UNL A   1      39.402  25.890  26.554  1.00  0.00     0.163 HD
ATOM     41  O   UNL A   1      41.312  26.537  25.200  1.00  0.00    -0.269 OA
BRANCH  39  42
ATOM     42  C   UNL A   1      42.671  26.195  27.081  1.00  0.00     0.039 A 
ATOM     43  C   UNL A   1      43.338  24.972  27.175  1.00  0.00     0.014 A 
ATOM     44  C   UNL A   1      43.232  27.352  27.628  1.00  0.00     0.014 A 
ATOM     45  C   UNL A   1      44.602  24.921  27.767  1.00  0.00     0.010 A 
ATOM     46  C   UNL A   1      44.516  27.309  28.167  1.00  0.00     0.010 A 
ATOM     47  C   UNL A   1      45.216  26.095  28.238  1.00  0.00    -0.014 A 
BRANCH  47  48
ATOM     48  C   UNL A   1      46.596  26.071  28.789  1.00  0.00     0.031 A 
ATOM     49  C   UNL A   1      46.823  25.866  30.261  1.00  0.00     0.074 A 
ATOM     50  C   UNL A   1      47.643  26.287  27.968  1.00  0.00     0.049 A 
ATOM     51  N   UNL A   1      47.949  25.861  30.928  1.00  0.00    -0.248 NA
ATOM     52  C   UNL A   1      45.630  25.657  31.098  1.00  0.00     0.031 C 
ATOM     53  C   UNL A   1      47.553  26.527  26.525  1.00  0.00     0.029 A 
ATOM     54  N   UNL A   1      48.990  26.344  28.229  1.00  0.00    -0.354 N 
ATOM     55  C   UNL A   1      47.602  25.656  32.257  1.00  0.00     0.074 A 
ATOM     56  C   UNL A   1      46.158  25.594  32.312  1.00  0.00     0.031 C 
ATOM     57  C   UNL A   1      48.791  26.669  26.026  1.00  0.00     0.029 A 
ATOM     58  C   UNL A   1      49.760  26.578  27.113  1.00  0.00     0.049 A 
ATOM     59  H   UNL A   1      49.369  26.227  29.130  1.00  0.00     0.167 HD
ATOM     60  C   UNL A   1      48.413  25.511  33.334  1.00  0.00     0.031 A 
ATOM     61  C   UNL A   1      51.094  26.711  26.979  1.00  0.00     0.031 A 
ATOM     62  C   UNL A   1      49.849  25.572  33.277  1.00  0.00     0.049 A 
ATOM     63  C   UNL A   1      51.970  26.583  28.196  1.00  0.00     0.074 A 
ATOM     64  C   UNL A   1      50.759  25.400  34.307  1.00  0.00     0.029 A 
ATOM     65  N   UNL A   1      50.589  25.825  32.131  1.00  0.00    -0.354 N 
ATOM     66  N   UNL A   1      51.624  26.341  29.438  1.00  0.00    -0.248 NA
ATOM     67  C   UNL A   1      53.416  26.738  27.990  1.00  0.00     0.031 C 
ATOM     68  C   UNL A   1      52.043  25.606  33.796  1.00  0.00     0.029 A 
ATOM     69  C   UNL A   1      51.940  25.840  32.434  1.00  0.00     0.049 A 
ATOM     70  H   UNL A   1      50.208  25.975  31.236  1.00  0.00     0.167 HD
ATOM     71  C   UNL A   1      52.813  26.282  30.156  1.00  0.00     0.074 A 
ATOM     72  C   UNL A   1      53.886  26.501  29.208  1.00  0.00     0.031 C 
ATOM     73  C   UNL A   1      52.999  26.061  31.482  1.00  0.00     0.031 A 
BRANCH  60  74
ATOM     74  C   UNL A   1      47.761  25.275  34.672  1.00  0.00    -0.014 A 
ATOM     75  C   UNL A   1      47.315  26.351  35.461  1.00  0.00     0.010 A 
ATOM     76  C   UNL A   1      47.543  23.961  35.125  1.00  0.00     0.010 A 
ATOM     77  C   UNL A   1      46.697  26.119  36.693  1.00  0.00     0.020 A 
ATOM     78  C   UNL A   1      46.899  23.723  36.342  1.00  0.00     0.020 A 
ATOM     79  C   UNL A   1      46.493  24.805  37.125  1.00  0.00     0.054 A 
BRANCH  79  80
ATOM     80  S   UNL A   1      45.660  24.535  38.713  1.00  0.00     0.124 S 
ATOM     81  O   UNL A   1      44.432  25.307  38.544  1.00  0.00    -0.237 OA
ATOM     82  O   UNL A   1      45.491  23.085  38.744  1.00  0.00    -0.237 OA
ATOM     83  O   UNL A   1      46.601  25.070  39.695  1.00  0.00    -0.744 OA
ENDBRANCH  79  80
ENDBRANCH  60  74
BRANCH  61  84
ATOM     84  C   UNL A   1      51.686  26.960  25.637  1.00  0.00    -0.014 A 
ATOM     85  C   UNL A   1      51.621  28.238  25.053  1.00  0.00     0.010 A 
ATOM     86  C   UNL A   1      52.329  25.923  24.936  1.00  0.00     0.010 A 
ATOM     87  C   UNL A   1      52.170  28.471  23.790  1.00  0.00     0.020 A 
ATOM     88  C   UNL A   1      52.907  26.159  23.685  1.00  0.00     0.020 A 
ATOM     89  C   UNL A   1      52.814  27.430  23.115  1.00  0.00     0.054 A 
BRANCH  89  90
ATOM     90  S   UNL A   1      53.567  27.769  21.500  1.00  0.00     0.124 S 
ATOM     91  O   UNL A   1      53.508  26.460  20.856  1.00  0.00    -0.237 OA
ATOM     92  O   UNL A   1      52.679  28.788  20.947  1.00  0.00    -0.237 OA
ATOM     93  O   UNL A   1      54.908  28.240  21.840  1.00  0.00    -0.744 OA
ENDBRANCH  89  90
ENDBRANCH  61  84
BRANCH  73  94
ATOM     94  C   UNL A   1      54.418  26.009  31.986  1.00  0.00    -0.014 A 
ATOM     95  C   UNL A   1      55.149  24.808  31.994  1.00  0.00     0.010 A 
ATOM     96  C   UNL A   1      55.047  27.197  32.404  1.00  0.00     0.010 A 
ATOM     97  C   UNL A   1      56.474  24.791  32.440  1.00  0.00     0.020 A 
ATOM     98  C   UNL A   1      56.381  27.189  32.822  1.00  0.00     0.020 A 
ATOM     99  C   UNL A   1      57.081  25.982  32.849  1.00  0.00     0.054 A 
BRANCH  99 100
ATOM    100  S   UNL A   1      58.815  25.939  33.379  1.00  0.00     0.124 S 
ATOM    101  O   UNL A   1      58.885  27.078  34.289  1.00  0.00    -0.237 OA
ATOM    102  O   UNL A   1      58.925  24.624  34.007  1.00  0.00    -0.237 OA
ATOM    103  O   UNL A   1      59.563  26.090  32.132  1.00  0.00    -0.744 OA
ENDBRANCH  99 100
ENDBRANCH  73  94
ENDBRANCH  47  48
ENDBRANCH  39  42
ENDBRANCH  37  38
ENDBRANCH  36  37
ENDBRANCH  35  36
ENDBRANCH  34  35
ENDBRANCH  33  34
ENDBRANCH   1  33
TORSDOF 24
ENDMDL
