MODEL 1
REMARK VINA RESULT:     -12.9      0.000      0.000
REMARK SMILES Cc1cc(NC(=O)c2ccc(Br)cc2N)ccc1C(=O)NCCCCCCNC(=O)c1ccc(-c2c3nc(c(-c4ccc(S(=O)(=O)[O-])cc4)c4ccc([nH]4)c(-c4ccc(S(=O)(=O)[O-])cc4)c4nc(c(-c5ccc(S(=O)(=O)[O-])cc5)c5ccc2[nH]5)C=C4)C=C3)cc1
REMARK SMILES IDX 24 1 23 2 22 3 21 4 19 5 20 6 18 8 1 9 2 10 3 11 4 12 17 13
REMARK SMILES IDX 16 14 5 15 6 16 7 18 8 19 9 20 14 21 10 22 13 23 11 24 12 25
REMARK SMILES IDX 15 26 25 29 26 30 27 31 28 32 29 33 30 35 31 36 32 37 90 38
REMARK SMILES IDX 33 39 89 40 34 41 35 42 36 43 83 44 37 45 88 46 82 47 84 48
REMARK SMILES IDX 38 49 87 50 81 51 80 52 39 54 69 55 50 56 68 57 51 58 54 59
REMARK SMILES IDX 67 60 85 61 52 62 53 63 66 65 86 66 55 67 40 68 41 69 49 70
REMARK SMILES IDX 42 71 48 72 43 73 44 74 45 75 46 76 47 77 70 78 71 79 79 80
REMARK SMILES IDX 72 81 78 82 73 83 74 84 75 85 76 86 77 87 56 88 57 89 65 90
REMARK SMILES IDX 58 91 64 92 59 93 60 94 61 95 62 96 63 97
REMARK H PARENT 21 7 5 17 15 27 15 28 28 34 84 53 54 64
REMARK Flexibility Score: inf
ROOT
ATOM      1  C   UNL A   1      31.367  29.700  25.181  1.00  0.00     0.002 C 
ENDROOT
BRANCH   1   2
ATOM      2  C   UNL A   1      31.742  29.413  23.721  1.00  0.00     0.021 C 
BRANCH   2   3
ATOM      3  C   UNL A   1      30.624  28.826  22.848  1.00  0.00     0.116 C 
BRANCH   3   4
ATOM      4  N   UNL A   1      29.913  27.784  23.567  1.00  0.00    -0.352 N 
ATOM      5  C   UNL A   1      30.282  26.603  24.155  1.00  0.00     0.251 C 
ATOM      6  O   UNL A   1      29.385  25.962  24.712  1.00  0.00    -0.269 OA
ATOM      7  H   UNL A   1      28.950  27.966  23.649  1.00  0.00     0.163 HD
BRANCH   5   8
ATOM      8  C   UNL A   1      31.681  26.082  24.274  1.00  0.00     0.042 A 
ATOM      9  C   UNL A   1      32.138  25.445  21.818  1.00  0.00     0.045 C 
ATOM     10  C   UNL A   1      32.529  25.611  23.256  1.00  0.00    -0.036 A 
ATOM     11  C   UNL A   1      33.839  25.190  23.589  1.00  0.00     0.030 A 
ATOM     12  C   UNL A   1      34.271  25.112  24.913  1.00  0.00     0.041 A 
ATOM     13  C   UNL A   1      32.120  25.938  25.610  1.00  0.00     0.016 A 
ATOM     14  C   UNL A   1      33.378  25.419  25.931  1.00  0.00     0.027 A 
BRANCH  12  15
ATOM     15  N   UNL A   1      35.570  24.716  25.272  1.00  0.00    -0.322 N 
ATOM     16  C   UNL A   1      36.001  23.539  25.851  1.00  0.00     0.257 C 
ATOM     17  H   UNL A   1      36.277  25.376  25.085  1.00  0.00     0.170 HD
ATOM     18  O   UNL A   1      37.121  23.479  26.359  1.00  0.00    -0.269 OA
BRANCH  16  19
ATOM     19  C   UNL A   1      35.174  22.305  25.780  1.00  0.00     0.063 A 
ATOM     20  C   UNL A   1      35.126  21.651  24.538  1.00  0.00     0.017 A 
ATOM     21  C   UNL A   1      34.434  21.813  26.879  1.00  0.00     0.045 A 
ATOM     22  C   UNL A   1      34.370  20.489  24.384  1.00  0.00     0.016 A 
ATOM     23  C   UNL A   1      33.667  20.654  26.696  1.00  0.00     0.042 A 
ATOM     24  C   UNL A   1      33.649  19.994  25.467  1.00  0.00     0.020 A 
ATOM     25  Br  UNL A   1      32.604  18.430  25.265  1.00  0.00    -0.051 Br
BRANCH  21  26
ATOM     26  N   UNL A   1      34.288  22.508  28.082  1.00  0.00    -0.398 N 
ATOM     27  H   UNL A   1      33.647  22.192  28.758  1.00  0.00     0.156 HD
ATOM     28  H   UNL A   1      34.827  23.314  28.253  1.00  0.00     0.156 HD
ENDBRANCH  21  26
ENDBRANCH  16  19
ENDBRANCH  12  15
ENDBRANCH   5   8
ENDBRANCH   3   4
ENDBRANCH   2   3
ENDBRANCH   1   2
BRANCH   1  29
ATOM     29  C   UNL A   1      32.475  30.269  26.081  1.00  0.00     0.002 C 
BRANCH  29  30
ATOM     30  C   UNL A   1      32.936  29.376  27.235  1.00  0.00     0.021 C 
BRANCH  30  31
ATOM     31  C   UNL A   1      34.444  29.185  27.320  1.00  0.00     0.116 C 
BRANCH  31  32
ATOM     32  N   UNL A   1      35.192  30.432  27.349  1.00  0.00    -0.352 N 
ATOM     33  C   UNL A   1      36.181  30.665  28.293  1.00  0.00     0.251 C 
ATOM     34  H   UNL A   1      34.992  31.128  26.682  1.00  0.00     0.163 HD
ATOM     35  O   UNL A   1      36.248  31.663  29.003  1.00  0.00    -0.269 OA
BRANCH  33  36
ATOM     36  C   UNL A   1      37.211  29.612  28.374  1.00  0.00     0.039 A 
ATOM     37  C   UNL A   1      37.378  28.918  29.575  1.00  0.00     0.014 A 
ATOM     38  C   UNL A   1      38.144  29.512  27.343  1.00  0.00     0.014 A 
ATOM     39  C   UNL A   1      38.564  28.219  29.796  1.00  0.00     0.010 A 
ATOM     40  C   UNL A   1      39.348  28.886  27.595  1.00  0.00     0.010 A 
ATOM     41  C   UNL A   1      39.576  28.272  28.835  1.00  0.00    -0.014 A 
BRANCH  41  42
ATOM     42  C   UNL A   1      40.927  27.762  29.049  1.00  0.00     0.031 A 
ATOM     43  C   UNL A   1      41.290  26.399  28.591  1.00  0.00     0.074 A 
ATOM     44  C   UNL A   1      41.878  28.552  29.596  1.00  0.00     0.049 A 
ATOM     45  N   UNL A   1      42.301  25.726  29.028  1.00  0.00    -0.248 NA
ATOM     46  C   UNL A   1      40.487  25.666  27.619  1.00  0.00     0.031 C 
ATOM     47  C   UNL A   1      43.320  28.310  29.608  1.00  0.00     0.029 A 
ATOM     48  N   UNL A   1      41.712  29.625  30.472  1.00  0.00    -0.354 N 
ATOM     49  C   UNL A   1      42.452  24.628  28.212  1.00  0.00     0.074 A 
ATOM     50  C   UNL A   1      41.258  24.596  27.399  1.00  0.00     0.031 C 
ATOM     51  C   UNL A   1      43.851  28.965  30.650  1.00  0.00     0.029 A 
ATOM     52  C   UNL A   1      42.745  29.512  31.420  1.00  0.00     0.049 A 
ATOM     53  H   UNL A   1      41.015  30.319  30.434  1.00  0.00     0.167 HD
ATOM     54  C   UNL A   1      43.625  23.931  28.220  1.00  0.00     0.031 A 
ATOM     55  C   UNL A   1      42.527  29.307  32.752  1.00  0.00     0.031 A 
ATOM     56  C   UNL A   1      44.553  24.409  29.243  1.00  0.00     0.049 A 
ATOM     57  C   UNL A   1      43.175  28.042  33.292  1.00  0.00     0.074 A 
ATOM     58  C   UNL A   1      45.712  25.167  29.232  1.00  0.00     0.029 A 
ATOM     59  N   UNL A   1      44.174  24.311  30.570  1.00  0.00    -0.354 N 
ATOM     60  N   UNL A   1      43.852  27.191  32.572  1.00  0.00    -0.248 NA
ATOM     61  C   UNL A   1      43.016  27.587  34.676  1.00  0.00     0.031 C 
ATOM     62  C   UNL A   1      46.020  25.527  30.577  1.00  0.00     0.029 A 
ATOM     63  C   UNL A   1      45.053  24.980  31.398  1.00  0.00     0.049 A 
ATOM     64  H   UNL A   1      43.378  23.823  30.886  1.00  0.00     0.167 HD
ATOM     65  C   UNL A   1      44.164  26.095  33.331  1.00  0.00     0.074 A 
ATOM     66  C   UNL A   1      43.634  26.393  34.647  1.00  0.00     0.031 C 
ATOM     67  C   UNL A   1      44.788  24.994  32.824  1.00  0.00     0.031 A 
BRANCH  54  68
ATOM     68  C   UNL A   1      44.012  22.947  27.138  1.00  0.00    -0.014 A 
ATOM     69  C   UNL A   1      43.071  21.998  26.686  1.00  0.00     0.010 A 
ATOM     70  C   UNL A   1      45.294  22.871  26.560  1.00  0.00     0.010 A 
ATOM     71  C   UNL A   1      43.419  20.965  25.801  1.00  0.00     0.020 A 
ATOM     72  C   UNL A   1      45.669  21.822  25.706  1.00  0.00     0.020 A 
ATOM     73  C   UNL A   1      44.729  20.863  25.342  1.00  0.00     0.054 A 
BRANCH  73  74
ATOM     74  S   UNL A   1      45.193  19.464  24.290  1.00  0.00     0.124 S 
ATOM     75  O   UNL A   1      44.404  19.702  23.083  1.00  0.00    -0.237 OA
ATOM     76  O   UNL A   1      46.634  19.642  24.148  1.00  0.00    -0.237 OA
ATOM     77  O   UNL A   1      44.784  18.295  25.068  1.00  0.00    -0.744 OA
ENDBRANCH  73  74
ENDBRANCH  54  68
BRANCH  55  78
ATOM     78  C   UNL A   1      41.243  29.883  33.248  1.00  0.00    -0.014 A 
ATOM     79  C   UNL A   1      41.167  31.286  33.388  1.00  0.00     0.010 A 
ATOM     80  C   UNL A   1      40.053  29.143  33.168  1.00  0.00     0.010 A 
ATOM     81  C   UNL A   1      39.944  31.948  33.258  1.00  0.00     0.020 A 
ATOM     82  C   UNL A   1      38.822  29.805  33.054  1.00  0.00     0.020 A 
ATOM     83  C   UNL A   1      38.789  31.202  33.021  1.00  0.00     0.054 A 
BRANCH  83  84
ATOM     84  S   UNL A   1      37.287  32.084  32.494  1.00  0.00     0.124 S 
ATOM     85  O   UNL A   1      36.390  30.991  32.136  1.00  0.00    -0.237 OA
ATOM     86  O   UNL A   1      36.922  32.833  33.699  1.00  0.00    -0.237 OA
ATOM     87  O   UNL A   1      37.756  32.907  31.384  1.00  0.00    -0.744 OA
ENDBRANCH  83  84
ENDBRANCH  55  78
BRANCH  67  88
ATOM     88  C   UNL A   1      45.161  23.801  33.654  1.00  0.00    -0.014 A 
ATOM     89  C   UNL A   1      44.283  22.720  33.841  1.00  0.00     0.010 A 
ATOM     90  C   UNL A   1      46.369  23.796  34.382  1.00  0.00     0.010 A 
ATOM     91  C   UNL A   1      44.626  21.650  34.677  1.00  0.00     0.020 A 
ATOM     92  C   UNL A   1      46.713  22.741  35.232  1.00  0.00     0.020 A 
ATOM     93  C   UNL A   1      45.844  21.663  35.359  1.00  0.00     0.054 A 
BRANCH  93  94
ATOM     94  S   UNL A   1      46.260  20.286  36.461  1.00  0.00     0.124 S 
ATOM     95  O   UNL A   1      45.442  19.194  35.937  1.00  0.00    -0.237 OA
ATOM     96  O   UNL A   1      47.697  20.151  36.244  1.00  0.00    -0.237 OA
ATOM     97  O   UNL A   1      45.870  20.768  37.784  1.00  0.00    -0.744 OA
ENDBRANCH  93  94
ENDBRANCH  67  88
ENDBRANCH  41  42
ENDBRANCH  33  36
ENDBRANCH  31  32
ENDBRANCH  30  31
ENDBRANCH  29  30
ENDBRANCH   1  29
TORSDOF 19
ENDMDL
MODEL 2
REMARK VINA RESULT:     -12.9      4.559     11.243
REMARK SMILES Cc1cc(NC(=O)c2ccc(Br)cc2N)ccc1C(=O)NCCCCCCNC(=O)c1ccc(-c2c3nc(c(-c4ccc(S(=O)(=O)[O-])cc4)c4ccc([nH]4)c(-c4ccc(S(=O)(=O)[O-])cc4)c4nc(c(-c5ccc(S(=O)(=O)[O-])cc5)c5ccc2[nH]5)C=C4)C=C3)cc1
REMARK SMILES IDX 24 1 23 2 22 3 21 4 19 5 20 6 18 8 1 9 2 10 3 11 4 12 17 13
REMARK SMILES IDX 16 14 5 15 6 16 7 18 8 19 9 20 14 21 10 22 13 23 11 24 12 25
REMARK SMILES IDX 15 26 25 29 26 30 27 31 28 32 29 33 30 35 31 36 32 37 90 38
REMARK SMILES IDX 33 39 89 40 34 41 35 42 36 43 83 44 37 45 88 46 82 47 84 48
REMARK SMILES IDX 38 49 87 50 81 51 80 52 39 54 69 55 50 56 68 57 51 58 54 59
REMARK SMILES IDX 67 60 85 61 52 62 53 63 66 65 86 66 55 67 40 68 41 69 49 70
REMARK SMILES IDX 42 71 48 72 43 73 44 74 45 75 46 76 47 77 70 78 71 79 79 80
REMARK SMILES IDX 72 81 78 82 73 83 74 84 75 85 76 86 77 87 56 88 57 89 65 90
REMARK SMILES IDX 58 91 64 92 59 93 60 94 61 95 62 96 63 97
REMARK H PARENT 21 7 5 17 15 27 15 28 28 34 84 53 54 64
REMARK Flexibility Score: inf
ROOT
ATOM      1  C   UNL A   1      35.749  21.602  24.838  1.00  0.00     0.002 C 
ENDROOT
BRANCH   1   2
ATOM      2  C   UNL A   1      35.026  20.250  24.862  1.00  0.00     0.021 C 
BRANCH   2   3
ATOM      3  C   UNL A   1      33.527  20.300  25.195  1.00  0.00     0.116 C 
BRANCH   3   4
ATOM      4  N   UNL A   1      32.780  20.862  24.084  1.00  0.00    -0.352 N 
ATOM      5  C   UNL A   1      32.326  22.116  23.772  1.00  0.00     0.251 C 
ATOM      6  O   UNL A   1      31.725  22.231  22.699  1.00  0.00    -0.269 OA
ATOM      7  H   UNL A   1      32.547  20.191  23.403  1.00  0.00     0.163 HD
BRANCH   5   8
ATOM      8  C   UNL A   1      32.587  23.364  24.557  1.00  0.00     0.042 A 
ATOM      9  C   UNL A   1      30.830  23.099  26.426  1.00  0.00     0.045 C 
ATOM     10  C   UNL A   1      31.974  23.793  25.748  1.00  0.00    -0.036 A 
ATOM     11  C   UNL A   1      32.398  25.003  26.346  1.00  0.00     0.030 A 
ATOM     12  C   UNL A   1      33.321  25.845  25.724  1.00  0.00     0.041 A 
ATOM     13  C   UNL A   1      33.473  24.261  23.918  1.00  0.00     0.016 A 
ATOM     14  C   UNL A   1      33.804  25.503  24.468  1.00  0.00     0.027 A 
BRANCH  12  15
ATOM     15  N   UNL A   1      33.775  27.043  26.301  1.00  0.00    -0.322 N 
ATOM     16  C   UNL A   1      33.709  28.333  25.814  1.00  0.00     0.257 C 
ATOM     17  H   UNL A   1      34.205  26.947  27.182  1.00  0.00     0.170 HD
ATOM     18  O   UNL A   1      34.410  29.214  26.314  1.00  0.00    -0.269 OA
BRANCH  16  19
ATOM     19  C   UNL A   1      32.726  28.703  24.761  1.00  0.00     0.063 A 
ATOM     20  C   UNL A   1      31.372  28.694  25.134  1.00  0.00     0.017 A 
ATOM     21  C   UNL A   1      33.103  29.016  23.436  1.00  0.00     0.045 A 
ATOM     22  C   UNL A   1      30.385  29.024  24.206  1.00  0.00     0.016 A 
ATOM     23  C   UNL A   1      32.092  29.328  22.516  1.00  0.00     0.042 A 
ATOM     24  C   UNL A   1      30.751  29.345  22.903  1.00  0.00     0.020 A 
ATOM     25  Br  UNL A   1      29.421  29.775  21.630  1.00  0.00    -0.051 Br
BRANCH  21  26
ATOM     26  N   UNL A   1      34.404  28.867  22.950  1.00  0.00    -0.398 N 
ATOM     27  H   UNL A   1      35.138  28.646  23.566  1.00  0.00     0.156 HD
ATOM     28  H   UNL A   1      34.586  28.980  21.988  1.00  0.00     0.156 HD
ENDBRANCH  21  26
ENDBRANCH  16  19
ENDBRANCH  12  15
ENDBRANCH   5   8
ENDBRANCH   3   4
ENDBRANCH   2   3
ENDBRANCH   1   2
BRANCH   1  29
ATOM     29  C   UNL A   1      35.699  22.438  26.126  1.00  0.00     0.002 C 
BRANCH  29  30
ATOM     30  C   UNL A   1      36.544  23.713  26.141  1.00  0.00     0.021 C 
BRANCH  30  31
ATOM     31  C   UNL A   1      37.974  23.526  25.651  1.00  0.00     0.116 C 
BRANCH  31  32
ATOM     32  N   UNL A   1      38.896  23.084  26.687  1.00  0.00    -0.352 N 
ATOM     33  C   UNL A   1      40.005  23.836  27.042  1.00  0.00     0.251 C 
ATOM     34  H   UNL A   1      38.727  22.229  27.146  1.00  0.00     0.163 HD
ATOM     35  O   UNL A   1      41.150  23.403  27.108  1.00  0.00    -0.269 OA
BRANCH  33  36
ATOM     36  C   UNL A   1      39.709  25.240  27.384  1.00  0.00     0.039 A 
ATOM     37  C   UNL A   1      40.319  26.260  26.649  1.00  0.00     0.014 A 
ATOM     38  C   UNL A   1      39.035  25.509  28.574  1.00  0.00     0.014 A 
ATOM     39  C   UNL A   1      40.367  27.547  27.183  1.00  0.00     0.010 A 
ATOM     40  C   UNL A   1      39.152  26.765  29.136  1.00  0.00     0.010 A 
ATOM     41  C   UNL A   1      39.851  27.775  28.461  1.00  0.00    -0.014 A 
BRANCH  41  42
ATOM     42  C   UNL A   1      40.036  29.019  29.202  1.00  0.00     0.031 A 
ATOM     43  C   UNL A   1      38.985  30.065  29.173  1.00  0.00     0.074 A 
ATOM     44  C   UNL A   1      41.128  29.198  29.978  1.00  0.00     0.049 A 
ATOM     45  N   UNL A   1      39.180  31.305  29.475  1.00  0.00    -0.248 NA
ATOM     46  C   UNL A   1      37.620  29.785  28.743  1.00  0.00     0.031 C 
ATOM     47  C   UNL A   1      41.322  30.230  30.995  1.00  0.00     0.029 A 
ATOM     48  N   UNL A   1      42.391  28.624  29.838  1.00  0.00    -0.354 N 
ATOM     49  C   UNL A   1      37.946  31.909  29.565  1.00  0.00     0.074 A 
ATOM     50  C   UNL A   1      37.015  30.943  29.029  1.00  0.00     0.031 C 
ATOM     51  C   UNL A   1      42.639  30.431  31.148  1.00  0.00     0.029 A 
ATOM     52  C   UNL A   1      43.313  29.647  30.126  1.00  0.00     0.049 A 
ATOM     53  H   UNL A   1      42.596  27.694  29.590  1.00  0.00     0.167 HD
ATOM     54  C   UNL A   1      37.821  33.112  30.195  1.00  0.00     0.031 A 
ATOM     55  C   UNL A   1      44.210  30.132  29.217  1.00  0.00     0.031 A 
ATOM     56  C   UNL A   1      39.112  33.669  30.597  1.00  0.00     0.049 A 
ATOM     57  C   UNL A   1      44.073  31.623  28.954  1.00  0.00     0.074 A 
ATOM     58  C   UNL A   1      39.787  33.800  31.799  1.00  0.00     0.029 A 
ATOM     59  N   UNL A   1      40.029  33.980  29.608  1.00  0.00    -0.354 N 
ATOM     60  N   UNL A   1      43.171  32.392  29.501  1.00  0.00    -0.248 NA
ATOM     61  C   UNL A   1      44.883  32.342  27.968  1.00  0.00     0.031 C 
ATOM     62  C   UNL A   1      41.129  34.189  31.514  1.00  0.00     0.029 A 
ATOM     63  C   UNL A   1      41.260  34.300  30.143  1.00  0.00     0.049 A 
ATOM     64  H   UNL A   1      39.828  33.974  28.643  1.00  0.00     0.167 HD
ATOM     65  C   UNL A   1      43.229  33.637  28.936  1.00  0.00     0.074 A 
ATOM     66  C   UNL A   1      44.326  33.566  27.992  1.00  0.00     0.031 C 
ATOM     67  C   UNL A   1      42.344  34.630  29.237  1.00  0.00     0.031 A 
BRANCH  54  68
ATOM     68  C   UNL A   1      36.493  33.680  30.644  1.00  0.00    -0.014 A 
ATOM     69  C   UNL A   1      35.553  34.104  29.681  1.00  0.00     0.010 A 
ATOM     70  C   UNL A   1      36.126  33.867  31.990  1.00  0.00     0.010 A 
ATOM     71  C   UNL A   1      34.374  34.779  30.036  1.00  0.00     0.020 A 
ATOM     72  C   UNL A   1      34.973  34.576  32.361  1.00  0.00     0.020 A 
ATOM     73  C   UNL A   1      34.108  35.042  31.377  1.00  0.00     0.054 A 
BRANCH  73  74
ATOM     74  S   UNL A   1      32.641  36.010  31.815  1.00  0.00     0.124 S 
ATOM     75  O   UNL A   1      33.198  37.056  32.671  1.00  0.00    -0.237 OA
ATOM     76  O   UNL A   1      32.157  36.453  30.512  1.00  0.00    -0.237 OA
ATOM     77  O   UNL A   1      31.783  35.047  32.502  1.00  0.00    -0.744 OA
ENDBRANCH  73  74
ENDBRANCH  54  68
BRANCH  55  78
ATOM     78  C   UNL A   1      44.643  29.127  28.203  1.00  0.00    -0.014 A 
ATOM     79  C   UNL A   1      45.528  28.111  28.626  1.00  0.00     0.010 A 
ATOM     80  C   UNL A   1      43.896  28.931  27.030  1.00  0.00     0.010 A 
ATOM     81  C   UNL A   1      45.526  26.861  28.003  1.00  0.00     0.020 A 
ATOM     82  C   UNL A   1      43.905  27.681  26.394  1.00  0.00     0.020 A 
ATOM     83  C   UNL A   1      44.659  26.635  26.933  1.00  0.00     0.054 A 
BRANCH  83  84
ATOM     84  S   UNL A   1      44.403  24.921  26.378  1.00  0.00     0.124 S 
ATOM     85  O   UNL A   1      43.270  25.052  25.469  1.00  0.00    -0.237 OA
ATOM     86  O   UNL A   1      45.686  24.599  25.749  1.00  0.00    -0.237 OA
ATOM     87  O   UNL A   1      44.137  24.205  27.622  1.00  0.00    -0.744 OA
ENDBRANCH  83  84
ENDBRANCH  55  78
BRANCH  67  88
ATOM     88  C   UNL A   1      42.417  36.008  28.647  1.00  0.00    -0.014 A 
ATOM     89  C   UNL A   1      41.742  36.346  27.462  1.00  0.00     0.010 A 
ATOM     90  C   UNL A   1      43.283  36.972  29.205  1.00  0.00     0.010 A 
ATOM     91  C   UNL A   1      41.882  37.618  26.892  1.00  0.00     0.020 A 
ATOM     92  C   UNL A   1      43.443  38.238  28.635  1.00  0.00     0.020 A 
ATOM     93  C   UNL A   1      42.723  38.559  27.489  1.00  0.00     0.054 A 
BRANCH  93  94
ATOM     94  S   UNL A   1      42.917  40.190  26.722  1.00  0.00     0.124 S 
ATOM     95  O   UNL A   1      44.215  40.084  26.059  1.00  0.00    -0.237 OA
ATOM     96  O   UNL A   1      41.761  40.242  25.832  1.00  0.00    -0.237 OA
ATOM     97  O   UNL A   1      42.876  41.114  27.853  1.00  0.00    -0.744 OA
ENDBRANCH  93  94
ENDBRANCH  67  88
ENDBRANCH  41  42
ENDBRANCH  33  36
ENDBRANCH  31  32
ENDBRANCH  30  31
ENDBRANCH  29  30
ENDBRANCH   1  29
TORSDOF 19
ENDMDL
MODEL 3
REMARK VINA RESULT:     -12.8      4.503     11.221
REMARK SMILES Cc1cc(NC(=O)c2ccc(Br)cc2N)ccc1C(=O)NCCCCCCNC(=O)c1ccc(-c2c3nc(c(-c4ccc(S(=O)(=O)[O-])cc4)c4ccc([nH]4)c(-c4ccc(S(=O)(=O)[O-])cc4)c4nc(c(-c5ccc(S(=O)(=O)[O-])cc5)c5ccc2[nH]5)C=C4)C=C3)cc1
REMARK SMILES IDX 24 1 23 2 22 3 21 4 19 5 20 6 18 8 1 9 2 10 3 11 4 12 17 13
REMARK SMILES IDX 16 14 5 15 6 16 7 18 8 19 9 20 14 21 10 22 13 23 11 24 12 25
REMARK SMILES IDX 15 26 25 29 26 30 27 31 28 32 29 33 30 35 31 36 32 37 90 38
REMARK SMILES IDX 33 39 89 40 34 41 35 42 36 43 83 44 37 45 88 46 82 47 84 48
REMARK SMILES IDX 38 49 87 50 81 51 80 52 39 54 69 55 50 56 68 57 51 58 54 59
REMARK SMILES IDX 67 60 85 61 52 62 53 63 66 65 86 66 55 67 40 68 41 69 49 70
REMARK SMILES IDX 42 71 48 72 43 73 44 74 45 75 46 76 47 77 70 78 71 79 79 80
REMARK SMILES IDX 72 81 78 82 73 83 74 84 75 85 76 86 77 87 56 88 57 89 65 90
REMARK SMILES IDX 58 91 64 92 59 93 60 94 61 95 62 96 63 97
REMARK H PARENT 21 7 5 17 15 27 15 28 28 34 84 53 54 64
REMARK Flexibility Score: inf
ROOT
ATOM      1  C   UNL A   1      35.959  22.366  24.063  1.00  0.00     0.002 C 
ENDROOT
BRANCH   1   2
ATOM      2  C   UNL A   1      36.031  21.143  24.985  1.00  0.00     0.021 C 
BRANCH   2   3
ATOM      3  C   UNL A   1      35.091  21.166  26.200  1.00  0.00     0.116 C 
BRANCH   3   4
ATOM      4  N   UNL A   1      33.933  20.323  25.961  1.00  0.00    -0.352 N 
ATOM      5  C   UNL A   1      32.743  20.495  25.305  1.00  0.00     0.251 C 
ATOM      6  O   UNL A   1      31.981  19.523  25.286  1.00  0.00    -0.269 OA
ATOM      7  H   UNL A   1      34.023  19.428  26.360  1.00  0.00     0.163 HD
BRANCH   5   8
ATOM      8  C   UNL A   1      32.338  21.708  24.525  1.00  0.00     0.042 A 
ATOM      9  C   UNL A   1      30.659  22.764  26.172  1.00  0.00     0.045 C 
ATOM     10  C   UNL A   1      31.460  22.738  24.905  1.00  0.00    -0.036 A 
ATOM     11  C   UNL A   1      31.239  23.818  24.017  1.00  0.00     0.030 A 
ATOM     12  C   UNL A   1      31.771  23.830  22.727  1.00  0.00     0.041 A 
ATOM     13  C   UNL A   1      32.815  21.712  23.195  1.00  0.00     0.016 A 
ATOM     14  C   UNL A   1      32.503  22.733  22.293  1.00  0.00     0.027 A 
BRANCH  12  15
ATOM     15  N   UNL A   1      31.585  24.895  21.832  1.00  0.00    -0.322 N 
ATOM     16  C   UNL A   1      31.467  26.247  22.086  1.00  0.00     0.257 C 
ATOM     17  H   UNL A   1      31.531  24.640  20.881  1.00  0.00     0.170 HD
ATOM     18  O   UNL A   1      31.021  26.998  21.218  1.00  0.00    -0.269 OA
BRANCH  16  19
ATOM     19  C   UNL A   1      31.967  26.831  23.359  1.00  0.00     0.063 A 
ATOM     20  C   UNL A   1      33.356  26.794  23.565  1.00  0.00     0.017 A 
ATOM     21  C   UNL A   1      31.110  27.370  24.345  1.00  0.00     0.045 A 
ATOM     22  C   UNL A   1      33.907  27.317  24.734  1.00  0.00     0.016 A 
ATOM     23  C   UNL A   1      31.685  27.874  25.520  1.00  0.00     0.042 A 
ATOM     24  C   UNL A   1      33.069  27.859  25.704  1.00  0.00     0.020 A 
ATOM     25  Br  UNL A   1      33.803  28.553  27.302  1.00  0.00    -0.051 Br
BRANCH  21  26
ATOM     26  N   UNL A   1      29.718  27.274  24.291  1.00  0.00    -0.398 N 
ATOM     27  H   UNL A   1      29.289  26.720  23.600  1.00  0.00     0.156 HD
ATOM     28  H   UNL A   1      29.165  27.759  24.945  1.00  0.00     0.156 HD
ENDBRANCH  21  26
ENDBRANCH  16  19
ENDBRANCH  12  15
ENDBRANCH   5   8
ENDBRANCH   3   4
ENDBRANCH   2   3
ENDBRANCH   1   2
BRANCH   1  29
ATOM     29  C   UNL A   1      35.728  23.728  24.735  1.00  0.00     0.002 C 
BRANCH  29  30
ATOM     30  C   UNL A   1      36.700  24.104  25.856  1.00  0.00     0.021 C 
BRANCH  30  31
ATOM     31  C   UNL A   1      38.144  23.694  25.601  1.00  0.00     0.116 C 
BRANCH  31  32
ATOM     32  N   UNL A   1      38.823  23.173  26.777  1.00  0.00    -0.352 N 
ATOM     33  C   UNL A   1      39.895  23.838  27.352  1.00  0.00     0.251 C 
ATOM     34  H   UNL A   1      38.513  22.326  27.174  1.00  0.00     0.163 HD
ATOM     35  O   UNL A   1      40.975  23.322  27.618  1.00  0.00    -0.269 OA
BRANCH  33  36
ATOM     36  C   UNL A   1      39.638  25.255  27.670  1.00  0.00     0.039 A 
ATOM     37  C   UNL A   1      40.266  26.245  26.910  1.00  0.00     0.014 A 
ATOM     38  C   UNL A   1      38.981  25.563  28.860  1.00  0.00     0.014 A 
ATOM     39  C   UNL A   1      40.351  27.541  27.419  1.00  0.00     0.010 A 
ATOM     40  C   UNL A   1      39.135  26.826  29.397  1.00  0.00     0.010 A 
ATOM     41  C   UNL A   1      39.853  27.805  28.697  1.00  0.00    -0.014 A 
BRANCH  41  42
ATOM     42  C   UNL A   1      40.075  29.058  29.413  1.00  0.00     0.031 A 
ATOM     43  C   UNL A   1      39.039  30.118  29.396  1.00  0.00     0.074 A 
ATOM     44  C   UNL A   1      41.191  29.233  30.156  1.00  0.00     0.049 A 
ATOM     45  N   UNL A   1      39.259  31.360  29.674  1.00  0.00    -0.248 NA
ATOM     46  C   UNL A   1      37.658  29.852  29.008  1.00  0.00     0.031 C 
ATOM     47  C   UNL A   1      41.428  30.278  31.150  1.00  0.00     0.029 A 
ATOM     48  N   UNL A   1      42.442  28.639  29.990  1.00  0.00    -0.354 N 
ATOM     49  C   UNL A   1      38.037  31.983  29.787  1.00  0.00     0.074 A 
ATOM     50  C   UNL A   1      37.078  31.022  29.293  1.00  0.00     0.031 C 
ATOM     51  C   UNL A   1      42.751  30.462  31.264  1.00  0.00     0.029 A 
ATOM     52  C   UNL A   1      43.385  29.653  30.236  1.00  0.00     0.049 A 
ATOM     53  H   UNL A   1      42.627  27.702  29.751  1.00  0.00     0.167 HD
ATOM     54  C   UNL A   1      37.947  33.197  30.401  1.00  0.00     0.031 A 
ATOM     55  C   UNL A   1      44.263  30.110  29.296  1.00  0.00     0.031 A 
ATOM     56  C   UNL A   1      39.255  33.742  30.759  1.00  0.00     0.049 A 
ATOM     57  C   UNL A   1      44.140  31.599  29.013  1.00  0.00     0.074 A 
ATOM     58  C   UNL A   1      39.966  33.882  31.939  1.00  0.00     0.029 A 
ATOM     59  N   UNL A   1      40.149  34.024  29.740  1.00  0.00    -0.354 N 
ATOM     60  N   UNL A   1      43.265  32.389  29.572  1.00  0.00    -0.248 NA
ATOM     61  C   UNL A   1      44.933  32.291  27.994  1.00  0.00     0.031 C 
ATOM     62  C   UNL A   1      41.304  34.247  31.611  1.00  0.00     0.029 A 
ATOM     63  C   UNL A   1      41.399  34.335  30.236  1.00  0.00     0.049 A 
ATOM     64  H   UNL A   1      39.922  34.006  28.781  1.00  0.00     0.167 HD
ATOM     65  C   UNL A   1      43.324  33.625  28.986  1.00  0.00     0.074 A 
ATOM     66  C   UNL A   1      44.393  33.523  28.013  1.00  0.00     0.031 C 
ATOM     67  C   UNL A   1      42.462  34.635  29.295  1.00  0.00     0.031 A 
BRANCH  54  68
ATOM     68  C   UNL A   1      36.639  33.791  30.877  1.00  0.00    -0.014 A 
ATOM     69  C   UNL A   1      35.560  33.916  29.978  1.00  0.00     0.010 A 
ATOM     70  C   UNL A   1      36.421  34.287  32.177  1.00  0.00     0.010 A 
ATOM     71  C   UNL A   1      34.380  34.598  30.318  1.00  0.00     0.020 A 
ATOM     72  C   UNL A   1      35.266  35.006  32.521  1.00  0.00     0.020 A 
ATOM     73  C   UNL A   1      34.255  35.171  31.580  1.00  0.00     0.054 A 
BRANCH  73  74
ATOM     74  S   UNL A   1      32.777  36.142  31.969  1.00  0.00     0.124 S 
ATOM     75  O   UNL A   1      33.265  37.063  32.995  1.00  0.00    -0.237 OA
ATOM     76  O   UNL A   1      32.452  36.748  30.682  1.00  0.00    -0.237 OA
ATOM     77  O   UNL A   1      31.822  35.144  32.446  1.00  0.00    -0.744 OA
ENDBRANCH  73  74
ENDBRANCH  54  68
BRANCH  55  78
ATOM     78  C   UNL A   1      44.654  29.084  28.286  1.00  0.00    -0.014 A 
ATOM     79  C   UNL A   1      45.573  28.090  28.688  1.00  0.00     0.010 A 
ATOM     80  C   UNL A   1      43.848  28.849  27.161  1.00  0.00     0.010 A 
ATOM     81  C   UNL A   1      45.553  26.823  28.098  1.00  0.00     0.020 A 
ATOM     82  C   UNL A   1      43.838  27.583  26.557  1.00  0.00     0.020 A 
ATOM     83  C   UNL A   1      44.633  26.560  27.082  1.00  0.00     0.054 A 
BRANCH  83  84
ATOM     84  S   UNL A   1      44.369  24.829  26.587  1.00  0.00     0.124 S 
ATOM     85  O   UNL A   1      45.640  24.484  25.960  1.00  0.00    -0.237 OA
ATOM     86  O   UNL A   1      44.096  24.173  27.868  1.00  0.00    -0.237 OA
ATOM     87  O   UNL A   1      43.223  24.911  25.688  1.00  0.00    -0.744 OA
ENDBRANCH  83  84
ENDBRANCH  55  78
BRANCH  67  88
ATOM     88  C   UNL A   1      42.538  36.002  28.681  1.00  0.00    -0.014 A 
ATOM     89  C   UNL A   1      43.172  37.075  29.330  1.00  0.00     0.010 A 
ATOM     90  C   UNL A   1      41.851  36.277  27.479  1.00  0.00     0.010 A 
ATOM     91  C   UNL A   1      43.168  38.359  28.769  1.00  0.00     0.020 A 
ATOM     92  C   UNL A   1      41.827  37.557  26.920  1.00  0.00     0.020 A 
ATOM     93  C   UNL A   1      42.505  38.589  27.561  1.00  0.00     0.054 A 
BRANCH  93  94
ATOM     94  S   UNL A   1      42.484  40.261  26.864  1.00  0.00     0.124 S 
ATOM     95  O   UNL A   1      42.777  41.099  28.025  1.00  0.00    -0.237 OA
ATOM     96  O   UNL A   1      43.546  40.183  25.865  1.00  0.00    -0.237 OA
ATOM     97  O   UNL A   1      41.132  40.399  26.329  1.00  0.00    -0.744 OA
ENDBRANCH  93  94
ENDBRANCH  67  88
ENDBRANCH  41  42
ENDBRANCH  33  36
ENDBRANCH  31  32
ENDBRANCH  30  31
ENDBRANCH  29  30
ENDBRANCH   1  29
TORSDOF 19
ENDMDL
