MODEL 1
REMARK VINA RESULT:      -9.7      0.000      0.000
REMARK SMILES CCc1ccc(N(C)C(=O)N2CC[C@@H](C(=O)NCCCCCCNC(=O)c3ccc(-c4c5nc(c(-c6ccc(S(=O)(=O)[O-])cc6)c6ccc([nH]6)c(-c6ccc(S(=O)(=O)[O-])cc6)c6nc(c(-c7ccc(S(=O)(=O)[O-])cc7)c7ccc4[nH]7)C=C6)C=C5)cc3)[C@@H]2C)cc1
REMARK SMILES IDX 20 1 19 2 18 3 17 4 15 5 16 6 14 8 11 9 12 10 87 11 13 12
REMARK SMILES IDX 88 13 9 14 10 15 7 16 8 17 6 18 3 19 4 20 90 21 5 22 89 23
REMARK SMILES IDX 2 24 1 25 21 26 22 27 23 28 24 29 25 30 26 32 27 33 28 34
REMARK SMILES IDX 86 35 29 36 85 37 30 38 31 39 32 40 79 41 33 42 84 43 78 44
REMARK SMILES IDX 80 45 34 46 83 47 77 48 76 49 35 51 65 52 46 53 64 54 47 55
REMARK SMILES IDX 50 56 63 57 81 58 48 59 49 60 62 62 82 63 51 64 36 65 37 66
REMARK SMILES IDX 45 67 38 68 44 69 39 70 40 71 41 72 42 73 43 74 66 75 67 76
REMARK SMILES IDX 75 77 68 78 74 79 69 80 70 81 71 82 72 83 73 84 52 85 53 86
REMARK SMILES IDX 61 87 54 88 60 89 55 90 56 91 57 92 58 93 59 94
REMARK H PARENT 17 7 24 31 80 50 50 61
REMARK Flexibility Score: inf
ROOT
ATOM      1  C   UNL A   1      45.005  39.396  26.262  1.00  0.00     0.002 C 
ENDROOT
BRANCH   1   2
ATOM      2  C   UNL A   1      43.590  39.631  26.785  1.00  0.00     0.021 C 
BRANCH   2   3
ATOM      3  C   UNL A   1      43.026  41.037  26.567  1.00  0.00     0.116 C 
BRANCH   3   4
ATOM      4  N   UNL A   1      42.502  41.197  25.222  1.00  0.00    -0.356 N 
ATOM      5  C   UNL A   1      42.805  42.074  24.229  1.00  0.00     0.225 C 
ATOM      6  O   UNL A   1      42.158  41.975  23.182  1.00  0.00    -0.275 OA
ATOM      7  H   UNL A   1      41.798  40.551  24.986  1.00  0.00     0.163 HD
BRANCH   5   8
ATOM      8  C   UNL A   1      43.879  43.151  24.348  1.00  0.00     0.102 C 
ATOM      9  N   UNL A   1      45.348  44.058  22.685  1.00  0.00    -0.321 N 
ATOM     10  C   UNL A   1      44.616  45.171  23.271  1.00  0.00     0.122 C 
ATOM     11  C   UNL A   1      45.153  42.859  23.525  1.00  0.00     0.096 C 
ATOM     12  C   UNL A   1      43.409  44.549  23.944  1.00  0.00     0.037 C 
ATOM     13  C   UNL A   1      46.360  42.642  24.441  1.00  0.00     0.032 C 
BRANCH   9  14
ATOM     14  C   UNL A   1      46.261  44.359  21.673  1.00  0.00     0.324 C 
ATOM     15  O   UNL A   1      47.288  44.955  22.013  1.00  0.00    -0.248 OA
BRANCH  14  16
ATOM     16  N   UNL A   1      45.956  44.042  20.339  1.00  0.00    -0.297 N 
ATOM     17  C   UNL A   1      46.507  42.852  19.718  1.00  0.00     0.155 C 
BRANCH  16  18
ATOM     18  C   UNL A   1      44.885  44.695  19.587  1.00  0.00     0.045 A 
ATOM     19  C   UNL A   1      42.960  46.011  17.907  1.00  0.00    -0.048 A 
ATOM     20  C   UNL A   1      43.983  46.730  18.519  1.00  0.00     0.006 A 
ATOM     21  C   UNL A   1      42.856  44.651  18.205  1.00  0.00     0.006 A 
ATOM     22  C   UNL A   1      44.911  46.087  19.350  1.00  0.00     0.027 A 
ATOM     23  C   UNL A   1      43.796  44.010  19.034  1.00  0.00     0.027 A 
BRANCH  19  24
ATOM     24  C   UNL A   1      41.959  46.681  16.999  1.00  0.00     0.032 C 
ATOM     25  C   UNL A   1      42.455  47.984  16.380  1.00  0.00     0.009 C 
ENDBRANCH  19  24
ENDBRANCH  16  18
ENDBRANCH  14  16
ENDBRANCH   9  14
ENDBRANCH   5   8
ENDBRANCH   3   4
ENDBRANCH   2   3
ENDBRANCH   1   2
BRANCH   1  26
ATOM     26  C   UNL A   1      45.934  38.630  27.210  1.00  0.00     0.002 C 
BRANCH  26  27
ATOM     27  C   UNL A   1      45.895  39.049  28.685  1.00  0.00     0.021 C 
BRANCH  27  28
ATOM     28  C   UNL A   1      46.396  38.014  29.691  1.00  0.00     0.116 C 
BRANCH  28  29
ATOM     29  N   UNL A   1      47.844  37.912  29.706  1.00  0.00    -0.352 N 
ATOM     30  C   UNL A   1      48.654  36.809  29.664  1.00  0.00     0.251 C 
ATOM     31  H   UNL A   1      48.320  38.773  29.753  1.00  0.00     0.163 HD
ATOM     32  O   UNL A   1      49.862  36.946  29.874  1.00  0.00    -0.269 OA
BRANCH  30  33
ATOM     33  C   UNL A   1      48.110  35.461  29.384  1.00  0.00     0.039 A 
ATOM     34  C   UNL A   1      47.619  35.193  28.103  1.00  0.00     0.014 A 
ATOM     35  C   UNL A   1      48.016  34.483  30.380  1.00  0.00     0.014 A 
ATOM     36  C   UNL A   1      47.071  33.942  27.810  1.00  0.00     0.010 A 
ATOM     37  C   UNL A   1      47.523  33.213  30.071  1.00  0.00     0.010 A 
ATOM     38  C   UNL A   1      47.033  32.933  28.787  1.00  0.00    -0.014 A 
BRANCH  38  39
ATOM     39  C   UNL A   1      46.470  31.594  28.470  1.00  0.00     0.031 A 
ATOM     40  C   UNL A   1      47.322  30.543  27.808  1.00  0.00     0.074 A 
ATOM     41  C   UNL A   1      45.179  31.330  28.752  1.00  0.00     0.049 A 
ATOM     42  N   UNL A   1      47.003  29.320  27.464  1.00  0.00    -0.248 NA
ATOM     43  C   UNL A   1      48.704  30.919  27.471  1.00  0.00     0.031 C 
ATOM     44  C   UNL A   1      44.234  32.275  29.352  1.00  0.00     0.029 A 
ATOM     45  N   UNL A   1      44.438  30.189  28.572  1.00  0.00    -0.354 N 
ATOM     46  C   UNL A   1      48.137  28.788  26.857  1.00  0.00     0.074 A 
ATOM     47  C   UNL A   1      49.135  29.835  26.842  1.00  0.00     0.031 C 
ATOM     48  C   UNL A   1      43.048  31.666  29.513  1.00  0.00     0.029 A 
ATOM     49  C   UNL A   1      43.139  30.300  29.006  1.00  0.00     0.049 A 
ATOM     50  H   UNL A   1      44.803  29.368  28.169  1.00  0.00     0.167 HD
ATOM     51  C   UNL A   1      48.336  27.538  26.373  1.00  0.00     0.031 A 
ATOM     52  C   UNL A   1      42.132  29.404  29.001  1.00  0.00     0.031 A 
ATOM     53  C   UNL A   1      47.347  26.492  26.399  1.00  0.00     0.049 A 
ATOM     54  C   UNL A   1      42.383  28.018  28.480  1.00  0.00     0.074 A 
ATOM     55  C   UNL A   1      47.473  25.177  25.985  1.00  0.00     0.029 A 
ATOM     56  N   UNL A   1      46.050  26.640  26.865  1.00  0.00    -0.354 N 
ATOM     57  N   UNL A   1      43.484  27.514  27.972  1.00  0.00    -0.248 NA
ATOM     58  C   UNL A   1      41.261  27.072  28.547  1.00  0.00     0.031 C 
ATOM     59  C   UNL A   1      46.239  24.541  26.163  1.00  0.00     0.029 A 
ATOM     60  C   UNL A   1      45.359  25.447  26.734  1.00  0.00     0.049 A 
ATOM     61  H   UNL A   1      45.675  27.472  27.235  1.00  0.00     0.167 HD
ATOM     62  C   UNL A   1      43.192  26.186  27.682  1.00  0.00     0.074 A 
ATOM     63  C   UNL A   1      41.819  25.961  28.087  1.00  0.00     0.031 C 
ATOM     64  C   UNL A   1      43.991  25.238  27.132  1.00  0.00     0.031 A 
BRANCH  51  65
ATOM     65  C   UNL A   1      49.681  27.237  25.765  1.00  0.00    -0.014 A 
ATOM     66  C   UNL A   1      50.729  26.715  26.543  1.00  0.00     0.010 A 
ATOM     67  C   UNL A   1      49.892  27.452  24.391  1.00  0.00     0.010 A 
ATOM     68  C   UNL A   1      51.978  26.459  25.970  1.00  0.00     0.020 A 
ATOM     69  C   UNL A   1      51.131  27.173  23.807  1.00  0.00     0.020 A 
ATOM     70  C   UNL A   1      52.173  26.697  24.606  1.00  0.00     0.054 A 
BRANCH  70  71
ATOM     71  S   UNL A   1      53.801  26.351  23.884  1.00  0.00     0.124 S 
ATOM     72  O   UNL A   1      53.462  26.114  22.483  1.00  0.00    -0.237 OA
ATOM     73  O   UNL A   1      54.541  27.581  24.150  1.00  0.00    -0.237 OA
ATOM     74  O   UNL A   1      54.264  25.177  24.620  1.00  0.00    -0.744 OA
ENDBRANCH  70  71
ENDBRANCH  51  65
BRANCH  52  75
ATOM     75  C   UNL A   1      40.800  29.788  29.539  1.00  0.00    -0.014 A 
ATOM     76  C   UNL A   1      40.598  29.909  30.926  1.00  0.00     0.010 A 
ATOM     77  C   UNL A   1      39.730  30.056  28.666  1.00  0.00     0.010 A 
ATOM     78  C   UNL A   1      39.347  30.277  31.430  1.00  0.00     0.020 A 
ATOM     79  C   UNL A   1      38.485  30.449  29.165  1.00  0.00     0.020 A 
ATOM     80  C   UNL A   1      38.299  30.547  30.545  1.00  0.00     0.054 A 
BRANCH  80  81
ATOM     81  S   UNL A   1      36.701  31.084  31.218  1.00  0.00     0.124 S 
ATOM     82  O   UNL A   1      36.296  29.922  32.002  1.00  0.00    -0.237 OA
ATOM     83  O   UNL A   1      37.064  32.272  31.986  1.00  0.00    -0.237 OA
ATOM     84  O   UNL A   1      35.901  31.346  30.024  1.00  0.00    -0.744 OA
ENDBRANCH  80  81
ENDBRANCH  52  75
BRANCH  64  85
ATOM     85  C   UNL A   1      43.405  23.862  26.961  1.00  0.00    -0.014 A 
ATOM     86  C   UNL A   1      43.300  22.975  28.047  1.00  0.00     0.010 A 
ATOM     87  C   UNL A   1      42.930  23.461  25.700  1.00  0.00     0.010 A 
ATOM     88  C   UNL A   1      42.770  21.694  27.864  1.00  0.00     0.020 A 
ATOM     89  C   UNL A   1      42.376  22.191  25.518  1.00  0.00     0.020 A 
ATOM     90  C   UNL A   1      42.318  21.307  26.598  1.00  0.00     0.054 A 
BRANCH  90  91
ATOM     91  S   UNL A   1      41.619  19.648  26.386  1.00  0.00     0.124 S 
ATOM     92  O   UNL A   1      41.922  19.025  27.671  1.00  0.00    -0.237 OA
ATOM     93  O   UNL A   1      40.206  19.921  26.136  1.00  0.00    -0.237 OA
ATOM     94  O   UNL A   1      42.353  19.108  25.243  1.00  0.00    -0.744 OA
ENDBRANCH  90  91
ENDBRANCH  64  85
ENDBRANCH  38  39
ENDBRANCH  30  33
ENDBRANCH  28  29
ENDBRANCH  27  28
ENDBRANCH  26  27
ENDBRANCH   1  26
TORSDOF 20
ENDMDL
MODEL 2
REMARK VINA RESULT:      -9.1      6.531     13.423
REMARK SMILES CCc1ccc(N(C)C(=O)N2CC[C@@H](C(=O)NCCCCCCNC(=O)c3ccc(-c4c5nc(c(-c6ccc(S(=O)(=O)[O-])cc6)c6ccc([nH]6)c(-c6ccc(S(=O)(=O)[O-])cc6)c6nc(c(-c7ccc(S(=O)(=O)[O-])cc7)c7ccc4[nH]7)C=C6)C=C5)cc3)[C@@H]2C)cc1
REMARK SMILES IDX 20 1 19 2 18 3 17 4 15 5 16 6 14 8 11 9 12 10 87 11 13 12
REMARK SMILES IDX 88 13 9 14 10 15 7 16 8 17 6 18 3 19 4 20 90 21 5 22 89 23
REMARK SMILES IDX 2 24 1 25 21 26 22 27 23 28 24 29 25 30 26 32 27 33 28 34
REMARK SMILES IDX 86 35 29 36 85 37 30 38 31 39 32 40 79 41 33 42 84 43 78 44
REMARK SMILES IDX 80 45 34 46 83 47 77 48 76 49 35 51 65 52 46 53 64 54 47 55
REMARK SMILES IDX 50 56 63 57 81 58 48 59 49 60 62 62 82 63 51 64 36 65 37 66
REMARK SMILES IDX 45 67 38 68 44 69 39 70 40 71 41 72 42 73 43 74 66 75 67 76
REMARK SMILES IDX 75 77 68 78 74 79 69 80 70 81 71 82 72 83 73 84 52 85 53 86
REMARK SMILES IDX 61 87 54 88 60 89 55 90 56 91 57 92 58 93 59 94
REMARK H PARENT 17 7 24 31 80 50 50 61
REMARK Flexibility Score: inf
ROOT
ATOM      1  C   UNL A   1      49.207  25.914  28.220  1.00  0.00     0.002 C 
ENDROOT
BRANCH   1   2
ATOM      2  C   UNL A   1      48.207  24.766  28.334  1.00  0.00     0.021 C 
BRANCH   2   3
ATOM      3  C   UNL A   1      46.954  24.887  27.462  1.00  0.00     0.116 C 
BRANCH   3   4
ATOM      4  N   UNL A   1      47.178  24.347  26.133  1.00  0.00    -0.356 N 
ATOM      5  C   UNL A   1      46.374  24.265  25.040  1.00  0.00     0.225 C 
ATOM      6  O   UNL A   1      46.848  23.718  24.039  1.00  0.00    -0.275 OA
ATOM      7  H   UNL A   1      48.078  23.971  25.999  1.00  0.00     0.163 HD
BRANCH   5   8
ATOM      8  C   UNL A   1      44.946  24.802  24.996  1.00  0.00     0.102 C 
ATOM      9  N   UNL A   1      43.401  25.229  26.776  1.00  0.00    -0.321 N 
ATOM     10  C   UNL A   1      43.552  26.468  26.026  1.00  0.00     0.122 C 
ATOM     11  C   UNL A   1      43.990  24.121  25.998  1.00  0.00     0.096 C 
ATOM     12  C   UNL A   1      44.837  26.307  25.240  1.00  0.00     0.037 C 
ATOM     13  C   UNL A   1      42.896  23.336  25.268  1.00  0.00     0.032 C 
BRANCH   9  14
ATOM     14  C   UNL A   1      42.545  25.254  27.879  1.00  0.00     0.324 C 
ATOM     15  O   UNL A   1      43.063  25.076  28.986  1.00  0.00    -0.248 OA
BRANCH  14  16
ATOM     16  N   UNL A   1      41.162  25.410  27.688  1.00  0.00    -0.297 N 
ATOM     17  C   UNL A   1      40.311  24.254  27.473  1.00  0.00     0.155 C 
BRANCH  16  18
ATOM     18  C   UNL A   1      40.453  26.661  27.959  1.00  0.00     0.045 A 
ATOM     19  C   UNL A   1      38.891  29.049  28.290  1.00  0.00    -0.048 A 
ATOM     20  C   UNL A   1      39.744  28.900  27.201  1.00  0.00     0.006 A 
ATOM     21  C   UNL A   1      38.886  28.038  29.252  1.00  0.00     0.006 A 
ATOM     22  C   UNL A   1      40.516  27.740  27.050  1.00  0.00     0.027 A 
ATOM     23  C   UNL A   1      39.657  26.871  29.092  1.00  0.00     0.027 A 
BRANCH  19  24
ATOM     24  C   UNL A   1      38.041  30.284  28.464  1.00  0.00     0.032 C 
ATOM     25  C   UNL A   1      36.554  30.057  28.204  1.00  0.00     0.009 C 
ENDBRANCH  19  24
ENDBRANCH  16  18
ENDBRANCH  14  16
ENDBRANCH   9  14
ENDBRANCH   5   8
ENDBRANCH   3   4
ENDBRANCH   2   3
ENDBRANCH   1   2
BRANCH   1  26
ATOM     26  C   UNL A   1      50.675  25.494  28.097  1.00  0.00     0.002 C 
BRANCH  26  27
ATOM     27  C   UNL A   1      51.219  25.334  26.672  1.00  0.00     0.021 C 
BRANCH  27  28
ATOM     28  C   UNL A   1      50.392  25.978  25.560  1.00  0.00     0.116 C 
BRANCH  28  29
ATOM     29  N   UNL A   1      50.960  27.234  25.105  1.00  0.00    -0.352 N 
ATOM     30  C   UNL A   1      50.555  28.522  25.334  1.00  0.00     0.251 C 
ATOM     31  H   UNL A   1      51.763  27.146  24.543  1.00  0.00     0.163 HD
ATOM     32  O   UNL A   1      51.082  29.437  24.695  1.00  0.00    -0.269 OA
BRANCH  30  33
ATOM     33  C   UNL A   1      49.496  28.836  26.320  1.00  0.00     0.039 A 
ATOM     34  C   UNL A   1      49.870  29.403  27.542  1.00  0.00     0.014 A 
ATOM     35  C   UNL A   1      48.154  28.523  26.084  1.00  0.00     0.014 A 
ATOM     36  C   UNL A   1      48.902  29.686  28.509  1.00  0.00     0.010 A 
ATOM     37  C   UNL A   1      47.179  28.861  27.026  1.00  0.00     0.010 A 
ATOM     38  C   UNL A   1      47.544  29.434  28.253  1.00  0.00    -0.014 A 
BRANCH  38  39
ATOM     39  C   UNL A   1      46.510  29.755  29.272  1.00  0.00     0.031 A 
ATOM     40  C   UNL A   1      46.173  28.767  30.358  1.00  0.00     0.074 A 
ATOM     41  C   UNL A   1      45.849  30.927  29.205  1.00  0.00     0.049 A 
ATOM     42  N   UNL A   1      45.305  28.877  31.333  1.00  0.00    -0.248 NA
ATOM     43  C   UNL A   1      46.887  27.481  30.335  1.00  0.00     0.031 C 
ATOM     44  C   UNL A   1      46.048  31.953  28.177  1.00  0.00     0.029 A 
ATOM     45  N   UNL A   1      44.876  31.455  30.016  1.00  0.00    -0.354 N 
ATOM     46  C   UNL A   1      45.359  27.674  32.028  1.00  0.00     0.074 A 
ATOM     47  C   UNL A   1      46.312  26.832  31.336  1.00  0.00     0.031 C 
ATOM     48  C   UNL A   1      45.243  32.995  28.437  1.00  0.00     0.029 A 
ATOM     49  C   UNL A   1      44.452  32.704  29.629  1.00  0.00     0.049 A 
ATOM     50  H   UNL A   1      44.516  30.984  30.802  1.00  0.00     0.167 HD
ATOM     51  C   UNL A   1      44.691  27.307  33.149  1.00  0.00     0.031 A 
ATOM     52  C   UNL A   1      43.533  33.526  30.172  1.00  0.00     0.031 A 
ATOM     53  C   UNL A   1      43.752  28.148  33.843  1.00  0.00     0.049 A 
ATOM     54  C   UNL A   1      42.820  33.107  31.426  1.00  0.00     0.074 A 
ATOM     55  C   UNL A   1      43.067  27.888  35.018  1.00  0.00     0.029 A 
ATOM     56  N   UNL A   1      43.365  29.413  33.429  1.00  0.00    -0.354 N 
ATOM     57  N   UNL A   1      42.935  31.991  32.107  1.00  0.00    -0.248 NA
ATOM     58  C   UNL A   1      41.867  34.068  31.998  1.00  0.00     0.031 C 
ATOM     59  C   UNL A   1      42.235  28.979  35.291  1.00  0.00     0.029 A 
ATOM     60  C   UNL A   1      42.438  29.940  34.314  1.00  0.00     0.049 A 
ATOM     61  H   UNL A   1      43.699  29.870  32.623  1.00  0.00     0.167 HD
ATOM     62  C   UNL A   1      42.087  32.125  33.199  1.00  0.00     0.074 A 
ATOM     63  C   UNL A   1      41.479  33.438  33.098  1.00  0.00     0.031 C 
ATOM     64  C   UNL A   1      41.834  31.242  34.198  1.00  0.00     0.031 A 
BRANCH  51  65
ATOM     65  C   UNL A   1      44.950  25.925  33.688  1.00  0.00    -0.014 A 
ATOM     66  C   UNL A   1      46.120  25.636  34.413  1.00  0.00     0.010 A 
ATOM     67  C   UNL A   1      43.998  24.907  33.494  1.00  0.00     0.010 A 
ATOM     68  C   UNL A   1      46.357  24.345  34.892  1.00  0.00     0.020 A 
ATOM     69  C   UNL A   1      44.219  23.620  33.994  1.00  0.00     0.020 A 
ATOM     70  C   UNL A   1      45.408  23.343  34.672  1.00  0.00     0.054 A 
BRANCH  70  71
ATOM     71  S   UNL A   1      45.735  21.676  35.309  1.00  0.00     0.124 S 
ATOM     72  O   UNL A   1      47.145  21.498  34.970  1.00  0.00    -0.237 OA
ATOM     73  O   UNL A   1      45.446  21.812  36.734  1.00  0.00    -0.237 OA
ATOM     74  O   UNL A   1      44.804  20.831  34.565  1.00  0.00    -0.744 OA
ENDBRANCH  70  71
ENDBRANCH  51  65
BRANCH  52  75
ATOM     75  C   UNL A   1      43.260  34.846  29.543  1.00  0.00    -0.014 A 
ATOM     76  C   UNL A   1      42.221  34.988  28.605  1.00  0.00     0.010 A 
ATOM     77  C   UNL A   1      44.024  35.973  29.895  1.00  0.00     0.010 A 
ATOM     78  C   UNL A   1      41.961  36.231  28.021  1.00  0.00     0.020 A 
ATOM     79  C   UNL A   1      43.750  37.222  29.330  1.00  0.00     0.020 A 
ATOM     80  C   UNL A   1      42.726  37.341  28.389  1.00  0.00     0.054 A 
BRANCH  80  81
ATOM     81  S   UNL A   1      42.331  38.957  27.665  1.00  0.00     0.124 S 
ATOM     82  O   UNL A   1      43.658  39.523  27.442  1.00  0.00    -0.237 OA
ATOM     83  O   UNL A   1      41.588  38.592  26.461  1.00  0.00    -0.237 OA
ATOM     84  O   UNL A   1      41.536  39.610  28.702  1.00  0.00    -0.744 OA
ENDBRANCH  80  81
ENDBRANCH  52  75
BRANCH  64  85
ATOM     85  C   UNL A   1      40.879  31.680  35.276  1.00  0.00    -0.014 A 
ATOM     86  C   UNL A   1      39.503  31.405  35.186  1.00  0.00     0.010 A 
ATOM     87  C   UNL A   1      41.371  32.355  36.406  1.00  0.00     0.010 A 
ATOM     88  C   UNL A   1      38.630  31.837  36.188  1.00  0.00     0.020 A 
ATOM     89  C   UNL A   1      40.505  32.766  37.423  1.00  0.00     0.020 A 
ATOM     90  C   UNL A   1      39.135  32.522  37.297  1.00  0.00     0.054 A 
BRANCH  90  91
ATOM     91  S   UNL A   1      37.988  33.059  38.594  1.00  0.00     0.124 S 
ATOM     92  O   UNL A   1      38.228  32.069  39.640  1.00  0.00    -0.237 OA
ATOM     93  O   UNL A   1      38.447  34.414  38.893  1.00  0.00    -0.237 OA
ATOM     94  O   UNL A   1      36.678  32.981  37.951  1.00  0.00    -0.744 OA
ENDBRANCH  90  91
ENDBRANCH  64  85
ENDBRANCH  38  39
ENDBRANCH  30  33
ENDBRANCH  28  29
ENDBRANCH  27  28
ENDBRANCH  26  27
ENDBRANCH   1  26
TORSDOF 20
ENDMDL
MODEL 3
REMARK VINA RESULT:      -9.0      6.101     15.479
REMARK SMILES CCc1ccc(N(C)C(=O)N2CC[C@@H](C(=O)NCCCCCCNC(=O)c3ccc(-c4c5nc(c(-c6ccc(S(=O)(=O)[O-])cc6)c6ccc([nH]6)c(-c6ccc(S(=O)(=O)[O-])cc6)c6nc(c(-c7ccc(S(=O)(=O)[O-])cc7)c7ccc4[nH]7)C=C6)C=C5)cc3)[C@@H]2C)cc1
REMARK SMILES IDX 20 1 19 2 18 3 17 4 15 5 16 6 14 8 11 9 12 10 87 11 13 12
REMARK SMILES IDX 88 13 9 14 10 15 7 16 8 17 6 18 3 19 4 20 90 21 5 22 89 23
REMARK SMILES IDX 2 24 1 25 21 26 22 27 23 28 24 29 25 30 26 32 27 33 28 34
REMARK SMILES IDX 86 35 29 36 85 37 30 38 31 39 32 40 79 41 33 42 84 43 78 44
REMARK SMILES IDX 80 45 34 46 83 47 77 48 76 49 35 51 65 52 46 53 64 54 47 55
REMARK SMILES IDX 50 56 63 57 81 58 48 59 49 60 62 62 82 63 51 64 36 65 37 66
REMARK SMILES IDX 45 67 38 68 44 69 39 70 40 71 41 72 42 73 43 74 66 75 67 76
REMARK SMILES IDX 75 77 68 78 74 79 69 80 70 81 71 82 72 83 73 84 52 85 53 86
REMARK SMILES IDX 61 87 54 88 60 89 55 90 56 91 57 92 58 93 59 94
REMARK H PARENT 17 7 24 31 80 50 50 61
REMARK Flexibility Score: inf
ROOT
ATOM      1  C   UNL A   1      38.550  28.681  28.608  1.00  0.00     0.002 C 
ENDROOT
BRANCH   1   2
ATOM      2  C   UNL A   1      39.504  27.489  28.559  1.00  0.00     0.021 C 
BRANCH   2   3
ATOM      3  C   UNL A   1      40.075  27.152  27.179  1.00  0.00     0.116 C 
BRANCH   3   4
ATOM      4  N   UNL A   1      40.966  28.195  26.704  1.00  0.00    -0.356 N 
ATOM      5  C   UNL A   1      42.291  28.187  26.399  1.00  0.00     0.225 C 
ATOM      6  O   UNL A   1      42.786  29.258  26.035  1.00  0.00    -0.275 OA
ATOM      7  H   UNL A   1      40.531  29.069  26.579  1.00  0.00     0.163 HD
BRANCH   5   8
ATOM      8  C   UNL A   1      43.174  26.945  26.488  1.00  0.00     0.102 C 
ATOM      9  N   UNL A   1      42.686  24.761  27.344  1.00  0.00    -0.321 N 
ATOM     10  C   UNL A   1      43.140  24.597  25.971  1.00  0.00     0.122 C 
ATOM     11  C   UNL A   1      42.988  26.136  27.790  1.00  0.00     0.096 C 
ATOM     12  C   UNL A   1      42.987  25.963  25.331  1.00  0.00     0.037 C 
ATOM     13  C   UNL A   1      44.263  26.159  28.637  1.00  0.00     0.032 C 
BRANCH   9  14
ATOM     14  C   UNL A   1      42.332  23.603  28.039  1.00  0.00     0.324 C 
ATOM     15  O   UNL A   1      42.692  23.533  29.218  1.00  0.00    -0.248 OA
BRANCH  14  16
ATOM     16  N   UNL A   1      41.658  22.567  27.373  1.00  0.00    -0.297 N 
ATOM     17  C   UNL A   1      42.201  21.221  27.359  1.00  0.00     0.155 C 
BRANCH  16  18
ATOM     18  C   UNL A   1      40.277  22.683  26.903  1.00  0.00     0.045 A 
ATOM     19  C   UNL A   1      37.657  23.094  25.799  1.00  0.00    -0.048 A 
ATOM     20  C   UNL A   1      38.249  24.059  26.608  1.00  0.00     0.006 A 
ATOM     21  C   UNL A   1      38.343  21.893  25.614  1.00  0.00     0.006 A 
ATOM     22  C   UNL A   1      39.522  23.848  27.157  1.00  0.00     0.027 A 
ATOM     23  C   UNL A   1      39.624  21.690  26.161  1.00  0.00     0.027 A 
BRANCH  19  24
ATOM     24  C   UNL A   1      36.294  23.306  25.186  1.00  0.00     0.032 C 
ATOM     25  C   UNL A   1      36.162  22.770  23.764  1.00  0.00     0.009 C 
ENDBRANCH  19  24
ENDBRANCH  16  18
ENDBRANCH  14  16
ENDBRANCH   9  14
ENDBRANCH   5   8
ENDBRANCH   3   4
ENDBRANCH   2   3
ENDBRANCH   1   2
BRANCH   1  26
ATOM     26  C   UNL A   1      38.518  29.438  29.940  1.00  0.00     0.002 C 
BRANCH  26  27
ATOM     27  C   UNL A   1      37.498  28.948  30.975  1.00  0.00     0.021 C 
BRANCH  27  28
ATOM     28  C   UNL A   1      38.074  28.401  32.280  1.00  0.00     0.116 C 
BRANCH  28  29
ATOM     29  N   UNL A   1      37.779  29.256  33.416  1.00  0.00    -0.352 N 
ATOM     30  C   UNL A   1      38.483  30.310  33.936  1.00  0.00     0.251 C 
ATOM     31  H   UNL A   1      36.941  29.045  33.887  1.00  0.00     0.163 HD
ATOM     32  O   UNL A   1      38.138  30.780  35.023  1.00  0.00    -0.269 OA
BRANCH  30  33
ATOM     33  C   UNL A   1      39.649  30.884  33.228  1.00  0.00     0.039 A 
ATOM     34  C   UNL A   1      39.418  31.727  32.137  1.00  0.00     0.014 A 
ATOM     35  C   UNL A   1      40.962  30.555  33.583  1.00  0.00     0.014 A 
ATOM     36  C   UNL A   1      40.494  32.264  31.426  1.00  0.00     0.010 A 
ATOM     37  C   UNL A   1      42.037  31.141  32.910  1.00  0.00     0.010 A 
ATOM     38  C   UNL A   1      41.815  31.990  31.817  1.00  0.00    -0.014 A 
BRANCH  38  39
ATOM     39  C   UNL A   1      42.961  32.580  31.075  1.00  0.00     0.031 A 
ATOM     40  C   UNL A   1      43.278  34.047  31.197  1.00  0.00     0.074 A 
ATOM     41  C   UNL A   1      43.703  31.799  30.265  1.00  0.00     0.049 A 
ATOM     42  N   UNL A   1      44.240  34.732  30.631  1.00  0.00    -0.248 NA
ATOM     43  C   UNL A   1      42.389  34.853  32.048  1.00  0.00     0.031 C 
ATOM     44  C   UNL A   1      43.474  30.372  30.023  1.00  0.00     0.029 A 
ATOM     45  N   UNL A   1      44.800  32.094  29.494  1.00  0.00    -0.354 N 
ATOM     46  C   UNL A   1      44.063  36.049  31.044  1.00  0.00     0.074 A 
ATOM     47  C   UNL A   1      42.877  36.072  31.873  1.00  0.00     0.031 C 
ATOM     48  C   UNL A   1      44.418  29.913  29.185  1.00  0.00     0.029 A 
ATOM     49  C   UNL A   1      45.300  31.013  28.809  1.00  0.00     0.049 A 
ATOM     50  H   UNL A   1      45.191  32.996  29.439  1.00  0.00     0.167 HD
ATOM     51  C   UNL A   1      44.827  37.136  30.775  1.00  0.00     0.031 A 
ATOM     52  C   UNL A   1      46.352  30.915  27.974  1.00  0.00     0.031 A 
ATOM     53  C   UNL A   1      46.013  37.110  29.961  1.00  0.00     0.049 A 
ATOM     54  C   UNL A   1      47.197  32.128  27.707  1.00  0.00     0.074 A 
ATOM     55  C   UNL A   1      46.885  38.147  29.676  1.00  0.00     0.029 A 
ATOM     56  N   UNL A   1      46.497  35.991  29.300  1.00  0.00    -0.354 N 
ATOM     57  N   UNL A   1      47.052  33.351  28.163  1.00  0.00    -0.248 NA
ATOM     58  C   UNL A   1      48.360  31.946  26.828  1.00  0.00     0.031 C 
ATOM     59  C   UNL A   1      47.873  37.665  28.810  1.00  0.00     0.029 A 
ATOM     60  C   UNL A   1      47.644  36.315  28.595  1.00  0.00     0.049 A 
ATOM     61  H   UNL A   1      46.084  35.098  29.328  1.00  0.00     0.167 HD
ATOM     62  C   UNL A   1      48.118  34.076  27.644  1.00  0.00     0.074 A 
ATOM     63  C   UNL A   1      48.909  33.152  26.856  1.00  0.00     0.031 C 
ATOM     64  C   UNL A   1      48.416  35.389  27.807  1.00  0.00     0.031 A 
BRANCH  51  65
ATOM     65  C   UNL A   1      44.391  38.451  31.366  1.00  0.00    -0.014 A 
ATOM     66  C   UNL A   1      44.720  38.797  32.689  1.00  0.00     0.010 A 
ATOM     67  C   UNL A   1      43.668  39.367  30.579  1.00  0.00     0.010 A 
ATOM     68  C   UNL A   1      44.293  40.013  33.230  1.00  0.00     0.020 A 
ATOM     69  C   UNL A   1      43.261  40.595  31.109  1.00  0.00     0.020 A 
ATOM     70  C   UNL A   1      43.559  40.901  32.438  1.00  0.00     0.054 A 
BRANCH  70  71
ATOM     71  S   UNL A   1      43.022  42.476  33.162  1.00  0.00     0.124 S 
ATOM     72  O   UNL A   1      41.930  42.048  34.033  1.00  0.00    -0.237 OA
ATOM     73  O   UNL A   1      44.224  42.943  33.848  1.00  0.00    -0.237 OA
ATOM     74  O   UNL A   1      42.620  43.270  32.004  1.00  0.00    -0.744 OA
ENDBRANCH  70  71
ENDBRANCH  51  65
BRANCH  52  75
ATOM     75  C   UNL A   1      46.683  29.604  27.353  1.00  0.00    -0.014 A 
ATOM     76  C   UNL A   1      46.220  29.288  26.063  1.00  0.00     0.010 A 
ATOM     77  C   UNL A   1      47.480  28.672  28.042  1.00  0.00     0.010 A 
ATOM     78  C   UNL A   1      46.537  28.058  25.479  1.00  0.00     0.020 A 
ATOM     79  C   UNL A   1      47.820  27.452  27.451  1.00  0.00     0.020 A 
ATOM     80  C   UNL A   1      47.338  27.149  26.176  1.00  0.00     0.054 A 
BRANCH  80  81
ATOM     81  S   UNL A   1      47.789  25.584  25.374  1.00  0.00     0.124 S 
ATOM     82  O   UNL A   1      46.613  25.313  24.554  1.00  0.00    -0.237 OA
ATOM     83  O   UNL A   1      49.003  25.942  24.644  1.00  0.00    -0.237 OA
ATOM     84  O   UNL A   1      47.995  24.674  26.498  1.00  0.00    -0.744 OA
ENDBRANCH  80  81
ENDBRANCH  52  75
BRANCH  64  85
ATOM     85  C   UNL A   1      49.667  35.897  27.141  1.00  0.00    -0.014 A 
ATOM     86  C   UNL A   1      49.622  36.509  25.876  1.00  0.00     0.010 A 
ATOM     87  C   UNL A   1      50.902  35.780  27.803  1.00  0.00     0.010 A 
ATOM     88  C   UNL A   1      50.798  36.956  25.266  1.00  0.00     0.020 A 
ATOM     89  C   UNL A   1      52.076  36.249  27.208  1.00  0.00     0.020 A 
ATOM     90  C   UNL A   1      52.019  36.816  25.932  1.00  0.00     0.054 A 
BRANCH  90  91
ATOM     91  S   UNL A   1      53.530  37.418  25.130  1.00  0.00     0.124 S 
ATOM     92  O   UNL A   1      53.359  38.866  25.209  1.00  0.00    -0.237 OA
ATOM     93  O   UNL A   1      54.587  36.863  25.973  1.00  0.00    -0.237 OA
ATOM     94  O   UNL A   1      53.455  36.853  23.785  1.00  0.00    -0.744 OA
ENDBRANCH  90  91
ENDBRANCH  64  85
ENDBRANCH  38  39
ENDBRANCH  30  33
ENDBRANCH  28  29
ENDBRANCH  27  28
ENDBRANCH  26  27
ENDBRANCH   1  26
TORSDOF 20
ENDMDL
