MODEL 1
REMARK VINA RESULT:     -10.8      0.000      0.000
REMARK SMILES C[C@@H](C(=O)NCCCCCCNC(=O)c1ccc(-c2c3nc(c(-c4ccc(S(=O)(=O)[O-])cc4)c4ccc([nH]4)c(-c4ccc(S(=O)(=O)[O-])cc4)c4nc(c(-c5ccc(S(=O)(=O)[O-])cc5)c5ccc2[nH]5)C=C4)C=C3)cc1)c1cc(C(=O)c2ccccc2)ccc1O
REMARK SMILES IDX 8 1 7 2 6 3 5 4 3 5 4 6 2 8 1 9 75 10 76 11 88 12 77 13
REMARK SMILES IDX 87 14 86 15 89 16 78 18 79 19 80 20 81 21 85 22 82 23 84 24
REMARK SMILES IDX 83 25 9 26 10 27 11 28 12 29 13 30 14 32 15 33 16 34 74 35
REMARK SMILES IDX 17 36 73 37 18 38 19 39 20 40 67 41 21 42 72 43 66 44 68 45
REMARK SMILES IDX 22 46 71 47 65 48 64 49 23 51 53 52 34 53 52 54 35 55 38 56
REMARK SMILES IDX 51 57 69 58 36 59 37 60 50 62 70 63 39 64 24 65 25 66 33 67
REMARK SMILES IDX 26 68 32 69 27 70 28 71 29 72 30 73 31 74 54 75 55 76 63 77
REMARK SMILES IDX 56 78 62 79 57 80 58 81 59 82 60 83 61 84 40 85 41 86 49 87
REMARK SMILES IDX 42 88 48 89 43 90 44 91 45 92 46 93 47 94
REMARK H PARENT 5 7 89 17 12 31 68 50 38 61
REMARK Flexibility Score: inf
ROOT
ATOM      1  C   UNL A   1      32.787  28.296  26.423  1.00  0.00     0.002 C 
ENDROOT
BRANCH   1   2
ATOM      2  C   UNL A   1      31.747  27.871  27.468  1.00  0.00     0.021 C 
BRANCH   2   3
ATOM      3  C   UNL A   1      30.972  26.605  27.098  1.00  0.00     0.116 C 
BRANCH   3   4
ATOM      4  N   UNL A   1      31.884  25.537  26.750  1.00  0.00    -0.356 N 
ATOM      5  C   UNL A   1      31.867  24.655  25.713  1.00  0.00     0.227 C 
ATOM      6  O   UNL A   1      32.764  23.810  25.709  1.00  0.00    -0.274 OA
ATOM      7  H   UNL A   1      32.644  25.428  27.366  1.00  0.00     0.163 HD
BRANCH   5   8
ATOM      8  C   UNL A   1      30.806  24.793  24.601  1.00  0.00     0.109 C 
ATOM      9  C   UNL A   1      30.842  23.652  23.581  1.00  0.00     0.023 C 
BRANCH   8  10
ATOM     10  C   UNL A   1      30.873  26.113  23.832  1.00  0.00     0.007 A 
ATOM     11  C   UNL A   1      29.713  26.909  23.714  1.00  0.00     0.020 A 
ATOM     12  C   UNL A   1      32.058  26.616  23.279  1.00  0.00     0.119 A 
ATOM     13  C   UNL A   1      29.715  28.123  23.015  1.00  0.00     0.023 A 
ATOM     14  C   UNL A   1      32.079  27.843  22.612  1.00  0.00     0.047 A 
ATOM     15  C   UNL A   1      30.916  28.601  22.487  1.00  0.00     0.016 A 
BRANCH  12  16
ATOM     16  O   UNL A   1      33.268  25.990  23.358  1.00  0.00    -0.508 OA
ATOM     17  H   UNL A   1      34.051  26.493  23.473  1.00  0.00     0.293 HD
ENDBRANCH  12  16
BRANCH  13  18
ATOM     18  C   UNL A   1      28.434  28.876  22.906  1.00  0.00     0.193 C 
ATOM     19  O   UNL A   1      27.371  28.323  23.180  1.00  0.00    -0.289 OA
BRANCH  18  20
ATOM     20  C   UNL A   1      28.404  30.305  22.516  1.00  0.00     0.022 A 
ATOM     21  C   UNL A   1      28.148  30.614  21.175  1.00  0.00     0.012 A 
ATOM     22  C   UNL A   1      28.628  31.331  23.440  1.00  0.00     0.012 A 
ATOM     23  C   UNL A   1      28.053  31.945  20.773  1.00  0.00     0.001 A 
ATOM     24  C   UNL A   1      28.526  32.663  23.035  1.00  0.00     0.001 A 
ATOM     25  C   UNL A   1      28.229  32.967  21.706  1.00  0.00     0.000 A 
ENDBRANCH  18  20
ENDBRANCH  13  18
ENDBRANCH   8  10
ENDBRANCH   5   8
ENDBRANCH   3   4
ENDBRANCH   2   3
ENDBRANCH   1   2
BRANCH   1  26
ATOM     26  C   UNL A   1      32.579  29.694  25.833  1.00  0.00     0.002 C 
BRANCH  26  27
ATOM     27  C   UNL A   1      32.177  30.766  26.848  1.00  0.00     0.021 C 
BRANCH  27  28
ATOM     28  C   UNL A   1      33.338  31.601  27.379  1.00  0.00     0.116 C 
BRANCH  28  29
ATOM     29  N   UNL A   1      32.984  33.006  27.511  1.00  0.00    -0.352 N 
ATOM     30  C   UNL A   1      33.411  33.926  28.435  1.00  0.00     0.251 C 
ATOM     31  H   UNL A   1      32.347  33.344  26.841  1.00  0.00     0.163 HD
ATOM     32  O   UNL A   1      32.847  35.014  28.526  1.00  0.00    -0.269 OA
BRANCH  30  33
ATOM     33  C   UNL A   1      34.534  33.593  29.338  1.00  0.00     0.039 A 
ATOM     34  C   UNL A   1      34.284  32.802  30.462  1.00  0.00     0.014 A 
ATOM     35  C   UNL A   1      35.830  34.042  29.066  1.00  0.00     0.014 A 
ATOM     36  C   UNL A   1      35.350  32.392  31.267  1.00  0.00     0.010 A 
ATOM     37  C   UNL A   1      36.898  33.578  29.830  1.00  0.00     0.010 A 
ATOM     38  C   UNL A   1      36.670  32.735  30.928  1.00  0.00    -0.014 A 
BRANCH  38  39
ATOM     39  C   UNL A   1      37.823  32.164  31.673  1.00  0.00     0.031 A 
ATOM     40  C   UNL A   1      38.204  32.696  33.027  1.00  0.00     0.074 A 
ATOM     41  C   UNL A   1      38.575  31.210  31.084  1.00  0.00     0.049 A 
ATOM     42  N   UNL A   1      39.214  32.357  33.787  1.00  0.00    -0.248 NA
ATOM     43  C   UNL A   1      37.356  33.757  33.595  1.00  0.00     0.031 C 
ATOM     44  C   UNL A   1      38.336  30.645  29.751  1.00  0.00     0.029 A 
ATOM     45  N   UNL A   1      39.700  30.554  31.520  1.00  0.00    -0.354 N 
ATOM     46  C   UNL A   1      39.133  33.170  34.912  1.00  0.00     0.074 A 
ATOM     47  C   UNL A   1      37.996  34.042  34.723  1.00  0.00     0.031 C 
ATOM     48  C   UNL A   1      39.272  29.718  29.491  1.00  0.00     0.029 A 
ATOM     49  C   UNL A   1      40.206  29.656  30.609  1.00  0.00     0.049 A 
ATOM     50  H   UNL A   1      40.106  30.711  32.403  1.00  0.00     0.167 HD
ATOM     51  C   UNL A   1      39.932  33.179  36.005  1.00  0.00     0.031 A 
ATOM     52  C   UNL A   1      41.311  28.884  30.653  1.00  0.00     0.031 A 
ATOM     53  C   UNL A   1      41.054  32.297  36.195  1.00  0.00     0.049 A 
ATOM     54  C   UNL A   1      42.189  28.934  31.874  1.00  0.00     0.074 A 
ATOM     55  C   UNL A   1      41.868  32.176  37.308  1.00  0.00     0.029 A 
ATOM     56  N   UNL A   1      41.529  31.398  35.254  1.00  0.00    -0.354 N 
ATOM     57  N   UNL A   1      42.032  29.636  32.973  1.00  0.00    -0.248 NA
ATOM     58  C   UNL A   1      43.390  28.088  31.866  1.00  0.00     0.031 C 
ATOM     59  C   UNL A   1      42.880  31.259  37.012  1.00  0.00     0.029 A 
ATOM     60  C   UNL A   1      42.655  30.756  35.741  1.00  0.00     0.049 A 
ATOM     61  H   UNL A   1      41.126  31.240  34.369  1.00  0.00     0.167 HD
ATOM     62  C   UNL A   1      43.105  29.300  33.791  1.00  0.00     0.074 A 
ATOM     63  C   UNL A   1      43.884  28.311  33.076  1.00  0.00     0.031 C 
ATOM     64  C   UNL A   1      43.423  29.774  35.020  1.00  0.00     0.031 A 
BRANCH  51  65
ATOM     65  C   UNL A   1      39.641  34.177  37.095  1.00  0.00    -0.014 A 
ATOM     66  C   UNL A   1      38.986  33.794  38.278  1.00  0.00     0.010 A 
ATOM     67  C   UNL A   1      40.139  35.489  36.982  1.00  0.00     0.010 A 
ATOM     68  C   UNL A   1      38.828  34.707  39.325  1.00  0.00     0.020 A 
ATOM     69  C   UNL A   1      40.005  36.396  38.037  1.00  0.00     0.020 A 
ATOM     70  C   UNL A   1      39.347  35.999  39.201  1.00  0.00     0.054 A 
BRANCH  70  71
ATOM     71  S   UNL A   1      39.199  37.133  40.610  1.00  0.00     0.124 S 
ATOM     72  O   UNL A   1      38.597  36.274  41.627  1.00  0.00    -0.237 OA
ATOM     73  O   UNL A   1      40.586  37.519  40.854  1.00  0.00    -0.237 OA
ATOM     74  O   UNL A   1      38.337  38.200  40.108  1.00  0.00    -0.744 OA
ENDBRANCH  70  71
ENDBRANCH  51  65
BRANCH  52  75
ATOM     75  C   UNL A   1      41.679  28.025  29.493  1.00  0.00    -0.014 A 
ATOM     76  C   UNL A   1      42.617  28.459  28.540  1.00  0.00     0.010 A 
ATOM     77  C   UNL A   1      41.058  26.773  29.316  1.00  0.00     0.010 A 
ATOM     78  C   UNL A   1      42.893  27.681  27.411  1.00  0.00     0.020 A 
ATOM     79  C   UNL A   1      41.358  25.977  28.209  1.00  0.00     0.020 A 
ATOM     80  C   UNL A   1      42.257  26.447  27.251  1.00  0.00     0.054 A 
BRANCH  80  81
ATOM     81  S   UNL A   1      42.630  25.451  25.782  1.00  0.00     0.124 S 
ATOM     82  O   UNL A   1      44.063  25.215  25.932  1.00  0.00    -0.237 OA
ATOM     83  O   UNL A   1      41.773  24.283  25.967  1.00  0.00    -0.237 OA
ATOM     84  O   UNL A   1      42.251  26.323  24.672  1.00  0.00    -0.744 OA
ENDBRANCH  80  81
ENDBRANCH  52  75
BRANCH  64  85
ATOM     85  C   UNL A   1      44.657  29.221  35.681  1.00  0.00    -0.014 A 
ATOM     86  C   UNL A   1      44.596  28.064  36.477  1.00  0.00     0.010 A 
ATOM     87  C   UNL A   1      45.904  29.832  35.455  1.00  0.00     0.010 A 
ATOM     88  C   UNL A   1      45.755  27.544  37.059  1.00  0.00     0.020 A 
ATOM     89  C   UNL A   1      47.071  29.298  36.010  1.00  0.00     0.020 A 
ATOM     90  C   UNL A   1      46.985  28.163  36.818  1.00  0.00     0.054 A 
BRANCH  90  91
ATOM     91  S   UNL A   1      48.480  27.437  37.544  1.00  0.00     0.124 S 
ATOM     92  O   UNL A   1      49.413  28.560  37.508  1.00  0.00    -0.237 OA
ATOM     93  O   UNL A   1      48.027  27.038  38.875  1.00  0.00    -0.237 OA
ATOM     94  O   UNL A   1      48.801  26.331  36.644  1.00  0.00    -0.744 OA
ENDBRANCH  90  91
ENDBRANCH  64  85
ENDBRANCH  38  39
ENDBRANCH  30  33
ENDBRANCH  28  29
ENDBRANCH  27  28
ENDBRANCH  26  27
ENDBRANCH   1  26
TORSDOF 20
ENDMDL
MODEL 2
REMARK VINA RESULT:     -10.8      2.530      9.384
REMARK SMILES C[C@@H](C(=O)NCCCCCCNC(=O)c1ccc(-c2c3nc(c(-c4ccc(S(=O)(=O)[O-])cc4)c4ccc([nH]4)c(-c4ccc(S(=O)(=O)[O-])cc4)c4nc(c(-c5ccc(S(=O)(=O)[O-])cc5)c5ccc2[nH]5)C=C4)C=C3)cc1)c1cc(C(=O)c2ccccc2)ccc1O
REMARK SMILES IDX 8 1 7 2 6 3 5 4 3 5 4 6 2 8 1 9 75 10 76 11 88 12 77 13
REMARK SMILES IDX 87 14 86 15 89 16 78 18 79 19 80 20 81 21 85 22 82 23 84 24
REMARK SMILES IDX 83 25 9 26 10 27 11 28 12 29 13 30 14 32 15 33 16 34 74 35
REMARK SMILES IDX 17 36 73 37 18 38 19 39 20 40 67 41 21 42 72 43 66 44 68 45
REMARK SMILES IDX 22 46 71 47 65 48 64 49 23 51 53 52 34 53 52 54 35 55 38 56
REMARK SMILES IDX 51 57 69 58 36 59 37 60 50 62 70 63 39 64 24 65 25 66 33 67
REMARK SMILES IDX 26 68 32 69 27 70 28 71 29 72 30 73 31 74 54 75 55 76 63 77
REMARK SMILES IDX 56 78 62 79 57 80 58 81 59 82 60 83 61 84 40 85 41 86 49 87
REMARK SMILES IDX 42 88 48 89 43 90 44 91 45 92 46 93 47 94
REMARK H PARENT 5 7 89 17 12 31 68 50 38 61
REMARK Flexibility Score: inf
ROOT
ATOM      1  C   UNL A   1      31.982  28.908  25.805  1.00  0.00     0.002 C 
ENDROOT
BRANCH   1   2
ATOM      2  C   UNL A   1      33.008  29.022  24.670  1.00  0.00     0.021 C 
BRANCH   2   3
ATOM      3  C   UNL A   1      33.710  27.705  24.330  1.00  0.00     0.116 C 
BRANCH   3   4
ATOM      4  N   UNL A   1      33.481  26.726  25.370  1.00  0.00    -0.356 N 
ATOM      5  C   UNL A   1      33.768  25.396  25.419  1.00  0.00     0.227 C 
ATOM      6  O   UNL A   1      33.400  24.802  26.434  1.00  0.00    -0.274 OA
ATOM      7  H   UNL A   1      33.046  27.080  26.179  1.00  0.00     0.163 HD
BRANCH   5   8
ATOM      8  C   UNL A   1      34.566  24.737  24.275  1.00  0.00     0.109 C 
ATOM      9  C   UNL A   1      33.872  24.836  22.913  1.00  0.00     0.023 C 
BRANCH   8  10
ATOM     10  C   UNL A   1      34.916  23.269  24.519  1.00  0.00     0.007 A 
ATOM     11  C   UNL A   1      33.884  22.310  24.589  1.00  0.00     0.020 A 
ATOM     12  C   UNL A   1      36.235  22.805  24.618  1.00  0.00     0.119 A 
ATOM     13  C   UNL A   1      34.147  20.953  24.818  1.00  0.00     0.023 A 
ATOM     14  C   UNL A   1      36.509  21.449  24.808  1.00  0.00     0.047 A 
ATOM     15  C   UNL A   1      35.472  20.523  24.900  1.00  0.00     0.016 A 
BRANCH  12  16
ATOM     16  O   UNL A   1      37.339  23.601  24.515  1.00  0.00    -0.508 OA
ATOM     17  H   UNL A   1      37.697  24.007  25.280  1.00  0.00     0.293 HD
ENDBRANCH  12  16
BRANCH  13  18
ATOM     18  C   UNL A   1      32.990  20.018  24.919  1.00  0.00     0.193 C 
ATOM     19  O   UNL A   1      31.856  20.460  25.090  1.00  0.00    -0.289 OA
BRANCH  18  20
ATOM     20  C   UNL A   1      33.161  18.554  24.774  1.00  0.00     0.022 A 
ATOM     21  C   UNL A   1      32.731  17.735  25.824  1.00  0.00     0.012 A 
ATOM     22  C   UNL A   1      33.738  17.984  23.633  1.00  0.00     0.012 A 
ATOM     23  C   UNL A   1      32.819  16.349  25.708  1.00  0.00     0.001 A 
ATOM     24  C   UNL A   1      33.818  16.595  23.518  1.00  0.00     0.001 A 
ATOM     25  C   UNL A   1      33.350  15.781  24.550  1.00  0.00     0.000 A 
ENDBRANCH  18  20
ENDBRANCH  13  18
ENDBRANCH   8  10
ENDBRANCH   5   8
ENDBRANCH   3   4
ENDBRANCH   2   3
ENDBRANCH   1   2
BRANCH   1  26
ATOM     26  C   UNL A   1      32.290  29.753  27.045  1.00  0.00     0.002 C 
BRANCH  26  27
ATOM     27  C   UNL A   1      32.198  31.266  26.830  1.00  0.00     0.021 C 
BRANCH  27  28
ATOM     28  C   UNL A   1      33.280  32.072  27.542  1.00  0.00     0.116 C 
BRANCH  28  29
ATOM     29  N   UNL A   1      32.903  33.468  27.702  1.00  0.00    -0.352 N 
ATOM     30  C   UNL A   1      33.360  34.393  28.607  1.00  0.00     0.251 C 
ATOM     31  H   UNL A   1      32.223  33.795  27.071  1.00  0.00     0.163 HD
ATOM     32  O   UNL A   1      32.778  35.467  28.736  1.00  0.00    -0.269 OA
BRANCH  30  33
ATOM     33  C   UNL A   1      34.538  34.079  29.445  1.00  0.00     0.039 A 
ATOM     34  C   UNL A   1      34.339  33.490  30.696  1.00  0.00     0.014 A 
ATOM     35  C   UNL A   1      35.832  34.348  28.990  1.00  0.00     0.014 A 
ATOM     36  C   UNL A   1      35.444  33.094  31.453  1.00  0.00     0.010 A 
ATOM     37  C   UNL A   1      36.930  33.892  29.716  1.00  0.00     0.010 A 
ATOM     38  C   UNL A   1      36.746  33.246  30.947  1.00  0.00    -0.014 A 
BRANCH  38  39
ATOM     39  C   UNL A   1      37.916  32.673  31.663  1.00  0.00     0.031 A 
ATOM     40  C   UNL A   1      38.608  31.442  31.144  1.00  0.00     0.074 A 
ATOM     41  C   UNL A   1      38.304  33.226  32.831  1.00  0.00     0.049 A 
ATOM     42  N   UNL A   1      39.601  30.775  31.674  1.00  0.00    -0.248 NA
ATOM     43  C   UNL A   1      38.111  30.874  29.880  1.00  0.00     0.031 C 
ATOM     44  C   UNL A   1      37.682  34.395  33.464  1.00  0.00     0.029 A 
ATOM     45  N   UNL A   1      39.305  32.877  33.704  1.00  0.00    -0.354 N 
ATOM     46  C   UNL A   1      39.839  29.704  30.820  1.00  0.00     0.074 A 
ATOM     47  C   UNL A   1      38.866  29.789  29.754  1.00  0.00     0.031 C 
ATOM     48  C   UNL A   1      38.326  34.673  34.608  1.00  0.00     0.029 A 
ATOM     49  C   UNL A   1      39.372  33.678  34.820  1.00  0.00     0.049 A 
ATOM     50  H   UNL A   1      39.919  32.123  33.545  1.00  0.00     0.167 HD
ATOM     51  C   UNL A   1      40.789  28.744  30.915  1.00  0.00     0.031 A 
ATOM     52  C   UNL A   1      40.168  33.611  35.906  1.00  0.00     0.031 A 
ATOM     53  C   UNL A   1      41.766  28.674  31.970  1.00  0.00     0.049 A 
ATOM     54  C   UNL A   1      41.200  32.519  35.990  1.00  0.00     0.074 A 
ATOM     55  C   UNL A   1      42.820  27.786  32.102  1.00  0.00     0.029 A 
ATOM     56  N   UNL A   1      41.805  29.507  33.077  1.00  0.00    -0.354 N 
ATOM     57  N   UNL A   1      41.475  31.579  35.116  1.00  0.00    -0.248 NA
ATOM     58  C   UNL A   1      42.030  32.478  37.201  1.00  0.00     0.031 C 
ATOM     59  C   UNL A   1      43.450  28.035  33.324  1.00  0.00     0.029 A 
ATOM     60  C   UNL A   1      42.834  29.123  33.921  1.00  0.00     0.049 A 
ATOM     61  H   UNL A   1      41.192  30.260  33.239  1.00  0.00     0.167 HD
ATOM     62  C   UNL A   1      42.523  30.849  35.667  1.00  0.00     0.074 A 
ATOM     63  C   UNL A   1      42.851  31.474  36.931  1.00  0.00     0.031 C 
ATOM     64  C   UNL A   1      43.150  29.752  35.176  1.00  0.00     0.031 A 
BRANCH  51  65
ATOM     65  C   UNL A   1      40.831  27.672  29.858  1.00  0.00    -0.014 A 
ATOM     66  C   UNL A   1      39.732  26.827  29.632  1.00  0.00     0.010 A 
ATOM     67  C   UNL A   1      41.944  27.593  28.999  1.00  0.00     0.010 A 
ATOM     68  C   UNL A   1      39.746  25.917  28.571  1.00  0.00     0.020 A 
ATOM     69  C   UNL A   1      41.951  26.702  27.922  1.00  0.00     0.020 A 
ATOM     70  C   UNL A   1      40.852  25.867  27.717  1.00  0.00     0.054 A 
BRANCH  70  71
ATOM     71  S   UNL A   1      40.805  24.734  26.301  1.00  0.00     0.124 S 
ATOM     72  O   UNL A   1      41.063  25.638  25.182  1.00  0.00    -0.237 OA
ATOM     73  O   UNL A   1      41.879  23.795  26.609  1.00  0.00    -0.237 OA
ATOM     74  O   UNL A   1      39.457  24.173  26.349  1.00  0.00    -0.744 OA
ENDBRANCH  70  71
ENDBRANCH  51  65
BRANCH  52  75
ATOM     75  C   UNL A   1      40.002  34.581  37.026  1.00  0.00    -0.014 A 
ATOM     76  C   UNL A   1      39.076  34.342  38.057  1.00  0.00     0.010 A 
ATOM     77  C   UNL A   1      40.749  35.774  37.044  1.00  0.00     0.010 A 
ATOM     78  C   UNL A   1      38.867  35.297  39.057  1.00  0.00     0.020 A 
ATOM     79  C   UNL A   1      40.570  36.714  38.062  1.00  0.00     0.020 A 
ATOM     80  C   UNL A   1      39.613  36.479  39.050  1.00  0.00     0.054 A 
BRANCH  80  81
ATOM     81  S   UNL A   1      39.331  37.703  40.358  1.00  0.00     0.124 S 
ATOM     82  O   UNL A   1      40.563  38.485  40.311  1.00  0.00    -0.237 OA
ATOM     83  O   UNL A   1      38.128  38.389  39.892  1.00  0.00    -0.237 OA
ATOM     84  O   UNL A   1      39.150  36.888  41.557  1.00  0.00    -0.744 OA
ENDBRANCH  80  81
ENDBRANCH  52  75
BRANCH  64  85
ATOM     85  C   UNL A   1      44.267  29.165  35.997  1.00  0.00    -0.014 A 
ATOM     86  C   UNL A   1      44.023  28.137  36.924  1.00  0.00     0.010 A 
ATOM     87  C   UNL A   1      45.588  29.606  35.796  1.00  0.00     0.010 A 
ATOM     88  C   UNL A   1      45.074  27.580  37.657  1.00  0.00     0.020 A 
ATOM     89  C   UNL A   1      46.647  29.031  36.504  1.00  0.00     0.020 A 
ATOM     90  C   UNL A   1      46.381  28.029  37.438  1.00  0.00     0.054 A 
BRANCH  90  91
ATOM     91  S   UNL A   1      47.732  27.252  38.366  1.00  0.00     0.124 S 
ATOM     92  O   UNL A   1      47.347  27.521  39.748  1.00  0.00    -0.237 OA
ATOM     93  O   UNL A   1      47.643  25.854  37.949  1.00  0.00    -0.237 OA
ATOM     94  O   UNL A   1      48.923  27.961  37.902  1.00  0.00    -0.744 OA
ENDBRANCH  90  91
ENDBRANCH  64  85
ENDBRANCH  38  39
ENDBRANCH  30  33
ENDBRANCH  28  29
ENDBRANCH  27  28
ENDBRANCH  26  27
ENDBRANCH   1  26
TORSDOF 20
ENDMDL
MODEL 3
REMARK VINA RESULT:     -10.6      6.095      8.291
REMARK SMILES C[C@@H](C(=O)NCCCCCCNC(=O)c1ccc(-c2c3nc(c(-c4ccc(S(=O)(=O)[O-])cc4)c4ccc([nH]4)c(-c4ccc(S(=O)(=O)[O-])cc4)c4nc(c(-c5ccc(S(=O)(=O)[O-])cc5)c5ccc2[nH]5)C=C4)C=C3)cc1)c1cc(C(=O)c2ccccc2)ccc1O
REMARK SMILES IDX 8 1 7 2 6 3 5 4 3 5 4 6 2 8 1 9 75 10 76 11 88 12 77 13
REMARK SMILES IDX 87 14 86 15 89 16 78 18 79 19 80 20 81 21 85 22 82 23 84 24
REMARK SMILES IDX 83 25 9 26 10 27 11 28 12 29 13 30 14 32 15 33 16 34 74 35
REMARK SMILES IDX 17 36 73 37 18 38 19 39 20 40 67 41 21 42 72 43 66 44 68 45
REMARK SMILES IDX 22 46 71 47 65 48 64 49 23 51 53 52 34 53 52 54 35 55 38 56
REMARK SMILES IDX 51 57 69 58 36 59 37 60 50 62 70 63 39 64 24 65 25 66 33 67
REMARK SMILES IDX 26 68 32 69 27 70 28 71 29 72 30 73 31 74 54 75 55 76 63 77
REMARK SMILES IDX 56 78 62 79 57 80 58 81 59 82 60 83 61 84 40 85 41 86 49 87
REMARK SMILES IDX 42 88 48 89 43 90 44 91 45 92 46 93 47 94
REMARK H PARENT 5 7 89 17 12 31 68 50 38 61
REMARK Flexibility Score: inf
ROOT
ATOM      1  C   UNL A   1      33.430  28.270  25.985  1.00  0.00     0.002 C 
ENDROOT
BRANCH   1   2
ATOM      2  C   UNL A   1      32.248  27.387  26.404  1.00  0.00     0.021 C 
BRANCH   2   3
ATOM      3  C   UNL A   1      32.538  25.886  26.343  1.00  0.00     0.116 C 
BRANCH   3   4
ATOM      4  N   UNL A   1      31.401  25.130  26.825  1.00  0.00    -0.356 N 
ATOM      5  C   UNL A   1      31.195  23.787  26.904  1.00  0.00     0.227 C 
ATOM      6  O   UNL A   1      30.088  23.435  27.317  1.00  0.00    -0.274 OA
ATOM      7  H   UNL A   1      30.651  25.679  27.150  1.00  0.00     0.163 HD
BRANCH   5   8
ATOM      8  C   UNL A   1      32.336  22.810  26.552  1.00  0.00     0.109 C 
ATOM      9  C   UNL A   1      33.726  23.345  26.906  1.00  0.00     0.023 C 
BRANCH   8  10
ATOM     10  C   UNL A   1      32.358  22.375  25.087  1.00  0.00     0.007 A 
ATOM     11  C   UNL A   1      32.634  23.327  24.082  1.00  0.00     0.020 A 
ATOM     12  C   UNL A   1      32.178  21.045  24.681  1.00  0.00     0.119 A 
ATOM     13  C   UNL A   1      32.660  22.985  22.724  1.00  0.00     0.023 A 
ATOM     14  C   UNL A   1      32.239  20.688  23.333  1.00  0.00     0.047 A 
ATOM     15  C   UNL A   1      32.488  21.650  22.356  1.00  0.00     0.016 A 
BRANCH  12  16
ATOM     16  O   UNL A   1      31.958  20.005  25.537  1.00  0.00    -0.508 OA
ATOM     17  H   UNL A   1      31.421  20.127  26.296  1.00  0.00     0.293 HD
ENDBRANCH  12  16
BRANCH  13  18
ATOM     18  C   UNL A   1      32.917  24.066  21.730  1.00  0.00     0.193 C 
ATOM     19  O   UNL A   1      33.362  23.785  20.618  1.00  0.00    -0.289 OA
BRANCH  18  20
ATOM     20  C   UNL A   1      32.608  25.484  22.027  1.00  0.00     0.022 A 
ATOM     21  C   UNL A   1      31.267  25.840  22.204  1.00  0.00     0.012 A 
ATOM     22  C   UNL A   1      33.610  26.456  22.125  1.00  0.00     0.012 A 
ATOM     23  C   UNL A   1      30.933  27.151  22.542  1.00  0.00     0.001 A 
ATOM     24  C   UNL A   1      33.272  27.766  22.469  1.00  0.00     0.001 A 
ATOM     25  C   UNL A   1      31.937  28.108  22.687  1.00  0.00     0.000 A 
ENDBRANCH  18  20
ENDBRANCH  13  18
ENDBRANCH   8  10
ENDBRANCH   5   8
ENDBRANCH   3   4
ENDBRANCH   2   3
ENDBRANCH   1   2
BRANCH   1  26
ATOM     26  C   UNL A   1      33.657  29.507  26.857  1.00  0.00     0.002 C 
BRANCH  26  27
ATOM     27  C   UNL A   1      34.963  29.499  27.657  1.00  0.00     0.021 C 
BRANCH  27  28
ATOM     28  C   UNL A   1      35.479  30.882  28.039  1.00  0.00     0.116 C 
BRANCH  28  29
ATOM     29  N   UNL A   1      35.455  31.095  29.478  1.00  0.00    -0.352 N 
ATOM     30  C   UNL A   1      36.329  30.646  30.437  1.00  0.00     0.251 C 
ATOM     31  H   UNL A   1      34.705  31.639  29.810  1.00  0.00     0.163 HD
ATOM     32  O   UNL A   1      36.039  30.743  31.627  1.00  0.00    -0.269 OA
BRANCH  30  33
ATOM     33  C   UNL A   1      37.606  30.021  30.031  1.00  0.00     0.039 A 
ATOM     34  C   UNL A   1      38.042  30.173  28.712  1.00  0.00     0.014 A 
ATOM     35  C   UNL A   1      38.378  29.306  30.951  1.00  0.00     0.014 A 
ATOM     36  C   UNL A   1      39.295  29.678  28.341  1.00  0.00     0.010 A 
ATOM     37  C   UNL A   1      39.653  28.872  30.596  1.00  0.00     0.010 A 
ATOM     38  C   UNL A   1      40.131  29.068  29.292  1.00  0.00    -0.014 A 
BRANCH  38  39
ATOM     39  C   UNL A   1      41.529  28.695  28.953  1.00  0.00     0.031 A 
ATOM     40  C   UNL A   1      42.616  29.733  28.920  1.00  0.00     0.074 A 
ATOM     41  C   UNL A   1      41.798  27.420  28.598  1.00  0.00     0.049 A 
ATOM     42  N   UNL A   1      43.873  29.594  28.586  1.00  0.00    -0.248 NA
ATOM     43  C   UNL A   1      42.243  31.109  29.289  1.00  0.00     0.031 C 
ATOM     44  C   UNL A   1      40.818  26.330  28.545  1.00  0.00     0.029 A 
ATOM     45  N   UNL A   1      42.971  26.826  28.203  1.00  0.00    -0.354 N 
ATOM     46  C   UNL A   1      44.437  30.860  28.689  1.00  0.00     0.074 A 
ATOM     47  C   UNL A   1      43.380  31.763  29.085  1.00  0.00     0.031 C 
ATOM     48  C   UNL A   1      41.435  25.201  28.160  1.00  0.00     0.029 A 
ATOM     49  C   UNL A   1      42.838  25.492  27.889  1.00  0.00     0.049 A 
ATOM     50  H   UNL A   1      43.828  27.308  28.150  1.00  0.00     0.167 HD
ATOM     51  C   UNL A   1      45.723  31.231  28.481  1.00  0.00     0.031 A 
ATOM     52  C   UNL A   1      43.735  24.605  27.415  1.00  0.00     0.031 A 
ATOM     53  C   UNL A   1      46.775  30.324  28.103  1.00  0.00     0.049 A 
ATOM     54  C   UNL A   1      45.151  25.055  27.175  1.00  0.00     0.074 A 
ATOM     55  C   UNL A   1      48.125  30.595  27.953  1.00  0.00     0.029 A 
ATOM     56  N   UNL A   1      46.602  28.983  27.803  1.00  0.00    -0.354 N 
ATOM     57  N   UNL A   1      45.686  26.236  27.382  1.00  0.00    -0.248 NA
ATOM     58  C   UNL A   1      46.086  24.056  26.640  1.00  0.00     0.031 C 
ATOM     59  C   UNL A   1      48.754  29.437  27.490  1.00  0.00     0.029 A 
ATOM     60  C   UNL A   1      47.810  28.425  27.420  1.00  0.00     0.049 A 
ATOM     61  H   UNL A   1      45.747  28.498  27.854  1.00  0.00     0.167 HD
ATOM     62  C   UNL A   1      47.023  26.113  27.020  1.00  0.00     0.074 A 
ATOM     63  C   UNL A   1      47.222  24.738  26.612  1.00  0.00     0.031 C 
ATOM     64  C   UNL A   1      47.996  27.056  27.015  1.00  0.00     0.031 A 
BRANCH  51  65
ATOM     65  C   UNL A   1      46.084  32.684  28.647  1.00  0.00    -0.014 A 
ATOM     66  C   UNL A   1      46.578  33.178  29.865  1.00  0.00     0.010 A 
ATOM     67  C   UNL A   1      46.042  33.538  27.528  1.00  0.00     0.010 A 
ATOM     68  C   UNL A   1      47.016  34.502  29.966  1.00  0.00     0.020 A 
ATOM     69  C   UNL A   1      46.502  34.854  27.618  1.00  0.00     0.020 A 
ATOM     70  C   UNL A   1      46.984  35.328  28.839  1.00  0.00     0.054 A 
BRANCH  70  71
ATOM     71  S   UNL A   1      47.637  37.015  28.981  1.00  0.00     0.124 S 
ATOM     72  O   UNL A   1      48.790  36.821  29.858  1.00  0.00    -0.237 OA
ATOM     73  O   UNL A   1      47.951  37.352  27.595  1.00  0.00    -0.237 OA
ATOM     74  O   UNL A   1      46.531  37.768  29.567  1.00  0.00    -0.744 OA
ENDBRANCH  70  71
ENDBRANCH  51  65
BRANCH  52  75
ATOM     75  C   UNL A   1      43.322  23.210  27.096  1.00  0.00    -0.014 A 
ATOM     76  C   UNL A   1      42.989  22.303  28.117  1.00  0.00     0.010 A 
ATOM     77  C   UNL A   1      43.297  22.769  25.759  1.00  0.00     0.010 A 
ATOM     78  C   UNL A   1      42.684  20.973  27.812  1.00  0.00     0.020 A 
ATOM     79  C   UNL A   1      42.957  21.451  25.447  1.00  0.00     0.020 A 
ATOM     80  C   UNL A   1      42.675  20.554  26.479  1.00  0.00     0.054 A 
BRANCH  80  81
ATOM     81  S   UNL A   1      42.273  18.826  26.103  1.00  0.00     0.124 S 
ATOM     82  O   UNL A   1      42.488  18.178  27.394  1.00  0.00    -0.237 OA
ATOM     83  O   UNL A   1      40.884  18.914  25.661  1.00  0.00    -0.237 OA
ATOM     84  O   UNL A   1      43.231  18.473  25.057  1.00  0.00    -0.744 OA
ENDBRANCH  80  81
ENDBRANCH  52  75
BRANCH  64  85
ATOM     85  C   UNL A   1      49.371  26.633  26.572  1.00  0.00    -0.014 A 
ATOM     86  C   UNL A   1      50.261  26.008  27.463  1.00  0.00     0.010 A 
ATOM     87  C   UNL A   1      49.758  26.810  25.230  1.00  0.00     0.010 A 
ATOM     88  C   UNL A   1      51.523  25.594  27.030  1.00  0.00     0.020 A 
ATOM     89  C   UNL A   1      51.007  26.368  24.784  1.00  0.00     0.020 A 
ATOM     90  C   UNL A   1      51.885  25.773  25.691  1.00  0.00     0.054 A 
BRANCH  90  91
ATOM     91  S   UNL A   1      53.509  25.179  25.144  1.00  0.00     0.124 S 
ATOM     92  O   UNL A   1      53.559  25.656  23.764  1.00  0.00    -0.237 OA
ATOM     93  O   UNL A   1      54.421  25.842  26.072  1.00  0.00    -0.237 OA
ATOM     94  O   UNL A   1      53.417  23.728  25.297  1.00  0.00    -0.744 OA
ENDBRANCH  90  91
ENDBRANCH  64  85
ENDBRANCH  38  39
ENDBRANCH  30  33
ENDBRANCH  28  29
ENDBRANCH  27  28
ENDBRANCH  26  27
ENDBRANCH   1  26
TORSDOF 20
ENDMDL
