MODEL 1
REMARK VINA RESULT:     -10.8      0.000      0.000
REMARK SMILES CC(C)c1nc(N2C[C@H](C)OC(C)(C)C2)sc1C(=O)NCCCCCCNC(=O)c1ccc(-c2c3nc(c(-c4ccc(S(=O)(=O)[O-])cc4)c4ccc([nH]4)c(-c4ccc(S(=O)(=O)[O-])cc4)c4nc(c(-c5ccc(S(=O)(=O)[O-])cc5)c5ccc2[nH]5)C=C4)C=C3)cc1
REMARK SMILES IDX 24 1 23 2 22 3 21 4 20 5 18 6 19 7 17 9 4 10 5 11 6 12 16 13
REMARK SMILES IDX 2 14 1 15 3 16 7 17 8 18 15 19 9 20 12 21 11 22 10 23 13 24
REMARK SMILES IDX 14 25 25 26 26 27 27 28 28 29 29 31 30 32 31 33 89 34 32 35
REMARK SMILES IDX 88 36 33 37 34 38 35 39 82 40 36 41 87 42 81 43 83 44 37 45
REMARK SMILES IDX 86 46 80 47 79 48 38 50 68 51 49 52 67 53 50 54 53 55 66 56
REMARK SMILES IDX 84 57 51 58 52 59 65 61 85 62 54 63 39 64 40 65 48 66 41 67
REMARK SMILES IDX 47 68 42 69 43 70 44 71 45 72 46 73 69 74 70 75 78 76 71 77
REMARK SMILES IDX 77 78 72 79 73 80 74 81 75 82 76 83 55 84 56 85 64 86 57 87
REMARK SMILES IDX 63 88 58 89 59 90 60 91 61 92 62 93
REMARK H PARENT 20 8 27 30 83 49 53 60
REMARK Flexibility Score: inf
ROOT
ATOM      1  C   UNL A   1      34.501  30.822  28.050  1.00  0.00     0.002 C 
ENDROOT
BRANCH   1   2
ATOM      2  C   UNL A   1      34.600  29.518  27.254  1.00  0.00     0.002 C 
BRANCH   2   3
ATOM      3  C   UNL A   1      33.403  29.203  26.352  1.00  0.00     0.021 C 
BRANCH   3   4
ATOM      4  C   UNL A   1      32.167  28.623  27.057  1.00  0.00     0.116 C 
BRANCH   4   5
ATOM      5  N   UNL A   1      31.275  28.032  26.082  1.00  0.00    -0.351 N 
ATOM      6  C   UNL A   1      31.312  27.037  25.142  1.00  0.00     0.263 C 
ATOM      7  O   UNL A   1      30.234  26.976  24.529  1.00  0.00    -0.268 OA
ATOM      8  H   UNL A   1      30.392  28.468  26.101  1.00  0.00     0.163 HD
BRANCH   6   9
ATOM      9  C   UNL A   1      32.403  26.102  24.861  1.00  0.00     0.117 A 
ATOM     10  C   UNL A   1      33.296  25.764  23.839  1.00  0.00     0.069 A 
ATOM     11  N   UNL A   1      34.193  24.737  24.171  1.00  0.00    -0.224 NA
ATOM     12  C   UNL A   1      33.895  24.159  25.302  1.00  0.00     0.186 A 
ATOM     13  S   UNL A   1      32.636  24.933  26.151  1.00  0.00    -0.091 S 
BRANCH  10  14
ATOM     14  C   UNL A   1      33.451  26.281  22.423  1.00  0.00     0.034 C 
ATOM     15  C   UNL A   1      32.223  25.985  21.537  1.00  0.00     0.014 C 
ATOM     16  C   UNL A   1      33.669  27.792  22.376  1.00  0.00     0.014 C 
ENDBRANCH  10  14
BRANCH  12  17
ATOM     17  N   UNL A   1      34.519  23.061  25.794  1.00  0.00    -0.343 N 
ATOM     18  C   UNL A   1      33.854  21.758  25.758  1.00  0.00     0.150 C 
ATOM     19  C   UNL A   1      35.976  23.019  25.913  1.00  0.00     0.153 C 
ATOM     20  C   UNL A   1      34.513  20.870  24.684  1.00  0.00     0.135 C 
ATOM     21  C   UNL A   1      36.632  21.990  24.949  1.00  0.00     0.081 C 
ATOM     22  O   UNL A   1      35.923  20.729  24.936  1.00  0.00    -0.369 OA
ATOM     23  C   UNL A   1      33.912  19.471  24.683  1.00  0.00     0.040 C 
ATOM     24  C   UNL A   1      36.771  22.543  23.525  1.00  0.00     0.044 C 
ATOM     25  C   UNL A   1      38.037  21.652  25.472  1.00  0.00     0.044 C 
ENDBRANCH  12  17
ENDBRANCH   6   9
ENDBRANCH   4   5
ENDBRANCH   3   4
ENDBRANCH   2   3
ENDBRANCH   1   2
BRANCH   1  26
ATOM     26  C   UNL A   1      34.089  32.064  27.253  1.00  0.00     0.021 C 
BRANCH  26  27
ATOM     27  C   UNL A   1      32.731  32.665  27.621  1.00  0.00     0.116 C 
BRANCH  27  28
ATOM     28  N   UNL A   1      32.804  34.102  27.824  1.00  0.00    -0.352 N 
ATOM     29  C   UNL A   1      33.553  34.832  28.710  1.00  0.00     0.251 C 
ATOM     30  H   UNL A   1      32.224  34.635  27.235  1.00  0.00     0.163 HD
ATOM     31  O   UNL A   1      33.289  36.024  28.885  1.00  0.00    -0.269 OA
BRANCH  29  32
ATOM     32  C   UNL A   1      34.667  34.211  29.459  1.00  0.00     0.039 A 
ATOM     33  C   UNL A   1      34.381  33.490  30.623  1.00  0.00     0.014 A 
ATOM     34  C   UNL A   1      35.995  34.385  29.058  1.00  0.00     0.014 A 
ATOM     35  C   UNL A   1      35.418  32.904  31.354  1.00  0.00     0.010 A 
ATOM     36  C   UNL A   1      37.023  33.749  29.753  1.00  0.00     0.010 A 
ATOM     37  C   UNL A   1      36.747  33.007  30.913  1.00  0.00    -0.014 A 
BRANCH  37  38
ATOM     38  C   UNL A   1      37.858  32.352  31.651  1.00  0.00     0.031 A 
ATOM     39  C   UNL A   1      38.286  32.871  32.999  1.00  0.00     0.074 A 
ATOM     40  C   UNL A   1      38.523  31.325  31.083  1.00  0.00     0.049 A 
ATOM     41  N   UNL A   1      39.274  32.474  33.759  1.00  0.00    -0.248 NA
ATOM     42  C   UNL A   1      37.518  33.998  33.552  1.00  0.00     0.031 C 
ATOM     43  C   UNL A   1      38.228  30.750  29.767  1.00  0.00     0.029 A 
ATOM     44  N   UNL A   1      39.590  30.590  31.533  1.00  0.00    -0.354 N 
ATOM     45  C   UNL A   1      39.258  33.312  34.869  1.00  0.00     0.074 A 
ATOM     46  C   UNL A   1      38.190  34.265  34.663  1.00  0.00     0.031 C 
ATOM     47  C   UNL A   1      39.080  29.740  29.529  1.00  0.00     0.029 A 
ATOM     48  C   UNL A   1      40.006  29.621  30.650  1.00  0.00     0.049 A 
ATOM     49  H   UNL A   1      40.018  30.743  32.407  1.00  0.00     0.167 HD
ATOM     50  C   UNL A   1      40.050  33.281  35.969  1.00  0.00     0.031 A 
ATOM     51  C   UNL A   1      41.021  28.739  30.729  1.00  0.00     0.031 A 
ATOM     52  C   UNL A   1      41.104  32.322  36.178  1.00  0.00     0.049 A 
ATOM     53  C   UNL A   1      41.890  28.727  31.957  1.00  0.00     0.074 A 
ATOM     54  C   UNL A   1      41.926  32.175  37.282  1.00  0.00     0.029 A 
ATOM     55  N   UNL A   1      41.480  31.347  35.267  1.00  0.00    -0.354 N 
ATOM     56  N   UNL A   1      41.821  29.491  33.021  1.00  0.00    -0.248 NA
ATOM     57  C   UNL A   1      42.965  27.726  32.001  1.00  0.00     0.031 C 
ATOM     58  C   UNL A   1      42.832  31.142  37.018  1.00  0.00     0.029 A 
ATOM     59  C   UNL A   1      42.536  30.608  35.774  1.00  0.00     0.049 A 
ATOM     60  H   UNL A   1      41.059  31.202  34.389  1.00  0.00     0.167 HD
ATOM     61  C   UNL A   1      42.825  29.043  33.874  1.00  0.00     0.074 A 
ATOM     62  C   UNL A   1      43.478  27.935  33.206  1.00  0.00     0.031 C 
ATOM     63  C   UNL A   1      43.173  29.507  35.099  1.00  0.00     0.031 A 
BRANCH  50  64
ATOM     64  C   UNL A   1      39.810  34.320  37.033  1.00  0.00    -0.014 A 
ATOM     65  C   UNL A   1      39.002  34.044  38.151  1.00  0.00     0.010 A 
ATOM     66  C   UNL A   1      40.439  35.575  36.939  1.00  0.00     0.010 A 
ATOM     67  C   UNL A   1      38.794  35.017  39.133  1.00  0.00     0.020 A 
ATOM     68  C   UNL A   1      40.256  36.541  37.933  1.00  0.00     0.020 A 
ATOM     69  C   UNL A   1      39.419  36.262  39.015  1.00  0.00     0.054 A 
BRANCH  69  70
ATOM     70  S   UNL A   1      39.149  37.497  40.316  1.00  0.00     0.124 S 
ATOM     71  O   UNL A   1      38.290  38.464  39.637  1.00  0.00    -0.237 OA
ATOM     72  O   UNL A   1      38.506  36.718  41.370  1.00  0.00    -0.237 OA
ATOM     73  O   UNL A   1      40.494  37.972  40.629  1.00  0.00    -0.744 OA
ENDBRANCH  69  70
ENDBRANCH  50  64
BRANCH  51  74
ATOM     74  C   UNL A   1      41.265  27.784  29.613  1.00  0.00    -0.014 A 
ATOM     75  C   UNL A   1      42.432  27.879  28.836  1.00  0.00     0.010 A 
ATOM     76  C   UNL A   1      40.335  26.767  29.330  1.00  0.00     0.010 A 
ATOM     77  C   UNL A   1      42.657  26.986  27.783  1.00  0.00     0.020 A 
ATOM     78  C   UNL A   1      40.570  25.856  28.297  1.00  0.00     0.020 A 
ATOM     79  C   UNL A   1      41.724  25.979  27.522  1.00  0.00     0.054 A 
BRANCH  79  80
ATOM     80  S   UNL A   1      42.060  24.800  26.183  1.00  0.00     0.124 S 
ATOM     81  O   UNL A   1      41.141  23.712  26.498  1.00  0.00    -0.237 OA
ATOM     82  O   UNL A   1      41.736  25.578  24.990  1.00  0.00    -0.237 OA
ATOM     83  O   UNL A   1      43.479  24.492  26.349  1.00  0.00    -0.744 OA
ENDBRANCH  79  80
ENDBRANCH  51  74
BRANCH  63  84
ATOM     84  C   UNL A   1      44.285  28.793  35.820  1.00  0.00    -0.014 A 
ATOM     85  C   UNL A   1      45.609  29.263  35.768  1.00  0.00     0.010 A 
ATOM     86  C   UNL A   1      43.987  27.666  36.610  1.00  0.00     0.010 A 
ATOM     87  C   UNL A   1      46.620  28.601  36.469  1.00  0.00     0.020 A 
ATOM     88  C   UNL A   1      44.990  27.019  37.334  1.00  0.00     0.020 A 
ATOM     89  C   UNL A   1      46.305  27.483  37.249  1.00  0.00     0.054 A 
BRANCH  89  90
ATOM     90  S   UNL A   1      47.626  26.670  38.188  1.00  0.00     0.124 S 
ATOM     91  O   UNL A   1      47.857  27.621  39.273  1.00  0.00    -0.237 OA
ATOM     92  O   UNL A   1      47.010  25.405  38.582  1.00  0.00    -0.237 OA
ATOM     93  O   UNL A   1      48.716  26.552  37.222  1.00  0.00    -0.744 OA
ENDBRANCH  89  90
ENDBRANCH  63  84
ENDBRANCH  37  38
ENDBRANCH  29  32
ENDBRANCH  27  28
ENDBRANCH  26  27
ENDBRANCH   1  26
TORSDOF 18
ENDMDL
MODEL 2
REMARK VINA RESULT:     -10.7      5.935     11.784
REMARK SMILES CC(C)c1nc(N2C[C@H](C)OC(C)(C)C2)sc1C(=O)NCCCCCCNC(=O)c1ccc(-c2c3nc(c(-c4ccc(S(=O)(=O)[O-])cc4)c4ccc([nH]4)c(-c4ccc(S(=O)(=O)[O-])cc4)c4nc(c(-c5ccc(S(=O)(=O)[O-])cc5)c5ccc2[nH]5)C=C4)C=C3)cc1
REMARK SMILES IDX 24 1 23 2 22 3 21 4 20 5 18 6 19 7 17 9 4 10 5 11 6 12 16 13
REMARK SMILES IDX 2 14 1 15 3 16 7 17 8 18 15 19 9 20 12 21 11 22 10 23 13 24
REMARK SMILES IDX 14 25 25 26 26 27 27 28 28 29 29 31 30 32 31 33 89 34 32 35
REMARK SMILES IDX 88 36 33 37 34 38 35 39 82 40 36 41 87 42 81 43 83 44 37 45
REMARK SMILES IDX 86 46 80 47 79 48 38 50 68 51 49 52 67 53 50 54 53 55 66 56
REMARK SMILES IDX 84 57 51 58 52 59 65 61 85 62 54 63 39 64 40 65 48 66 41 67
REMARK SMILES IDX 47 68 42 69 43 70 44 71 45 72 46 73 69 74 70 75 78 76 71 77
REMARK SMILES IDX 77 78 72 79 73 80 74 81 75 82 76 83 55 84 56 85 64 86 57 87
REMARK SMILES IDX 63 88 58 89 59 90 60 91 61 92 62 93
REMARK H PARENT 20 8 27 30 83 49 53 60
REMARK Flexibility Score: inf
ROOT
ATOM      1  C   UNL A   1      36.841  20.392  24.995  1.00  0.00     0.002 C 
ENDROOT
BRANCH   1   2
ATOM      2  C   UNL A   1      36.786  21.759  25.681  1.00  0.00     0.002 C 
BRANCH   2   3
ATOM      3  C   UNL A   1      35.404  22.417  25.734  1.00  0.00     0.021 C 
BRANCH   3   4
ATOM      4  C   UNL A   1      34.470  21.925  26.850  1.00  0.00     0.116 C 
BRANCH   4   5
ATOM      5  N   UNL A   1      33.450  21.059  26.295  1.00  0.00    -0.351 N 
ATOM      6  C   UNL A   1      32.326  21.179  25.521  1.00  0.00     0.263 C 
ATOM      7  O   UNL A   1      31.779  20.075  25.373  1.00  0.00    -0.268 OA
ATOM      8  H   UNL A   1      33.610  20.119  26.543  1.00  0.00     0.163 HD
BRANCH   6   9
ATOM      9  C   UNL A   1      31.796  22.385  24.882  1.00  0.00     0.117 A 
ATOM     10  C   UNL A   1      31.707  22.985  23.621  1.00  0.00     0.069 A 
ATOM     11  N   UNL A   1      31.017  24.208  23.611  1.00  0.00    -0.224 NA
ATOM     12  C   UNL A   1      30.761  24.647  24.812  1.00  0.00     0.186 A 
ATOM     13  S   UNL A   1      31.149  23.533  26.042  1.00  0.00    -0.091 S 
BRANCH  10  14
ATOM     14  C   UNL A   1      32.249  22.573  22.268  1.00  0.00     0.034 C 
ATOM     15  C   UNL A   1      33.732  22.952  22.073  1.00  0.00     0.014 C 
ATOM     16  C   UNL A   1      32.149  21.067  22.034  1.00  0.00     0.014 C 
ENDBRANCH  10  14
BRANCH  12  17
ATOM     17  N   UNL A   1      30.220  25.858  25.089  1.00  0.00    -0.343 N 
ATOM     18  C   UNL A   1      30.803  26.705  26.131  1.00  0.00     0.150 C 
ATOM     19  C   UNL A   1      29.402  26.557  24.098  1.00  0.00     0.153 C 
ATOM     20  C   UNL A   1      31.540  27.891  25.481  1.00  0.00     0.135 C 
ATOM     21  C   UNL A   1      30.071  27.857  23.570  1.00  0.00     0.081 C 
ATOM     22  O   UNL A   1      30.650  28.643  24.637  1.00  0.00    -0.369 OA
ATOM     23  C   UNL A   1      32.078  28.849  26.536  1.00  0.00     0.040 C 
ATOM     24  C   UNL A   1      31.120  27.565  22.489  1.00  0.00     0.044 C 
ATOM     25  C   UNL A   1      28.986  28.755  22.955  1.00  0.00     0.044 C 
ENDBRANCH  12  17
ENDBRANCH   6   9
ENDBRANCH   4   5
ENDBRANCH   3   4
ENDBRANCH   2   3
ENDBRANCH   1   2
BRANCH   1  26
ATOM     26  C   UNL A   1      38.204  19.693  25.003  1.00  0.00     0.021 C 
BRANCH  26  27
ATOM     27  C   UNL A   1      39.305  20.400  25.794  1.00  0.00     0.116 C 
BRANCH  27  28
ATOM     28  N   UNL A   1      40.398  19.504  26.135  1.00  0.00    -0.352 N 
ATOM     29  C   UNL A   1      41.720  19.774  26.373  1.00  0.00     0.251 C 
ATOM     30  H   UNL A   1      40.150  18.554  26.205  1.00  0.00     0.163 HD
ATOM     31  O   UNL A   1      42.530  18.844  26.408  1.00  0.00    -0.269 OA
BRANCH  29  32
ATOM     32  C   UNL A   1      42.189  21.161  26.583  1.00  0.00     0.039 A 
ATOM     33  C   UNL A   1      42.444  21.599  27.887  1.00  0.00     0.014 A 
ATOM     34  C   UNL A   1      42.320  22.051  25.513  1.00  0.00     0.014 A 
ATOM     35  C   UNL A   1      42.877  22.909  28.111  1.00  0.00     0.010 A 
ATOM     36  C   UNL A   1      42.811  23.338  25.731  1.00  0.00     0.010 A 
ATOM     37  C   UNL A   1      43.087  23.784  27.033  1.00  0.00    -0.014 A 
BRANCH  37  38
ATOM     38  C   UNL A   1      43.592  25.166  27.248  1.00  0.00     0.031 A 
ATOM     39  C   UNL A   1      45.038  25.496  26.983  1.00  0.00     0.074 A 
ATOM     40  C   UNL A   1      42.763  26.110  27.737  1.00  0.00     0.049 A 
ATOM     41  N   UNL A   1      45.674  26.623  27.176  1.00  0.00    -0.248 NA
ATOM     42  C   UNL A   1      45.883  24.413  26.457  1.00  0.00     0.031 C 
ATOM     43  C   UNL A   1      41.350  25.908  28.065  1.00  0.00     0.029 A 
ATOM     44  N   UNL A   1      42.992  27.425  28.054  1.00  0.00    -0.354 N 
ATOM     45  C   UNL A   1      46.994  26.380  26.813  1.00  0.00     0.074 A 
ATOM     46  C   UNL A   1      47.077  24.988  26.429  1.00  0.00     0.031 C 
ATOM     47  C   UNL A   1      40.834  27.063  28.517  1.00  0.00     0.029 A 
ATOM     48  C   UNL A   1      41.886  28.075  28.550  1.00  0.00     0.049 A 
ATOM     49  H   UNL A   1      43.867  27.863  27.937  1.00  0.00     0.167 HD
ATOM     50  C   UNL A   1      48.041  27.242  26.785  1.00  0.00     0.031 A 
ATOM     51  C   UNL A   1      41.734  29.340  28.990  1.00  0.00     0.031 A 
ATOM     52  C   UNL A   1      47.952  28.630  27.155  1.00  0.00     0.049 A 
ATOM     53  C   UNL A   1      42.911  30.276  28.955  1.00  0.00     0.074 A 
ATOM     54  C   UNL A   1      48.943  29.596  27.110  1.00  0.00     0.029 A 
ATOM     55  N   UNL A   1      46.810  29.252  27.635  1.00  0.00    -0.354 N 
ATOM     56  N   UNL A   1      44.138  30.041  28.553  1.00  0.00    -0.248 NA
ATOM     57  C   UNL A   1      42.681  31.650  29.419  1.00  0.00     0.031 C 
ATOM     58  C   UNL A   1      48.412  30.790  27.610  1.00  0.00     0.029 A 
ATOM     59  C   UNL A   1      47.075  30.583  27.911  1.00  0.00     0.049 A 
ATOM     60  H   UNL A   1      45.939  28.811  27.763  1.00  0.00     0.167 HD
ATOM     61  C   UNL A   1      44.817  31.246  28.689  1.00  0.00     0.074 A 
ATOM     62  C   UNL A   1      43.863  32.210  29.199  1.00  0.00     0.031 C 
ATOM     63  C   UNL A   1      46.115  31.530  28.415  1.00  0.00     0.031 A 
BRANCH  50  64
ATOM     64  C   UNL A   1      49.377  26.705  26.344  1.00  0.00    -0.014 A 
ATOM     65  C   UNL A   1      49.815  26.846  25.014  1.00  0.00     0.010 A 
ATOM     66  C   UNL A   1      50.228  26.091  27.281  1.00  0.00     0.010 A 
ATOM     67  C   UNL A   1      51.060  26.347  24.621  1.00  0.00     0.020 A 
ATOM     68  C   UNL A   1      51.486  25.616  26.898  1.00  0.00     0.020 A 
ATOM     69  C   UNL A   1      51.886  25.731  25.565  1.00  0.00     0.054 A 
BRANCH  69  70
ATOM     70  S   UNL A   1      53.506  25.114  25.032  1.00  0.00     0.124 S 
ATOM     71  O   UNL A   1      53.395  23.687  25.326  1.00  0.00    -0.237 OA
ATOM     72  O   UNL A   1      53.532  25.462  23.613  1.00  0.00    -0.237 OA
ATOM     73  O   UNL A   1      54.452  25.850  25.868  1.00  0.00    -0.744 OA
ENDBRANCH  69  70
ENDBRANCH  50  64
BRANCH  51  74
ATOM     74  C   UNL A   1      40.409  29.798  29.491  1.00  0.00    -0.014 A 
ATOM     75  C   UNL A   1      39.393  30.162  28.591  1.00  0.00     0.010 A 
ATOM     76  C   UNL A   1      40.155  29.862  30.873  1.00  0.00     0.010 A 
ATOM     77  C   UNL A   1      38.151  30.599  29.063  1.00  0.00     0.020 A 
ATOM     78  C   UNL A   1      38.906  30.272  31.348  1.00  0.00     0.020 A 
ATOM     79  C   UNL A   1      37.916  30.650  30.440  1.00  0.00     0.054 A 
BRANCH  79  80
ATOM     80  S   UNL A   1      36.281  31.173  31.029  1.00  0.00     0.124 S 
ATOM     81  O   UNL A   1      35.512  31.221  29.790  1.00  0.00    -0.237 OA
ATOM     82  O   UNL A   1      35.923  30.104  31.957  1.00  0.00    -0.237 OA
ATOM     83  O   UNL A   1      36.544  32.467  31.655  1.00  0.00    -0.744 OA
ENDBRANCH  79  80
ENDBRANCH  51  74
BRANCH  63  84
ATOM     84  C   UNL A   1      46.572  32.949  28.621  1.00  0.00    -0.014 A 
ATOM     85  C   UNL A   1      46.439  33.914  27.608  1.00  0.00     0.010 A 
ATOM     86  C   UNL A   1      47.091  33.334  29.872  1.00  0.00     0.010 A 
ATOM     87  C   UNL A   1      46.844  35.233  27.831  1.00  0.00     0.020 A 
ATOM     88  C   UNL A   1      47.471  34.657  30.108  1.00  0.00     0.020 A 
ATOM     89  C   UNL A   1      47.358  35.596  29.081  1.00  0.00     0.054 A 
BRANCH  89  90
ATOM     90  S   UNL A   1      47.832  37.324  29.363  1.00  0.00     0.124 S 
ATOM     91  O   UNL A   1      46.870  38.043  28.530  1.00  0.00    -0.237 OA
ATOM     92  O   UNL A   1      47.651  37.476  30.805  1.00  0.00    -0.237 OA
ATOM     93  O   UNL A   1      49.218  37.383  28.905  1.00  0.00    -0.744 OA
ENDBRANCH  89  90
ENDBRANCH  63  84
ENDBRANCH  37  38
ENDBRANCH  29  32
ENDBRANCH  27  28
ENDBRANCH  26  27
ENDBRANCH   1  26
TORSDOF 18
ENDMDL
MODEL 3
REMARK VINA RESULT:     -10.7      0.416      8.039
REMARK SMILES CC(C)c1nc(N2C[C@H](C)OC(C)(C)C2)sc1C(=O)NCCCCCCNC(=O)c1ccc(-c2c3nc(c(-c4ccc(S(=O)(=O)[O-])cc4)c4ccc([nH]4)c(-c4ccc(S(=O)(=O)[O-])cc4)c4nc(c(-c5ccc(S(=O)(=O)[O-])cc5)c5ccc2[nH]5)C=C4)C=C3)cc1
REMARK SMILES IDX 24 1 23 2 22 3 21 4 20 5 18 6 19 7 17 9 4 10 5 11 6 12 16 13
REMARK SMILES IDX 2 14 1 15 3 16 7 17 8 18 15 19 9 20 12 21 11 22 10 23 13 24
REMARK SMILES IDX 14 25 25 26 26 27 27 28 28 29 29 31 30 32 31 33 89 34 32 35
REMARK SMILES IDX 88 36 33 37 34 38 35 39 82 40 36 41 87 42 81 43 83 44 37 45
REMARK SMILES IDX 86 46 80 47 79 48 38 50 68 51 49 52 67 53 50 54 53 55 66 56
REMARK SMILES IDX 84 57 51 58 52 59 65 61 85 62 54 63 39 64 40 65 48 66 41 67
REMARK SMILES IDX 47 68 42 69 43 70 44 71 45 72 46 73 69 74 70 75 78 76 71 77
REMARK SMILES IDX 77 78 72 79 73 80 74 81 75 82 76 83 55 84 56 85 64 86 57 87
REMARK SMILES IDX 63 88 58 89 59 90 60 91 61 92 62 93
REMARK H PARENT 20 8 27 30 83 49 53 60
REMARK Flexibility Score: inf
ROOT
ATOM      1  C   UNL A   1      34.578  30.876  28.104  1.00  0.00     0.002 C 
ENDROOT
BRANCH   1   2
ATOM      2  C   UNL A   1      34.774  29.555  27.357  1.00  0.00     0.002 C 
BRANCH   2   3
ATOM      3  C   UNL A   1      33.642  29.161  26.404  1.00  0.00     0.021 C 
BRANCH   3   4
ATOM      4  C   UNL A   1      32.331  28.716  27.068  1.00  0.00     0.116 C 
BRANCH   4   5
ATOM      5  N   UNL A   1      31.428  28.181  26.071  1.00  0.00    -0.351 N 
ATOM      6  C   UNL A   1      31.436  27.199  25.116  1.00  0.00     0.263 C 
ATOM      7  O   UNL A   1      30.367  27.196  24.485  1.00  0.00    -0.268 OA
ATOM      8  H   UNL A   1      30.565  28.656  26.083  1.00  0.00     0.163 HD
BRANCH   6   9
ATOM      9  C   UNL A   1      32.489  26.221  24.838  1.00  0.00     0.117 A 
ATOM     10  C   UNL A   1      33.385  25.861  23.825  1.00  0.00     0.069 A 
ATOM     11  N   UNL A   1      34.228  24.788  24.155  1.00  0.00    -0.224 NA
ATOM     12  C   UNL A   1      33.883  24.204  25.269  1.00  0.00     0.186 A 
ATOM     13  S   UNL A   1      32.644  25.020  26.110  1.00  0.00    -0.091 S 
BRANCH  10  14
ATOM     14  C   UNL A   1      33.589  26.395  22.423  1.00  0.00     0.034 C 
ATOM     15  C   UNL A   1      32.480  25.957  21.444  1.00  0.00     0.014 C 
ATOM     16  C   UNL A   1      33.629  27.921  22.381  1.00  0.00     0.014 C 
ENDBRANCH  10  14
BRANCH  12  17
ATOM     17  N   UNL A   1      34.447  23.070  25.751  1.00  0.00    -0.343 N 
ATOM     18  C   UNL A   1      33.710  21.807  25.713  1.00  0.00     0.150 C 
ATOM     19  C   UNL A   1      35.900  22.946  25.860  1.00  0.00     0.153 C 
ATOM     20  C   UNL A   1      34.311  20.889  24.631  1.00  0.00     0.135 C 
ATOM     21  C   UNL A   1      36.491  21.887  24.887  1.00  0.00     0.081 C 
ATOM     22  O   UNL A   1      35.712  20.667  24.872  1.00  0.00    -0.369 OA
ATOM     23  C   UNL A   1      33.633  19.525  24.627  1.00  0.00     0.040 C 
ATOM     24  C   UNL A   1      36.652  22.438  23.465  1.00  0.00     0.044 C 
ATOM     25  C   UNL A   1      37.878  21.468  25.399  1.00  0.00     0.044 C 
ENDBRANCH  12  17
ENDBRANCH   6   9
ENDBRANCH   4   5
ENDBRANCH   3   4
ENDBRANCH   2   3
ENDBRANCH   1   2
BRANCH   1  26
ATOM     26  C   UNL A   1      34.087  32.057  27.260  1.00  0.00     0.021 C 
BRANCH  26  27
ATOM     27  C   UNL A   1      32.737  32.648  27.672  1.00  0.00     0.116 C 
BRANCH  27  28
ATOM     28  N   UNL A   1      32.787  34.096  27.794  1.00  0.00    -0.352 N 
ATOM     29  C   UNL A   1      33.530  34.887  28.631  1.00  0.00     0.251 C 
ATOM     30  H   UNL A   1      32.193  34.584  27.180  1.00  0.00     0.163 HD
ATOM     31  O   UNL A   1      33.247  36.082  28.741  1.00  0.00    -0.269 OA
BRANCH  29  32
ATOM     32  C   UNL A   1      34.660  34.328  29.404  1.00  0.00     0.039 A 
ATOM     33  C   UNL A   1      34.398  33.686  30.618  1.00  0.00     0.014 A 
ATOM     34  C   UNL A   1      35.980  34.485  28.972  1.00  0.00     0.014 A 
ATOM     35  C   UNL A   1      35.450  33.160  31.372  1.00  0.00     0.010 A 
ATOM     36  C   UNL A   1      37.025  33.907  29.693  1.00  0.00     0.010 A 
ATOM     37  C   UNL A   1      36.772  33.244  30.905  1.00  0.00    -0.014 A 
BRANCH  37  38
ATOM     38  C   UNL A   1      37.900  32.650  31.670  1.00  0.00     0.031 A 
ATOM     39  C   UNL A   1      38.623  31.440  31.139  1.00  0.00     0.074 A 
ATOM     40  C   UNL A   1      38.235  33.163  32.871  1.00  0.00     0.049 A 
ATOM     41  N   UNL A   1      39.582  30.744  31.694  1.00  0.00    -0.248 NA
ATOM     42  C   UNL A   1      38.197  30.932  29.825  1.00  0.00     0.031 C 
ATOM     43  C   UNL A   1      37.590  34.313  33.510  1.00  0.00     0.029 A 
ATOM     44  N   UNL A   1      39.195  32.778  33.773  1.00  0.00    -0.354 N 
ATOM     45  C   UNL A   1      39.861  29.709  30.809  1.00  0.00     0.074 A 
ATOM     46  C   UNL A   1      38.942  29.843  29.700  1.00  0.00     0.031 C 
ATOM     47  C   UNL A   1      38.186  34.550  34.690  1.00  0.00     0.029 A 
ATOM     48  C   UNL A   1      39.225  33.549  34.911  1.00  0.00     0.049 A 
ATOM     49  H   UNL A   1      39.804  32.020  33.619  1.00  0.00     0.167 HD
ATOM     50  C   UNL A   1      40.809  28.743  30.901  1.00  0.00     0.031 A 
ATOM     51  C   UNL A   1      39.996  33.459  36.012  1.00  0.00     0.031 A 
ATOM     52  C   UNL A   1      41.731  28.621  31.999  1.00  0.00     0.049 A 
ATOM     53  C   UNL A   1      41.036  32.376  36.094  1.00  0.00     0.074 A 
ATOM     54  C   UNL A   1      42.761  27.709  32.158  1.00  0.00     0.029 A 
ATOM     55  N   UNL A   1      41.739  29.432  33.122  1.00  0.00    -0.354 N 
ATOM     56  N   UNL A   1      41.322  31.441  35.219  1.00  0.00    -0.248 NA
ATOM     57  C   UNL A   1      41.867  32.342  37.306  1.00  0.00     0.031 C 
ATOM     58  C   UNL A   1      43.360  27.940  33.401  1.00  0.00     0.029 A 
ATOM     59  C   UNL A   1      42.741  29.031  33.990  1.00  0.00     0.049 A 
ATOM     60  H   UNL A   1      41.122  30.183  33.281  1.00  0.00     0.167 HD
ATOM     61  C   UNL A   1      42.385  30.728  35.761  1.00  0.00     0.074 A 
ATOM     62  C   UNL A   1      42.698  31.346  37.034  1.00  0.00     0.031 C 
ATOM     63  C   UNL A   1      43.043  29.658  35.251  1.00  0.00     0.031 A 
BRANCH  50  64
ATOM     64  C   UNL A   1      40.891  27.736  29.784  1.00  0.00    -0.014 A 
ATOM     65  C   UNL A   1      39.864  26.796  29.574  1.00  0.00     0.010 A 
ATOM     66  C   UNL A   1      41.986  27.757  28.901  1.00  0.00     0.010 A 
ATOM     67  C   UNL A   1      39.952  25.872  28.529  1.00  0.00     0.020 A 
ATOM     68  C   UNL A   1      42.064  26.853  27.838  1.00  0.00     0.020 A 
ATOM     69  C   UNL A   1      41.053  25.903  27.670  1.00  0.00     0.054 A 
BRANCH  69  70
ATOM     70  S   UNL A   1      41.129  24.707  26.309  1.00  0.00     0.124 S 
ATOM     71  O   UNL A   1      41.205  25.584  25.143  1.00  0.00    -0.237 OA
ATOM     72  O   UNL A   1      42.344  23.955  26.609  1.00  0.00    -0.237 OA
ATOM     73  O   UNL A   1      39.885  23.952  26.440  1.00  0.00    -0.744 OA
ENDBRANCH  69  70
ENDBRANCH  50  64
BRANCH  51  74
ATOM     74  C   UNL A   1      39.820  34.433  37.125  1.00  0.00    -0.014 A 
ATOM     75  C   UNL A   1      40.518  35.653  37.122  1.00  0.00     0.010 A 
ATOM     76  C   UNL A   1      38.942  34.149  38.187  1.00  0.00     0.010 A 
ATOM     77  C   UNL A   1      40.357  36.564  38.171  1.00  0.00     0.020 A 
ATOM     78  C   UNL A   1      38.758  35.069  39.223  1.00  0.00     0.020 A 
ATOM     79  C   UNL A   1      39.476  36.266  39.214  1.00  0.00     0.054 A 
BRANCH  79  80
ATOM     80  S   UNL A   1      39.245  37.485  40.539  1.00  0.00     0.124 S 
ATOM     81  O   UNL A   1      38.903  36.636  41.676  1.00  0.00    -0.237 OA
ATOM     82  O   UNL A   1      40.552  38.133  40.603  1.00  0.00    -0.237 OA
ATOM     83  O   UNL A   1      38.163  38.330  40.039  1.00  0.00    -0.744 OA
ENDBRANCH  79  80
ENDBRANCH  51  74
BRANCH  63  84
ATOM     84  C   UNL A   1      44.196  29.108  36.047  1.00  0.00    -0.014 A 
ATOM     85  C   UNL A   1      45.483  29.664  35.948  1.00  0.00     0.010 A 
ATOM     86  C   UNL A   1      43.972  28.055  36.953  1.00  0.00     0.010 A 
ATOM     87  C   UNL A   1      46.532  29.157  36.719  1.00  0.00     0.020 A 
ATOM     88  C   UNL A   1      45.011  27.563  37.746  1.00  0.00     0.020 A 
ATOM     89  C   UNL A   1      46.289  28.109  37.614  1.00  0.00     0.054 A 
BRANCH  89  90
ATOM     90  S   UNL A   1      47.656  27.499  38.639  1.00  0.00     0.124 S 
ATOM     91  O   UNL A   1      48.696  27.253  37.643  1.00  0.00    -0.237 OA
ATOM     92  O   UNL A   1      47.905  28.620  39.543  1.00  0.00    -0.237 OA
ATOM     93  O   UNL A   1      47.106  26.304  39.275  1.00  0.00    -0.744 OA
ENDBRANCH  89  90
ENDBRANCH  63  84
ENDBRANCH  37  38
ENDBRANCH  29  32
ENDBRANCH  27  28
ENDBRANCH  26  27
ENDBRANCH   1  26
TORSDOF 18
ENDMDL
