MODEL 1
REMARK VINA RESULT:     -11.9      0.000      0.000
REMARK SMILES Cc1ccc2[nH]c(C(=O)NCCCCCCNC(=O)c3ccc(-c4c5nc(c(-c6ccc(S(=O)(=O)[O-])cc6)c6ccc([nH]6)c(-c6ccc(S(=O)(=O)[O-])cc6)c6nc(c(-c7ccc(S(=O)(=O)[O-])cc7)c7ccc4[nH]7)C=C6)C=C5)cc3)c(NC(=O)[C@H]3C[C@H]3c3ccccc3)c2c1
REMARK SMILES IDX 13 1 12 2 11 3 10 4 8 5 9 6 7 8 1 9 2 10 3 11 94 12 4 13
REMARK SMILES IDX 93 14 5 15 80 16 6 17 81 19 82 20 83 22 84 23 85 24 86 25
REMARK SMILES IDX 87 26 88 27 92 28 89 29 91 30 90 31 14 32 15 33 16 34 17 35
REMARK SMILES IDX 18 36 19 38 20 39 21 40 79 41 22 42 78 43 23 44 24 45 25 46
REMARK SMILES IDX 72 47 26 48 77 49 71 50 73 51 27 52 76 53 70 54 69 55 28 57
REMARK SMILES IDX 58 58 39 59 57 60 40 61 43 62 56 63 74 64 41 65 42 66 55 68
REMARK SMILES IDX 75 69 44 70 29 71 30 72 38 73 31 74 37 75 32 76 33 77 34 78
REMARK SMILES IDX 35 79 36 80 59 81 60 82 68 83 61 84 67 85 62 86 63 87 64 88
REMARK SMILES IDX 65 89 66 90 45 91 46 92 54 93 47 94 53 95 48 96 49 97 50 98
REMARK SMILES IDX 51 99 52 100
REMARK H PARENT 10 7 6 18 81 21 17 37 73 56 43 67
REMARK Flexibility Score: inf
ROOT
ATOM      1  C   UNL A   1      32.882  31.178  27.189  1.00  0.00     0.002 C 
ENDROOT
BRANCH   1   2
ATOM      2  C   UNL A   1      32.126  30.001  26.576  1.00  0.00     0.021 C 
BRANCH   2   3
ATOM      3  C   UNL A   1      32.800  29.252  25.413  1.00  0.00     0.116 C 
BRANCH   3   4
ATOM      4  N   UNL A   1      32.301  29.380  24.039  1.00  0.00    -0.351 N 
ATOM      5  C   UNL A   1      31.221  28.824  23.380  1.00  0.00     0.269 C 
ATOM      6  O   UNL A   1      30.645  29.525  22.544  1.00  0.00    -0.268 OA
ATOM      7  H   UNL A   1      32.843  29.980  23.476  1.00  0.00     0.163 HD
BRANCH   5   8
ATOM      8  C   UNL A   1      30.772  27.489  23.630  1.00  0.00     0.129 A 
ATOM      9  C   UNL A   1      31.652  22.823  27.141  1.00  0.00     0.044 C 
ATOM     10  C   UNL A   1      30.921  23.796  26.247  1.00  0.00    -0.050 A 
ATOM     11  C   UNL A   1      29.717  24.331  26.715  1.00  0.00     0.005 A 
ATOM     12  C   UNL A   1      31.483  24.274  25.027  1.00  0.00     0.016 A 
ATOM     13  C   UNL A   1      29.135  25.434  26.096  1.00  0.00     0.027 A 
ATOM     14  C   UNL A   1      30.924  25.417  24.382  1.00  0.00     0.024 A 
ATOM     15  C   UNL A   1      29.827  26.005  25.021  1.00  0.00     0.048 A 
ATOM     16  C   UNL A   1      31.152  26.241  23.193  1.00  0.00     0.080 A 
ATOM     17  N   UNL A   1      29.663  27.228  24.417  1.00  0.00    -0.349 N 
ATOM     18  H   UNL A   1      28.884  27.822  24.526  1.00  0.00     0.167 HD
BRANCH  16  19
ATOM     19  N   UNL A   1      31.788  25.925  21.999  1.00  0.00    -0.323 N 
ATOM     20  C   UNL A   1      32.951  25.210  21.654  1.00  0.00     0.228 C 
ATOM     21  H   UNL A   1      31.316  26.282  21.214  1.00  0.00     0.170 HD
ATOM     22  O   UNL A   1      33.106  25.007  20.445  1.00  0.00    -0.274 OA
BRANCH  20  23
ATOM     23  C   UNL A   1      34.168  24.993  22.505  1.00  0.00     0.087 C 
ATOM     24  C   UNL A   1      34.481  24.842  23.937  1.00  0.00     0.023 C 
ATOM     25  C   UNL A   1      34.613  23.600  23.085  1.00  0.00     0.032 C 
BRANCH  25  26
ATOM     26  C   UNL A   1      33.929  22.335  23.704  1.00  0.00    -0.044 A 
ATOM     27  C   UNL A   1      34.429  21.619  24.824  1.00  0.00     0.004 A 
ATOM     28  C   UNL A   1      32.832  21.715  23.064  1.00  0.00     0.004 A 
ATOM     29  C   UNL A   1      33.857  20.424  25.300  1.00  0.00     0.000 A 
ATOM     30  C   UNL A   1      32.270  20.500  23.516  1.00  0.00     0.000 A 
ATOM     31  C   UNL A   1      32.777  19.859  24.641  1.00  0.00     0.000 A 
ENDBRANCH  25  26
ENDBRANCH  20  23
ENDBRANCH  16  19
ENDBRANCH   5   8
ENDBRANCH   3   4
ENDBRANCH   2   3
ENDBRANCH   1   2
BRANCH   1  32
ATOM     32  C   UNL A   1      34.264  30.860  27.755  1.00  0.00     0.002 C 
BRANCH  32  33
ATOM     33  C   UNL A   1      35.226  32.044  27.735  1.00  0.00     0.021 C 
BRANCH  33  34
ATOM     34  C   UNL A   1      35.943  32.309  29.057  1.00  0.00     0.116 C 
BRANCH  34  35
ATOM     35  N   UNL A   1      35.648  31.315  30.087  1.00  0.00    -0.352 N 
ATOM     36  C   UNL A   1      36.450  30.293  30.566  1.00  0.00     0.251 C 
ATOM     37  H   UNL A   1      34.756  31.382  30.498  1.00  0.00     0.163 HD
ATOM     38  O   UNL A   1      36.034  29.449  31.323  1.00  0.00    -0.269 OA
BRANCH  36  39
ATOM     39  C   UNL A   1      37.849  30.267  30.083  1.00  0.00     0.039 A 
ATOM     40  C   UNL A   1      38.895  30.408  30.995  1.00  0.00     0.014 A 
ATOM     41  C   UNL A   1      38.091  29.919  28.754  1.00  0.00     0.014 A 
ATOM     42  C   UNL A   1      40.194  30.094  30.588  1.00  0.00     0.010 A 
ATOM     43  C   UNL A   1      39.358  29.492  28.392  1.00  0.00     0.010 A 
ATOM     44  C   UNL A   1      40.426  29.578  29.302  1.00  0.00    -0.014 A 
BRANCH  44  45
ATOM     45  C   UNL A   1      41.776  29.131  28.868  1.00  0.00     0.031 A 
ATOM     46  C   UNL A   1      42.900  30.132  28.811  1.00  0.00     0.074 A 
ATOM     47  C   UNL A   1      41.971  27.865  28.448  1.00  0.00     0.049 A 
ATOM     48  N   UNL A   1      44.125  29.974  28.383  1.00  0.00    -0.248 NA
ATOM     49  C   UNL A   1      42.591  31.504  29.248  1.00  0.00     0.031 C 
ATOM     50  C   UNL A   1      40.946  26.818  28.391  1.00  0.00     0.029 A 
ATOM     51  N   UNL A   1      43.101  27.241  27.981  1.00  0.00    -0.354 N 
ATOM     52  C   UNL A   1      44.717  31.229  28.473  1.00  0.00     0.074 A 
ATOM     53  C   UNL A   1      43.697  32.150  28.916  1.00  0.00     0.031 C 
ATOM     54  C   UNL A   1      41.505  25.676  27.959  1.00  0.00     0.029 A 
ATOM     55  C   UNL A   1      42.915  25.916  27.664  1.00  0.00     0.049 A 
ATOM     56  H   UNL A   1      43.966  27.701  27.882  1.00  0.00     0.167 HD
ATOM     57  C   UNL A   1      46.003  31.580  28.242  1.00  0.00     0.031 A 
ATOM     58  C   UNL A   1      43.779  24.997  27.191  1.00  0.00     0.031 A 
ATOM     59  C   UNL A   1      47.018  30.653  27.826  1.00  0.00     0.049 A 
ATOM     60  C   UNL A   1      45.210  25.402  26.955  1.00  0.00     0.074 A 
ATOM     61  C   UNL A   1      48.367  30.884  27.630  1.00  0.00     0.029 A 
ATOM     62  N   UNL A   1      46.793  29.313  27.545  1.00  0.00    -0.354 N 
ATOM     63  N   UNL A   1      45.771  26.577  27.120  1.00  0.00    -0.248 NA
ATOM     64  C   UNL A   1      46.127  24.356  26.482  1.00  0.00     0.031 C 
ATOM     65  C   UNL A   1      48.948  29.696  27.175  1.00  0.00     0.029 A 
ATOM     66  C   UNL A   1      47.974  28.708  27.153  1.00  0.00     0.049 A 
ATOM     67  H   UNL A   1      45.922  28.859  27.614  1.00  0.00     0.167 HD
ATOM     68  C   UNL A   1      47.113  26.405  26.799  1.00  0.00     0.074 A 
ATOM     69  C   UNL A   1      47.281  25.010  26.444  1.00  0.00     0.031 C 
ATOM     70  C   UNL A   1      48.117  27.318  26.801  1.00  0.00     0.031 A 
BRANCH  57  71
ATOM     71  C   UNL A   1      46.368  33.030  28.437  1.00  0.00    -0.014 A 
ATOM     72  C   UNL A   1      46.797  33.512  29.689  1.00  0.00     0.010 A 
ATOM     73  C   UNL A   1      46.281  33.924  27.357  1.00  0.00     0.010 A 
ATOM     74  C   UNL A   1      47.068  34.870  29.872  1.00  0.00     0.020 A 
ATOM     75  C   UNL A   1      46.589  35.278  27.525  1.00  0.00     0.020 A 
ATOM     76  C   UNL A   1      46.958  35.745  28.788  1.00  0.00     0.054 A 
BRANCH  76  77
ATOM     77  S   UNL A   1      47.323  37.501  29.052  1.00  0.00     0.124 S 
ATOM     78  O   UNL A   1      48.323  37.444  30.116  1.00  0.00    -0.237 OA
ATOM     79  O   UNL A   1      47.821  37.926  27.746  1.00  0.00    -0.237 OA
ATOM     80  O   UNL A   1      46.035  38.070  29.439  1.00  0.00    -0.744 OA
ENDBRANCH  76  77
ENDBRANCH  57  71
BRANCH  58  81
ATOM     81  C   UNL A   1      43.321  23.601  26.943  1.00  0.00    -0.014 A 
ATOM     82  C   UNL A   1      43.116  23.138  25.630  1.00  0.00     0.010 A 
ATOM     83  C   UNL A   1      43.118  22.714  28.016  1.00  0.00     0.010 A 
ATOM     84  C   UNL A   1      42.709  21.820  25.396  1.00  0.00     0.020 A 
ATOM     85  C   UNL A   1      42.740  21.387  27.785  1.00  0.00     0.020 A 
ATOM     86  C   UNL A   1      42.531  20.950  26.476  1.00  0.00     0.054 A 
BRANCH  86  87
ATOM     87  S   UNL A   1      42.074  19.225  26.143  1.00  0.00     0.124 S 
ATOM     88  O   UNL A   1      42.443  18.565  27.392  1.00  0.00    -0.237 OA
ATOM     89  O   UNL A   1      40.641  19.326  25.878  1.00  0.00    -0.237 OA
ATOM     90  O   UNL A   1      42.891  18.873  24.983  1.00  0.00    -0.744 OA
ENDBRANCH  86  87
ENDBRANCH  58  81
BRANCH  70  91
ATOM     91  C   UNL A   1      49.496  26.834  26.438  1.00  0.00    -0.014 A 
ATOM     92  C   UNL A   1      50.364  26.306  27.408  1.00  0.00     0.010 A 
ATOM     93  C   UNL A   1      49.898  26.846  25.089  1.00  0.00     0.010 A 
ATOM     94  C   UNL A   1      51.623  25.825  27.039  1.00  0.00     0.020 A 
ATOM     95  C   UNL A   1      51.141  26.337  24.713  1.00  0.00     0.020 A 
ATOM     96  C   UNL A   1      52.003  25.842  25.693  1.00  0.00     0.054 A 
BRANCH  96  97
ATOM     97  S   UNL A   1      53.623  25.168  25.236  1.00  0.00     0.124 S 
ATOM     98  O   UNL A   1      54.474  25.667  26.312  1.00  0.00    -0.237 OA
ATOM     99  O   UNL A   1      53.382  23.727  25.241  1.00  0.00    -0.237 OA
ATOM    100  O   UNL A   1      53.880  25.747  23.919  1.00  0.00    -0.744 OA
ENDBRANCH  96  97
ENDBRANCH  70  91
ENDBRANCH  44  45
ENDBRANCH  36  39
ENDBRANCH  34  35
ENDBRANCH  33  34
ENDBRANCH  32  33
ENDBRANCH   1  32
TORSDOF 19
ENDMDL
MODEL 2
REMARK VINA RESULT:     -11.6      1.245      8.192
REMARK SMILES Cc1ccc2[nH]c(C(=O)NCCCCCCNC(=O)c3ccc(-c4c5nc(c(-c6ccc(S(=O)(=O)[O-])cc6)c6ccc([nH]6)c(-c6ccc(S(=O)(=O)[O-])cc6)c6nc(c(-c7ccc(S(=O)(=O)[O-])cc7)c7ccc4[nH]7)C=C6)C=C5)cc3)c(NC(=O)[C@H]3C[C@H]3c3ccccc3)c2c1
REMARK SMILES IDX 13 1 12 2 11 3 10 4 8 5 9 6 7 8 1 9 2 10 3 11 94 12 4 13
REMARK SMILES IDX 93 14 5 15 80 16 6 17 81 19 82 20 83 22 84 23 85 24 86 25
REMARK SMILES IDX 87 26 88 27 92 28 89 29 91 30 90 31 14 32 15 33 16 34 17 35
REMARK SMILES IDX 18 36 19 38 20 39 21 40 79 41 22 42 78 43 23 44 24 45 25 46
REMARK SMILES IDX 72 47 26 48 77 49 71 50 73 51 27 52 76 53 70 54 69 55 28 57
REMARK SMILES IDX 58 58 39 59 57 60 40 61 43 62 56 63 74 64 41 65 42 66 55 68
REMARK SMILES IDX 75 69 44 70 29 71 30 72 38 73 31 74 37 75 32 76 33 77 34 78
REMARK SMILES IDX 35 79 36 80 59 81 60 82 68 83 61 84 67 85 62 86 63 87 64 88
REMARK SMILES IDX 65 89 66 90 45 91 46 92 54 93 47 94 53 95 48 96 49 97 50 98
REMARK SMILES IDX 51 99 52 100
REMARK H PARENT 10 7 6 18 81 21 17 37 73 56 43 67
REMARK Flexibility Score: inf
ROOT
ATOM      1  C   UNL A   1      31.845  28.164  26.501  1.00  0.00     0.002 C 
ENDROOT
BRANCH   1   2
ATOM      2  C   UNL A   1      31.597  29.399  25.637  1.00  0.00     0.021 C 
BRANCH   2   3
ATOM      3  C   UNL A   1      32.287  29.454  24.262  1.00  0.00     0.116 C 
BRANCH   3   4
ATOM      4  N   UNL A   1      31.609  28.970  23.054  1.00  0.00    -0.351 N 
ATOM      5  C   UNL A   1      31.010  27.765  22.736  1.00  0.00     0.269 C 
ATOM      6  O   UNL A   1      30.004  27.803  22.022  1.00  0.00    -0.268 OA
ATOM      7  H   UNL A   1      31.573  29.634  22.328  1.00  0.00     0.163 HD
BRANCH   5   8
ATOM      8  C   UNL A   1      31.520  26.509  23.193  1.00  0.00     0.129 A 
ATOM      9  C   UNL A   1      31.794  20.773  21.822  1.00  0.00     0.044 C 
ATOM     10  C   UNL A   1      32.208  22.104  22.402  1.00  0.00    -0.050 A 
ATOM     11  C   UNL A   1      33.495  22.568  22.113  1.00  0.00     0.005 A 
ATOM     12  C   UNL A   1      31.293  22.941  23.106  1.00  0.00     0.016 A 
ATOM     13  C   UNL A   1      33.851  23.891  22.359  1.00  0.00     0.027 A 
ATOM     14  C   UNL A   1      31.619  24.308  23.351  1.00  0.00     0.024 A 
ATOM     15  C   UNL A   1      32.858  24.740  22.863  1.00  0.00     0.048 A 
ATOM     16  C   UNL A   1      31.030  25.493  23.980  1.00  0.00     0.080 A 
ATOM     17  N   UNL A   1      32.820  26.111  22.929  1.00  0.00    -0.349 N 
ATOM     18  H   UNL A   1      33.591  26.712  22.808  1.00  0.00     0.167 HD
BRANCH  16  19
ATOM     19  N   UNL A   1      30.058  25.586  24.967  1.00  0.00    -0.323 N 
ATOM     20  C   UNL A   1      29.835  24.948  26.203  1.00  0.00     0.228 C 
ATOM     21  H   UNL A   1      29.366  26.252  24.754  1.00  0.00     0.170 HD
ATOM     22  O   UNL A   1      28.923  25.426  26.886  1.00  0.00    -0.274 OA
BRANCH  20  23
ATOM     23  C   UNL A   1      30.302  23.583  26.616  1.00  0.00     0.087 C 
ATOM     24  C   UNL A   1      30.902  22.399  25.976  1.00  0.00     0.023 C 
ATOM     25  C   UNL A   1      31.804  23.200  26.887  1.00  0.00     0.032 C 
BRANCH  25  26
ATOM     26  C   UNL A   1      33.206  23.516  26.267  1.00  0.00    -0.044 A 
ATOM     27  C   UNL A   1      34.161  22.532  25.895  1.00  0.00     0.004 A 
ATOM     28  C   UNL A   1      33.686  24.844  26.192  1.00  0.00     0.004 A 
ATOM     29  C   UNL A   1      35.456  22.839  25.437  1.00  0.00     0.000 A 
ATOM     30  C   UNL A   1      34.995  25.160  25.763  1.00  0.00     0.000 A 
ATOM     31  C   UNL A   1      35.877  24.157  25.376  1.00  0.00     0.000 A 
ENDBRANCH  25  26
ENDBRANCH  20  23
ENDBRANCH  16  19
ENDBRANCH   5   8
ENDBRANCH   3   4
ENDBRANCH   2   3
ENDBRANCH   1   2
BRANCH   1  32
ATOM     32  C   UNL A   1      33.086  28.211  27.389  1.00  0.00     0.002 C 
BRANCH  32  33
ATOM     33  C   UNL A   1      33.845  29.533  27.319  1.00  0.00     0.021 C 
BRANCH  33  34
ATOM     34  C   UNL A   1      35.277  29.478  27.850  1.00  0.00     0.116 C 
BRANCH  34  35
ATOM     35  N   UNL A   1      35.440  30.128  29.148  1.00  0.00    -0.352 N 
ATOM     36  C   UNL A   1      36.542  30.130  29.988  1.00  0.00     0.251 C 
ATOM     37  H   UNL A   1      34.660  30.635  29.470  1.00  0.00     0.163 HD
ATOM     38  O   UNL A   1      36.499  30.591  31.103  1.00  0.00    -0.269 OA
BRANCH  36  39
ATOM     39  C   UNL A   1      37.778  29.513  29.460  1.00  0.00     0.039 A 
ATOM     40  C   UNL A   1      38.117  29.688  28.118  1.00  0.00     0.014 A 
ATOM     41  C   UNL A   1      38.668  28.925  30.358  1.00  0.00     0.014 A 
ATOM     42  C   UNL A   1      39.408  29.361  27.697  1.00  0.00     0.010 A 
ATOM     43  C   UNL A   1      39.981  28.719  29.965  1.00  0.00     0.010 A 
ATOM     44  C   UNL A   1      40.366  28.929  28.629  1.00  0.00    -0.014 A 
BRANCH  44  45
ATOM     45  C   UNL A   1      41.778  28.675  28.242  1.00  0.00     0.031 A 
ATOM     46  C   UNL A   1      42.189  27.287  27.826  1.00  0.00     0.074 A 
ATOM     47  C   UNL A   1      42.699  29.654  28.345  1.00  0.00     0.049 A 
ATOM     48  N   UNL A   1      43.379  26.831  27.532  1.00  0.00    -0.248 NA
ATOM     49  C   UNL A   1      41.129  26.265  27.781  1.00  0.00     0.031 C 
ATOM     50  C   UNL A   1      42.441  31.023  28.800  1.00  0.00     0.029 A 
ATOM     51  N   UNL A   1      44.046  29.648  28.078  1.00  0.00    -0.354 N 
ATOM     52  C   UNL A   1      43.210  25.471  27.299  1.00  0.00     0.074 A 
ATOM     53  C   UNL A   1      41.824  25.161  27.564  1.00  0.00     0.031 C 
ATOM     54  C   UNL A   1      43.580  31.732  28.739  1.00  0.00     0.029 A 
ATOM     55  C   UNL A   1      44.660  30.861  28.285  1.00  0.00     0.049 A 
ATOM     56  H   UNL A   1      44.528  28.847  27.767  1.00  0.00     0.167 HD
ATOM     57  C   UNL A   1      44.118  24.564  26.868  1.00  0.00     0.031 A 
ATOM     58  C   UNL A   1      45.946  31.232  28.125  1.00  0.00     0.031 A 
ATOM     59  C   UNL A   1      45.488  24.884  26.581  1.00  0.00     0.049 A 
ATOM     60  C   UNL A   1      46.938  30.213  27.630  1.00  0.00     0.074 A 
ATOM     61  C   UNL A   1      46.477  24.062  26.074  1.00  0.00     0.029 A 
ATOM     62  N   UNL A   1      46.061  26.133  26.777  1.00  0.00    -0.354 N 
ATOM     63  N   UNL A   1      46.744  28.949  27.339  1.00  0.00    -0.248 NA
ATOM     64  C   UNL A   1      48.318  30.674  27.429  1.00  0.00     0.031 C 
ATOM     65  C   UNL A   1      47.664  24.799  26.015  1.00  0.00     0.029 A 
ATOM     66  C   UNL A   1      47.398  26.098  26.422  1.00  0.00     0.049 A 
ATOM     67  H   UNL A   1      45.588  26.926  27.116  1.00  0.00     0.167 HD
ATOM     68  C   UNL A   1      47.970  28.469  26.893  1.00  0.00     0.074 A 
ATOM     69  C   UNL A   1      48.895  29.584  26.940  1.00  0.00     0.031 C 
ATOM     70  C   UNL A   1      48.302  27.220  26.479  1.00  0.00     0.031 A 
BRANCH  57  71
ATOM     71  C   UNL A   1      43.642  23.144  26.686  1.00  0.00    -0.014 A 
ATOM     72  C   UNL A   1      43.115  22.408  27.765  1.00  0.00     0.010 A 
ATOM     73  C   UNL A   1      43.725  22.536  25.423  1.00  0.00     0.010 A 
ATOM     74  C   UNL A   1      42.741  21.073  27.598  1.00  0.00     0.020 A 
ATOM     75  C   UNL A   1      43.315  21.211  25.242  1.00  0.00     0.020 A 
ATOM     76  C   UNL A   1      42.848  20.482  26.336  1.00  0.00     0.054 A 
BRANCH  76  77
ATOM     77  S   UNL A   1      42.348  18.749  26.146  1.00  0.00     0.124 S 
ATOM     78  O   UNL A   1      42.483  18.245  27.511  1.00  0.00    -0.237 OA
ATOM     79  O   UNL A   1      40.978  18.863  25.653  1.00  0.00    -0.237 OA
ATOM     80  O   UNL A   1      43.309  18.213  25.187  1.00  0.00    -0.744 OA
ENDBRANCH  76  77
ENDBRANCH  57  71
BRANCH  58  81
ATOM     81  C   UNL A   1      46.356  32.636  28.407  1.00  0.00    -0.014 A 
ATOM     82  C   UNL A   1      46.288  33.617  27.400  1.00  0.00     0.010 A 
ATOM     83  C   UNL A   1      46.787  33.012  29.692  1.00  0.00     0.010 A 
ATOM     84  C   UNL A   1      46.650  34.941  27.671  1.00  0.00     0.020 A 
ATOM     85  C   UNL A   1      47.122  34.340  29.975  1.00  0.00     0.020 A 
ATOM     86  C   UNL A   1      47.057  35.295  28.960  1.00  0.00     0.054 A 
BRANCH  86  87
ATOM     87  S   UNL A   1      47.452  37.033  29.305  1.00  0.00     0.124 S 
ATOM     88  O   UNL A   1      48.083  36.948  30.619  1.00  0.00    -0.237 OA
ATOM     89  O   UNL A   1      48.339  37.380  28.198  1.00  0.00    -0.237 OA
ATOM     90  O   UNL A   1      46.148  37.692  29.278  1.00  0.00    -0.744 OA
ENDBRANCH  86  87
ENDBRANCH  58  81
BRANCH  70  91
ATOM     91  C   UNL A   1      49.715  26.996  26.012  1.00  0.00    -0.014 A 
ATOM     92  C   UNL A   1      50.701  26.496  26.879  1.00  0.00     0.010 A 
ATOM     93  C   UNL A   1      50.039  27.226  24.662  1.00  0.00     0.010 A 
ATOM     94  C   UNL A   1      51.996  26.258  26.409  1.00  0.00     0.020 A 
ATOM     95  C   UNL A   1      51.322  26.959  24.182  1.00  0.00     0.020 A 
ATOM     96  C   UNL A   1      52.297  26.490  25.064  1.00  0.00     0.054 A 
BRANCH  96  97
ATOM     97  S   UNL A   1      53.972  26.126  24.470  1.00  0.00     0.124 S 
ATOM     98  O   UNL A   1      54.165  24.753  24.930  1.00  0.00    -0.237 OA
ATOM     99  O   UNL A   1      53.842  26.293  23.025  1.00  0.00    -0.237 OA
ATOM    100  O   UNL A   1      54.801  27.129  25.136  1.00  0.00    -0.744 OA
ENDBRANCH  96  97
ENDBRANCH  70  91
ENDBRANCH  44  45
ENDBRANCH  36  39
ENDBRANCH  34  35
ENDBRANCH  33  34
ENDBRANCH  32  33
ENDBRANCH   1  32
TORSDOF 19
ENDMDL
MODEL 3
REMARK VINA RESULT:     -11.5      6.318      8.518
REMARK SMILES Cc1ccc2[nH]c(C(=O)NCCCCCCNC(=O)c3ccc(-c4c5nc(c(-c6ccc(S(=O)(=O)[O-])cc6)c6ccc([nH]6)c(-c6ccc(S(=O)(=O)[O-])cc6)c6nc(c(-c7ccc(S(=O)(=O)[O-])cc7)c7ccc4[nH]7)C=C6)C=C5)cc3)c(NC(=O)[C@H]3C[C@H]3c3ccccc3)c2c1
REMARK SMILES IDX 13 1 12 2 11 3 10 4 8 5 9 6 7 8 1 9 2 10 3 11 94 12 4 13
REMARK SMILES IDX 93 14 5 15 80 16 6 17 81 19 82 20 83 22 84 23 85 24 86 25
REMARK SMILES IDX 87 26 88 27 92 28 89 29 91 30 90 31 14 32 15 33 16 34 17 35
REMARK SMILES IDX 18 36 19 38 20 39 21 40 79 41 22 42 78 43 23 44 24 45 25 46
REMARK SMILES IDX 72 47 26 48 77 49 71 50 73 51 27 52 76 53 70 54 69 55 28 57
REMARK SMILES IDX 58 58 39 59 57 60 40 61 43 62 56 63 74 64 41 65 42 66 55 68
REMARK SMILES IDX 75 69 44 70 29 71 30 72 38 73 31 74 37 75 32 76 33 77 34 78
REMARK SMILES IDX 35 79 36 80 59 81 60 82 68 83 61 84 67 85 62 86 63 87 64 88
REMARK SMILES IDX 65 89 66 90 45 91 46 92 54 93 47 94 53 95 48 96 49 97 50 98
REMARK SMILES IDX 51 99 52 100
REMARK H PARENT 10 7 6 18 81 21 17 37 73 56 43 67
REMARK Flexibility Score: inf
ROOT
ATOM      1  C   UNL A   1      35.944  31.465  27.775  1.00  0.00     0.002 C 
ENDROOT
BRANCH   1   2
ATOM      2  C   UNL A   1      35.639  29.969  27.794  1.00  0.00     0.021 C 
BRANCH   2   3
ATOM      3  C   UNL A   1      34.429  29.480  26.977  1.00  0.00     0.116 C 
BRANCH   3   4
ATOM      4  N   UNL A   1      33.180  29.083  27.636  1.00  0.00    -0.351 N 
ATOM      5  C   UNL A   1      32.202  28.161  27.312  1.00  0.00     0.269 C 
ATOM      6  O   UNL A   1      31.665  27.554  28.242  1.00  0.00    -0.268 OA
ATOM      7  H   UNL A   1      33.003  29.569  28.474  1.00  0.00     0.163 HD
BRANCH   5   8
ATOM      8  C   UNL A   1      31.803  27.907  25.962  1.00  0.00     0.129 A 
ATOM      9  C   UNL A   1      27.767  29.366  21.907  1.00  0.00     0.044 C 
ATOM     10  C   UNL A   1      29.095  28.932  22.481  1.00  0.00    -0.050 A 
ATOM     11  C   UNL A   1      30.240  29.613  22.057  1.00  0.00     0.005 A 
ATOM     12  C   UNL A   1      29.190  27.962  23.521  1.00  0.00     0.016 A 
ATOM     13  C   UNL A   1      31.446  29.477  22.739  1.00  0.00     0.027 A 
ATOM     14  C   UNL A   1      30.405  27.817  24.254  1.00  0.00     0.024 A 
ATOM     15  C   UNL A   1      31.450  28.671  23.884  1.00  0.00     0.048 A 
ATOM     16  C   UNL A   1      30.946  27.018  25.356  1.00  0.00     0.080 A 
ATOM     17  N   UNL A   1      32.375  28.579  24.895  1.00  0.00    -0.349 N 
ATOM     18  H   UNL A   1      33.294  28.933  24.865  1.00  0.00     0.167 HD
BRANCH  16  19
ATOM     19  N   UNL A   1      30.558  25.770  25.825  1.00  0.00    -0.323 N 
ATOM     20  C   UNL A   1      30.722  24.446  25.374  1.00  0.00     0.228 C 
ATOM     21  H   UNL A   1      30.052  25.823  26.667  1.00  0.00     0.170 HD
ATOM     22  O   UNL A   1      30.359  23.570  26.166  1.00  0.00    -0.274 OA
BRANCH  20  23
ATOM     23  C   UNL A   1      30.929  23.989  23.960  1.00  0.00     0.087 C 
ATOM     24  C   UNL A   1      31.815  24.318  22.829  1.00  0.00     0.023 C 
ATOM     25  C   UNL A   1      32.052  22.985  23.503  1.00  0.00     0.032 C 
BRANCH  25  26
ATOM     26  C   UNL A   1      33.555  22.705  23.837  1.00  0.00    -0.044 A 
ATOM     27  C   UNL A   1      34.652  23.340  23.196  1.00  0.00     0.004 A 
ATOM     28  C   UNL A   1      33.923  21.651  24.704  1.00  0.00     0.004 A 
ATOM     29  C   UNL A   1      35.997  22.998  23.436  1.00  0.00     0.000 A 
ATOM     30  C   UNL A   1      35.268  21.280  24.928  1.00  0.00     0.000 A 
ATOM     31  C   UNL A   1      36.306  21.962  24.301  1.00  0.00     0.000 A 
ENDBRANCH  25  26
ENDBRANCH  20  23
ENDBRANCH  16  19
ENDBRANCH   5   8
ENDBRANCH   3   4
ENDBRANCH   2   3
ENDBRANCH   1   2
BRANCH   1  32
ATOM     32  C   UNL A   1      35.606  32.229  29.053  1.00  0.00     0.002 C 
BRANCH  32  33
ATOM     33  C   UNL A   1      34.271  32.967  28.996  1.00  0.00     0.021 C 
BRANCH  33  34
ATOM     34  C   UNL A   1      34.362  34.475  29.220  1.00  0.00     0.116 C 
BRANCH  34  35
ATOM     35  N   UNL A   1      33.287  35.004  30.057  1.00  0.00    -0.352 N 
ATOM     36  C   UNL A   1      33.148  34.949  31.434  1.00  0.00     0.251 C 
ATOM     37  H   UNL A   1      32.562  35.464  29.575  1.00  0.00     0.163 HD
ATOM     38  O   UNL A   1      32.139  35.303  31.993  1.00  0.00    -0.269 OA
BRANCH  36  39
ATOM     39  C   UNL A   1      34.297  34.407  32.194  1.00  0.00     0.039 A 
ATOM     40  C   UNL A   1      34.297  33.066  32.578  1.00  0.00     0.014 A 
ATOM     41  C   UNL A   1      35.431  35.204  32.348  1.00  0.00     0.014 A 
ATOM     42  C   UNL A   1      35.488  32.492  33.029  1.00  0.00     0.010 A 
ATOM     43  C   UNL A   1      36.635  34.600  32.677  1.00  0.00     0.010 A 
ATOM     44  C   UNL A   1      36.678  33.240  33.026  1.00  0.00    -0.014 A 
BRANCH  44  45
ATOM     45  C   UNL A   1      37.984  32.635  33.396  1.00  0.00     0.031 A 
ATOM     46  C   UNL A   1      38.551  32.888  34.768  1.00  0.00     0.074 A 
ATOM     47  C   UNL A   1      38.695  31.941  32.484  1.00  0.00     0.049 A 
ATOM     48  N   UNL A   1      39.707  32.528  35.263  1.00  0.00    -0.248 NA
ATOM     49  C   UNL A   1      37.730  33.692  35.689  1.00  0.00     0.031 C 
ATOM     50  C   UNL A   1      38.286  31.684  31.099  1.00  0.00     0.029 A 
ATOM     51  N   UNL A   1      39.919  31.326  32.582  1.00  0.00    -0.354 N 
ATOM     52  C   UNL A   1      39.758  33.087  36.535  1.00  0.00     0.074 A 
ATOM     53  C   UNL A   1      38.558  33.874  36.704  1.00  0.00     0.031 C 
ATOM     54  C   UNL A   1      39.220  30.932  30.495  1.00  0.00     0.029 A 
ATOM     55  C   UNL A   1      40.315  30.688  31.429  1.00  0.00     0.049 A 
ATOM     56  H   UNL A   1      40.463  31.341  33.403  1.00  0.00     0.167 HD
ATOM     57  C   UNL A   1      40.701  32.933  37.493  1.00  0.00     0.031 A 
ATOM     58  C   UNL A   1      41.431  29.985  31.156  1.00  0.00     0.031 A 
ATOM     59  C   UNL A   1      41.879  32.128  37.328  1.00  0.00     0.049 A 
ATOM     60  C   UNL A   1      42.462  29.811  32.239  1.00  0.00     0.074 A 
ATOM     61  C   UNL A   1      42.865  31.844  38.254  1.00  0.00     0.029 A 
ATOM     62  N   UNL A   1      42.227  31.474  36.154  1.00  0.00    -0.354 N 
ATOM     63  N   UNL A   1      42.457  30.282  33.464  1.00  0.00    -0.248 NA
ATOM     64  C   UNL A   1      43.641  29.000  31.909  1.00  0.00     0.031 C 
ATOM     65  C   UNL A   1      43.840  31.064  37.623  1.00  0.00     0.029 A 
ATOM     66  C   UNL A   1      43.426  30.806  36.324  1.00  0.00     0.049 A 
ATOM     67  H   UNL A   1      41.698  31.484  35.323  1.00  0.00     0.167 HD
ATOM     68  C   UNL A   1      43.617  29.801  34.061  1.00  0.00     0.074 A 
ATOM     69  C   UNL A   1      44.291  28.992  33.066  1.00  0.00     0.031 C 
ATOM     70  C   UNL A   1      44.082  30.008  35.319  1.00  0.00     0.031 A 
BRANCH  57  71
ATOM     71  C   UNL A   1      40.483  33.655  38.799  1.00  0.00    -0.014 A 
ATOM     72  C   UNL A   1      39.821  33.033  39.876  1.00  0.00     0.010 A 
ATOM     73  C   UNL A   1      40.943  34.974  38.953  1.00  0.00     0.010 A 
ATOM     74  C   UNL A   1      39.568  33.736  41.055  1.00  0.00     0.020 A 
ATOM     75  C   UNL A   1      40.725  35.670  40.146  1.00  0.00     0.020 A 
ATOM     76  C   UNL A   1      40.019  35.054  41.180  1.00  0.00     0.054 A 
BRANCH  76  77
ATOM     77  S   UNL A   1      39.682  35.940  42.725  1.00  0.00     0.124 S 
ATOM     78  O   UNL A   1      40.672  35.358  43.629  1.00  0.00    -0.237 OA
ATOM     79  O   UNL A   1      39.915  37.333  42.353  1.00  0.00    -0.237 OA
ATOM     80  O   UNL A   1      38.293  35.603  43.025  1.00  0.00    -0.744 OA
ENDBRANCH  76  77
ENDBRANCH  57  71
BRANCH  58  81
ATOM     81  C   UNL A   1      41.613  29.370  29.811  1.00  0.00    -0.014 A 
ATOM     82  C   UNL A   1      42.293  30.064  28.793  1.00  0.00     0.010 A 
ATOM     83  C   UNL A   1      41.137  28.073  29.548  1.00  0.00     0.010 A 
ATOM     84  C   UNL A   1      42.485  29.476  27.537  1.00  0.00     0.020 A 
ATOM     85  C   UNL A   1      41.352  27.470  28.304  1.00  0.00     0.020 A 
ATOM     86  C   UNL A   1      42.020  28.179  27.304  1.00  0.00     0.054 A 
BRANCH  86  87
ATOM     87  S   UNL A   1      42.345  27.411  25.692  1.00  0.00     0.124 S 
ATOM     88  O   UNL A   1      43.675  26.842  25.887  1.00  0.00    -0.237 OA
ATOM     89  O   UNL A   1      41.254  26.446  25.578  1.00  0.00    -0.237 OA
ATOM     90  O   UNL A   1      42.273  28.533  24.758  1.00  0.00    -0.744 OA
ENDBRANCH  86  87
ENDBRANCH  58  81
BRANCH  70  91
ATOM     91  C   UNL A   1      45.365  29.323  35.706  1.00  0.00    -0.014 A 
ATOM     92  C   UNL A   1      46.612  29.936  35.498  1.00  0.00     0.010 A 
ATOM     93  C   UNL A   1      45.312  28.074  36.353  1.00  0.00     0.010 A 
ATOM     94  C   UNL A   1      47.787  29.296  35.904  1.00  0.00     0.020 A 
ATOM     95  C   UNL A   1      46.480  27.448  36.788  1.00  0.00     0.020 A 
ATOM     96  C   UNL A   1      47.713  28.057  36.548  1.00  0.00     0.054 A 
BRANCH  96  97
ATOM     97  S   UNL A   1      49.249  27.273  37.107  1.00  0.00     0.124 S 
ATOM     98  O   UNL A   1      49.394  26.176  36.154  1.00  0.00    -0.237 OA
ATOM     99  O   UNL A   1      50.225  28.352  36.978  1.00  0.00    -0.237 OA
ATOM    100  O   UNL A   1      48.953  26.869  38.480  1.00  0.00    -0.744 OA
ENDBRANCH  96  97
ENDBRANCH  70  91
ENDBRANCH  44  45
ENDBRANCH  36  39
ENDBRANCH  34  35
ENDBRANCH  33  34
ENDBRANCH  32  33
ENDBRANCH   1  32
TORSDOF 19
ENDMDL
