MODEL 1
REMARK VINA RESULT:      -8.6      0.000      0.000
REMARK SMILES C[C@@H](C(=O)NCCCCCCNC(=O)c1ccc(-c2c3nc(c(-c4ccc(S(=O)(=O)[O-])cc4)c4ccc([nH]4)c(-c4ccc(S(=O)(=O)[O-])cc4)c4nc(c(-c5ccc(S(=O)(=O)[O-])cc5)c5ccc2[nH]5)C=C4)C=C3)cc1)c1ccc(-c2cccc(OC(=O)NCCC3CCCCC3)c2)c(F)c1
REMARK SMILES IDX 6 1 5 2 3 3 4 4 2 6 1 7 75 8 76 9 99 10 77 11 97 12 78 13
REMARK SMILES IDX 98 14 79 15 80 16 96 17 81 18 83 19 82 20 84 21 85 22 86 23
REMARK SMILES IDX 87 24 88 26 89 27 90 28 91 29 95 30 92 31 94 32 93 33 7 34
REMARK SMILES IDX 8 35 9 36 10 37 11 38 12 39 13 40 14 42 15 43 16 44 74 45
REMARK SMILES IDX 17 46 73 47 18 48 19 49 20 50 67 51 21 52 72 53 66 54 68 55
REMARK SMILES IDX 22 56 71 57 65 58 64 59 23 61 53 62 34 63 52 64 35 65 38 66
REMARK SMILES IDX 51 67 69 68 36 69 37 70 50 72 70 73 39 74 24 75 25 76 33 77
REMARK SMILES IDX 26 78 32 79 27 80 28 81 29 82 30 83 31 84 54 85 55 86 63 87
REMARK SMILES IDX 56 88 62 89 57 90 58 91 59 92 60 93 61 94 40 95 41 96 49 97
REMARK SMILES IDX 42 98 48 99 43 100 44 101 45 102 46 103 47 104
REMARK H PARENT 5 5 87 25 12 41 68 60 38 71
REMARK Flexibility Score: inf
ROOT
ATOM      1  C   UNL A   1      36.645  33.887  31.662  1.00  0.00     0.116 C 
ENDROOT
BRANCH   1   2
ATOM      2  N   UNL A   1      37.640  34.544  32.483  1.00  0.00    -0.356 N 
ATOM      3  C   UNL A   1      37.923  34.347  33.804  1.00  0.00     0.227 C 
ATOM      4  O   UNL A   1      38.504  35.261  34.390  1.00  0.00    -0.274 OA
ATOM      5  H   UNL A   1      38.186  35.225  32.027  1.00  0.00     0.163 HD
BRANCH   3   6
ATOM      6  C   UNL A   1      37.551  33.005  34.462  1.00  0.00     0.105 C 
ATOM      7  C   UNL A   1      37.044  33.260  35.890  1.00  0.00     0.023 C 
BRANCH   6   8
ATOM      8  C   UNL A   1      38.680  31.970  34.427  1.00  0.00    -0.033 A 
ATOM      9  C   UNL A   1      39.849  32.130  35.194  1.00  0.00     0.005 A 
ATOM     10  C   UNL A   1      38.604  30.844  33.596  1.00  0.00     0.044 A 
ATOM     11  C   UNL A   1      40.856  31.157  35.202  1.00  0.00     0.012 A 
ATOM     12  C   UNL A   1      39.608  29.885  33.602  1.00  0.00     0.131 A 
ATOM     13  C   UNL A   1      40.744  30.012  34.408  1.00  0.00     0.018 A 
ATOM     14  F   UNL A   1      39.464  28.822  32.794  1.00  0.00    -0.206 F 
BRANCH  13  15
ATOM     15  C   UNL A   1      41.821  29.024  34.335  1.00  0.00    -0.012 A 
ATOM     16  C   UNL A   1      41.797  27.940  33.449  1.00  0.00     0.009 A 
ATOM     17  C   UNL A   1      42.924  29.171  35.189  1.00  0.00     0.056 A 
ATOM     18  C   UNL A   1      42.858  27.031  33.417  1.00  0.00     0.004 A 
ATOM     19  C   UNL A   1      43.967  28.256  35.178  1.00  0.00     0.133 A 
ATOM     20  C   UNL A   1      43.944  27.188  34.282  1.00  0.00     0.047 A 
BRANCH  19  21
ATOM     21  O   UNL A   1      45.085  28.332  36.043  1.00  0.00    -0.410 OA
BRANCH  21  22
ATOM     22  C   UNL A   1      45.029  28.116  37.418  1.00  0.00     0.412 C 
ATOM     23  O   UNL A   1      44.619  28.892  38.275  1.00  0.00    -0.224 OA
ATOM     24  N   UNL A   1      45.462  26.883  37.802  1.00  0.00    -0.321 N 
ATOM     25  H   UNL A   1      45.400  26.683  38.764  1.00  0.00     0.167 HD
BRANCH  24  26
ATOM     26  C   UNL A   1      46.001  25.834  36.971  1.00  0.00     0.119 C 
BRANCH  26  27
ATOM     27  C   UNL A   1      45.457  24.468  37.386  1.00  0.00     0.025 C 
BRANCH  27  28
ATOM     28  C   UNL A   1      44.853  23.642  36.229  1.00  0.00    -0.009 C 
ATOM     29  C   UNL A   1      43.460  24.153  35.823  1.00  0.00     0.003 C 
ATOM     30  C   UNL A   1      45.810  23.651  35.026  1.00  0.00     0.003 C 
ATOM     31  C   UNL A   1      42.899  23.403  34.617  1.00  0.00     0.000 C 
ATOM     32  C   UNL A   1      45.235  22.884  33.839  1.00  0.00     0.000 C 
ATOM     33  C   UNL A   1      43.866  23.423  33.440  1.00  0.00     0.000 C 
ENDBRANCH  27  28
ENDBRANCH  26  27
ENDBRANCH  24  26
ENDBRANCH  21  22
ENDBRANCH  19  21
ENDBRANCH  13  15
ENDBRANCH   6   8
ENDBRANCH   3   6
ENDBRANCH   1   2
BRANCH   1  34
ATOM     34  C   UNL A   1      37.320  32.822  30.791  1.00  0.00     0.021 C 
BRANCH  34  35
ATOM     35  C   UNL A   1      37.450  33.223  29.317  1.00  0.00     0.002 C 
BRANCH  35  36
ATOM     36  C   UNL A   1      36.301  34.084  28.792  1.00  0.00     0.002 C 
BRANCH  36  37
ATOM     37  C   UNL A   1      35.207  33.302  28.062  1.00  0.00     0.021 C 
BRANCH  37  38
ATOM     38  C   UNL A   1      34.374  32.396  28.963  1.00  0.00     0.116 C 
BRANCH  38  39
ATOM     39  N   UNL A   1      33.859  31.247  28.238  1.00  0.00    -0.352 N 
ATOM     40  C   UNL A   1      34.528  30.163  27.731  1.00  0.00     0.251 C 
ATOM     41  H   UNL A   1      32.886  31.246  28.090  1.00  0.00     0.163 HD
ATOM     42  O   UNL A   1      33.960  29.414  26.941  1.00  0.00    -0.269 OA
BRANCH  40  43
ATOM     43  C   UNL A   1      35.931  29.907  28.119  1.00  0.00     0.039 A 
ATOM     44  C   UNL A   1      36.195  29.453  29.413  1.00  0.00     0.014 A 
ATOM     45  C   UNL A   1      36.986  30.132  27.229  1.00  0.00     0.014 A 
ATOM     46  C   UNL A   1      37.509  29.179  29.796  1.00  0.00     0.010 A 
ATOM     47  C   UNL A   1      38.288  29.787  27.587  1.00  0.00     0.010 A 
ATOM     48  C   UNL A   1      38.563  29.310  28.876  1.00  0.00    -0.014 A 
BRANCH  48  49
ATOM     49  C   UNL A   1      39.947  28.925  29.258  1.00  0.00     0.031 A 
ATOM     50  C   UNL A   1      40.829  29.877  30.020  1.00  0.00     0.074 A 
ATOM     51  C   UNL A   1      40.414  27.711  28.899  1.00  0.00     0.049 A 
ATOM     52  N   UNL A   1      42.053  29.697  30.450  1.00  0.00    -0.248 NA
ATOM     53  C   UNL A   1      40.279  31.207  30.325  1.00  0.00     0.031 C 
ATOM     54  C   UNL A   1      39.673  26.718  28.114  1.00  0.00     0.029 A 
ATOM     55  N   UNL A   1      41.616  27.101  29.148  1.00  0.00    -0.354 N 
ATOM     56  C   UNL A   1      42.414  30.882  31.080  1.00  0.00     0.074 A 
ATOM     57  C   UNL A   1      41.305  31.798  30.922  1.00  0.00     0.031 C 
ATOM     58  C   UNL A   1      40.422  25.613  27.981  1.00  0.00     0.029 A 
ATOM     59  C   UNL A   1      41.710  25.831  28.631  1.00  0.00     0.049 A 
ATOM     60  H   UNL A   1      42.344  27.532  29.653  1.00  0.00     0.167 HD
ATOM     61  C   UNL A   1      43.553  31.173  31.753  1.00  0.00     0.031 A 
ATOM     62  C   UNL A   1      42.720  24.940  28.667  1.00  0.00     0.031 A 
ATOM     63  C   UNL A   1      44.657  30.261  31.905  1.00  0.00     0.049 A 
ATOM     64  C   UNL A   1      43.983  25.299  29.401  1.00  0.00     0.074 A 
ATOM     65  C   UNL A   1      45.842  30.453  32.598  1.00  0.00     0.029 A 
ATOM     66  N   UNL A   1      44.716  28.987  31.362  1.00  0.00    -0.354 N 
ATOM     67  N   UNL A   1      44.275  26.404  30.047  1.00  0.00    -0.248 NA
ATOM     68  C   UNL A   1      45.046  24.287  29.425  1.00  0.00     0.031 C 
ATOM     69  C   UNL A   1      46.638  29.317  32.425  1.00  0.00     0.029 A 
ATOM     70  C   UNL A   1      45.925  28.391  31.683  1.00  0.00     0.049 A 
ATOM     71  H   UNL A   1      44.004  28.568  30.827  1.00  0.00     0.167 HD
ATOM     72  C   UNL A   1      45.549  26.207  30.573  1.00  0.00     0.074 A 
ATOM     73  C   UNL A   1      45.952  24.868  30.198  1.00  0.00     0.031 C 
ATOM     74  C   UNL A   1      46.317  27.059  31.295  1.00  0.00     0.031 A 
BRANCH  61  75
ATOM     75  C   UNL A   1      43.664  32.535  32.391  1.00  0.00    -0.014 A 
ATOM     76  C   UNL A   1      43.326  32.726  33.744  1.00  0.00     0.010 A 
ATOM     77  C   UNL A   1      44.188  33.616  31.660  1.00  0.00     0.010 A 
ATOM     78  C   UNL A   1      43.487  33.975  34.346  1.00  0.00     0.020 A 
ATOM     79  C   UNL A   1      44.378  34.862  32.266  1.00  0.00     0.020 A 
ATOM     80  C   UNL A   1      44.018  35.035  33.604  1.00  0.00     0.054 A 
BRANCH  80  81
ATOM     81  S   UNL A   1      44.270  36.630  34.432  1.00  0.00     0.124 S 
ATOM     82  O   UNL A   1      44.092  37.573  33.331  1.00  0.00    -0.237 OA
ATOM     83  O   UNL A   1      43.215  36.635  35.441  1.00  0.00    -0.237 OA
ATOM     84  O   UNL A   1      45.631  36.537  34.958  1.00  0.00    -0.744 OA
ENDBRANCH  80  81
ENDBRANCH  61  75
BRANCH  62  85
ATOM     85  C   UNL A   1      42.588  23.626  27.978  1.00  0.00    -0.014 A 
ATOM     86  C   UNL A   1      42.030  22.515  28.636  1.00  0.00     0.010 A 
ATOM     87  C   UNL A   1      43.045  23.474  26.655  1.00  0.00     0.010 A 
ATOM     88  C   UNL A   1      41.974  21.270  28.002  1.00  0.00     0.020 A 
ATOM     89  C   UNL A   1      42.957  22.241  26.005  1.00  0.00     0.020 A 
ATOM     90  C   UNL A   1      42.441  21.141  26.690  1.00  0.00     0.054 A 
BRANCH  90  91
ATOM     91  S   UNL A   1      42.345  19.520  25.881  1.00  0.00     0.124 S 
ATOM     92  O   UNL A   1      40.948  19.471  25.465  1.00  0.00    -0.237 OA
ATOM     93  O   UNL A   1      43.325  19.647  24.804  1.00  0.00    -0.237 OA
ATOM     94  O   UNL A   1      42.716  18.587  26.942  1.00  0.00    -0.744 OA
ENDBRANCH  90  91
ENDBRANCH  62  85
BRANCH  74  95
ATOM     95  C   UNL A   1      47.662  26.554  31.748  1.00  0.00    -0.014 A 
ATOM     96  C   UNL A   1      48.812  26.728  30.957  1.00  0.00     0.010 A 
ATOM     97  C   UNL A   1      47.780  25.910  32.993  1.00  0.00     0.010 A 
ATOM     98  C   UNL A   1      50.044  26.219  31.377  1.00  0.00     0.020 A 
ATOM     99  C   UNL A   1      49.017  25.430  33.434  1.00  0.00     0.020 A 
ATOM    100  C   UNL A   1      50.137  25.569  32.611  1.00  0.00     0.054 A 
BRANCH 100 101
ATOM    101  S   UNL A   1      51.749  24.927  33.139  1.00  0.00     0.124 S 
ATOM    102  O   UNL A   1      51.398  23.598  33.633  1.00  0.00    -0.237 OA
ATOM    103  O   UNL A   1      52.524  24.952  31.901  1.00  0.00    -0.237 OA
ATOM    104  O   UNL A   1      52.184  25.876  34.161  1.00  0.00    -0.744 OA
ENDBRANCH 100 101
ENDBRANCH  74  95
ENDBRANCH  48  49
ENDBRANCH  40  43
ENDBRANCH  38  39
ENDBRANCH  37  38
ENDBRANCH  36  37
ENDBRANCH  35  36
ENDBRANCH  34  35
ENDBRANCH   1  34
TORSDOF 23
ENDMDL
MODEL 2
REMARK VINA RESULT:      -7.5      1.268      2.086
REMARK SMILES C[C@@H](C(=O)NCCCCCCNC(=O)c1ccc(-c2c3nc(c(-c4ccc(S(=O)(=O)[O-])cc4)c4ccc([nH]4)c(-c4ccc(S(=O)(=O)[O-])cc4)c4nc(c(-c5ccc(S(=O)(=O)[O-])cc5)c5ccc2[nH]5)C=C4)C=C3)cc1)c1ccc(-c2cccc(OC(=O)NCCC3CCCCC3)c2)c(F)c1
REMARK SMILES IDX 6 1 5 2 3 3 4 4 2 6 1 7 75 8 76 9 99 10 77 11 97 12 78 13
REMARK SMILES IDX 98 14 79 15 80 16 96 17 81 18 83 19 82 20 84 21 85 22 86 23
REMARK SMILES IDX 87 24 88 26 89 27 90 28 91 29 95 30 92 31 94 32 93 33 7 34
REMARK SMILES IDX 8 35 9 36 10 37 11 38 12 39 13 40 14 42 15 43 16 44 74 45
REMARK SMILES IDX 17 46 73 47 18 48 19 49 20 50 67 51 21 52 72 53 66 54 68 55
REMARK SMILES IDX 22 56 71 57 65 58 64 59 23 61 53 62 34 63 52 64 35 65 38 66
REMARK SMILES IDX 51 67 69 68 36 69 37 70 50 72 70 73 39 74 24 75 25 76 33 77
REMARK SMILES IDX 26 78 32 79 27 80 28 81 29 82 30 83 31 84 54 85 55 86 63 87
REMARK SMILES IDX 56 88 62 89 57 90 58 91 59 92 60 93 61 94 40 95 41 96 49 97
REMARK SMILES IDX 42 98 48 99 43 100 44 101 45 102 46 103 47 104
REMARK H PARENT 5 5 87 25 12 41 68 60 38 71
REMARK Flexibility Score: inf
ROOT
ATOM      1  C   UNL A   1      36.850  33.046  31.733  1.00  0.00     0.116 C 
ENDROOT
BRANCH   1   2
ATOM      2  N   UNL A   1      37.768  33.945  32.401  1.00  0.00    -0.356 N 
ATOM      3  C   UNL A   1      38.053  34.039  33.732  1.00  0.00     0.227 C 
ATOM      4  O   UNL A   1      38.537  35.102  34.124  1.00  0.00    -0.274 OA
ATOM      5  H   UNL A   1      38.251  34.572  31.816  1.00  0.00     0.163 HD
BRANCH   3   6
ATOM      6  C   UNL A   1      37.804  32.823  34.644  1.00  0.00     0.105 C 
ATOM      7  C   UNL A   1      37.400  33.310  36.045  1.00  0.00     0.023 C 
BRANCH   6   8
ATOM      8  C   UNL A   1      38.977  31.840  34.692  1.00  0.00    -0.033 A 
ATOM      9  C   UNL A   1      39.119  30.815  33.737  1.00  0.00     0.005 A 
ATOM     10  C   UNL A   1      39.932  31.901  35.717  1.00  0.00     0.044 A 
ATOM     11  C   UNL A   1      40.221  29.952  33.750  1.00  0.00     0.012 A 
ATOM     12  C   UNL A   1      41.019  31.037  35.730  1.00  0.00     0.131 A 
ATOM     13  C   UNL A   1      41.195  30.057  34.748  1.00  0.00     0.018 A 
ATOM     14  F   UNL A   1      41.905  31.162  36.732  1.00  0.00    -0.206 F 
BRANCH  13  15
ATOM     15  C   UNL A   1      42.308  29.111  34.832  1.00  0.00    -0.012 A 
ATOM     16  C   UNL A   1      43.603  29.496  35.201  1.00  0.00     0.009 A 
ATOM     17  C   UNL A   1      42.066  27.764  34.530  1.00  0.00     0.056 A 
ATOM     18  C   UNL A   1      44.627  28.548  35.273  1.00  0.00     0.004 A 
ATOM     19  C   UNL A   1      43.087  26.824  34.574  1.00  0.00     0.133 A 
ATOM     20  C   UNL A   1      44.370  27.211  34.958  1.00  0.00     0.047 A 
BRANCH  19  21
ATOM     21  O   UNL A   1      42.910  25.459  34.243  1.00  0.00    -0.410 OA
BRANCH  21  22
ATOM     22  C   UNL A   1      42.286  24.526  35.069  1.00  0.00     0.412 C 
ATOM     23  O   UNL A   1      41.388  24.735  35.878  1.00  0.00    -0.224 OA
ATOM     24  N   UNL A   1      42.738  23.252  34.903  1.00  0.00    -0.321 N 
ATOM     25  H   UNL A   1      42.291  22.561  35.444  1.00  0.00     0.167 HD
BRANCH  24  26
ATOM     26  C   UNL A   1      43.791  22.791  34.032  1.00  0.00     0.119 C 
BRANCH  26  27
ATOM     27  C   UNL A   1      44.902  22.106  34.826  1.00  0.00     0.025 C 
BRANCH  27  28
ATOM     28  C   UNL A   1      46.221  22.908  34.903  1.00  0.00    -0.009 C 
ATOM     29  C   UNL A   1      46.334  23.704  36.213  1.00  0.00     0.003 C 
ATOM     30  C   UNL A   1      47.419  21.960  34.734  1.00  0.00     0.003 C 
ATOM     31  C   UNL A   1      47.676  24.422  36.338  1.00  0.00     0.000 C 
ATOM     32  C   UNL A   1      48.748  22.702  34.847  1.00  0.00     0.000 C 
ATOM     33  C   UNL A   1      48.848  23.464  36.163  1.00  0.00     0.000 C 
ENDBRANCH  27  28
ENDBRANCH  26  27
ENDBRANCH  24  26
ENDBRANCH  21  22
ENDBRANCH  19  21
ENDBRANCH  13  15
ENDBRANCH   6   8
ENDBRANCH   3   6
ENDBRANCH   1   2
BRANCH   1  34
ATOM     34  C   UNL A   1      37.399  32.686  30.348  1.00  0.00     0.021 C 
BRANCH  34  35
ATOM     35  C   UNL A   1      37.626  33.899  29.440  1.00  0.00     0.002 C 
BRANCH  35  36
ATOM     36  C   UNL A   1      36.347  34.493  28.847  1.00  0.00     0.002 C 
BRANCH  36  37
ATOM     37  C   UNL A   1      35.460  33.483  28.118  1.00  0.00     0.021 C 
BRANCH  37  38
ATOM     38  C   UNL A   1      34.581  32.639  29.037  1.00  0.00     0.116 C 
BRANCH  38  39
ATOM     39  N   UNL A   1      33.880  31.599  28.302  1.00  0.00    -0.352 N 
ATOM     40  C   UNL A   1      34.365  30.436  27.762  1.00  0.00     0.251 C 
ATOM     41  H   UNL A   1      32.916  31.752  28.175  1.00  0.00     0.163 HD
ATOM     42  O   UNL A   1      33.673  29.801  26.971  1.00  0.00    -0.269 OA
BRANCH  40  43
ATOM     43  C   UNL A   1      35.718  29.958  28.116  1.00  0.00     0.039 A 
ATOM     44  C   UNL A   1      36.720  30.005  27.144  1.00  0.00     0.014 A 
ATOM     45  C   UNL A   1      35.998  29.444  29.386  1.00  0.00     0.014 A 
ATOM     46  C   UNL A   1      38.011  29.582  27.462  1.00  0.00     0.010 A 
ATOM     47  C   UNL A   1      37.305  29.094  29.725  1.00  0.00     0.010 A 
ATOM     48  C   UNL A   1      38.324  29.156  28.765  1.00  0.00    -0.014 A 
BRANCH  48  49
ATOM     49  C   UNL A   1      39.721  28.800  29.124  1.00  0.00     0.031 A 
ATOM     50  C   UNL A   1      40.608  29.784  29.839  1.00  0.00     0.074 A 
ATOM     51  C   UNL A   1      40.197  27.583  28.786  1.00  0.00     0.049 A 
ATOM     52  N   UNL A   1      41.844  29.631  30.245  1.00  0.00    -0.248 NA
ATOM     53  C   UNL A   1      40.047  31.114  30.122  1.00  0.00     0.031 C 
ATOM     54  C   UNL A   1      39.451  26.560  28.046  1.00  0.00     0.029 A 
ATOM     55  N   UNL A   1      41.413  26.996  29.023  1.00  0.00    -0.354 N 
ATOM     56  C   UNL A   1      42.203  30.837  30.835  1.00  0.00     0.074 A 
ATOM     57  C   UNL A   1      41.078  31.734  30.679  1.00  0.00     0.031 C 
ATOM     58  C   UNL A   1      40.213  25.461  27.924  1.00  0.00     0.029 A 
ATOM     59  C   UNL A   1      41.512  25.714  28.537  1.00  0.00     0.049 A 
ATOM     60  H   UNL A   1      42.147  27.450  29.498  1.00  0.00     0.167 HD
ATOM     61  C   UNL A   1      43.353  31.162  31.473  1.00  0.00     0.031 A 
ATOM     62  C   UNL A   1      42.535  24.838  28.572  1.00  0.00     0.031 A 
ATOM     63  C   UNL A   1      44.473  30.269  31.623  1.00  0.00     0.049 A 
ATOM     64  C   UNL A   1      43.810  25.233  29.267  1.00  0.00     0.074 A 
ATOM     65  C   UNL A   1      45.671  30.494  32.281  1.00  0.00     0.029 A 
ATOM     66  N   UNL A   1      44.537  28.981  31.112  1.00  0.00    -0.354 N 
ATOM     67  N   UNL A   1      44.102  26.358  29.877  1.00  0.00    -0.248 NA
ATOM     68  C   UNL A   1      44.887  24.235  29.293  1.00  0.00     0.031 C 
ATOM     69  C   UNL A   1      46.479  29.365  32.120  1.00  0.00     0.029 A 
ATOM     70  C   UNL A   1      45.761  28.410  31.420  1.00  0.00     0.049 A 
ATOM     71  H   UNL A   1      43.819  28.538  30.605  1.00  0.00     0.167 HD
ATOM     72  C   UNL A   1      45.389  26.192  30.377  1.00  0.00     0.074 A 
ATOM     73  C   UNL A   1      45.803  24.849  30.028  1.00  0.00     0.031 C 
ATOM     74  C   UNL A   1      46.163  27.074  31.058  1.00  0.00     0.031 A 
BRANCH  61  75
ATOM     75  C   UNL A   1      43.460  32.541  32.072  1.00  0.00    -0.014 A 
ATOM     76  C   UNL A   1      43.697  33.664  31.257  1.00  0.00     0.010 A 
ATOM     77  C   UNL A   1      43.242  32.731  33.448  1.00  0.00     0.010 A 
ATOM     78  C   UNL A   1      43.736  34.945  31.809  1.00  0.00     0.020 A 
ATOM     79  C   UNL A   1      43.252  34.016  34.002  1.00  0.00     0.020 A 
ATOM     80  C   UNL A   1      43.507  35.114  33.178  1.00  0.00     0.054 A 
BRANCH  80  81
ATOM     81  S   UNL A   1      43.506  36.798  33.854  1.00  0.00     0.124 S 
ATOM     82  O   UNL A   1      44.571  36.724  34.852  1.00  0.00    -0.237 OA
ATOM     83  O   UNL A   1      43.803  37.613  32.679  1.00  0.00    -0.237 OA
ATOM     84  O   UNL A   1      42.157  36.955  34.394  1.00  0.00    -0.744 OA
ENDBRANCH  80  81
ENDBRANCH  61  75
BRANCH  62  85
ATOM     85  C   UNL A   1      42.405  23.504  27.922  1.00  0.00    -0.014 A 
ATOM     86  C   UNL A   1      42.143  22.349  28.681  1.00  0.00     0.010 A 
ATOM     87  C   UNL A   1      42.568  23.380  26.529  1.00  0.00     0.010 A 
ATOM     88  C   UNL A   1      42.090  21.094  28.067  1.00  0.00     0.020 A 
ATOM     89  C   UNL A   1      42.479  22.133  25.907  1.00  0.00     0.020 A 
ATOM     90  C   UNL A   1      42.262  20.994  26.683  1.00  0.00     0.054 A 
BRANCH  90  91
ATOM     91  S   UNL A   1      42.176  19.358  25.904  1.00  0.00     0.124 S 
ATOM     92  O   UNL A   1      42.698  18.494  26.957  1.00  0.00    -0.237 OA
ATOM     93  O   UNL A   1      40.751  19.220  25.616  1.00  0.00    -0.237 OA
ATOM     94  O   UNL A   1      43.030  19.496  24.726  1.00  0.00    -0.744 OA
ENDBRANCH  90  91
ENDBRANCH  62  85
BRANCH  74  95
ATOM     95  C   UNL A   1      47.525  26.598  31.492  1.00  0.00    -0.014 A 
ATOM     96  C   UNL A   1      48.569  26.428  30.565  1.00  0.00     0.010 A 
ATOM     97  C   UNL A   1      47.769  26.335  32.853  1.00  0.00     0.010 A 
ATOM     98  C   UNL A   1      49.814  25.950  30.982  1.00  0.00     0.020 A 
ATOM     99  C   UNL A   1      49.024  25.891  33.279  1.00  0.00     0.020 A 
ATOM    100  C   UNL A   1      50.032  25.681  32.336  1.00  0.00     0.054 A 
BRANCH 100 101
ATOM    101  S   UNL A   1      51.660  25.071  32.853  1.00  0.00     0.124 S 
ATOM    102  O   UNL A   1      52.544  25.703  31.875  1.00  0.00    -0.237 OA
ATOM    103  O   UNL A   1      51.772  25.577  34.219  1.00  0.00    -0.237 OA
ATOM    104  O   UNL A   1      51.541  23.620  32.738  1.00  0.00    -0.744 OA
ENDBRANCH 100 101
ENDBRANCH  74  95
ENDBRANCH  48  49
ENDBRANCH  40  43
ENDBRANCH  38  39
ENDBRANCH  37  38
ENDBRANCH  36  37
ENDBRANCH  35  36
ENDBRANCH  34  35
ENDBRANCH   1  34
TORSDOF 23
ENDMDL
MODEL 3
REMARK VINA RESULT:      -7.4      1.328      3.025
REMARK SMILES C[C@@H](C(=O)NCCCCCCNC(=O)c1ccc(-c2c3nc(c(-c4ccc(S(=O)(=O)[O-])cc4)c4ccc([nH]4)c(-c4ccc(S(=O)(=O)[O-])cc4)c4nc(c(-c5ccc(S(=O)(=O)[O-])cc5)c5ccc2[nH]5)C=C4)C=C3)cc1)c1ccc(-c2cccc(OC(=O)NCCC3CCCCC3)c2)c(F)c1
REMARK SMILES IDX 6 1 5 2 3 3 4 4 2 6 1 7 75 8 76 9 99 10 77 11 97 12 78 13
REMARK SMILES IDX 98 14 79 15 80 16 96 17 81 18 83 19 82 20 84 21 85 22 86 23
REMARK SMILES IDX 87 24 88 26 89 27 90 28 91 29 95 30 92 31 94 32 93 33 7 34
REMARK SMILES IDX 8 35 9 36 10 37 11 38 12 39 13 40 14 42 15 43 16 44 74 45
REMARK SMILES IDX 17 46 73 47 18 48 19 49 20 50 67 51 21 52 72 53 66 54 68 55
REMARK SMILES IDX 22 56 71 57 65 58 64 59 23 61 53 62 34 63 52 64 35 65 38 66
REMARK SMILES IDX 51 67 69 68 36 69 37 70 50 72 70 73 39 74 24 75 25 76 33 77
REMARK SMILES IDX 26 78 32 79 27 80 28 81 29 82 30 83 31 84 54 85 55 86 63 87
REMARK SMILES IDX 56 88 62 89 57 90 58 91 59 92 60 93 61 94 40 95 41 96 49 97
REMARK SMILES IDX 42 98 48 99 43 100 44 101 45 102 46 103 47 104
REMARK H PARENT 5 5 87 25 12 41 68 60 38 71
REMARK Flexibility Score: inf
ROOT
ATOM      1  C   UNL A   1      36.480  33.795  31.683  1.00  0.00     0.116 C 
ENDROOT
BRANCH   1   2
ATOM      2  N   UNL A   1      37.532  34.473  32.413  1.00  0.00    -0.356 N 
ATOM      3  C   UNL A   1      37.893  34.326  33.721  1.00  0.00     0.227 C 
ATOM      4  O   UNL A   1      38.518  35.256  34.233  1.00  0.00    -0.274 OA
ATOM      5  H   UNL A   1      38.055  35.128  31.897  1.00  0.00     0.163 HD
BRANCH   3   6
ATOM      6  C   UNL A   1      37.548  33.017  34.456  1.00  0.00     0.105 C 
ATOM      7  C   UNL A   1      37.105  33.339  35.891  1.00  0.00     0.023 C 
BRANCH   6   8
ATOM      8  C   UNL A   1      38.672  31.977  34.419  1.00  0.00    -0.033 A 
ATOM      9  C   UNL A   1      39.836  32.123  35.197  1.00  0.00     0.005 A 
ATOM     10  C   UNL A   1      38.599  30.861  33.574  1.00  0.00     0.044 A 
ATOM     11  C   UNL A   1      40.838  31.145  35.203  1.00  0.00     0.012 A 
ATOM     12  C   UNL A   1      39.599  29.898  33.577  1.00  0.00     0.131 A 
ATOM     13  C   UNL A   1      40.728  30.010  34.395  1.00  0.00     0.018 A 
ATOM     14  F   UNL A   1      39.456  28.845  32.755  1.00  0.00    -0.206 F 
BRANCH  13  15
ATOM     15  C   UNL A   1      41.802  29.019  34.319  1.00  0.00    -0.012 A 
ATOM     16  C   UNL A   1      41.868  28.049  33.311  1.00  0.00     0.009 A 
ATOM     17  C   UNL A   1      42.804  29.041  35.299  1.00  0.00     0.056 A 
ATOM     18  C   UNL A   1      42.922  27.131  33.283  1.00  0.00     0.004 A 
ATOM     19  C   UNL A   1      43.838  28.115  35.290  1.00  0.00     0.133 A 
ATOM     20  C   UNL A   1      43.907  27.162  34.274  1.00  0.00     0.047 A 
BRANCH  19  21
ATOM     21  O   UNL A   1      44.855  28.066  36.273  1.00  0.00    -0.410 OA
BRANCH  21  22
ATOM     22  C   UNL A   1      45.996  28.865  36.261  1.00  0.00     0.412 C 
ATOM     23  O   UNL A   1      46.993  28.724  35.561  1.00  0.00    -0.224 OA
ATOM     24  N   UNL A   1      45.940  29.922  37.118  1.00  0.00    -0.321 N 
ATOM     25  H   UNL A   1      46.715  30.530  37.107  1.00  0.00     0.167 HD
BRANCH  24  26
ATOM     26  C   UNL A   1      44.883  30.261  38.040  1.00  0.00     0.119 C 
BRANCH  26  27
ATOM     27  C   UNL A   1      44.355  31.671  37.779  1.00  0.00     0.025 C 
BRANCH  27  28
ATOM     28  C   UNL A   1      42.978  31.965  38.414  1.00  0.00    -0.009 C 
ATOM     29  C   UNL A   1      43.076  32.158  39.937  1.00  0.00     0.003 C 
ATOM     30  C   UNL A   1      42.348  33.198  37.747  1.00  0.00     0.003 C 
ATOM     31  C   UNL A   1      41.735  32.544  40.557  1.00  0.00     0.000 C 
ATOM     32  C   UNL A   1      41.003  33.556  38.373  1.00  0.00     0.000 C 
ATOM     33  C   UNL A   1      41.129  33.765  39.878  1.00  0.00     0.000 C 
ENDBRANCH  27  28
ENDBRANCH  26  27
ENDBRANCH  24  26
ENDBRANCH  21  22
ENDBRANCH  19  21
ENDBRANCH  13  15
ENDBRANCH   6   8
ENDBRANCH   3   6
ENDBRANCH   1   2
BRANCH   1  34
ATOM     34  C   UNL A   1      37.097  32.739  30.758  1.00  0.00     0.021 C 
BRANCH  34  35
ATOM     35  C   UNL A   1      37.329  33.232  29.326  1.00  0.00     0.002 C 
BRANCH  35  36
ATOM     36  C   UNL A   1      36.170  34.042  28.740  1.00  0.00     0.002 C 
BRANCH  36  37
ATOM     37  C   UNL A   1      35.117  33.203  28.015  1.00  0.00     0.021 C 
BRANCH  37  38
ATOM     38  C   UNL A   1      34.299  32.293  28.927  1.00  0.00     0.116 C 
BRANCH  38  39
ATOM     39  N   UNL A   1      33.821  31.117  28.223  1.00  0.00    -0.352 N 
ATOM     40  C   UNL A   1      34.524  30.047  27.733  1.00  0.00     0.251 C 
ATOM     41  H   UNL A   1      32.848  31.082  28.076  1.00  0.00     0.163 HD
ATOM     42  O   UNL A   1      33.980  29.267  26.956  1.00  0.00    -0.269 OA
BRANCH  40  43
ATOM     43  C   UNL A   1      35.935  29.842  28.123  1.00  0.00     0.039 A 
ATOM     44  C   UNL A   1      36.214  29.403  29.419  1.00  0.00     0.014 A 
ATOM     45  C   UNL A   1      36.982  30.103  27.233  1.00  0.00     0.014 A 
ATOM     46  C   UNL A   1      37.536  29.178  29.804  1.00  0.00     0.010 A 
ATOM     47  C   UNL A   1      38.296  29.805  27.593  1.00  0.00     0.010 A 
ATOM     48  C   UNL A   1      38.587  29.343  28.884  1.00  0.00    -0.014 A 
BRANCH  48  49
ATOM     49  C   UNL A   1      39.982  29.010  29.269  1.00  0.00     0.031 A 
ATOM     50  C   UNL A   1      40.833  30.000  30.019  1.00  0.00     0.074 A 
ATOM     51  C   UNL A   1      40.490  27.808  28.923  1.00  0.00     0.049 A 
ATOM     52  N   UNL A   1      42.063  29.866  30.450  1.00  0.00    -0.248 NA
ATOM     53  C   UNL A   1      40.239  31.314  30.310  1.00  0.00     0.031 C 
ATOM     54  C   UNL A   1      39.782  26.782  28.151  1.00  0.00     0.029 A 
ATOM     55  N   UNL A   1      41.713  27.242  29.178  1.00  0.00    -0.354 N 
ATOM     56  C   UNL A   1      42.384  31.069  31.066  1.00  0.00     0.074 A 
ATOM     57  C   UNL A   1      41.244  31.946  30.899  1.00  0.00     0.031 C 
ATOM     58  C   UNL A   1      40.569  25.701  28.029  1.00  0.00     0.029 A 
ATOM     59  C   UNL A   1      41.849  25.970  28.675  1.00  0.00     0.049 A 
ATOM     60  H   UNL A   1      42.426  27.703  29.677  1.00  0.00     0.167 HD
ATOM     61  C   UNL A   1      43.512  31.407  31.735  1.00  0.00     0.031 A 
ATOM     62  C   UNL A   1      42.889  25.115  28.720  1.00  0.00     0.031 A 
ATOM     63  C   UNL A   1      44.647  30.534  31.896  1.00  0.00     0.049 A 
ATOM     64  C   UNL A   1      44.140  25.525  29.448  1.00  0.00     0.074 A 
ATOM     65  C   UNL A   1      45.825  30.774  32.584  1.00  0.00     0.029 A 
ATOM     66  N   UNL A   1      44.748  29.257  31.367  1.00  0.00    -0.354 N 
ATOM     67  N   UNL A   1      44.395  26.646  30.082  1.00  0.00    -0.248 NA
ATOM     68  C   UNL A   1      45.236  24.549  29.483  1.00  0.00     0.031 C 
ATOM     69  C   UNL A   1      46.660  29.664  32.423  1.00  0.00     0.029 A 
ATOM     70  C   UNL A   1      45.977  28.705  31.693  1.00  0.00     0.049 A 
ATOM     71  H   UNL A   1      44.051  28.808  30.837  1.00  0.00     0.167 HD
ATOM     72  C   UNL A   1      45.674  26.498  30.608  1.00  0.00     0.074 A 
ATOM     73  C   UNL A   1      46.123  25.169  30.247  1.00  0.00     0.031 C 
ATOM     74  C   UNL A   1      46.414  27.384  31.319  1.00  0.00     0.031 A 
BRANCH  61  75
ATOM     75  C   UNL A   1      43.578  32.779  32.357  1.00  0.00    -0.014 A 
ATOM     76  C   UNL A   1      43.921  33.904  31.585  1.00  0.00     0.010 A 
ATOM     77  C   UNL A   1      43.215  32.960  33.704  1.00  0.00     0.010 A 
ATOM     78  C   UNL A   1      43.922  35.180  32.153  1.00  0.00     0.020 A 
ATOM     79  C   UNL A   1      43.187  34.239  34.269  1.00  0.00     0.020 A 
ATOM     80  C   UNL A   1      43.549  35.340  33.490  1.00  0.00     0.054 A 
BRANCH  80  81
ATOM     81  S   UNL A   1      43.504  37.017  34.181  1.00  0.00     0.124 S 
ATOM     82  O   UNL A   1      44.760  37.071  34.927  1.00  0.00    -0.237 OA
ATOM     83  O   UNL A   1      43.448  37.852  32.985  1.00  0.00    -0.237 OA
ATOM     84  O   UNL A   1      42.294  37.024  35.000  1.00  0.00    -0.744 OA
ENDBRANCH  80  81
ENDBRANCH  61  75
BRANCH  62  85
ATOM     85  C   UNL A   1      42.800  23.789  28.046  1.00  0.00    -0.014 A 
ATOM     86  C   UNL A   1      43.298  23.602  26.743  1.00  0.00     0.010 A 
ATOM     87  C   UNL A   1      42.189  22.704  28.703  1.00  0.00     0.010 A 
ATOM     88  C   UNL A   1      43.147  22.372  26.096  1.00  0.00     0.020 A 
ATOM     89  C   UNL A   1      42.069  21.463  28.074  1.00  0.00     0.020 A 
ATOM     90  C   UNL A   1      42.531  21.310  26.766  1.00  0.00     0.054 A 
BRANCH  90  91
ATOM     91  S   UNL A   1      42.357  19.718  25.914  1.00  0.00     0.124 S 
ATOM     92  O   UNL A   1      40.956  19.742  25.511  1.00  0.00    -0.237 OA
ATOM     93  O   UNL A   1      43.332  19.832  24.831  1.00  0.00    -0.237 OA
ATOM     94  O   UNL A   1      42.697  18.741  26.945  1.00  0.00    -0.744 OA
ENDBRANCH  90  91
ENDBRANCH  62  85
BRANCH  74  95
ATOM     95  C   UNL A   1      47.776  26.929  31.777  1.00  0.00    -0.014 A 
ATOM     96  C   UNL A   1      47.930  26.098  32.901  1.00  0.00     0.010 A 
ATOM     97  C   UNL A   1      48.919  27.326  31.058  1.00  0.00     0.010 A 
ATOM     98  C   UNL A   1      49.204  25.719  33.332  1.00  0.00     0.020 A 
ATOM     99  C   UNL A   1      50.193  26.920  31.465  1.00  0.00     0.020 A 
ATOM    100  C   UNL A   1      50.327  26.135  32.613  1.00  0.00     0.054 A 
BRANCH 100 101
ATOM    101  S   UNL A   1      51.969  25.620  33.186  1.00  0.00     0.124 S 
ATOM    102  O   UNL A   1      52.214  24.431  32.373  1.00  0.00    -0.237 OA
ATOM    103  O   UNL A   1      52.798  26.780  32.866  1.00  0.00    -0.237 OA
ATOM    104  O   UNL A   1      51.777  25.371  34.612  1.00  0.00    -0.744 OA
ENDBRANCH 100 101
ENDBRANCH  74  95
ENDBRANCH  48  49
ENDBRANCH  40  43
ENDBRANCH  38  39
ENDBRANCH  37  38
ENDBRANCH  36  37
ENDBRANCH  35  36
ENDBRANCH  34  35
ENDBRANCH   1  34
TORSDOF 23
ENDMDL
