MODEL 1
REMARK VINA RESULT:     -10.4      0.000      0.000
REMARK SMILES CCOc1ccc(C(=O)NC(=S)Nc2cccc(C(=O)NCCCCCCNC(=O)c3ccc(-c4c5nc(c(-c6ccc(S(=O)(=O)[O-])cc6)c6ccc([nH]6)c(-c6ccc(S(=O)(=O)[O-])cc6)c6nc(c(-c7ccc(S(=O)(=O)[O-])cc7)c7ccc4[nH]7)C=C6)C=C5)cc3)c2C)cc1Br
REMARK SMILES IDX 23 1 22 2 21 3 19 4 20 5 18 7 14 8 15 9 91 10 16 11 92 12
REMARK SMILES IDX 17 13 13 14 11 16 12 17 10 18 8 19 9 20 7 22 4 23 5 24 94 25
REMARK SMILES IDX 6 26 93 27 95 28 3 29 2 30 1 31 24 32 25 33 26 34 27 35
REMARK SMILES IDX 28 36 29 37 30 39 31 40 32 41 90 42 33 43 89 44 34 45 35 46
REMARK SMILES IDX 36 47 83 48 37 49 88 50 82 51 84 52 38 53 87 54 81 55 80 56
REMARK SMILES IDX 39 58 69 59 50 60 68 61 51 62 54 63 67 64 85 65 52 66 53 67
REMARK SMILES IDX 66 69 86 70 55 71 40 72 41 73 49 74 42 75 48 76 43 77 44 78
REMARK SMILES IDX 45 79 46 80 47 81 70 82 71 83 79 84 72 85 78 86 73 87 74 88
REMARK SMILES IDX 75 89 76 90 77 91 56 92 57 93 65 94 58 95 64 96 59 97 60 98
REMARK SMILES IDX 61 99 62 100 63 101
REMARK H PARENT 21 6 13 15 10 21 28 38 84 57 54 68
REMARK Flexibility Score: inf
ROOT
ATOM      1  C   UNL A   1      37.911  34.380  33.626  1.00  0.00     0.021 C 
ENDROOT
BRANCH   1   2
ATOM      2  C   UNL A   1      37.415  34.570  32.181  1.00  0.00     0.116 C 
BRANCH   2   3
ATOM      3  N   UNL A   1      35.950  34.688  31.946  1.00  0.00    -0.352 N 
ATOM      4  C   UNL A   1      34.869  33.933  31.474  1.00  0.00     0.251 C 
ATOM      5  O   UNL A   1      33.741  34.385  31.676  1.00  0.00    -0.269 OA
ATOM      6  H   UNL A   1      35.642  35.586  32.206  1.00  0.00     0.163 HD
BRANCH   4   7
ATOM      7  C   UNL A   1      34.964  32.676  30.662  1.00  0.00     0.044 A 
ATOM      8  C   UNL A   1      34.803  30.866  28.036  1.00  0.00     0.044 A 
ATOM      9  C   UNL A   1      35.929  29.630  28.619  1.00  0.00     0.026 A 
ATOM     10  C   UNL A   1      34.458  32.412  28.956  1.00  0.00    -0.015 A 
ATOM     11  C   UNL A   1      36.533  29.821  30.258  1.00  0.00     0.003 A 
ATOM     12  C   UNL A   1      33.702  33.486  28.232  1.00  0.00     0.047 C 
ATOM     13  C   UNL A   1      35.910  31.372  31.374  1.00  0.00     0.014 A 
BRANCH   8  14
ATOM     14  N   UNL A   1      33.620  30.146  27.653  1.00  0.00    -0.332 N 
ATOM     15  H   UNL A   1      33.171  29.645  28.371  1.00  0.00     0.169 HD
BRANCH  14  16
ATOM     16  C   UNL A   1      33.025  30.065  26.402  1.00  0.00     0.177 C 
ATOM     17  S   UNL A   1      31.660  31.016  26.161  1.00  0.00    -0.040 S 
BRANCH  16  18
ATOM     18  N   UNL A   1      33.400  29.186  25.304  1.00  0.00    -0.299 N 
ATOM     19  C   UNL A   1      33.412  27.885  24.513  1.00  0.00     0.257 C 
ATOM     20  O   UNL A   1      34.026  27.837  23.451  1.00  0.00    -0.269 OA
ATOM     21  H   UNL A   1      33.976  29.768  24.757  1.00  0.00     0.172 HD
BRANCH  19  22
ATOM     22  C   UNL A   1      32.722  26.655  25.028  1.00  0.00     0.041 A 
ATOM     23  C   UNL A   1      32.526  22.900  24.749  1.00  0.00     0.133 A 
ATOM     24  C   UNL A   1      31.157  23.986  24.341  1.00  0.00     0.048 A 
ATOM     25  C   UNL A   1      34.051  23.672  25.271  1.00  0.00     0.060 A 
ATOM     26  C   UNL A   1      31.266  25.807  24.439  1.00  0.00     0.018 A 
ATOM     27  C   UNL A   1      34.035  25.665  25.529  1.00  0.00     0.033 A 
ATOM     28  Br  UNL A   1      35.554  22.344  24.429  1.00  0.00    -0.047 Br
BRANCH  23  29
ATOM     29  O   UNL A   1      32.416  21.539  24.958  1.00  0.00    -0.493 OA
BRANCH  29  30
ATOM     30  C   UNL A   1      32.372  20.722  23.744  1.00  0.00     0.226 C 
ATOM     31  C   UNL A   1      32.075  21.315  22.366  1.00  0.00     0.049 C 
ENDBRANCH  29  30
ENDBRANCH  23  29
ENDBRANCH  19  22
ENDBRANCH  16  18
ENDBRANCH  14  16
ENDBRANCH   8  14
ENDBRANCH   4   7
ENDBRANCH   2   3
ENDBRANCH   1   2
BRANCH   1  32
ATOM     32  C   UNL A   1      37.520  33.056  34.279  1.00  0.00     0.002 C 
BRANCH  32  33
ATOM     33  C   UNL A   1      38.454  32.595  35.403  1.00  0.00     0.002 C 
BRANCH  33  34
ATOM     34  C   UNL A   1      38.954  31.160  35.277  1.00  0.00     0.021 C 
BRANCH  34  35
ATOM     35  C   UNL A   1      38.843  30.616  33.869  1.00  0.00     0.116 C 
BRANCH  35  36
ATOM     36  N   UNL A   1      39.041  29.179  33.834  1.00  0.00    -0.352 N 
ATOM     37  C   UNL A   1      39.146  28.412  32.684  1.00  0.00     0.251 C 
ATOM     38  H   UNL A   1      39.108  28.711  34.698  1.00  0.00     0.163 HD
ATOM     39  O   UNL A   1      38.470  27.419  32.464  1.00  0.00    -0.269 OA
BRANCH  37  40
ATOM     40  C   UNL A   1      40.257  28.791  31.787  1.00  0.00     0.039 A 
ATOM     41  C   UNL A   1      41.559  28.664  32.290  1.00  0.00     0.014 A 
ATOM     42  C   UNL A   1      39.958  29.683  30.769  1.00  0.00     0.014 A 
ATOM     43  C   UNL A   1      42.494  29.629  31.965  1.00  0.00     0.010 A 
ATOM     44  C   UNL A   1      40.776  30.758  30.643  1.00  0.00     0.010 A 
ATOM     45  C   UNL A   1      42.029  30.731  31.266  1.00  0.00    -0.014 A 
BRANCH  45  46
ATOM     46  C   UNL A   1      42.822  31.855  30.849  1.00  0.00     0.031 A 
ATOM     47  C   UNL A   1      42.414  33.091  31.557  1.00  0.00     0.074 A 
ATOM     48  C   UNL A   1      43.977  31.497  30.234  1.00  0.00     0.049 A 
ATOM     49  N   UNL A   1      42.871  34.255  31.329  1.00  0.00    -0.248 NA
ATOM     50  C   UNL A   1      41.405  33.118  32.641  1.00  0.00     0.031 C 
ATOM     51  C   UNL A   1      45.254  32.179  30.064  1.00  0.00     0.029 A 
ATOM     52  N   UNL A   1      44.108  30.389  29.387  1.00  0.00    -0.354 N 
ATOM     53  C   UNL A   1      42.628  35.009  32.465  1.00  0.00     0.074 A 
ATOM     54  C   UNL A   1      41.585  34.329  33.174  1.00  0.00     0.031 C 
ATOM     55  C   UNL A   1      45.842  31.730  28.933  1.00  0.00     0.029 A 
ATOM     56  C   UNL A   1      44.912  30.799  28.307  1.00  0.00     0.049 A 
ATOM     57  H   UNL A   1      43.715  29.496  29.520  1.00  0.00     0.167 HD
ATOM     58  C   UNL A   1      43.514  36.002  32.743  1.00  0.00     0.031 A 
ATOM     59  C   UNL A   1      44.284  31.013  27.108  1.00  0.00     0.031 A 
ATOM     60  C   UNL A   1      44.477  36.076  31.643  1.00  0.00     0.049 A 
ATOM     61  C   UNL A   1      44.164  32.508  26.864  1.00  0.00     0.074 A 
ATOM     62  C   UNL A   1      45.739  35.533  31.476  1.00  0.00     0.029 A 
ATOM     63  N   UNL A   1      43.979  36.319  30.369  1.00  0.00    -0.354 N 
ATOM     64  N   UNL A   1      44.017  33.408  27.806  1.00  0.00    -0.248 NA
ATOM     65  C   UNL A   1      44.418  33.098  25.553  1.00  0.00     0.031 C 
ATOM     66  C   UNL A   1      45.937  35.348  30.072  1.00  0.00     0.029 A 
ATOM     67  C   UNL A   1      44.787  35.744  29.405  1.00  0.00     0.049 A 
ATOM     68  H   UNL A   1      43.161  36.832  30.179  1.00  0.00     0.167 HD
ATOM     69  C   UNL A   1      44.276  34.652  27.286  1.00  0.00     0.074 A 
ATOM     70  C   UNL A   1      44.498  34.400  25.868  1.00  0.00     0.031 C 
ATOM     71  C   UNL A   1      44.385  35.812  28.006  1.00  0.00     0.031 A 
BRANCH  58  72
ATOM     72  C   UNL A   1      43.706  36.724  34.053  1.00  0.00    -0.014 A 
ATOM     73  C   UNL A   1      44.012  38.101  33.989  1.00  0.00     0.010 A 
ATOM     74  C   UNL A   1      43.630  36.164  35.345  1.00  0.00     0.010 A 
ATOM     75  C   UNL A   1      44.242  38.878  35.127  1.00  0.00     0.020 A 
ATOM     76  C   UNL A   1      43.857  36.939  36.505  1.00  0.00     0.020 A 
ATOM     77  C   UNL A   1      44.160  38.294  36.384  1.00  0.00     0.054 A 
BRANCH  77  78
ATOM     78  S   UNL A   1      44.435  39.353  37.830  1.00  0.00     0.124 S 
ATOM     79  O   UNL A   1      45.796  38.998  38.224  1.00  0.00    -0.237 OA
ATOM     80  O   UNL A   1      44.273  40.693  37.273  1.00  0.00    -0.237 OA
ATOM     81  O   UNL A   1      43.392  38.940  38.767  1.00  0.00    -0.744 OA
ENDBRANCH  77  78
ENDBRANCH  58  72
BRANCH  59  82
ATOM     82  C   UNL A   1      43.270  29.928  26.844  1.00  0.00    -0.014 A 
ATOM     83  C   UNL A   1      43.786  28.715  26.317  1.00  0.00     0.010 A 
ATOM     84  C   UNL A   1      42.048  29.879  27.535  1.00  0.00     0.010 A 
ATOM     85  C   UNL A   1      43.228  27.478  26.666  1.00  0.00     0.020 A 
ATOM     86  C   UNL A   1      41.463  28.633  27.849  1.00  0.00     0.020 A 
ATOM     87  C   UNL A   1      42.097  27.444  27.475  1.00  0.00     0.054 A 
BRANCH  87  88
ATOM     88  S   UNL A   1      41.577  25.835  28.151  1.00  0.00     0.124 S 
ATOM     89  O   UNL A   1      42.410  25.722  29.345  1.00  0.00    -0.237 OA
ATOM     90  O   UNL A   1      40.147  26.041  28.396  1.00  0.00    -0.237 OA
ATOM     91  O   UNL A   1      41.898  24.898  27.080  1.00  0.00    -0.744 OA
ENDBRANCH  87  88
ENDBRANCH  59  82
BRANCH  71  92
ATOM     92  C   UNL A   1      44.171  37.186  27.406  1.00  0.00    -0.014 A 
ATOM     93  C   UNL A   1      42.908  37.768  27.244  1.00  0.00     0.010 A 
ATOM     94  C   UNL A   1      45.290  38.009  27.120  1.00  0.00     0.010 A 
ATOM     95  C   UNL A   1      42.762  39.044  26.700  1.00  0.00     0.020 A 
ATOM     96  C   UNL A   1      45.159  39.323  26.678  1.00  0.00     0.020 A 
ATOM     97  C   UNL A   1      43.889  39.810  26.418  1.00  0.00     0.054 A 
BRANCH  97  98
ATOM     98  S   UNL A   1      43.666  41.452  25.715  1.00  0.00     0.124 S 
ATOM     99  O   UNL A   1      42.227  41.468  25.462  1.00  0.00    -0.237 OA
ATOM    100  O   UNL A   1      44.123  42.323  26.795  1.00  0.00    -0.237 OA
ATOM    101  O   UNL A   1      44.513  41.441  24.527  1.00  0.00    -0.744 OA
ENDBRANCH  97  98
ENDBRANCH  71  92
ENDBRANCH  45  46
ENDBRANCH  37  40
ENDBRANCH  35  36
ENDBRANCH  34  35
ENDBRANCH  33  34
ENDBRANCH  32  33
ENDBRANCH   1  32
TORSDOF 22
ENDMDL
MODEL 2
REMARK VINA RESULT:      -9.9      4.882     10.597
REMARK SMILES CCOc1ccc(C(=O)NC(=S)Nc2cccc(C(=O)NCCCCCCNC(=O)c3ccc(-c4c5nc(c(-c6ccc(S(=O)(=O)[O-])cc6)c6ccc([nH]6)c(-c6ccc(S(=O)(=O)[O-])cc6)c6nc(c(-c7ccc(S(=O)(=O)[O-])cc7)c7ccc4[nH]7)C=C6)C=C5)cc3)c2C)cc1Br
REMARK SMILES IDX 23 1 22 2 21 3 19 4 20 5 18 7 14 8 15 9 91 10 16 11 92 12
REMARK SMILES IDX 17 13 13 14 11 16 12 17 10 18 8 19 9 20 7 22 4 23 5 24 94 25
REMARK SMILES IDX 6 26 93 27 95 28 3 29 2 30 1 31 24 32 25 33 26 34 27 35
REMARK SMILES IDX 28 36 29 37 30 39 31 40 32 41 90 42 33 43 89 44 34 45 35 46
REMARK SMILES IDX 36 47 83 48 37 49 88 50 82 51 84 52 38 53 87 54 81 55 80 56
REMARK SMILES IDX 39 58 69 59 50 60 68 61 51 62 54 63 67 64 85 65 52 66 53 67
REMARK SMILES IDX 66 69 86 70 55 71 40 72 41 73 49 74 42 75 48 76 43 77 44 78
REMARK SMILES IDX 45 79 46 80 47 81 70 82 71 83 79 84 72 85 78 86 73 87 74 88
REMARK SMILES IDX 75 89 76 90 77 91 56 92 57 93 65 94 58 95 64 96 59 97 60 98
REMARK SMILES IDX 61 99 62 100 63 101
REMARK H PARENT 21 6 13 15 10 21 28 38 84 57 54 68
REMARK Flexibility Score: inf
ROOT
ATOM      1  C   UNL A   1      35.248  30.703  27.880  1.00  0.00     0.021 C 
ENDROOT
BRANCH   1   2
ATOM      2  C   UNL A   1      34.773  29.317  27.404  1.00  0.00     0.116 C 
BRANCH   2   3
ATOM      3  N   UNL A   1      33.497  28.781  27.951  1.00  0.00    -0.352 N 
ATOM      4  C   UNL A   1      32.212  28.417  27.531  1.00  0.00     0.251 C 
ATOM      5  O   UNL A   1      31.522  27.783  28.331  1.00  0.00    -0.269 OA
ATOM      6  H   UNL A   1      33.585  28.636  28.921  1.00  0.00     0.163 HD
BRANCH   4   7
ATOM      7  C   UNL A   1      31.566  28.811  26.237  1.00  0.00     0.044 A 
ATOM      8  C   UNL A   1      29.822  28.411  23.592  1.00  0.00     0.044 A 
ATOM      9  C   UNL A   1      29.425  30.125  23.396  1.00  0.00     0.026 A 
ATOM     10  C   UNL A   1      30.724  27.758  25.047  1.00  0.00    -0.015 A 
ATOM     11  C   UNL A   1      30.150  31.241  24.544  1.00  0.00     0.003 A 
ATOM     12  C   UNL A   1      30.758  26.269  25.220  1.00  0.00     0.047 C 
ATOM     13  C   UNL A   1      31.387  30.542  25.965  1.00  0.00     0.014 A 
BRANCH   8  14
ATOM     14  N   UNL A   1      30.389  28.009  22.333  1.00  0.00    -0.332 N 
ATOM     15  H   UNL A   1      29.757  27.936  21.583  1.00  0.00     0.169 HD
BRANCH  14  16
ATOM     16  C   UNL A   1      31.712  27.713  22.038  1.00  0.00     0.177 C 
ATOM     17  S   UNL A   1      32.841  28.911  22.382  1.00  0.00    -0.040 S 
BRANCH  16  18
ATOM     18  N   UNL A   1      32.221  26.515  21.386  1.00  0.00    -0.299 N 
ATOM     19  C   UNL A   1      33.033  25.230  21.288  1.00  0.00     0.257 C 
ATOM     20  O   UNL A   1      32.968  24.561  20.262  1.00  0.00    -0.269 OA
ATOM     21  H   UNL A   1      31.796  26.562  20.500  1.00  0.00     0.172 HD
BRANCH  19  22
ATOM     22  C   UNL A   1      33.938  24.795  22.404  1.00  0.00     0.041 A 
ATOM     23  C   UNL A   1      34.143  22.767  25.576  1.00  0.00     0.133 A 
ATOM     24  C   UNL A   1      34.389  24.544  25.531  1.00  0.00     0.048 A 
ATOM     25  C   UNL A   1      33.745  21.960  24.032  1.00  0.00     0.060 A 
ATOM     26  C   UNL A   1      34.250  25.530  24.000  1.00  0.00     0.018 A 
ATOM     27  C   UNL A   1      33.791  23.083  22.366  1.00  0.00     0.033 A 
ATOM     28  Br  UNL A   1      32.383  20.388  24.668  1.00  0.00    -0.047 Br
BRANCH  23  29
ATOM     29  O   UNL A   1      34.503  21.948  26.629  1.00  0.00    -0.493 OA
BRANCH  29  30
ATOM     30  C   UNL A   1      33.599  21.978  27.781  1.00  0.00     0.226 C 
ATOM     31  C   UNL A   1      32.266  22.728  27.759  1.00  0.00     0.049 C 
ENDBRANCH  29  30
ENDBRANCH  23  29
ENDBRANCH  19  22
ENDBRANCH  16  18
ENDBRANCH  14  16
ENDBRANCH   8  14
ENDBRANCH   4   7
ENDBRANCH   2   3
ENDBRANCH   1   2
BRANCH   1  32
ATOM     32  C   UNL A   1      36.555  30.706  28.671  1.00  0.00     0.002 C 
BRANCH  32  33
ATOM     33  C   UNL A   1      36.758  31.931  29.569  1.00  0.00     0.002 C 
BRANCH  33  34
ATOM     34  C   UNL A   1      35.503  32.418  30.285  1.00  0.00     0.021 C 
BRANCH  34  35
ATOM     35  C   UNL A   1      35.420  33.926  30.376  1.00  0.00     0.116 C 
BRANCH  35  36
ATOM     36  N   UNL A   1      34.700  34.352  31.562  1.00  0.00    -0.352 N 
ATOM     37  C   UNL A   1      34.895  33.853  32.840  1.00  0.00     0.251 C 
ATOM     38  H   UNL A   1      34.018  35.053  31.449  1.00  0.00     0.163 HD
ATOM     39  O   UNL A   1      33.997  33.422  33.547  1.00  0.00    -0.269 OA
BRANCH  37  40
ATOM     40  C   UNL A   1      36.265  34.018  33.366  1.00  0.00     0.039 A 
ATOM     41  C   UNL A   1      37.204  34.638  32.528  1.00  0.00     0.014 A 
ATOM     42  C   UNL A   1      36.657  33.145  34.369  1.00  0.00     0.014 A 
ATOM     43  C   UNL A   1      38.502  34.164  32.519  1.00  0.00     0.010 A 
ATOM     44  C   UNL A   1      37.843  32.512  34.195  1.00  0.00     0.010 A 
ATOM     45  C   UNL A   1      38.745  33.012  33.250  1.00  0.00    -0.014 A 
BRANCH  45  46
ATOM     46  C   UNL A   1      40.012  32.340  33.359  1.00  0.00     0.031 A 
ATOM     47  C   UNL A   1      39.979  31.024  32.681  1.00  0.00     0.074 A 
ATOM     48  C   UNL A   1      41.033  33.172  33.684  1.00  0.00     0.049 A 
ATOM     49  N   UNL A   1      40.919  30.167  32.690  1.00  0.00    -0.248 NA
ATOM     50  C   UNL A   1      38.824  30.537  31.892  1.00  0.00     0.031 C 
ATOM     51  C   UNL A   1      42.472  33.096  33.467  1.00  0.00     0.029 A 
ATOM     52  N   UNL A   1      40.914  34.262  34.557  1.00  0.00    -0.354 N 
ATOM     53  C   UNL A   1      40.717  29.341  31.597  1.00  0.00     0.074 A 
ATOM     54  C   UNL A   1      39.340  29.495  31.235  1.00  0.00     0.031 C 
ATOM     55  C   UNL A   1      43.099  33.789  34.443  1.00  0.00     0.029 A 
ATOM     56  C   UNL A   1      42.071  34.265  35.359  1.00  0.00     0.049 A 
ATOM     57  H   UNL A   1      40.167  34.902  34.601  1.00  0.00     0.167 HD
ATOM     58  C   UNL A   1      41.825  28.803  31.022  1.00  0.00     0.031 A 
ATOM     59  C   UNL A   1      41.931  33.850  36.657  1.00  0.00     0.031 A 
ATOM     60  C   UNL A   1      42.987  29.179  31.830  1.00  0.00     0.049 A 
ATOM     61  C   UNL A   1      42.509  32.452  36.802  1.00  0.00     0.074 A 
ATOM     62  C   UNL A   1      43.907  30.207  31.712  1.00  0.00     0.029 A 
ATOM     63  N   UNL A   1      42.993  28.794  33.165  1.00  0.00    -0.354 N 
ATOM     64  N   UNL A   1      42.502  31.541  35.859  1.00  0.00    -0.248 NA
ATOM     65  C   UNL A   1      43.323  32.070  37.952  1.00  0.00     0.031 C 
ATOM     66  C   UNL A   1      44.375  30.508  33.029  1.00  0.00     0.029 A 
ATOM     67  C   UNL A   1      43.714  29.689  33.933  1.00  0.00     0.049 A 
ATOM     68  H   UNL A   1      42.542  27.992  33.516  1.00  0.00     0.167 HD
ATOM     69  C   UNL A   1      43.381  30.540  36.194  1.00  0.00     0.074 A 
ATOM     70  C   UNL A   1      43.847  30.911  37.524  1.00  0.00     0.031 C 
ATOM     71  C   UNL A   1      43.765  29.508  35.379  1.00  0.00     0.031 A 
BRANCH  58  72
ATOM     72  C   UNL A   1      41.943  28.183  29.653  1.00  0.00    -0.014 A 
ATOM     73  C   UNL A   1      42.626  28.928  28.667  1.00  0.00     0.010 A 
ATOM     74  C   UNL A   1      41.426  26.937  29.242  1.00  0.00     0.010 A 
ATOM     75  C   UNL A   1      42.780  28.481  27.352  1.00  0.00     0.020 A 
ATOM     76  C   UNL A   1      41.577  26.471  27.917  1.00  0.00     0.020 A 
ATOM     77  C   UNL A   1      42.258  27.249  26.981  1.00  0.00     0.054 A 
BRANCH  77  78
ATOM     78  S   UNL A   1      42.513  26.700  25.273  1.00  0.00     0.124 S 
ATOM     79  O   UNL A   1      41.344  25.856  25.037  1.00  0.00    -0.237 OA
ATOM     80  O   UNL A   1      42.534  27.961  24.537  1.00  0.00    -0.237 OA
ATOM     81  O   UNL A   1      43.788  25.988  25.322  1.00  0.00    -0.744 OA
ENDBRANCH  77  78
ENDBRANCH  58  72
BRANCH  59  82
ATOM     82  C   UNL A   1      40.669  34.418  37.258  1.00  0.00    -0.014 A 
ATOM     83  C   UNL A   1      39.969  33.561  38.148  1.00  0.00     0.010 A 
ATOM     84  C   UNL A   1      40.474  35.803  37.387  1.00  0.00     0.010 A 
ATOM     85  C   UNL A   1      39.291  34.072  39.262  1.00  0.00     0.020 A 
ATOM     86  C   UNL A   1      39.753  36.316  38.487  1.00  0.00     0.020 A 
ATOM     87  C   UNL A   1      39.232  35.449  39.452  1.00  0.00     0.054 A 
BRANCH  87  88
ATOM     88  S   UNL A   1      38.610  36.066  41.050  1.00  0.00     0.124 S 
ATOM     89  O   UNL A   1      39.777  35.907  41.913  1.00  0.00    -0.237 OA
ATOM     90  O   UNL A   1      38.242  37.449  40.733  1.00  0.00    -0.237 OA
ATOM     91  O   UNL A   1      37.493  35.175  41.345  1.00  0.00    -0.744 OA
ENDBRANCH  87  88
ENDBRANCH  59  82
BRANCH  71  92
ATOM     92  C   UNL A   1      44.305  28.193  35.900  1.00  0.00    -0.014 A 
ATOM     93  C   UNL A   1      45.662  27.850  35.867  1.00  0.00     0.010 A 
ATOM     94  C   UNL A   1      43.443  27.306  36.594  1.00  0.00     0.010 A 
ATOM     95  C   UNL A   1      46.115  26.632  36.373  1.00  0.00     0.020 A 
ATOM     96  C   UNL A   1      43.901  26.138  37.198  1.00  0.00     0.020 A 
ATOM     97  C   UNL A   1      45.229  25.784  37.033  1.00  0.00     0.054 A 
BRANCH  97  98
ATOM     98  S   UNL A   1      45.845  24.218  37.673  1.00  0.00     0.124 S 
ATOM     99  O   UNL A   1      45.503  23.303  36.586  1.00  0.00    -0.237 OA
ATOM    100  O   UNL A   1      47.270  24.486  37.845  1.00  0.00    -0.237 OA
ATOM    101  O   UNL A   1      45.096  24.029  38.912  1.00  0.00    -0.744 OA
ENDBRANCH  97  98
ENDBRANCH  71  92
ENDBRANCH  45  46
ENDBRANCH  37  40
ENDBRANCH  35  36
ENDBRANCH  34  35
ENDBRANCH  33  34
ENDBRANCH  32  33
ENDBRANCH   1  32
TORSDOF 22
ENDMDL
MODEL 3
REMARK VINA RESULT:      -9.7      4.054      5.746
REMARK SMILES CCOc1ccc(C(=O)NC(=S)Nc2cccc(C(=O)NCCCCCCNC(=O)c3ccc(-c4c5nc(c(-c6ccc(S(=O)(=O)[O-])cc6)c6ccc([nH]6)c(-c6ccc(S(=O)(=O)[O-])cc6)c6nc(c(-c7ccc(S(=O)(=O)[O-])cc7)c7ccc4[nH]7)C=C6)C=C5)cc3)c2C)cc1Br
REMARK SMILES IDX 23 1 22 2 21 3 19 4 20 5 18 7 14 8 15 9 91 10 16 11 92 12
REMARK SMILES IDX 17 13 13 14 11 16 12 17 10 18 8 19 9 20 7 22 4 23 5 24 94 25
REMARK SMILES IDX 6 26 93 27 95 28 3 29 2 30 1 31 24 32 25 33 26 34 27 35
REMARK SMILES IDX 28 36 29 37 30 39 31 40 32 41 90 42 33 43 89 44 34 45 35 46
REMARK SMILES IDX 36 47 83 48 37 49 88 50 82 51 84 52 38 53 87 54 81 55 80 56
REMARK SMILES IDX 39 58 69 59 50 60 68 61 51 62 54 63 67 64 85 65 52 66 53 67
REMARK SMILES IDX 66 69 86 70 55 71 40 72 41 73 49 74 42 75 48 76 43 77 44 78
REMARK SMILES IDX 45 79 46 80 47 81 70 82 71 83 79 84 72 85 78 86 73 87 74 88
REMARK SMILES IDX 75 89 76 90 77 91 56 92 57 93 65 94 58 95 64 96 59 97 60 98
REMARK SMILES IDX 61 99 62 100 63 101
REMARK H PARENT 21 6 13 15 10 21 28 38 84 57 54 68
REMARK Flexibility Score: inf
ROOT
ATOM      1  C   UNL A   1      42.335  27.534  33.548  1.00  0.00     0.021 C 
ENDROOT
BRANCH   1   2
ATOM      2  C   UNL A   1      41.314  28.460  32.860  1.00  0.00     0.116 C 
BRANCH   2   3
ATOM      3  N   UNL A   1      39.868  28.242  33.130  1.00  0.00    -0.352 N 
ATOM      4  C   UNL A   1      38.658  28.064  32.447  1.00  0.00     0.251 C 
ATOM      5  O   UNL A   1      37.694  27.677  33.110  1.00  0.00    -0.269 OA
ATOM      6  H   UNL A   1      39.710  28.213  34.101  1.00  0.00     0.163 HD
BRANCH   4   7
ATOM      7  C   UNL A   1      38.405  28.394  31.006  1.00  0.00     0.044 A 
ATOM      8  C   UNL A   1      37.267  30.076  28.542  1.00  0.00     0.044 A 
ATOM      9  C   UNL A   1      38.460  29.484  27.375  1.00  0.00     0.026 A 
ATOM     10  C   UNL A   1      37.336  29.670  30.327  1.00  0.00    -0.015 A 
ATOM     11  C   UNL A   1      39.595  28.273  27.950  1.00  0.00     0.003 A 
ATOM     12  C   UNL A   1      36.434  30.446  31.241  1.00  0.00     0.047 C 
ATOM     13  C   UNL A   1      39.469  27.609  29.842  1.00  0.00     0.014 A 
BRANCH   8  14
ATOM     14  N   UNL A   1      35.988  29.814  27.940  1.00  0.00    -0.332 N 
ATOM     15  H   UNL A   1      35.753  28.865  27.831  1.00  0.00     0.169 HD
BRANCH  14  16
ATOM     16  C   UNL A   1      35.042  30.724  27.492  1.00  0.00     0.177 C 
ATOM     17  S   UNL A   1      35.208  32.305  28.040  1.00  0.00    -0.040 S 
BRANCH  16  18
ATOM     18  N   UNL A   1      33.874  30.447  26.669  1.00  0.00    -0.299 N 
ATOM     19  C   UNL A   1      32.846  29.561  25.976  1.00  0.00     0.257 C 
ATOM     20  O   UNL A   1      31.929  30.088  25.352  1.00  0.00    -0.269 OA
ATOM     21  H   UNL A   1      33.575  31.350  26.418  1.00  0.00     0.172 HD
BRANCH  19  22
ATOM     22  C   UNL A   1      32.960  28.065  26.008  1.00  0.00     0.041 A 
ATOM     23  C   UNL A   1      32.135  24.882  24.162  1.00  0.00     0.133 A 
ATOM     24  C   UNL A   1      31.482  25.270  25.788  1.00  0.00     0.048 A 
ATOM     25  C   UNL A   1      33.192  26.104  23.397  1.00  0.00     0.060 A 
ATOM     26  C   UNL A   1      31.851  26.830  26.664  1.00  0.00     0.018 A 
ATOM     27  C   UNL A   1      33.697  27.707  24.498  1.00  0.00     0.033 A 
ATOM     28  Br  UNL A   1      32.674  25.910  21.292  1.00  0.00    -0.047 Br
BRANCH  23  29
ATOM     29  O   UNL A   1      32.117  23.628  23.585  1.00  0.00    -0.493 OA
BRANCH  29  30
ATOM     30  C   UNL A   1      33.188  22.727  24.016  1.00  0.00     0.226 C 
ATOM     31  C   UNL A   1      34.628  22.865  23.516  1.00  0.00     0.049 C 
ENDBRANCH  29  30
ENDBRANCH  23  29
ENDBRANCH  19  22
ENDBRANCH  16  18
ENDBRANCH  14  16
ENDBRANCH   8  14
ENDBRANCH   4   7
ENDBRANCH   2   3
ENDBRANCH   1   2
BRANCH   1  32
ATOM     32  C   UNL A   1      42.322  27.573  35.075  1.00  0.00     0.002 C 
BRANCH  32  33
ATOM     33  C   UNL A   1      41.781  26.305  35.744  1.00  0.00     0.002 C 
BRANCH  33  34
ATOM     34  C   UNL A   1      42.545  25.028  35.412  1.00  0.00     0.021 C 
BRANCH  34  35
ATOM     35  C   UNL A   1      43.874  24.929  36.130  1.00  0.00     0.116 C 
BRANCH  35  36
ATOM     36  N   UNL A   1      44.412  23.582  36.075  1.00  0.00    -0.352 N 
ATOM     37  C   UNL A   1      44.450  22.779  34.946  1.00  0.00     0.251 C 
ATOM     38  H   UNL A   1      44.779  23.208  36.909  1.00  0.00     0.163 HD
ATOM     39  O   UNL A   1      44.012  21.640  34.905  1.00  0.00    -0.269 OA
BRANCH  37  40
ATOM     40  C   UNL A   1      45.208  23.345  33.811  1.00  0.00     0.039 A 
ATOM     41  C   UNL A   1      46.487  23.853  34.084  1.00  0.00     0.014 A 
ATOM     42  C   UNL A   1      44.468  23.793  32.729  1.00  0.00     0.014 A 
ATOM     43  C   UNL A   1      46.897  25.003  33.436  1.00  0.00     0.010 A 
ATOM     44  C   UNL A   1      44.745  25.041  32.277  1.00  0.00     0.010 A 
ATOM     45  C   UNL A   1      45.948  25.647  32.658  1.00  0.00    -0.014 A 
BRANCH  45  46
ATOM     46  C   UNL A   1      46.155  26.864  31.920  1.00  0.00     0.031 A 
ATOM     47  C   UNL A   1      46.092  28.046  32.810  1.00  0.00     0.074 A 
ATOM     48  C   UNL A   1      46.734  26.664  30.710  1.00  0.00     0.049 A 
ATOM     49  N   UNL A   1      46.145  29.258  32.429  1.00  0.00    -0.248 NA
ATOM     50  C   UNL A   1      45.960  27.957  34.283  1.00  0.00     0.031 C 
ATOM     51  C   UNL A   1      47.530  27.526  29.846  1.00  0.00     0.029 A 
ATOM     52  N   UNL A   1      46.477  25.560  29.886  1.00  0.00    -0.354 N 
ATOM     53  C   UNL A   1      46.539  30.005  33.527  1.00  0.00     0.074 A 
ATOM     54  C   UNL A   1      46.253  29.199  34.676  1.00  0.00     0.031 C 
ATOM     55  C   UNL A   1      47.365  27.133  28.564  1.00  0.00     0.029 A 
ATOM     56  C   UNL A   1      46.390  26.051  28.570  1.00  0.00     0.049 A 
ATOM     57  H   UNL A   1      46.378  24.623  30.172  1.00  0.00     0.167 HD
ATOM     58  C   UNL A   1      47.260  31.130  33.276  1.00  0.00     0.031 A 
ATOM     59  C   UNL A   1      45.140  26.125  28.014  1.00  0.00     0.031 A 
ATOM     60  C   UNL A   1      47.332  31.312  31.825  1.00  0.00     0.049 A 
ATOM     61  C   UNL A   1      44.687  27.575  27.991  1.00  0.00     0.074 A 
ATOM     62  C   UNL A   1      48.293  30.962  30.892  1.00  0.00     0.029 A 
ATOM     63  N   UNL A   1      46.134  31.432  31.132  1.00  0.00    -0.354 N 
ATOM     64  N   UNL A   1      45.017  28.474  28.886  1.00  0.00    -0.248 NA
ATOM     65  C   UNL A   1      44.004  28.151  26.836  1.00  0.00     0.031 C 
ATOM     66  C   UNL A   1      47.620  30.760  29.647  1.00  0.00     0.029 A 
ATOM     67  C   UNL A   1      46.260  30.954  29.841  1.00  0.00     0.049 A 
ATOM     68  H   UNL A   1      45.306  31.808  31.511  1.00  0.00     0.167 HD
ATOM     69  C   UNL A   1      44.726  29.724  28.398  1.00  0.00     0.074 A 
ATOM     70  C   UNL A   1      44.073  29.460  27.123  1.00  0.00     0.031 C 
ATOM     71  C   UNL A   1      45.085  30.912  28.979  1.00  0.00     0.031 A 
BRANCH  58  72
ATOM     72  C   UNL A   1      48.105  31.917  34.246  1.00  0.00    -0.014 A 
ATOM     73  C   UNL A   1      48.148  33.318  34.069  1.00  0.00     0.010 A 
ATOM     74  C   UNL A   1      48.875  31.401  35.308  1.00  0.00     0.010 A 
ATOM     75  C   UNL A   1      48.915  34.158  34.880  1.00  0.00     0.020 A 
ATOM     76  C   UNL A   1      49.652  32.240  36.137  1.00  0.00     0.020 A 
ATOM     77  C   UNL A   1      49.663  33.616  35.916  1.00  0.00     0.054 A 
BRANCH  77  78
ATOM     78  S   UNL A   1      50.614  34.752  36.960  1.00  0.00     0.124 S 
ATOM     79  O   UNL A   1      51.993  34.433  36.597  1.00  0.00    -0.237 OA
ATOM     80  O   UNL A   1      50.137  36.060  36.517  1.00  0.00    -0.237 OA
ATOM     81  O   UNL A   1      50.232  34.380  38.320  1.00  0.00    -0.744 OA
ENDBRANCH  77  78
ENDBRANCH  58  72
BRANCH  59  82
ATOM     82  C   UNL A   1      44.341  24.890  28.347  1.00  0.00    -0.014 A 
ATOM     83  C   UNL A   1      43.029  25.117  28.839  1.00  0.00     0.010 A 
ATOM     84  C   UNL A   1      44.611  23.652  27.740  1.00  0.00     0.010 A 
ATOM     85  C   UNL A   1      41.978  24.244  28.531  1.00  0.00     0.020 A 
ATOM     86  C   UNL A   1      43.558  22.753  27.468  1.00  0.00     0.020 A 
ATOM     87  C   UNL A   1      42.242  23.090  27.800  1.00  0.00     0.054 A 
BRANCH  87  88
ATOM     88  S   UNL A   1      40.826  22.138  27.163  1.00  0.00     0.124 S 
ATOM     89  O   UNL A   1      41.300  21.732  25.843  1.00  0.00    -0.237 OA
ATOM     90  O   UNL A   1      40.700  21.060  28.148  1.00  0.00    -0.237 OA
ATOM     91  O   UNL A   1      39.739  23.110  27.161  1.00  0.00    -0.744 OA
ENDBRANCH  87  88
ENDBRANCH  59  82
BRANCH  71  92
ATOM     92  C   UNL A   1      44.359  32.216  28.723  1.00  0.00    -0.014 A 
ATOM     93  C   UNL A   1      43.377  32.731  29.578  1.00  0.00     0.010 A 
ATOM     94  C   UNL A   1      44.771  33.051  27.655  1.00  0.00     0.010 A 
ATOM     95  C   UNL A   1      42.746  33.945  29.309  1.00  0.00     0.020 A 
ATOM     96  C   UNL A   1      44.224  34.312  27.436  1.00  0.00     0.020 A 
ATOM     97  C   UNL A   1      43.172  34.725  28.237  1.00  0.00     0.054 A 
BRANCH  97  98
ATOM     98  S   UNL A   1      42.335  36.285  27.915  1.00  0.00     0.124 S 
ATOM     99  O   UNL A   1      42.851  37.122  28.995  1.00  0.00    -0.237 OA
ATOM    100  O   UNL A   1      42.806  36.626  26.575  1.00  0.00    -0.237 OA
ATOM    101  O   UNL A   1      40.918  35.946  28.006  1.00  0.00    -0.744 OA
ENDBRANCH  97  98
ENDBRANCH  71  92
ENDBRANCH  45  46
ENDBRANCH  37  40
ENDBRANCH  35  36
ENDBRANCH  34  35
ENDBRANCH  33  34
ENDBRANCH  32  33
ENDBRANCH   1  32
TORSDOF 22
ENDMDL
