MODEL 1
REMARK VINA RESULT:     -10.6      0.000      0.000
REMARK SMILES CCc1ccnc(C(=O)c2[nH]c3ccc(OC(F)(F)F)cc3c2CC(=O)NCCCCCCNC(=O)c2ccc(-c3c4nc(c(-c5ccc(S(=O)(=O)[O-])cc5)c5ccc([nH]5)c(-c5ccc(S(=O)(=O)[O-])cc5)c5nc(c(-c6ccc(S(=O)(=O)[O-])cc6)c6ccc3[nH]6)C=C5)C=C4)cc2)c1
REMARK SMILES IDX 30 1 29 2 28 3 27 4 25 5 26 6 24 8 23 9 10 10 11 11 12 12
REMARK SMILES IDX 22 14 13 15 21 16 14 17 15 18 8 19 9 20 7 21 3 22 4 23 97 24
REMARK SMILES IDX 5 25 6 26 2 27 1 28 16 29 17 30 18 31 19 32 20 33 31 34
REMARK SMILES IDX 32 35 33 36 34 37 35 38 36 40 37 41 38 42 96 43 39 44 95 45
REMARK SMILES IDX 40 46 41 47 42 48 89 49 43 50 94 51 88 52 90 53 44 54 93 55
REMARK SMILES IDX 87 56 86 57 45 59 75 60 56 61 74 62 57 63 60 64 73 65 91 66
REMARK SMILES IDX 58 67 59 68 72 70 92 71 61 72 46 73 47 74 55 75 48 76 54 77
REMARK SMILES IDX 49 78 50 79 51 80 52 81 53 82 76 83 77 84 85 85 78 86 84 87
REMARK SMILES IDX 79 88 80 89 81 90 82 91 83 92 62 93 63 94 71 95 64 96 70 97
REMARK SMILES IDX 65 98 66 99 67 100 68 101 69 102
REMARK H PARENT 27 7 11 13 34 39 90 58 60 69
REMARK Flexibility Score: inf
ROOT
ATOM      1  C   UNL A   1      35.973  30.376  28.561  1.00  0.00     0.002 C 
ENDROOT
BRANCH   1   2
ATOM      2  C   UNL A   1      35.373  29.466  27.481  1.00  0.00     0.021 C 
BRANCH   2   3
ATOM      3  C   UNL A   1      34.026  29.931  26.928  1.00  0.00     0.116 C 
BRANCH   3   4
ATOM      4  N   UNL A   1      32.905  29.304  27.602  1.00  0.00    -0.356 N 
ATOM      5  C   UNL A   1      32.117  28.265  27.196  1.00  0.00     0.224 C 
ATOM      6  O   UNL A   1      31.281  27.825  27.989  1.00  0.00    -0.275 OA
ATOM      7  H   UNL A   1      32.679  29.683  28.482  1.00  0.00     0.163 HD
BRANCH   5   8
ATOM      8  C   UNL A   1      32.350  27.585  25.855  1.00  0.00     0.138 C 
BRANCH   8   9
ATOM      9  C   UNL A   1      31.111  27.120  25.145  1.00  0.00    -0.002 A 
ATOM     10  C   UNL A   1      30.595  25.829  25.091  1.00  0.00     0.093 A 
ATOM     11  N   UNL A   1      29.402  25.890  24.407  1.00  0.00    -0.352 N 
ATOM     12  C   UNL A   1      29.208  27.144  23.883  1.00  0.00     0.046 A 
ATOM     13  H   UNL A   1      28.774  25.139  24.308  1.00  0.00     0.167 HD
ATOM     14  C   UNL A   1      30.265  27.936  24.318  1.00  0.00     0.008 A 
ATOM     15  C   UNL A   1      28.178  27.634  23.075  1.00  0.00     0.030 A 
ATOM     16  C   UNL A   1      30.297  29.286  23.908  1.00  0.00     0.057 A 
ATOM     17  C   UNL A   1      28.233  28.979  22.687  1.00  0.00     0.049 A 
ATOM     18  C   UNL A   1      29.280  29.805  23.093  1.00  0.00     0.130 A 
BRANCH  10  19
ATOM     19  C   UNL A   1      31.105  24.602  25.678  1.00  0.00     0.227 C 
ATOM     20  O   UNL A   1      30.708  24.209  26.769  1.00  0.00    -0.285 OA
BRANCH  19  21
ATOM     21  C   UNL A   1      32.110  23.795  24.884  1.00  0.00     0.113 A 
ATOM     22  C   UNL A   1      32.987  21.720  24.020  1.00  0.00    -0.044 A 
ATOM     23  C   UNL A   1      34.036  22.449  23.458  1.00  0.00     0.024 A 
ATOM     24  C   UNL A   1      31.999  22.412  24.733  1.00  0.00     0.036 A 
ATOM     25  C   UNL A   1      34.064  23.821  23.644  1.00  0.00     0.112 A 
ATOM     26  N   UNL A   1      33.139  24.503  24.348  1.00  0.00    -0.253 NA
BRANCH  22  27
ATOM     27  C   UNL A   1      32.932  20.220  23.881  1.00  0.00     0.032 C 
ATOM     28  C   UNL A   1      32.158  19.571  25.020  1.00  0.00     0.009 C 
ENDBRANCH  22  27
ENDBRANCH  19  21
ENDBRANCH  10  19
BRANCH  18  29
ATOM     29  O   UNL A   1      29.443  31.125  22.779  1.00  0.00    -0.406 OA
BRANCH  29  30
ATOM     30  C   UNL A   1      28.423  32.032  23.165  1.00  0.00     0.573 C 
ATOM     31  F   UNL A   1      27.554  32.237  22.152  1.00  0.00    -0.132 F 
ATOM     32  F   UNL A   1      27.759  31.581  24.249  1.00  0.00    -0.132 F 
ATOM     33  F   UNL A   1      28.994  33.216  23.474  1.00  0.00    -0.132 F 
ENDBRANCH  29  30
ENDBRANCH  18  29
ENDBRANCH   8   9
ENDBRANCH   5   8
ENDBRANCH   3   4
ENDBRANCH   2   3
ENDBRANCH   1   2
BRANCH   1  34
ATOM     34  C   UNL A   1      36.009  31.872  28.231  1.00  0.00     0.002 C 
BRANCH  34  35
ATOM     35  C   UNL A   1      35.070  32.765  29.050  1.00  0.00     0.021 C 
BRANCH  35  36
ATOM     36  C   UNL A   1      34.978  32.436  30.540  1.00  0.00     0.116 C 
BRANCH  36  37
ATOM     37  N   UNL A   1      35.328  33.567  31.382  1.00  0.00    -0.352 N 
ATOM     38  C   UNL A   1      36.555  33.958  31.857  1.00  0.00     0.251 C 
ATOM     39  H   UNL A   1      34.573  34.138  31.652  1.00  0.00     0.163 HD
ATOM     40  O   UNL A   1      36.625  34.861  32.690  1.00  0.00    -0.269 OA
BRANCH  38  41
ATOM     41  C   UNL A   1      37.796  33.291  31.397  1.00  0.00     0.039 A 
ATOM     42  C   UNL A   1      38.357  33.688  30.177  1.00  0.00     0.014 A 
ATOM     43  C   UNL A   1      38.382  32.251  32.126  1.00  0.00     0.014 A 
ATOM     44  C   UNL A   1      39.529  33.083  29.715  1.00  0.00     0.010 A 
ATOM     45  C   UNL A   1      39.572  31.670  31.680  1.00  0.00     0.010 A 
ATOM     46  C   UNL A   1      40.156  32.083  30.473  1.00  0.00    -0.014 A 
BRANCH  46  47
ATOM     47  C   UNL A   1      41.429  31.466  30.022  1.00  0.00     0.031 A 
ATOM     48  C   UNL A   1      42.702  32.265  30.015  1.00  0.00     0.074 A 
ATOM     49  C   UNL A   1      41.430  30.200  29.565  1.00  0.00     0.049 A 
ATOM     50  N   UNL A   1      43.888  31.918  29.584  1.00  0.00    -0.248 NA
ATOM     51  C   UNL A   1      42.627  33.634  30.546  1.00  0.00     0.031 C 
ATOM     52  C   UNL A   1      40.261  29.322  29.495  1.00  0.00     0.029 A 
ATOM     53  N   UNL A   1      42.453  29.436  29.061  1.00  0.00    -0.354 N 
ATOM     54  C   UNL A   1      44.697  33.033  29.766  1.00  0.00     0.074 A 
ATOM     55  C   UNL A   1      43.862  34.070  30.337  1.00  0.00     0.031 C 
ATOM     56  C   UNL A   1      40.635  28.136  28.985  1.00  0.00     0.029 A 
ATOM     57  C   UNL A   1      42.060  28.178  28.673  1.00  0.00     0.049 A 
ATOM     58  H   UNL A   1      43.380  29.759  28.985  1.00  0.00     0.167 HD
ATOM     59  C   UNL A   1      46.014  33.183  29.486  1.00  0.00     0.031 A 
ATOM     60  C   UNL A   1      42.764  27.172  28.122  1.00  0.00     0.031 A 
ATOM     61  C   UNL A   1      46.856  32.155  28.937  1.00  0.00     0.049 A 
ATOM     62  C   UNL A   1      44.229  27.349  27.847  1.00  0.00     0.074 A 
ATOM     63  C   UNL A   1      48.210  32.207  28.656  1.00  0.00     0.029 A 
ATOM     64  N   UNL A   1      46.425  30.885  28.588  1.00  0.00    -0.354 N 
ATOM     65  N   UNL A   1      44.981  28.404  28.050  1.00  0.00    -0.248 NA
ATOM     66  C   UNL A   1      44.940  26.198  27.272  1.00  0.00     0.031 C 
ATOM     67  C   UNL A   1      48.596  30.971  28.121  1.00  0.00     0.029 A 
ATOM     68  C   UNL A   1      47.483  30.146  28.088  1.00  0.00     0.049 A 
ATOM     69  H   UNL A   1      45.501  30.557  28.681  1.00  0.00     0.167 HD
ATOM     70  C   UNL A   1      46.256  28.042  27.635  1.00  0.00     0.074 A 
ATOM     71  C   UNL A   1      46.177  26.669  27.179  1.00  0.00     0.031 C 
ATOM     72  C   UNL A   1      47.391  28.783  27.635  1.00  0.00     0.031 A 
BRANCH  59  73
ATOM     73  C   UNL A   1      46.614  34.532  29.759  1.00  0.00    -0.014 A 
ATOM     74  C   UNL A   1      47.170  34.832  31.016  1.00  0.00     0.010 A 
ATOM     75  C   UNL A   1      46.617  35.511  28.751  1.00  0.00     0.010 A 
ATOM     76  C   UNL A   1      47.676  36.109  31.274  1.00  0.00     0.020 A 
ATOM     77  C   UNL A   1      47.135  36.783  29.002  1.00  0.00     0.020 A 
ATOM     78  C   UNL A   1      47.640  37.081  30.270  1.00  0.00     0.054 A 
BRANCH  78  79
ATOM     79  S   UNL A   1      48.283  38.741  30.620  1.00  0.00     0.124 S 
ATOM     80  O   UNL A   1      48.164  38.806  32.075  1.00  0.00    -0.237 OA
ATOM     81  O   UNL A   1      49.648  38.684  30.104  1.00  0.00    -0.237 OA
ATOM     82  O   UNL A   1      47.378  39.619  29.880  1.00  0.00    -0.744 OA
ENDBRANCH  78  79
ENDBRANCH  59  73
BRANCH  60  83
ATOM     83  C   UNL A   1      42.082  25.893  27.805  1.00  0.00    -0.014 A 
ATOM     84  C   UNL A   1      41.406  25.739  26.583  1.00  0.00     0.010 A 
ATOM     85  C   UNL A   1      42.144  24.815  28.703  1.00  0.00     0.010 A 
ATOM     86  C   UNL A   1      40.800  24.521  26.263  1.00  0.00     0.020 A 
ATOM     87  C   UNL A   1      41.549  23.592  28.380  1.00  0.00     0.020 A 
ATOM     88  C   UNL A   1      40.876  23.456  27.163  1.00  0.00     0.054 A 
BRANCH  88  89
ATOM     89  S   UNL A   1      40.159  21.852  26.705  1.00  0.00     0.124 S 
ATOM     90  O   UNL A   1      38.765  22.203  26.458  1.00  0.00    -0.237 OA
ATOM     91  O   UNL A   1      40.936  21.474  25.525  1.00  0.00    -0.237 OA
ATOM     92  O   UNL A   1      40.403  21.028  27.887  1.00  0.00    -0.744 OA
ENDBRANCH  88  89
ENDBRANCH  60  83
BRANCH  72  93
ATOM     93  C   UNL A   1      48.640  28.118  27.136  1.00  0.00    -0.014 A 
ATOM     94  C   UNL A   1      48.987  28.173  25.775  1.00  0.00     0.010 A 
ATOM     95  C   UNL A   1      49.493  27.462  28.040  1.00  0.00     0.010 A 
ATOM     96  C   UNL A   1      50.161  27.566  25.322  1.00  0.00     0.020 A 
ATOM     97  C   UNL A   1      50.672  26.863  27.592  1.00  0.00     0.020 A 
ATOM     98  C   UNL A   1      50.993  26.907  26.233  1.00  0.00     0.054 A 
BRANCH  98  99
ATOM     99  S   UNL A   1      52.536  26.156  25.643  1.00  0.00     0.124 S 
ATOM    100  O   UNL A   1      53.544  26.937  26.353  1.00  0.00    -0.237 OA
ATOM    101  O   UNL A   1      52.408  24.763  26.065  1.00  0.00    -0.237 OA
ATOM    102  O   UNL A   1      52.485  26.366  24.198  1.00  0.00    -0.744 OA
ENDBRANCH  98  99
ENDBRANCH  72  93
ENDBRANCH  46  47
ENDBRANCH  38  41
ENDBRANCH  36  37
ENDBRANCH  35  36
ENDBRANCH  34  35
ENDBRANCH   1  34
TORSDOF 22
ENDMDL
MODEL 2
REMARK VINA RESULT:     -10.5      5.226      6.928
REMARK SMILES CCc1ccnc(C(=O)c2[nH]c3ccc(OC(F)(F)F)cc3c2CC(=O)NCCCCCCNC(=O)c2ccc(-c3c4nc(c(-c5ccc(S(=O)(=O)[O-])cc5)c5ccc([nH]5)c(-c5ccc(S(=O)(=O)[O-])cc5)c5nc(c(-c6ccc(S(=O)(=O)[O-])cc6)c6ccc3[nH]6)C=C5)C=C4)cc2)c1
REMARK SMILES IDX 30 1 29 2 28 3 27 4 25 5 26 6 24 8 23 9 10 10 11 11 12 12
REMARK SMILES IDX 22 14 13 15 21 16 14 17 15 18 8 19 9 20 7 21 3 22 4 23 97 24
REMARK SMILES IDX 5 25 6 26 2 27 1 28 16 29 17 30 18 31 19 32 20 33 31 34
REMARK SMILES IDX 32 35 33 36 34 37 35 38 36 40 37 41 38 42 96 43 39 44 95 45
REMARK SMILES IDX 40 46 41 47 42 48 89 49 43 50 94 51 88 52 90 53 44 54 93 55
REMARK SMILES IDX 87 56 86 57 45 59 75 60 56 61 74 62 57 63 60 64 73 65 91 66
REMARK SMILES IDX 58 67 59 68 72 70 92 71 61 72 46 73 47 74 55 75 48 76 54 77
REMARK SMILES IDX 49 78 50 79 51 80 52 81 53 82 76 83 77 84 85 85 78 86 84 87
REMARK SMILES IDX 79 88 80 89 81 90 82 91 83 92 62 93 63 94 71 95 64 96 70 97
REMARK SMILES IDX 65 98 66 99 67 100 68 101 69 102
REMARK H PARENT 27 7 11 13 34 39 90 58 60 69
REMARK Flexibility Score: inf
ROOT
ATOM      1  C   UNL A   1      31.757  30.264  25.928  1.00  0.00     0.002 C 
ENDROOT
BRANCH   1   2
ATOM      2  C   UNL A   1      33.223  30.189  25.481  1.00  0.00     0.021 C 
BRANCH   2   3
ATOM      3  C   UNL A   1      34.023  29.043  26.098  1.00  0.00     0.116 C 
BRANCH   3   4
ATOM      4  N   UNL A   1      34.296  27.984  25.147  1.00  0.00    -0.356 N 
ATOM      5  C   UNL A   1      33.800  26.712  25.097  1.00  0.00     0.224 C 
ATOM      6  O   UNL A   1      34.094  26.011  24.124  1.00  0.00    -0.275 OA
ATOM      7  H   UNL A   1      34.933  28.214  24.432  1.00  0.00     0.163 HD
BRANCH   5   8
ATOM      8  C   UNL A   1      32.809  26.217  26.139  1.00  0.00     0.138 C 
BRANCH   8   9
ATOM      9  C   UNL A   1      31.450  25.853  25.615  1.00  0.00    -0.002 A 
ATOM     10  C   UNL A   1      30.768  24.651  25.778  1.00  0.00     0.093 A 
ATOM     11  N   UNL A   1      29.525  24.801  25.207  1.00  0.00    -0.352 N 
ATOM     12  C   UNL A   1      29.438  26.000  24.544  1.00  0.00     0.046 A 
ATOM     13  H   UNL A   1      28.799  24.141  25.266  1.00  0.00     0.167 HD
ATOM     14  C   UNL A   1      30.630  26.680  24.771  1.00  0.00     0.008 A 
ATOM     15  C   UNL A   1      28.397  26.534  23.778  1.00  0.00     0.030 A 
ATOM     16  C   UNL A   1      30.790  27.954  24.187  1.00  0.00     0.057 A 
ATOM     17  C   UNL A   1      28.582  27.804  23.215  1.00  0.00     0.049 A 
ATOM     18  C   UNL A   1      29.765  28.514  23.410  1.00  0.00     0.130 A 
BRANCH  10  19
ATOM     19  C   UNL A   1      31.177  23.442  26.470  1.00  0.00     0.227 C 
ATOM     20  O   UNL A   1      30.773  23.190  27.600  1.00  0.00    -0.285 OA
BRANCH  19  21
ATOM     21  C   UNL A   1      32.083  22.473  25.739  1.00  0.00     0.113 A 
ATOM     22  C   UNL A   1      34.175  21.862  24.703  1.00  0.00    -0.044 A 
ATOM     23  C   UNL A   1      33.598  20.637  24.365  1.00  0.00     0.024 A 
ATOM     24  C   UNL A   1      33.403  22.789  25.417  1.00  0.00     0.036 A 
ATOM     25  C   UNL A   1      32.285  20.397  24.735  1.00  0.00     0.112 A 
ATOM     26  N   UNL A   1      31.518  21.285  25.398  1.00  0.00    -0.253 NA
BRANCH  22  27
ATOM     27  C   UNL A   1      35.587  22.187  24.289  1.00  0.00     0.032 C 
ATOM     28  C   UNL A   1      36.609  21.651  25.283  1.00  0.00     0.009 C 
ENDBRANCH  22  27
ENDBRANCH  19  21
ENDBRANCH  10  19
BRANCH  18  29
ATOM     29  O   UNL A   1      30.062  29.752  22.913  1.00  0.00    -0.406 OA
BRANCH  29  30
ATOM     30  C   UNL A   1      29.014  30.704  22.829  1.00  0.00     0.573 C 
ATOM     31  F   UNL A   1      29.488  31.955  23.011  1.00  0.00    -0.132 F 
ATOM     32  F   UNL A   1      28.383  30.627  21.639  1.00  0.00    -0.132 F 
ATOM     33  F   UNL A   1      28.119  30.447  23.806  1.00  0.00    -0.132 F 
ENDBRANCH  29  30
ENDBRANCH  18  29
ENDBRANCH   8   9
ENDBRANCH   5   8
ENDBRANCH   3   4
ENDBRANCH   2   3
ENDBRANCH   1   2
BRANCH   1  34
ATOM     34  C   UNL A   1      31.462  31.206  27.101  1.00  0.00     0.002 C 
BRANCH  34  35
ATOM     35  C   UNL A   1      31.745  32.692  26.858  1.00  0.00     0.021 C 
BRANCH  35  36
ATOM     36  C   UNL A   1      33.059  33.219  27.437  1.00  0.00     0.116 C 
BRANCH  36  37
ATOM     37  N   UNL A   1      32.919  34.542  28.019  1.00  0.00    -0.352 N 
ATOM     38  C   UNL A   1      33.527  35.080  29.126  1.00  0.00     0.251 C 
ATOM     39  H   UNL A   1      32.295  35.142  27.551  1.00  0.00     0.163 HD
ATOM     40  O   UNL A   1      33.156  36.173  29.551  1.00  0.00    -0.269 OA
BRANCH  38  41
ATOM     41  C   UNL A   1      34.608  34.351  29.830  1.00  0.00     0.039 A 
ATOM     42  C   UNL A   1      35.932  34.569  29.430  1.00  0.00     0.014 A 
ATOM     43  C   UNL A   1      34.329  33.423  30.838  1.00  0.00     0.014 A 
ATOM     44  C   UNL A   1      36.977  33.900  30.075  1.00  0.00     0.010 A 
ATOM     45  C   UNL A   1      35.376  32.780  31.504  1.00  0.00     0.010 A 
ATOM     46  C   UNL A   1      36.708  33.015  31.131  1.00  0.00    -0.014 A 
BRANCH  46  47
ATOM     47  C   UNL A   1      37.808  32.337  31.859  1.00  0.00     0.031 A 
ATOM     48  C   UNL A   1      38.230  32.816  33.221  1.00  0.00     0.074 A 
ATOM     49  C   UNL A   1      38.469  31.322  31.272  1.00  0.00     0.049 A 
ATOM     50  N   UNL A   1      39.217  32.397  33.970  1.00  0.00    -0.248 NA
ATOM     51  C   UNL A   1      37.450  33.917  33.805  1.00  0.00     0.031 C 
ATOM     52  C   UNL A   1      38.179  30.775  29.946  1.00  0.00     0.029 A 
ATOM     53  N   UNL A   1      39.532  30.576  31.716  1.00  0.00    -0.354 N 
ATOM     54  C   UNL A   1      39.197  33.198  35.104  1.00  0.00     0.074 A 
ATOM     55  C   UNL A   1      38.104  34.135  34.938  1.00  0.00     0.031 C 
ATOM     56  C   UNL A   1      39.038  29.775  29.688  1.00  0.00     0.029 A 
ATOM     57  C   UNL A   1      39.951  29.625  30.817  1.00  0.00     0.049 A 
ATOM     58  H   UNL A   1      39.955  30.709  32.596  1.00  0.00     0.167 HD
ATOM     59  C   UNL A   1      40.009  33.160  36.188  1.00  0.00     0.031 A 
ATOM     60  C   UNL A   1      40.960  28.737  30.888  1.00  0.00     0.031 A 
ATOM     61  C   UNL A   1      41.084  32.222  36.371  1.00  0.00     0.049 A 
ATOM     62  C   UNL A   1      41.830  28.692  32.110  1.00  0.00     0.074 A 
ATOM     63  C   UNL A   1      41.935  32.087  37.455  1.00  0.00     0.029 A 
ATOM     64  N   UNL A   1      41.454  31.256  35.450  1.00  0.00    -0.354 N 
ATOM     65  N   UNL A   1      41.778  29.444  33.183  1.00  0.00    -0.248 NA
ATOM     66  C   UNL A   1      42.893  27.677  32.130  1.00  0.00     0.031 C 
ATOM     67  C   UNL A   1      42.832  31.046  37.180  1.00  0.00     0.029 A 
ATOM     68  C   UNL A   1      42.525  30.525  35.935  1.00  0.00     0.049 A 
ATOM     69  H   UNL A   1      41.020  31.111  34.579  1.00  0.00     0.167 HD
ATOM     70  C   UNL A   1      42.795  28.987  34.011  1.00  0.00     0.074 A 
ATOM     71  C   UNL A   1      43.440  27.889  33.321  1.00  0.00     0.031 C 
ATOM     72  C   UNL A   1      43.159  29.437  35.236  1.00  0.00     0.031 A 
BRANCH  59  73
ATOM     73  C   UNL A   1      39.766  34.190  37.253  1.00  0.00    -0.014 A 
ATOM     74  C   UNL A   1      40.108  35.537  37.044  1.00  0.00     0.010 A 
ATOM     75  C   UNL A   1      39.194  33.804  38.478  1.00  0.00     0.010 A 
ATOM     76  C   UNL A   1      39.927  36.475  38.064  1.00  0.00     0.020 A 
ATOM     77  C   UNL A   1      38.998  34.742  39.494  1.00  0.00     0.020 A 
ATOM     78  C   UNL A   1      39.388  36.067  39.288  1.00  0.00     0.054 A 
BRANCH  78  79
ATOM     79  S   UNL A   1      39.172  37.289  40.613  1.00  0.00     0.124 S 
ATOM     80  O   UNL A   1      38.611  36.470  41.685  1.00  0.00    -0.237 OA
ATOM     81  O   UNL A   1      40.531  37.775  40.840  1.00  0.00    -0.237 OA
ATOM     82  O   UNL A   1      38.256  38.265  40.029  1.00  0.00    -0.744 OA
ENDBRANCH  78  79
ENDBRANCH  59  73
BRANCH  60  83
ATOM     83  C   UNL A   1      41.190  27.803  29.758  1.00  0.00    -0.014 A 
ATOM     84  C   UNL A   1      40.267  26.777  29.492  1.00  0.00     0.010 A 
ATOM     85  C   UNL A   1      42.307  27.963  28.922  1.00  0.00     0.010 A 
ATOM     86  C   UNL A   1      40.458  25.924  28.403  1.00  0.00     0.020 A 
ATOM     87  C   UNL A   1      42.494  27.118  27.825  1.00  0.00     0.020 A 
ATOM     88  C   UNL A   1      41.570  26.100  27.576  1.00  0.00     0.054 A 
BRANCH  88  89
ATOM     89  S   UNL A   1      41.768  25.041  26.114  1.00  0.00     0.124 S 
ATOM     90  O   UNL A   1      40.871  23.932  26.421  1.00  0.00    -0.237 OA
ATOM     91  O   UNL A   1      41.345  25.915  25.021  1.00  0.00    -0.237 OA
ATOM     92  O   UNL A   1      43.193  24.722  26.125  1.00  0.00    -0.744 OA
ENDBRANCH  88  89
ENDBRANCH  60  83
BRANCH  72  93
ATOM     93  C   UNL A   1      44.301  28.735  35.911  1.00  0.00    -0.014 A 
ATOM     94  C   UNL A   1      45.612  29.226  35.797  1.00  0.00     0.010 A 
ATOM     95  C   UNL A   1      44.056  27.594  36.694  1.00  0.00     0.010 A 
ATOM     96  C   UNL A   1      46.667  28.575  36.442  1.00  0.00     0.020 A 
ATOM     97  C   UNL A   1      45.106  26.947  37.349  1.00  0.00     0.020 A 
ATOM     98  C   UNL A   1      46.409  27.434  37.208  1.00  0.00     0.054 A 
BRANCH  98  99
ATOM     99  S   UNL A   1      47.778  26.619  38.076  1.00  0.00     0.124 S 
ATOM    100  O   UNL A   1      47.171  26.296  39.364  1.00  0.00    -0.237 OA
ATOM    101  O   UNL A   1      48.078  25.474  37.218  1.00  0.00    -0.237 OA
ATOM    102  O   UNL A   1      48.816  27.646  38.113  1.00  0.00    -0.744 OA
ENDBRANCH  98  99
ENDBRANCH  72  93
ENDBRANCH  46  47
ENDBRANCH  38  41
ENDBRANCH  36  37
ENDBRANCH  35  36
ENDBRANCH  34  35
ENDBRANCH   1  34
TORSDOF 22
ENDMDL
MODEL 3
REMARK VINA RESULT:     -10.5      3.218      8.768
REMARK SMILES CCc1ccnc(C(=O)c2[nH]c3ccc(OC(F)(F)F)cc3c2CC(=O)NCCCCCCNC(=O)c2ccc(-c3c4nc(c(-c5ccc(S(=O)(=O)[O-])cc5)c5ccc([nH]5)c(-c5ccc(S(=O)(=O)[O-])cc5)c5nc(c(-c6ccc(S(=O)(=O)[O-])cc6)c6ccc3[nH]6)C=C5)C=C4)cc2)c1
REMARK SMILES IDX 30 1 29 2 28 3 27 4 25 5 26 6 24 8 23 9 10 10 11 11 12 12
REMARK SMILES IDX 22 14 13 15 21 16 14 17 15 18 8 19 9 20 7 21 3 22 4 23 97 24
REMARK SMILES IDX 5 25 6 26 2 27 1 28 16 29 17 30 18 31 19 32 20 33 31 34
REMARK SMILES IDX 32 35 33 36 34 37 35 38 36 40 37 41 38 42 96 43 39 44 95 45
REMARK SMILES IDX 40 46 41 47 42 48 89 49 43 50 94 51 88 52 90 53 44 54 93 55
REMARK SMILES IDX 87 56 86 57 45 59 75 60 56 61 74 62 57 63 60 64 73 65 91 66
REMARK SMILES IDX 58 67 59 68 72 70 92 71 61 72 46 73 47 74 55 75 48 76 54 77
REMARK SMILES IDX 49 78 50 79 51 80 52 81 53 82 76 83 77 84 85 85 78 86 84 87
REMARK SMILES IDX 79 88 80 89 81 90 82 91 83 92 62 93 63 94 71 95 64 96 70 97
REMARK SMILES IDX 65 98 66 99 67 100 68 101 69 102
REMARK H PARENT 27 7 11 13 34 39 90 58 60 69
REMARK Flexibility Score: inf
ROOT
ATOM      1  C   UNL A   1      38.647  22.699  26.017  1.00  0.00     0.002 C 
ENDROOT
BRANCH   1   2
ATOM      2  C   UNL A   1      37.842  21.825  25.046  1.00  0.00     0.021 C 
BRANCH   2   3
ATOM      3  C   UNL A   1      36.374  22.224  24.893  1.00  0.00     0.116 C 
BRANCH   3   4
ATOM      4  N   UNL A   1      35.703  22.366  26.170  1.00  0.00    -0.356 N 
ATOM      5  C   UNL A   1      34.686  23.205  26.528  1.00  0.00     0.224 C 
ATOM      6  O   UNL A   1      34.194  23.076  27.653  1.00  0.00    -0.275 OA
ATOM      7  H   UNL A   1      36.028  21.772  26.884  1.00  0.00     0.163 HD
BRANCH   5   8
ATOM      8  C   UNL A   1      34.088  24.182  25.527  1.00  0.00     0.138 C 
BRANCH   8   9
ATOM      9  C   UNL A   1      32.933  24.997  26.034  1.00  0.00    -0.002 A 
ATOM     10  C   UNL A   1      31.629  24.572  26.269  1.00  0.00     0.093 A 
ATOM     11  N   UNL A   1      30.941  25.633  26.813  1.00  0.00    -0.352 N 
ATOM     12  C   UNL A   1      31.709  26.770  26.791  1.00  0.00     0.046 A 
ATOM     13  H   UNL A   1      30.025  25.583  27.168  1.00  0.00     0.167 HD
ATOM     14  C   UNL A   1      32.960  26.409  26.300  1.00  0.00     0.008 A 
ATOM     15  C   UNL A   1      31.397  28.077  27.179  1.00  0.00     0.030 A 
ATOM     16  C   UNL A   1      33.941  27.415  26.179  1.00  0.00     0.057 A 
ATOM     17  C   UNL A   1      32.393  29.054  27.051  1.00  0.00     0.049 A 
ATOM     18  C   UNL A   1      33.656  28.736  26.555  1.00  0.00     0.130 A 
BRANCH  10  19
ATOM     19  C   UNL A   1      31.035  23.261  26.079  1.00  0.00     0.227 C 
ATOM     20  O   UNL A   1      30.171  22.840  26.842  1.00  0.00    -0.285 OA
BRANCH  19  21
ATOM     21  C   UNL A   1      31.478  22.441  24.886  1.00  0.00     0.113 A 
ATOM     22  C   UNL A   1      32.366  20.439  23.873  1.00  0.00    -0.044 A 
ATOM     23  C   UNL A   1      32.298  21.087  22.639  1.00  0.00     0.024 A 
ATOM     24  C   UNL A   1      31.932  21.128  25.014  1.00  0.00     0.036 A 
ATOM     25  C   UNL A   1      31.821  22.387  22.598  1.00  0.00     0.112 A 
ATOM     26  N   UNL A   1      31.424  23.076  23.686  1.00  0.00    -0.253 NA
BRANCH  22  27
ATOM     27  C   UNL A   1      32.916  19.039  23.977  1.00  0.00     0.032 C 
ATOM     28  C   UNL A   1      32.783  18.480  25.387  1.00  0.00     0.009 C 
ENDBRANCH  22  27
ENDBRANCH  19  21
ENDBRANCH  10  19
BRANCH  18  29
ATOM     29  O   UNL A   1      34.703  29.598  26.384  1.00  0.00    -0.406 OA
BRANCH  29  30
ATOM     30  C   UNL A   1      35.400  30.038  27.539  1.00  0.00     0.573 C 
ATOM     31  F   UNL A   1      34.781  31.100  28.096  1.00  0.00    -0.132 F 
ATOM     32  F   UNL A   1      35.506  29.046  28.447  1.00  0.00    -0.132 F 
ATOM     33  F   UNL A   1      36.642  30.419  27.173  1.00  0.00    -0.132 F 
ENDBRANCH  29  30
ENDBRANCH  18  29
ENDBRANCH   8   9
ENDBRANCH   5   8
ENDBRANCH   3   4
ENDBRANCH   2   3
ENDBRANCH   1   2
BRANCH   1  34
ATOM     34  C   UNL A   1      39.874  22.037  26.653  1.00  0.00     0.002 C 
BRANCH  34  35
ATOM     35  C   UNL A   1      40.055  20.542  26.369  1.00  0.00     0.021 C 
BRANCH  35  36
ATOM     36  C   UNL A   1      41.276  19.888  27.019  1.00  0.00     0.116 C 
BRANCH  36  37
ATOM     37  N   UNL A   1      42.231  19.399  26.041  1.00  0.00    -0.352 N 
ATOM     38  C   UNL A   1      43.226  20.072  25.376  1.00  0.00     0.251 C 
ATOM     39  H   UNL A   1      42.153  18.443  25.820  1.00  0.00     0.163 HD
ATOM     40  O   UNL A   1      43.833  19.513  24.464  1.00  0.00    -0.269 OA
BRANCH  38  41
ATOM     41  C   UNL A   1      43.564  21.471  25.729  1.00  0.00     0.039 A 
ATOM     42  C   UNL A   1      44.207  21.718  26.948  1.00  0.00     0.014 A 
ATOM     43  C   UNL A   1      43.212  22.540  24.900  1.00  0.00     0.014 A 
ATOM     44  C   UNL A   1      44.544  23.025  27.310  1.00  0.00     0.010 A 
ATOM     45  C   UNL A   1      43.579  23.843  25.246  1.00  0.00     0.010 A 
ATOM     46  C   UNL A   1      44.250  24.096  26.452  1.00  0.00    -0.014 A 
BRANCH  46  47
ATOM     47  C   UNL A   1      44.646  25.484  26.798  1.00  0.00     0.031 A 
ATOM     48  C   UNL A   1      46.032  25.980  26.491  1.00  0.00     0.074 A 
ATOM     49  C   UNL A   1      43.777  26.284  27.442  1.00  0.00     0.049 A 
ATOM     50  N   UNL A   1      46.578  27.131  26.788  1.00  0.00    -0.248 NA
ATOM     51  C   UNL A   1      46.920  25.055  25.770  1.00  0.00     0.031 C 
ATOM     52  C   UNL A   1      42.410  25.921  27.822  1.00  0.00     0.029 A 
ATOM     53  N   UNL A   1      43.919  27.570  27.899  1.00  0.00    -0.354 N 
ATOM     54  C   UNL A   1      47.883  27.063  26.316  1.00  0.00     0.074 A 
ATOM     55  C   UNL A   1      48.048  25.753  25.722  1.00  0.00     0.031 C 
ATOM     56  C   UNL A   1      41.838  26.963  28.448  1.00  0.00     0.029 A 
ATOM     57  C   UNL A   1      42.801  28.056  28.532  1.00  0.00     0.049 A 
ATOM     58  H   UNL A   1      44.745  28.095  27.785  1.00  0.00     0.167 HD
ATOM     59  C   UNL A   1      48.856  28.004  26.369  1.00  0.00     0.031 A 
ATOM     60  C   UNL A   1      42.577  29.245  29.122  1.00  0.00     0.031 A 
ATOM     61  C   UNL A   1      48.697  29.314  26.939  1.00  0.00     0.049 A 
ATOM     62  C   UNL A   1      43.659  30.284  29.144  1.00  0.00     0.074 A 
ATOM     63  C   UNL A   1      49.619  30.345  27.002  1.00  0.00     0.029 A 
ATOM     64  N   UNL A   1      47.538  29.778  27.542  1.00  0.00    -0.354 N 
ATOM     65  N   UNL A   1      44.880  30.209  28.669  1.00  0.00    -0.248 NA
ATOM     66  C   UNL A   1      43.333  31.569  29.778  1.00  0.00     0.031 C 
ATOM     67  C   UNL A   1      49.021  31.429  27.659  1.00  0.00     0.029 A 
ATOM     68  C   UNL A   1      47.722  31.076  27.986  1.00  0.00     0.049 A 
ATOM     69  H   UNL A   1      46.707  29.260  27.640  1.00  0.00     0.167 HD
ATOM     70  C   UNL A   1      45.464  31.439  28.940  1.00  0.00     0.074 A 
ATOM     71  C   UNL A   1      44.463  32.244  29.610  1.00  0.00     0.031 C 
ATOM     72  C   UNL A   1      46.719  31.863  28.655  1.00  0.00     0.031 A 
BRANCH  59  73
ATOM     73  C   UNL A   1      50.194  27.625  25.802  1.00  0.00    -0.014 A 
ATOM     74  C   UNL A   1      51.245  27.223  26.645  1.00  0.00     0.010 A 
ATOM     75  C   UNL A   1      50.403  27.679  24.413  1.00  0.00     0.010 A 
ATOM     76  C   UNL A   1      52.502  26.927  26.109  1.00  0.00     0.020 A 
ATOM     77  C   UNL A   1      51.654  27.369  23.874  1.00  0.00     0.020 A 
ATOM     78  C   UNL A   1      52.702  27.018  24.728  1.00  0.00     0.054 A 
BRANCH  78  79
ATOM     79  S   UNL A   1      54.341  26.648  24.044  1.00  0.00     0.124 S 
ATOM     80  O   UNL A   1      54.104  26.792  22.609  1.00  0.00    -0.237 OA
ATOM     81  O   UNL A   1      55.190  27.673  24.645  1.00  0.00    -0.237 OA
ATOM     82  O   UNL A   1      54.600  25.284  24.500  1.00  0.00    -0.744 OA
ENDBRANCH  78  79
ENDBRANCH  59  73
BRANCH  60  83
ATOM     83  C   UNL A   1      41.252  29.517  29.733  1.00  0.00    -0.014 A 
ATOM     84  C   UNL A   1      41.101  29.494  31.130  1.00  0.00     0.010 A 
ATOM     85  C   UNL A   1      40.151  29.842  28.923  1.00  0.00     0.010 A 
ATOM     86  C   UNL A   1      39.866  29.793  31.710  1.00  0.00     0.020 A 
ATOM     87  C   UNL A   1      38.917  30.152  29.501  1.00  0.00     0.020 A 
ATOM     88  C   UNL A   1      38.782  30.120  30.891  1.00  0.00     0.054 A 
BRANCH  88  89
ATOM     89  S   UNL A   1      37.202  30.589  31.654  1.00  0.00     0.124 S 
ATOM     90  O   UNL A   1      37.569  30.707  33.061  1.00  0.00    -0.237 OA
ATOM     91  O   UNL A   1      36.874  31.843  30.978  1.00  0.00    -0.237 OA
ATOM     92  O   UNL A   1      36.327  29.468  31.322  1.00  0.00    -0.744 OA
ENDBRANCH  88  89
ENDBRANCH  60  83
BRANCH  72  93
ATOM     93  C   UNL A   1      47.075  33.264  29.058  1.00  0.00    -0.014 A 
ATOM     94  C   UNL A   1      46.776  34.350  28.218  1.00  0.00     0.010 A 
ATOM     95  C   UNL A   1      47.682  33.501  30.304  1.00  0.00     0.010 A 
ATOM     96  C   UNL A   1      47.096  35.653  28.610  1.00  0.00     0.020 A 
ATOM     97  C   UNL A   1      47.994  34.803  30.703  1.00  0.00     0.020 A 
ATOM     98  C   UNL A   1      47.711  35.870  29.847  1.00  0.00     0.054 A 
BRANCH  98  99
ATOM     99  S   UNL A   1      48.085  37.568  30.365  1.00  0.00     0.124 S 
ATOM    100  O   UNL A   1      47.089  37.794  31.408  1.00  0.00    -0.237 OA
ATOM    101  O   UNL A   1      49.469  37.475  30.828  1.00  0.00    -0.237 OA
ATOM    102  O   UNL A   1      47.899  38.346  29.142  1.00  0.00    -0.744 OA
ENDBRANCH  98  99
ENDBRANCH  72  93
ENDBRANCH  46  47
ENDBRANCH  38  41
ENDBRANCH  36  37
ENDBRANCH  35  36
ENDBRANCH  34  35
ENDBRANCH   1  34
TORSDOF 22
ENDMDL
