MODEL 1
REMARK VINA RESULT:     -10.7      0.000      0.000
REMARK SMILES C[C@@H](C(=O)NCCCCCCNC(=O)c1ccc(-c2c3nc(c(-c4ccc(S(=O)(=O)[O-])cc4)c4ccc([nH]4)c(-c4ccc(S(=O)(=O)[O-])cc4)c4nc(c(-c5ccc(S(=O)(=O)[O-])cc5)c5ccc2[nH]5)C=C4)C=C3)cc1)c1ccc(C[C@H]2CCC[C@@H]2O)cc1
REMARK SMILES IDX 8 1 7 2 6 3 5 4 3 5 4 6 2 8 1 9 75 10 76 11 87 12 77 13
REMARK SMILES IDX 86 14 78 15 79 16 80 17 81 18 84 19 82 20 83 21 85 22 9 24
REMARK SMILES IDX 10 25 11 26 12 27 13 28 14 30 15 31 16 32 74 33 17 34 73 35
REMARK SMILES IDX 18 36 19 37 20 38 67 39 21 40 72 41 66 42 68 43 22 44 71 45
REMARK SMILES IDX 65 46 64 47 23 49 53 50 34 51 52 52 35 53 38 54 51 55 69 56
REMARK SMILES IDX 36 57 37 58 50 60 70 61 39 62 24 63 25 64 33 65 26 66 32 67
REMARK SMILES IDX 27 68 28 69 29 70 30 71 31 72 54 73 55 74 63 75 56 76 62 77
REMARK SMILES IDX 57 78 58 79 59 80 60 81 61 82 40 83 41 84 49 85 42 86 48 87
REMARK SMILES IDX 43 88 44 89 45 90 46 91 47 92
REMARK H PARENT 5 7 85 23 12 29 68 48 38 59
REMARK Flexibility Score: inf
ROOT
ATOM      1  C   UNL A   1      34.162  25.601  25.769  1.00  0.00     0.002 C 
ENDROOT
BRANCH   1   2
ATOM      2  C   UNL A   1      34.586  24.272  25.126  1.00  0.00     0.021 C 
BRANCH   2   3
ATOM      3  C   UNL A   1      34.248  23.032  25.962  1.00  0.00     0.116 C 
BRANCH   3   4
ATOM      4  N   UNL A   1      33.272  22.223  25.262  1.00  0.00    -0.356 N 
ATOM      5  C   UNL A   1      31.957  22.036  25.587  1.00  0.00     0.227 C 
ATOM      6  O   UNL A   1      31.482  20.931  25.324  1.00  0.00    -0.274 OA
ATOM      7  H   UNL A   1      33.592  21.752  24.459  1.00  0.00     0.163 HD
BRANCH   5   8
ATOM      8  C   UNL A   1      31.174  23.190  26.241  1.00  0.00     0.105 C 
ATOM      9  C   UNL A   1      29.950  22.611  26.963  1.00  0.00     0.023 C 
BRANCH   8  10
ATOM     10  C   UNL A   1      30.771  24.339  25.307  1.00  0.00    -0.036 A 
ATOM     11  C   UNL A   1      30.935  24.287  23.917  1.00  0.00     0.005 A 
ATOM     12  C   UNL A   1      30.238  25.525  25.845  1.00  0.00     0.005 A 
ATOM     13  C   UNL A   1      30.528  25.338  23.095  1.00  0.00     0.004 A 
ATOM     14  C   UNL A   1      29.861  26.594  25.025  1.00  0.00     0.004 A 
ATOM     15  C   UNL A   1      30.016  26.516  23.639  1.00  0.00    -0.048 A 
BRANCH  15  16
ATOM     16  C   UNL A   1      29.684  27.687  22.749  1.00  0.00     0.041 C 
BRANCH  16  17
ATOM     17  C   UNL A   1      29.004  28.877  23.449  1.00  0.00     0.022 C 
ATOM     18  C   UNL A   1      29.896  30.104  23.704  1.00  0.00     0.007 C 
ATOM     19  C   UNL A   1      27.769  29.447  22.745  1.00  0.00     0.117 C 
ATOM     20  C   UNL A   1      28.994  31.328  23.520  1.00  0.00     0.003 C 
ATOM     21  C   UNL A   1      27.575  30.784  23.440  1.00  0.00     0.032 C 
BRANCH  19  22
ATOM     22  O   UNL A   1      26.647  28.601  22.910  1.00  0.00    -0.393 OA
ATOM     23  H   UNL A   1      26.346  28.290  22.041  1.00  0.00     0.210 HD
ENDBRANCH  19  22
ENDBRANCH  16  17
ENDBRANCH  15  16
ENDBRANCH   8  10
ENDBRANCH   5   8
ENDBRANCH   3   4
ENDBRANCH   2   3
ENDBRANCH   1   2
BRANCH   1  24
ATOM     24  C   UNL A   1      33.601  26.637  24.793  1.00  0.00     0.002 C 
BRANCH  24  25
ATOM     25  C   UNL A   1      33.203  27.969  25.434  1.00  0.00     0.021 C 
BRANCH  25  26
ATOM     26  C   UNL A   1      34.372  28.894  25.759  1.00  0.00     0.116 C 
BRANCH  26  27
ATOM     27  N   UNL A   1      33.935  30.119  26.410  1.00  0.00    -0.352 N 
ATOM     28  C   UNL A   1      34.425  30.722  27.538  1.00  0.00     0.251 C 
ATOM     29  H   UNL A   1      33.181  30.580  25.977  1.00  0.00     0.163 HD
ATOM     30  O   UNL A   1      33.798  31.648  28.057  1.00  0.00    -0.269 OA
BRANCH  28  31
ATOM     31  C   UNL A   1      35.689  30.253  28.145  1.00  0.00     0.039 A 
ATOM     32  C   UNL A   1      36.892  30.530  27.491  1.00  0.00     0.014 A 
ATOM     33  C   UNL A   1      35.691  29.537  29.345  1.00  0.00     0.014 A 
ATOM     34  C   UNL A   1      38.100  30.136  28.070  1.00  0.00     0.010 A 
ATOM     35  C   UNL A   1      36.901  29.204  29.955  1.00  0.00     0.010 A 
ATOM     36  C   UNL A   1      38.117  29.499  29.323  1.00  0.00    -0.014 A 
BRANCH  36  37
ATOM     37  C   UNL A   1      39.404  29.161  29.985  1.00  0.00     0.031 A 
ATOM     38  C   UNL A   1      39.873  29.932  31.188  1.00  0.00     0.074 A 
ATOM     39  C   UNL A   1      40.169  28.174  29.474  1.00  0.00     0.049 A 
ATOM     40  N   UNL A   1      40.972  29.782  31.884  1.00  0.00    -0.248 NA
ATOM     41  C   UNL A   1      39.009  31.025  31.664  1.00  0.00     0.031 C 
ATOM     42  C   UNL A   1      39.847  27.382  28.283  1.00  0.00     0.029 A 
ATOM     43  N   UNL A   1      41.374  27.668  29.891  1.00  0.00    -0.354 N 
ATOM     44  C   UNL A   1      40.933  30.757  32.874  1.00  0.00     0.074 A 
ATOM     45  C   UNL A   1      39.728  31.528  32.657  1.00  0.00     0.031 C 
ATOM     46  C   UNL A   1      40.814  26.473  28.084  1.00  0.00     0.029 A 
ATOM     47  C   UNL A   1      41.842  26.638  29.106  1.00  0.00     0.049 A 
ATOM     48  H   UNL A   1      41.858  28.007  30.677  1.00  0.00     0.167 HD
ATOM     49  C   UNL A   1      41.807  30.976  33.885  1.00  0.00     0.031 A 
ATOM     50  C   UNL A   1      42.972  25.910  29.197  1.00  0.00     0.031 A 
ATOM     51  C   UNL A   1      43.003  30.204  34.103  1.00  0.00     0.049 A 
ATOM     52  C   UNL A   1      43.930  26.184  30.324  1.00  0.00     0.074 A 
ATOM     53  C   UNL A   1      43.929  30.325  35.125  1.00  0.00     0.029 A 
ATOM     54  N   UNL A   1      43.438  29.169  33.291  1.00  0.00    -0.354 N 
ATOM     55  N   UNL A   1      43.841  27.071  31.285  1.00  0.00    -0.248 NA
ATOM     56  C   UNL A   1      45.137  25.347  30.385  1.00  0.00     0.031 C 
ATOM     57  C   UNL A   1      44.949  29.394  34.904  1.00  0.00     0.029 A 
ATOM     58  C   UNL A   1      44.628  28.656  33.776  1.00  0.00     0.049 A 
ATOM     59  H   UNL A   1      42.969  28.847  32.487  1.00  0.00     0.167 HD
ATOM     60  C   UNL A   1      44.968  26.883  32.078  1.00  0.00     0.074 A 
ATOM     61  C   UNL A   1      45.708  25.782  31.499  1.00  0.00     0.031 C 
ATOM     62  C   UNL A   1      45.357  27.563  33.184  1.00  0.00     0.031 A 
BRANCH  49  63
ATOM     63  C   UNL A   1      41.498  32.093  34.848  1.00  0.00    -0.014 A 
ATOM     64  C   UNL A   1      41.997  33.391  34.632  1.00  0.00     0.010 A 
ATOM     65  C   UNL A   1      40.643  31.863  35.941  1.00  0.00     0.010 A 
ATOM     66  C   UNL A   1      41.664  34.432  35.503  1.00  0.00     0.020 A 
ATOM     67  C   UNL A   1      40.287  32.907  36.800  1.00  0.00     0.020 A 
ATOM     68  C   UNL A   1      40.809  34.183  36.581  1.00  0.00     0.054 A 
BRANCH  68  69
ATOM     69  S   UNL A   1      40.354  35.566  37.663  1.00  0.00     0.124 S 
ATOM     70  O   UNL A   1      41.623  35.856  38.329  1.00  0.00    -0.237 OA
ATOM     71  O   UNL A   1      39.899  36.579  36.715  1.00  0.00    -0.237 OA
ATOM     72  O   UNL A   1      39.315  35.007  38.523  1.00  0.00    -0.744 OA
ENDBRANCH  68  69
ENDBRANCH  49  63
BRANCH  50  73
ATOM     73  C   UNL A   1      43.265  24.852  28.191  1.00  0.00    -0.014 A 
ATOM     74  C   UNL A   1      42.779  23.544  28.362  1.00  0.00     0.010 A 
ATOM     75  C   UNL A   1      44.054  25.147  27.063  1.00  0.00     0.010 A 
ATOM     76  C   UNL A   1      43.107  22.541  27.444  1.00  0.00     0.020 A 
ATOM     77  C   UNL A   1      44.357  24.155  26.128  1.00  0.00     0.020 A 
ATOM     78  C   UNL A   1      43.898  22.853  26.334  1.00  0.00     0.054 A 
BRANCH  78  79
ATOM     79  S   UNL A   1      44.296  21.544  25.144  1.00  0.00     0.124 S 
ATOM     80  O   UNL A   1      43.264  20.552  25.429  1.00  0.00    -0.237 OA
ATOM     81  O   UNL A   1      44.176  22.233  23.861  1.00  0.00    -0.237 OA
ATOM     82  O   UNL A   1      45.657  21.155  25.508  1.00  0.00    -0.744 OA
ENDBRANCH  78  79
ENDBRANCH  50  73
BRANCH  62  83
ATOM     83  C   UNL A   1      46.631  27.116  33.853  1.00  0.00    -0.014 A 
ATOM     84  C   UNL A   1      47.871  27.681  33.507  1.00  0.00     0.010 A 
ATOM     85  C   UNL A   1      46.580  26.134  34.859  1.00  0.00     0.010 A 
ATOM     86  C   UNL A   1      49.045  27.238  34.122  1.00  0.00     0.020 A 
ATOM     87  C   UNL A   1      47.748  25.711  35.499  1.00  0.00     0.020 A 
ATOM     88  C   UNL A   1      48.976  26.252  35.112  1.00  0.00     0.054 A 
BRANCH  88  89
ATOM     89  S   UNL A   1      50.511  25.708  35.910  1.00  0.00     0.124 S 
ATOM     90  O   UNL A   1      50.695  24.378  35.337  1.00  0.00    -0.237 OA
ATOM     91  O   UNL A   1      51.474  26.717  35.477  1.00  0.00    -0.237 OA
ATOM     92  O   UNL A   1      50.188  25.733  37.335  1.00  0.00    -0.744 OA
ENDBRANCH  88  89
ENDBRANCH  62  83
ENDBRANCH  36  37
ENDBRANCH  28  31
ENDBRANCH  26  27
ENDBRANCH  25  26
ENDBRANCH  24  25
ENDBRANCH   1  24
TORSDOF 20
ENDMDL
MODEL 2
REMARK VINA RESULT:     -10.5      2.109      8.170
REMARK SMILES C[C@@H](C(=O)NCCCCCCNC(=O)c1ccc(-c2c3nc(c(-c4ccc(S(=O)(=O)[O-])cc4)c4ccc([nH]4)c(-c4ccc(S(=O)(=O)[O-])cc4)c4nc(c(-c5ccc(S(=O)(=O)[O-])cc5)c5ccc2[nH]5)C=C4)C=C3)cc1)c1ccc(C[C@H]2CCC[C@@H]2O)cc1
REMARK SMILES IDX 8 1 7 2 6 3 5 4 3 5 4 6 2 8 1 9 75 10 76 11 87 12 77 13
REMARK SMILES IDX 86 14 78 15 79 16 80 17 81 18 84 19 82 20 83 21 85 22 9 24
REMARK SMILES IDX 10 25 11 26 12 27 13 28 14 30 15 31 16 32 74 33 17 34 73 35
REMARK SMILES IDX 18 36 19 37 20 38 67 39 21 40 72 41 66 42 68 43 22 44 71 45
REMARK SMILES IDX 65 46 64 47 23 49 53 50 34 51 52 52 35 53 38 54 51 55 69 56
REMARK SMILES IDX 36 57 37 58 50 60 70 61 39 62 24 63 25 64 33 65 26 66 32 67
REMARK SMILES IDX 27 68 28 69 29 70 30 71 31 72 54 73 55 74 63 75 56 76 62 77
REMARK SMILES IDX 57 78 58 79 59 80 60 81 61 82 40 83 41 84 49 85 42 86 48 87
REMARK SMILES IDX 43 88 44 89 45 90 46 91 47 92
REMARK H PARENT 5 7 85 23 12 29 68 48 38 59
REMARK Flexibility Score: inf
ROOT
ATOM      1  C   UNL A   1      34.352  25.508  25.767  1.00  0.00     0.002 C 
ENDROOT
BRANCH   1   2
ATOM      2  C   UNL A   1      34.602  24.202  25.000  1.00  0.00     0.021 C 
BRANCH   2   3
ATOM      3  C   UNL A   1      34.310  22.931  25.807  1.00  0.00     0.116 C 
BRANCH   3   4
ATOM      4  N   UNL A   1      33.290  22.151  25.139  1.00  0.00    -0.356 N 
ATOM      5  C   UNL A   1      31.981  22.004  25.505  1.00  0.00     0.227 C 
ATOM      6  O   UNL A   1      31.465  20.912  25.257  1.00  0.00    -0.274 OA
ATOM      7  H   UNL A   1      33.571  21.671  24.327  1.00  0.00     0.163 HD
BRANCH   5   8
ATOM      8  C   UNL A   1      31.252  23.180  26.180  1.00  0.00     0.105 C 
ATOM      9  C   UNL A   1      30.048  22.635  26.959  1.00  0.00     0.023 C 
BRANCH   8  10
ATOM     10  C   UNL A   1      30.836  24.330  25.255  1.00  0.00    -0.036 A 
ATOM     11  C   UNL A   1      31.046  24.311  23.870  1.00  0.00     0.005 A 
ATOM     12  C   UNL A   1      30.242  25.486  25.796  1.00  0.00     0.005 A 
ATOM     13  C   UNL A   1      30.626  25.362  23.054  1.00  0.00     0.004 A 
ATOM     14  C   UNL A   1      29.850  26.555  24.984  1.00  0.00     0.004 A 
ATOM     15  C   UNL A   1      30.053  26.509  23.602  1.00  0.00    -0.048 A 
BRANCH  15  16
ATOM     16  C   UNL A   1      29.704  27.683  22.723  1.00  0.00     0.041 C 
BRANCH  16  17
ATOM     17  C   UNL A   1      29.007  28.857  23.433  1.00  0.00     0.022 C 
ATOM     18  C   UNL A   1      29.891  30.078  23.737  1.00  0.00     0.007 C 
ATOM     19  C   UNL A   1      27.788  29.442  22.714  1.00  0.00     0.117 C 
ATOM     20  C   UNL A   1      28.992  31.306  23.559  1.00  0.00     0.003 C 
ATOM     21  C   UNL A   1      27.577  30.763  23.434  1.00  0.00     0.032 C 
BRANCH  19  22
ATOM     22  O   UNL A   1      26.663  28.592  22.832  1.00  0.00    -0.393 OA
ATOM     23  H   UNL A   1      25.874  29.052  22.504  1.00  0.00     0.210 HD
ENDBRANCH  19  22
ENDBRANCH  16  17
ENDBRANCH  15  16
ENDBRANCH   8  10
ENDBRANCH   5   8
ENDBRANCH   3   4
ENDBRANCH   2   3
ENDBRANCH   1   2
BRANCH   1  24
ATOM     24  C   UNL A   1      33.662  26.608  24.956  1.00  0.00     0.002 C 
BRANCH  24  25
ATOM     25  C   UNL A   1      33.286  27.855  25.761  1.00  0.00     0.021 C 
BRANCH  25  26
ATOM     26  C   UNL A   1      34.376  28.922  25.828  1.00  0.00     0.116 C 
BRANCH  26  27
ATOM     27  N   UNL A   1      33.995  30.038  26.678  1.00  0.00    -0.352 N 
ATOM     28  C   UNL A   1      34.630  30.541  27.783  1.00  0.00     0.251 C 
ATOM     29  H   UNL A   1      33.164  30.499  26.423  1.00  0.00     0.163 HD
ATOM     30  O   UNL A   1      34.054  31.364  28.497  1.00  0.00    -0.269 OA
BRANCH  28  31
ATOM     31  C   UNL A   1      35.992  30.084  28.132  1.00  0.00     0.039 A 
ATOM     32  C   UNL A   1      37.004  30.195  27.176  1.00  0.00     0.014 A 
ATOM     33  C   UNL A   1      36.272  29.540  29.390  1.00  0.00     0.014 A 
ATOM     34  C   UNL A   1      38.308  29.812  27.500  1.00  0.00     0.010 A 
ATOM     35  C   UNL A   1      37.585  29.221  29.734  1.00  0.00     0.010 A 
ATOM     36  C   UNL A   1      38.616  29.353  28.793  1.00  0.00    -0.014 A 
BRANCH  36  37
ATOM     37  C   UNL A   1      40.017  29.031  29.169  1.00  0.00     0.031 A 
ATOM     38  C   UNL A   1      40.611  27.690  28.836  1.00  0.00     0.074 A 
ATOM     39  C   UNL A   1      40.744  29.943  29.847  1.00  0.00     0.049 A 
ATOM     40  N   UNL A   1      41.810  27.234  29.096  1.00  0.00    -0.248 NA
ATOM     41  C   UNL A   1      39.745  26.728  28.135  1.00  0.00     0.031 C 
ATOM     42  C   UNL A   1      40.267  31.263  30.271  1.00  0.00     0.029 A 
ATOM     43  N   UNL A   1      42.039  29.900  30.299  1.00  0.00    -0.354 N 
ATOM     44  C   UNL A   1      41.843  25.938  28.595  1.00  0.00     0.074 A 
ATOM     45  C   UNL A   1      40.526  25.659  28.063  1.00  0.00     0.031 C 
ATOM     46  C   UNL A   1      41.263  31.912  30.894  1.00  0.00     0.029 A 
ATOM     47  C   UNL A   1      42.437  31.047  30.947  1.00  0.00     0.049 A 
ATOM     48  H   UNL A   1      42.629  29.123  30.170  1.00  0.00     0.167 HD
ATOM     49  C   UNL A   1      42.879  25.066  28.562  1.00  0.00     0.031 A 
ATOM     50  C   UNL A   1      43.612  31.367  31.523  1.00  0.00     0.031 A 
ATOM     51  C   UNL A   1      44.190  25.346  29.087  1.00  0.00     0.049 A 
ATOM     52  C   UNL A   1      44.742  30.374  31.479  1.00  0.00     0.074 A 
ATOM     53  C   UNL A   1      45.316  24.541  29.061  1.00  0.00     0.029 A 
ATOM     54  N   UNL A   1      44.553  26.519  29.730  1.00  0.00    -0.354 N 
ATOM     55  N   UNL A   1      44.768  29.177  30.945  1.00  0.00    -0.248 NA
ATOM     56  C   UNL A   1      46.006  30.783  32.106  1.00  0.00     0.031 C 
ATOM     57  C   UNL A   1      46.346  25.209  29.730  1.00  0.00     0.029 A 
ATOM     58  C   UNL A   1      45.878  26.452  30.123  1.00  0.00     0.049 A 
ATOM     59  H   UNL A   1      43.956  27.286  29.884  1.00  0.00     0.167 HD
ATOM     60  C   UNL A   1      46.058  28.700  31.151  1.00  0.00     0.074 A 
ATOM     61  C   UNL A   1      46.787  29.747  31.835  1.00  0.00     0.031 C 
ATOM     62  C   UNL A   1      46.589  27.501  30.809  1.00  0.00     0.031 A 
BRANCH  49  63
ATOM     63  C   UNL A   1      42.644  23.723  27.920  1.00  0.00    -0.014 A 
ATOM     64  C   UNL A   1      42.956  23.507  26.565  1.00  0.00     0.010 A 
ATOM     65  C   UNL A   1      42.178  22.646  28.695  1.00  0.00     0.010 A 
ATOM     66  C   UNL A   1      42.782  22.244  25.991  1.00  0.00     0.020 A 
ATOM     67  C   UNL A   1      42.027  21.375  28.131  1.00  0.00     0.020 A 
ATOM     68  C   UNL A   1      42.321  21.185  26.779  1.00  0.00     0.054 A 
BRANCH  68  69
ATOM     69  S   UNL A   1      42.156  19.547  26.018  1.00  0.00     0.124 S 
ATOM     70  O   UNL A   1      43.032  19.667  24.854  1.00  0.00    -0.237 OA
ATOM     71  O   UNL A   1      42.633  18.656  27.072  1.00  0.00    -0.237 OA
ATOM     72  O   UNL A   1      40.731  19.446  25.715  1.00  0.00    -0.744 OA
ENDBRANCH  68  69
ENDBRANCH  49  63
BRANCH  50  73
ATOM     73  C   UNL A   1      43.784  32.684  32.195  1.00  0.00    -0.014 A 
ATOM     74  C   UNL A   1      43.607  32.812  33.584  1.00  0.00     0.010 A 
ATOM     75  C   UNL A   1      44.108  33.827  31.440  1.00  0.00     0.010 A 
ATOM     76  C   UNL A   1      43.714  34.062  34.200  1.00  0.00     0.020 A 
ATOM     77  C   UNL A   1      44.247  35.072  32.056  1.00  0.00     0.020 A 
ATOM     78  C   UNL A   1      44.029  35.186  33.430  1.00  0.00     0.054 A 
BRANCH  78  79
ATOM     79  S   UNL A   1      44.183  36.796  34.250  1.00  0.00     0.124 S 
ATOM     80  O   UNL A   1      43.206  37.600  33.523  1.00  0.00    -0.237 OA
ATOM     81  O   UNL A   1      43.840  36.482  35.635  1.00  0.00    -0.237 OA
ATOM     82  O   UNL A   1      45.581  37.158  34.029  1.00  0.00    -0.744 OA
ENDBRANCH  78  79
ENDBRANCH  50  73
BRANCH  62  83
ATOM     83  C   UNL A   1      48.038  27.270  31.149  1.00  0.00    -0.014 A 
ATOM     84  C   UNL A   1      48.417  26.704  32.379  1.00  0.00     0.010 A 
ATOM     85  C   UNL A   1      49.034  27.602  30.211  1.00  0.00     0.010 A 
ATOM     86  C   UNL A   1      49.767  26.517  32.686  1.00  0.00     0.020 A 
ATOM     87  C   UNL A   1      50.384  27.388  30.502  1.00  0.00     0.020 A 
ATOM     88  C   UNL A   1      50.742  26.865  31.746  1.00  0.00     0.054 A 
BRANCH  88  89
ATOM     89  S   UNL A   1      52.488  26.595  32.159  1.00  0.00     0.124 S 
ATOM     90  O   UNL A   1      52.395  25.995  33.487  1.00  0.00    -0.237 OA
ATOM     91  O   UNL A   1      52.935  25.701  31.095  1.00  0.00    -0.237 OA
ATOM     92  O   UNL A   1      53.064  27.938  32.121  1.00  0.00    -0.744 OA
ENDBRANCH  88  89
ENDBRANCH  62  83
ENDBRANCH  36  37
ENDBRANCH  28  31
ENDBRANCH  26  27
ENDBRANCH  25  26
ENDBRANCH  24  25
ENDBRANCH   1  24
TORSDOF 20
ENDMDL
MODEL 3
REMARK VINA RESULT:     -10.1      4.889      7.041
REMARK SMILES C[C@@H](C(=O)NCCCCCCNC(=O)c1ccc(-c2c3nc(c(-c4ccc(S(=O)(=O)[O-])cc4)c4ccc([nH]4)c(-c4ccc(S(=O)(=O)[O-])cc4)c4nc(c(-c5ccc(S(=O)(=O)[O-])cc5)c5ccc2[nH]5)C=C4)C=C3)cc1)c1ccc(C[C@H]2CCC[C@@H]2O)cc1
REMARK SMILES IDX 8 1 7 2 6 3 5 4 3 5 4 6 2 8 1 9 75 10 76 11 87 12 77 13
REMARK SMILES IDX 86 14 78 15 79 16 80 17 81 18 84 19 82 20 83 21 85 22 9 24
REMARK SMILES IDX 10 25 11 26 12 27 13 28 14 30 15 31 16 32 74 33 17 34 73 35
REMARK SMILES IDX 18 36 19 37 20 38 67 39 21 40 72 41 66 42 68 43 22 44 71 45
REMARK SMILES IDX 65 46 64 47 23 49 53 50 34 51 52 52 35 53 38 54 51 55 69 56
REMARK SMILES IDX 36 57 37 58 50 60 70 61 39 62 24 63 25 64 33 65 26 66 32 67
REMARK SMILES IDX 27 68 28 69 29 70 30 71 31 72 54 73 55 74 63 75 56 76 62 77
REMARK SMILES IDX 57 78 58 79 59 80 60 81 61 82 40 83 41 84 49 85 42 86 48 87
REMARK SMILES IDX 43 88 44 89 45 90 46 91 47 92
REMARK H PARENT 5 7 85 23 12 29 68 48 38 59
REMARK Flexibility Score: inf
ROOT
ATOM      1  C   UNL A   1      34.699  31.936  28.199  1.00  0.00     0.002 C 
ENDROOT
BRANCH   1   2
ATOM      2  C   UNL A   1      35.448  30.719  27.637  1.00  0.00     0.021 C 
BRANCH   2   3
ATOM      3  C   UNL A   1      34.670  29.400  27.735  1.00  0.00     0.116 C 
BRANCH   3   4
ATOM      4  N   UNL A   1      33.332  29.583  27.214  1.00  0.00    -0.356 N 
ATOM      5  C   UNL A   1      32.900  29.370  25.934  1.00  0.00     0.227 C 
ATOM      6  O   UNL A   1      32.007  30.116  25.529  1.00  0.00    -0.274 OA
ATOM      7  H   UNL A   1      32.654  29.897  27.855  1.00  0.00     0.163 HD
BRANCH   5   8
ATOM      8  C   UNL A   1      33.537  28.239  25.105  1.00  0.00     0.105 C 
ATOM      9  C   UNL A   1      33.319  28.535  23.615  1.00  0.00     0.023 C 
BRANCH   8  10
ATOM     10  C   UNL A   1      33.085  26.815  25.456  1.00  0.00    -0.036 A 
ATOM     11  C   UNL A   1      31.785  26.509  25.879  1.00  0.00     0.005 A 
ATOM     12  C   UNL A   1      34.005  25.752  25.390  1.00  0.00     0.005 A 
ATOM     13  C   UNL A   1      31.401  25.198  26.160  1.00  0.00     0.004 A 
ATOM     14  C   UNL A   1      33.630  24.442  25.704  1.00  0.00     0.004 A 
ATOM     15  C   UNL A   1      32.323  24.153  26.107  1.00  0.00    -0.048 A 
BRANCH  15  16
ATOM     16  C   UNL A   1      31.924  22.760  26.520  1.00  0.00     0.041 C 
BRANCH  16  17
ATOM     17  C   UNL A   1      31.727  21.759  25.368  1.00  0.00     0.022 C 
ATOM     18  C   UNL A   1      31.635  22.368  23.959  1.00  0.00     0.007 C 
ATOM     19  C   UNL A   1      32.796  20.670  25.240  1.00  0.00     0.117 C 
ATOM     20  C   UNL A   1      32.324  21.372  23.021  1.00  0.00     0.003 C 
ATOM     21  C   UNL A   1      32.542  20.114  23.849  1.00  0.00     0.032 C 
BRANCH  19  22
ATOM     22  O   UNL A   1      32.642  19.679  26.238  1.00  0.00    -0.393 OA
ATOM     23  H   UNL A   1      32.314  20.090  27.054  1.00  0.00     0.210 HD
ENDBRANCH  19  22
ENDBRANCH  16  17
ENDBRANCH  15  16
ENDBRANCH   8  10
ENDBRANCH   5   8
ENDBRANCH   3   4
ENDBRANCH   2   3
ENDBRANCH   1   2
BRANCH   1  24
ATOM     24  C   UNL A   1      35.480  33.251  28.147  1.00  0.00     0.002 C 
BRANCH  24  25
ATOM     25  C   UNL A   1      35.676  33.932  29.505  1.00  0.00     0.021 C 
BRANCH  25  26
ATOM     26  C   UNL A   1      36.767  33.315  30.375  1.00  0.00     0.116 C 
BRANCH  26  27
ATOM     27  N   UNL A   1      36.275  32.188  31.151  1.00  0.00    -0.352 N 
ATOM     28  C   UNL A   1      36.786  30.921  31.257  1.00  0.00     0.251 C 
ATOM     29  H   UNL A   1      35.460  32.360  31.674  1.00  0.00     0.163 HD
ATOM     30  O   UNL A   1      36.121  30.038  31.802  1.00  0.00    -0.269 OA
BRANCH  28  31
ATOM     31  C   UNL A   1      38.120  30.607  30.703  1.00  0.00     0.039 A 
ATOM     32  C   UNL A   1      39.204  30.504  31.578  1.00  0.00     0.014 A 
ATOM     33  C   UNL A   1      38.308  30.425  29.329  1.00  0.00     0.014 A 
ATOM     34  C   UNL A   1      40.464  30.162  31.081  1.00  0.00     0.010 A 
ATOM     35  C   UNL A   1      39.551  30.020  28.844  1.00  0.00     0.010 A 
ATOM     36  C   UNL A   1      40.641  29.884  29.714  1.00  0.00    -0.014 A 
BRANCH  36  37
ATOM     37  C   UNL A   1      41.959  29.433  29.197  1.00  0.00     0.031 A 
ATOM     38  C   UNL A   1      43.114  30.392  29.102  1.00  0.00     0.074 A 
ATOM     39  C   UNL A   1      42.102  28.159  28.778  1.00  0.00     0.049 A 
ATOM     40  N   UNL A   1      44.329  30.175  28.665  1.00  0.00    -0.248 NA
ATOM     41  C   UNL A   1      42.873  31.778  29.534  1.00  0.00     0.031 C 
ATOM     42  C   UNL A   1      41.044  27.144  28.776  1.00  0.00     0.029 A 
ATOM     43  N   UNL A   1      43.194  27.498  28.274  1.00  0.00    -0.354 N 
ATOM     44  C   UNL A   1      44.995  31.391  28.769  1.00  0.00     0.074 A 
ATOM     45  C   UNL A   1      44.034  32.356  29.259  1.00  0.00     0.031 C 
ATOM     46  C   UNL A   1      41.547  25.985  28.321  1.00  0.00     0.029 A 
ATOM     47  C   UNL A   1      42.949  26.179  27.966  1.00  0.00     0.049 A 
ATOM     48  H   UNL A   1      44.071  27.926  28.145  1.00  0.00     0.167 HD
ATOM     49  C   UNL A   1      46.292  31.674  28.502  1.00  0.00     0.031 A 
ATOM     50  C   UNL A   1      43.759  25.233  27.453  1.00  0.00     0.031 A 
ATOM     51  C   UNL A   1      47.249  30.712  28.020  1.00  0.00     0.049 A 
ATOM     52  C   UNL A   1      45.193  25.579  27.157  1.00  0.00     0.074 A 
ATOM     53  C   UNL A   1      48.597  30.895  27.761  1.00  0.00     0.029 A 
ATOM     54  N   UNL A   1      46.963  29.388  27.727  1.00  0.00    -0.354 N 
ATOM     55  N   UNL A   1      45.816  26.722  27.322  1.00  0.00    -0.248 NA
ATOM     56  C   UNL A   1      46.036  24.504  26.617  1.00  0.00     0.031 C 
ATOM     57  C   UNL A   1      49.114  29.694  27.265  1.00  0.00     0.029 A 
ATOM     58  C   UNL A   1      48.102  28.748  27.270  1.00  0.00     0.049 A 
ATOM     59  H   UNL A   1      46.079  28.965  27.828  1.00  0.00     0.167 HD
ATOM     60  C   UNL A   1      47.130  26.494  26.927  1.00  0.00     0.074 A 
ATOM     61  C   UNL A   1      47.216  25.101  26.542  1.00  0.00     0.031 C 
ATOM     62  C   UNL A   1      48.171  27.362  26.884  1.00  0.00     0.031 A 
BRANCH  49  63
ATOM     63  C   UNL A   1      46.764  33.085  28.739  1.00  0.00    -0.014 A 
ATOM     64  C   UNL A   1      46.735  34.038  27.704  1.00  0.00     0.010 A 
ATOM     65  C   UNL A   1      47.172  33.484  30.025  1.00  0.00     0.010 A 
ATOM     66  C   UNL A   1      47.127  35.358  27.946  1.00  0.00     0.020 A 
ATOM     67  C   UNL A   1      47.540  34.810  30.276  1.00  0.00     0.020 A 
ATOM     68  C   UNL A   1      47.525  35.735  29.232  1.00  0.00     0.054 A 
BRANCH  68  69
ATOM     69  S   UNL A   1      47.978  37.467  29.525  1.00  0.00     0.124 S 
ATOM     70  O   UNL A   1      47.911  37.553  30.983  1.00  0.00    -0.237 OA
ATOM     71  O   UNL A   1      49.320  37.549  28.954  1.00  0.00    -0.237 OA
ATOM     72  O   UNL A   1      46.951  38.221  28.811  1.00  0.00    -0.744 OA
ENDBRANCH  68  69
ENDBRANCH  49  63
BRANCH  50  73
ATOM     73  C   UNL A   1      43.238  23.865  27.183  1.00  0.00    -0.014 A 
ATOM     74  C   UNL A   1      43.115  22.924  28.221  1.00  0.00     0.010 A 
ATOM     75  C   UNL A   1      42.879  23.489  25.875  1.00  0.00     0.010 A 
ATOM     76  C   UNL A   1      42.680  21.623  27.951  1.00  0.00     0.020 A 
ATOM     77  C   UNL A   1      42.414  22.200  25.606  1.00  0.00     0.020 A 
ATOM     78  C   UNL A   1      42.336  21.269  26.643  1.00  0.00     0.054 A 
BRANCH  78  79
ATOM     79  S   UNL A   1      41.754  19.583  26.315  1.00  0.00     0.124 S 
ATOM     80  O   UNL A   1      42.513  19.228  25.120  1.00  0.00    -0.237 OA
ATOM     81  O   UNL A   1      42.128  18.874  27.536  1.00  0.00    -0.237 OA
ATOM     82  O   UNL A   1      40.316  19.751  26.117  1.00  0.00    -0.744 OA
ENDBRANCH  78  79
ENDBRANCH  50  73
BRANCH  62  83
ATOM     83  C   UNL A   1      49.499  26.818  26.425  1.00  0.00    -0.014 A 
ATOM     84  C   UNL A   1      50.354  26.141  27.312  1.00  0.00     0.010 A 
ATOM     85  C   UNL A   1      49.884  26.967  25.080  1.00  0.00     0.010 A 
ATOM     86  C   UNL A   1      51.592  25.664  26.874  1.00  0.00     0.020 A 
ATOM     87  C   UNL A   1      51.107  26.463  24.631  1.00  0.00     0.020 A 
ATOM     88  C   UNL A   1      51.962  25.831  25.536  1.00  0.00     0.054 A 
BRANCH  88  89
ATOM     89  S   UNL A   1      53.565  25.185  24.986  1.00  0.00     0.124 S 
ATOM     90  O   UNL A   1      53.442  23.764  25.298  1.00  0.00    -0.237 OA
ATOM     91  O   UNL A   1      53.575  25.518  23.564  1.00  0.00    -0.237 OA
ATOM     92  O   UNL A   1      54.532  25.920  25.799  1.00  0.00    -0.744 OA
ENDBRANCH  88  89
ENDBRANCH  62  83
ENDBRANCH  36  37
ENDBRANCH  28  31
ENDBRANCH  26  27
ENDBRANCH  25  26
ENDBRANCH  24  25
ENDBRANCH   1  24
TORSDOF 20
ENDMDL
