MODEL 1
REMARK VINA RESULT:     -11.4      0.000      0.000
REMARK SMILES Cc1cc(C)c2c(OCCCC(=O)NCCCCCCNC(=O)c3ccc(-c4c5nc(c(-c6ccc(S(=O)(=O)[O-])cc6)c6ccc([nH]6)c(-c6ccc(S(=O)(=O)[O-])cc6)c6nc(c(-c7ccc(S(=O)(=O)[O-])cc7)c7ccc4[nH]7)C=C6)C=C5)cc3)nsc2n1
REMARK SMILES IDX 17 1 16 2 15 3 14 4 12 5 13 6 11 8 10 9 9 10 8 11 7 12 1 13
REMARK SMILES IDX 2 14 3 15 87 16 4 17 86 18 5 19 6 20 85 21 84 22 18 23 19 24
REMARK SMILES IDX 20 25 21 26 22 27 23 29 24 30 25 31 83 32 26 33 82 34 27 35
REMARK SMILES IDX 28 36 29 37 76 38 30 39 81 40 75 41 77 42 31 43 80 44 74 45
REMARK SMILES IDX 73 46 32 48 62 49 43 50 61 51 44 52 47 53 60 54 78 55 45 56
REMARK SMILES IDX 46 57 59 59 79 60 48 61 33 62 34 63 42 64 35 65 41 66 36 67
REMARK SMILES IDX 37 68 38 69 39 70 40 71 63 72 64 73 72 74 65 75 71 76 66 77
REMARK SMILES IDX 67 78 68 79 69 80 70 81 49 82 50 83 58 84 51 85 57 86 52 87
REMARK SMILES IDX 53 88 54 89 55 90 56 91
REMARK H PARENT 14 7 21 28 77 47 47 58
REMARK Flexibility Score: inf
ROOT
ATOM      1  C   UNL A   1      36.094  23.284  25.278  1.00  0.00     0.002 C 
ENDROOT
BRANCH   1   2
ATOM      2  C   UNL A   1      34.887  23.260  26.235  1.00  0.00     0.021 C 
BRANCH   2   3
ATOM      3  C   UNL A   1      34.550  21.873  26.884  1.00  0.00     0.116 C 
BRANCH   3   4
ATOM      4  N   UNL A   1      33.480  21.031  26.149  1.00  0.00    -0.356 N 
ATOM      5  C   UNL A   1      32.636  20.788  25.096  1.00  0.00     0.220 C 
ATOM      6  O   UNL A   1      32.147  19.643  25.245  1.00  0.00    -0.275 OA
ATOM      7  H   UNL A   1      33.319  20.274  26.758  1.00  0.00     0.163 HD
BRANCH   5   8
ATOM      8  C   UNL A   1      32.271  21.471  23.649  1.00  0.00     0.103 C 
BRANCH   8   9
ATOM      9  C   UNL A   1      33.033  22.295  22.487  1.00  0.00     0.051 C 
BRANCH   9  10
ATOM     10  C   UNL A   1      33.066  23.833  22.062  1.00  0.00     0.232 C 
BRANCH  10  11
ATOM     11  O   UNL A   1      33.941  24.825  22.626  1.00  0.00    -0.477 OA
BRANCH  11  12
ATOM     12  C   UNL A   1      33.572  26.116  22.840  1.00  0.00     0.235 A 
ATOM     13  C   UNL A   1      34.521  28.927  27.401  1.00  0.00     0.067 C 
ATOM     14  C   UNL A   1      33.862  28.281  26.211  1.00  0.00     0.039 A 
ATOM     15  C   UNL A   1      33.183  27.075  26.367  1.00  0.00     0.027 A 
ATOM     16  N   UNL A   1      33.977  28.902  25.019  1.00  0.00    -0.240 NA
ATOM     17  C   UNL A   1      32.733  26.344  25.248  1.00  0.00    -0.034 A 
ATOM     18  C   UNL A   1      33.690  28.090  23.980  1.00  0.00     0.147 A 
ATOM     19  C   UNL A   1      31.844  25.159  25.179  1.00  0.00     0.045 C 
ATOM     20  C   UNL A   1      33.256  26.777  24.049  1.00  0.00     0.078 A 
ATOM     21  S   UNL A   1      33.770  28.494  22.330  1.00  0.00    -0.012 S 
ATOM     22  N   UNL A   1      33.712  26.913  21.779  1.00  0.00    -0.153 NA
ENDBRANCH  11  12
ENDBRANCH  10  11
ENDBRANCH   9  10
ENDBRANCH   8   9
ENDBRANCH   5   8
ENDBRANCH   3   4
ENDBRANCH   2   3
ENDBRANCH   1   2
BRANCH   1  23
ATOM     23  C   UNL A   1      37.515  23.253  25.884  1.00  0.00     0.002 C 
BRANCH  23  24
ATOM     24  C   UNL A   1      38.448  22.071  25.560  1.00  0.00     0.021 C 
BRANCH  24  25
ATOM     25  C   UNL A   1      39.589  21.827  26.541  1.00  0.00     0.116 C 
BRANCH  25  26
ATOM     26  N   UNL A   1      40.920  21.849  25.927  1.00  0.00    -0.352 N 
ATOM     27  C   UNL A   1      41.783  22.914  25.759  1.00  0.00     0.251 C 
ATOM     28  H   UNL A   1      41.245  20.984  25.588  1.00  0.00     0.163 HD
ATOM     29  O   UNL A   1      42.715  22.834  24.949  1.00  0.00    -0.269 OA
BRANCH  27  30
ATOM     30  C   UNL A   1      41.589  24.145  26.544  1.00  0.00     0.039 A 
ATOM     31  C   UNL A   1      42.154  24.321  27.810  1.00  0.00     0.014 A 
ATOM     32  C   UNL A   1      40.815  25.152  25.979  1.00  0.00     0.014 A 
ATOM     33  C   UNL A   1      41.981  25.543  28.456  1.00  0.00     0.010 A 
ATOM     34  C   UNL A   1      40.827  26.411  26.509  1.00  0.00     0.010 A 
ATOM     35  C   UNL A   1      41.328  26.591  27.786  1.00  0.00    -0.014 A 
BRANCH  35  36
ATOM     36  C   UNL A   1      41.200  27.912  28.374  1.00  0.00     0.031 A 
ATOM     37  C   UNL A   1      42.254  28.869  27.965  1.00  0.00     0.074 A 
ATOM     38  C   UNL A   1      40.123  28.307  29.090  1.00  0.00     0.049 A 
ATOM     39  N   UNL A   1      43.268  29.243  28.669  1.00  0.00    -0.248 NA
ATOM     40  C   UNL A   1      42.291  29.333  26.570  1.00  0.00     0.031 C 
ATOM     41  C   UNL A   1      38.857  27.603  29.334  1.00  0.00     0.029 A 
ATOM     42  N   UNL A   1      39.909  29.506  29.685  1.00  0.00    -0.354 N 
ATOM     43  C   UNL A   1      43.951  30.173  27.895  1.00  0.00     0.074 A 
ATOM     44  C   UNL A   1      43.423  30.042  26.560  1.00  0.00     0.031 C 
ATOM     45  C   UNL A   1      37.936  28.475  29.808  1.00  0.00     0.029 A 
ATOM     46  C   UNL A   1      38.598  29.738  30.080  1.00  0.00     0.049 A 
ATOM     47  H   UNL A   1      40.628  30.163  29.826  1.00  0.00     0.167 HD
ATOM     48  C   UNL A   1      44.723  31.135  28.474  1.00  0.00     0.031 A 
ATOM     49  C   UNL A   1      38.099  30.896  30.579  1.00  0.00     0.031 A 
ATOM     50  C   UNL A   1      44.919  30.874  29.880  1.00  0.00     0.049 A 
ATOM     51  C   UNL A   1      39.258  31.647  31.129  1.00  0.00     0.074 A 
ATOM     52  C   UNL A   1      45.484  29.846  30.608  1.00  0.00     0.029 A 
ATOM     53  N   UNL A   1      44.109  31.561  30.758  1.00  0.00    -0.354 N 
ATOM     54  N   UNL A   1      39.963  31.224  32.144  1.00  0.00    -0.248 NA
ATOM     55  C   UNL A   1      39.932  32.597  30.256  1.00  0.00     0.031 C 
ATOM     56  C   UNL A   1      44.617  29.675  31.729  1.00  0.00     0.029 A 
ATOM     57  C   UNL A   1      43.624  30.655  31.665  1.00  0.00     0.049 A 
ATOM     58  H   UNL A   1      43.917  32.526  30.738  1.00  0.00     0.167 HD
ATOM     59  C   UNL A   1      41.280  31.498  31.803  1.00  0.00     0.074 A 
ATOM     60  C   UNL A   1      41.192  32.421  30.670  1.00  0.00     0.031 C 
ATOM     61  C   UNL A   1      42.314  30.742  32.282  1.00  0.00     0.031 A 
BRANCH  48  62
ATOM     62  C   UNL A   1      44.947  32.508  27.895  1.00  0.00    -0.014 A 
ATOM     63  C   UNL A   1      46.270  32.991  27.821  1.00  0.00     0.010 A 
ATOM     64  C   UNL A   1      43.911  33.444  27.696  1.00  0.00     0.010 A 
ATOM     65  C   UNL A   1      46.539  34.355  27.664  1.00  0.00     0.020 A 
ATOM     66  C   UNL A   1      44.170  34.800  27.496  1.00  0.00     0.020 A 
ATOM     67  C   UNL A   1      45.482  35.253  27.524  1.00  0.00     0.054 A 
BRANCH  67  68
ATOM     68  S   UNL A   1      45.838  37.025  27.464  1.00  0.00     0.124 S 
ATOM     69  O   UNL A   1      46.359  37.271  28.805  1.00  0.00    -0.237 OA
ATOM     70  O   UNL A   1      46.812  37.105  26.380  1.00  0.00    -0.237 OA
ATOM     71  O   UNL A   1      44.538  37.625  27.176  1.00  0.00    -0.744 OA
ENDBRANCH  67  68
ENDBRANCH  48  62
BRANCH  49  72
ATOM     72  C   UNL A   1      36.792  31.532  30.264  1.00  0.00    -0.014 A 
ATOM     73  C   UNL A   1      36.083  32.256  31.241  1.00  0.00     0.010 A 
ATOM     74  C   UNL A   1      36.382  31.675  28.922  1.00  0.00     0.010 A 
ATOM     75  C   UNL A   1      35.054  33.147  30.881  1.00  0.00     0.020 A 
ATOM     76  C   UNL A   1      35.355  32.556  28.556  1.00  0.00     0.020 A 
ATOM     77  C   UNL A   1      34.714  33.310  29.535  1.00  0.00     0.054 A 
BRANCH  77  78
ATOM     78  S   UNL A   1      33.519  34.596  29.060  1.00  0.00     0.124 S 
ATOM     79  O   UNL A   1      34.385  35.644  28.527  1.00  0.00    -0.237 OA
ATOM     80  O   UNL A   1      32.684  33.907  28.080  1.00  0.00    -0.237 OA
ATOM     81  O   UNL A   1      32.850  34.926  30.317  1.00  0.00    -0.744 OA
ENDBRANCH  77  78
ENDBRANCH  49  72
BRANCH  61  82
ATOM     82  C   UNL A   1      42.041  29.752  33.395  1.00  0.00    -0.014 A 
ATOM     83  C   UNL A   1      41.470  28.479  33.194  1.00  0.00     0.010 A 
ATOM     84  C   UNL A   1      42.557  30.059  34.666  1.00  0.00     0.010 A 
ATOM     85  C   UNL A   1      41.406  27.549  34.245  1.00  0.00     0.020 A 
ATOM     86  C   UNL A   1      42.512  29.132  35.709  1.00  0.00     0.020 A 
ATOM     87  C   UNL A   1      41.932  27.882  35.498  1.00  0.00     0.054 A 
BRANCH  87  88
ATOM     88  S   UNL A   1      41.895  26.661  36.841  1.00  0.00     0.124 S 
ATOM     89  O   UNL A   1      40.591  26.899  37.453  1.00  0.00    -0.237 OA
ATOM     90  O   UNL A   1      42.035  25.392  36.131  1.00  0.00    -0.237 OA
ATOM     91  O   UNL A   1      43.042  27.024  37.674  1.00  0.00    -0.744 OA
ENDBRANCH  87  88
ENDBRANCH  61  82
ENDBRANCH  35  36
ENDBRANCH  27  30
ENDBRANCH  25  26
ENDBRANCH  24  25
ENDBRANCH  23  24
ENDBRANCH   1  23
TORSDOF 20
ENDMDL
MODEL 2
REMARK VINA RESULT:     -10.6      2.639      3.862
REMARK SMILES Cc1cc(C)c2c(OCCCC(=O)NCCCCCCNC(=O)c3ccc(-c4c5nc(c(-c6ccc(S(=O)(=O)[O-])cc6)c6ccc([nH]6)c(-c6ccc(S(=O)(=O)[O-])cc6)c6nc(c(-c7ccc(S(=O)(=O)[O-])cc7)c7ccc4[nH]7)C=C6)C=C5)cc3)nsc2n1
REMARK SMILES IDX 17 1 16 2 15 3 14 4 12 5 13 6 11 8 10 9 9 10 8 11 7 12 1 13
REMARK SMILES IDX 2 14 3 15 87 16 4 17 86 18 5 19 6 20 85 21 84 22 18 23 19 24
REMARK SMILES IDX 20 25 21 26 22 27 23 29 24 30 25 31 83 32 26 33 82 34 27 35
REMARK SMILES IDX 28 36 29 37 76 38 30 39 81 40 75 41 77 42 31 43 80 44 74 45
REMARK SMILES IDX 73 46 32 48 62 49 43 50 61 51 44 52 47 53 60 54 78 55 45 56
REMARK SMILES IDX 46 57 59 59 79 60 48 61 33 62 34 63 42 64 35 65 41 66 36 67
REMARK SMILES IDX 37 68 38 69 39 70 40 71 63 72 64 73 72 74 65 75 71 76 66 77
REMARK SMILES IDX 67 78 68 79 69 80 70 81 49 82 50 83 58 84 51 85 57 86 52 87
REMARK SMILES IDX 53 88 54 89 55 90 56 91
REMARK H PARENT 14 7 21 28 77 47 47 58
REMARK Flexibility Score: inf
ROOT
ATOM      1  C   UNL A   1      40.506  21.182  26.560  1.00  0.00     0.002 C 
ENDROOT
BRANCH   1   2
ATOM      2  C   UNL A   1      39.354  22.107  26.125  1.00  0.00     0.021 C 
BRANCH   2   3
ATOM      3  C   UNL A   1      38.100  21.401  25.504  1.00  0.00     0.116 C 
BRANCH   3   4
ATOM      4  N   UNL A   1      37.416  22.154  24.338  1.00  0.00    -0.356 N 
ATOM      5  C   UNL A   1      36.401  22.907  23.807  1.00  0.00     0.220 C 
ATOM      6  O   UNL A   1      36.743  23.262  22.654  1.00  0.00    -0.275 OA
ATOM      7  H   UNL A   1      38.030  22.021  23.581  1.00  0.00     0.163 HD
BRANCH   5   8
ATOM      8  C   UNL A   1      35.014  23.615  24.324  1.00  0.00     0.103 C 
BRANCH   8   9
ATOM      9  C   UNL A   1      34.456  24.315  25.669  1.00  0.00     0.051 C 
BRANCH   9  10
ATOM     10  C   UNL A   1      33.001  24.490  26.303  1.00  0.00     0.232 C 
BRANCH  10  11
ATOM     11  O   UNL A   1      32.283  25.733  26.386  1.00  0.00    -0.477 OA
BRANCH  11  12
ATOM     12  C   UNL A   1      31.561  26.252  25.358  1.00  0.00     0.235 A 
ATOM     13  C   UNL A   1      32.617  25.470  20.078  1.00  0.00     0.067 C 
ATOM     14  C   UNL A   1      32.329  26.093  21.418  1.00  0.00     0.039 A 
ATOM     15  C   UNL A   1      33.376  26.606  22.181  1.00  0.00     0.027 A 
ATOM     16  N   UNL A   1      31.047  26.111  21.838  1.00  0.00    -0.240 NA
ATOM     17  C   UNL A   1      33.173  27.007  23.518  1.00  0.00    -0.034 A 
ATOM     18  C   UNL A   1      30.938  26.337  23.164  1.00  0.00     0.147 A 
ATOM     19  C   UNL A   1      34.074  27.740  24.439  1.00  0.00     0.045 C 
ATOM     20  C   UNL A   1      31.970  26.597  24.049  1.00  0.00     0.078 A 
ATOM     21  S   UNL A   1      29.496  26.382  24.064  1.00  0.00    -0.012 S 
ATOM     22  N   UNL A   1      30.242  26.263  25.560  1.00  0.00    -0.153 NA
ENDBRANCH  11  12
ENDBRANCH  10  11
ENDBRANCH   9  10
ENDBRANCH   8   9
ENDBRANCH   5   8
ENDBRANCH   3   4
ENDBRANCH   2   3
ENDBRANCH   1   2
BRANCH   1  23
ATOM     23  C   UNL A   1      40.422  19.682  26.200  1.00  0.00     0.002 C 
BRANCH  23  24
ATOM     24  C   UNL A   1      41.715  18.912  25.866  1.00  0.00     0.021 C 
BRANCH  24  25
ATOM     25  C   UNL A   1      42.993  19.431  26.514  1.00  0.00     0.116 C 
BRANCH  25  26
ATOM     26  N   UNL A   1      44.154  19.444  25.620  1.00  0.00    -0.352 N 
ATOM     27  C   UNL A   1      44.740  20.513  24.972  1.00  0.00     0.251 C 
ATOM     28  H   UNL A   1      44.575  18.569  25.459  1.00  0.00     0.163 HD
ATOM     29  O   UNL A   1      45.501  20.316  24.016  1.00  0.00    -0.269 OA
BRANCH  27  30
ATOM     30  C   UNL A   1      44.455  21.887  25.419  1.00  0.00     0.039 A 
ATOM     31  C   UNL A   1      43.418  22.650  24.876  1.00  0.00     0.014 A 
ATOM     32  C   UNL A   1      45.261  22.417  26.421  1.00  0.00     0.014 A 
ATOM     33  C   UNL A   1      43.170  23.915  25.405  1.00  0.00     0.010 A 
ATOM     34  C   UNL A   1      44.886  23.554  27.079  1.00  0.00     0.010 A 
ATOM     35  C   UNL A   1      43.902  24.351  26.523  1.00  0.00    -0.014 A 
BRANCH  35  36
ATOM     36  C   UNL A   1      43.624  25.620  27.170  1.00  0.00     0.031 A 
ATOM     37  C   UNL A   1      44.568  26.706  26.818  1.00  0.00     0.074 A 
ATOM     38  C   UNL A   1      42.506  25.859  27.891  1.00  0.00     0.049 A 
ATOM     39  N   UNL A   1      45.530  27.156  27.550  1.00  0.00    -0.248 NA
ATOM     40  C   UNL A   1      44.562  27.236  25.446  1.00  0.00     0.031 C 
ATOM     41  C   UNL A   1      41.324  25.010  28.088  1.00  0.00     0.029 A 
ATOM     42  N   UNL A   1      42.156  26.998  28.538  1.00  0.00    -0.354 N 
ATOM     43  C   UNL A   1      46.111  28.191  26.828  1.00  0.00     0.074 A 
ATOM     44  C   UNL A   1      45.608  28.066  25.482  1.00  0.00     0.031 C 
ATOM     45  C   UNL A   1      40.310  25.751  28.592  1.00  0.00     0.029 A 
ATOM     46  C   UNL A   1      40.825  27.065  28.929  1.00  0.00     0.049 A 
ATOM     47  H   UNL A   1      42.798  27.723  28.718  1.00  0.00     0.167 HD
ATOM     48  C   UNL A   1      46.767  29.204  27.459  1.00  0.00     0.031 A 
ATOM     49  C   UNL A   1      40.198  28.136  29.476  1.00  0.00     0.031 A 
ATOM     50  C   UNL A   1      46.983  28.900  28.854  1.00  0.00     0.049 A 
ATOM     51  C   UNL A   1      41.263  28.984  30.072  1.00  0.00     0.074 A 
ATOM     52  C   UNL A   1      47.654  27.908  29.540  1.00  0.00     0.029 A 
ATOM     53  N   UNL A   1      46.096  29.452  29.754  1.00  0.00    -0.354 N 
ATOM     54  N   UNL A   1      42.004  28.593  31.075  1.00  0.00    -0.248 NA
ATOM     55  C   UNL A   1      41.833  30.042  29.253  1.00  0.00     0.031 C 
ATOM     56  C   UNL A   1      46.804  27.590  30.641  1.00  0.00     0.029 A 
ATOM     57  C   UNL A   1      45.709  28.456  30.612  1.00  0.00     0.049 A 
ATOM     58  H   UNL A   1      45.798  30.389  29.775  1.00  0.00     0.167 HD
ATOM     59  C   UNL A   1      43.285  29.027  30.762  1.00  0.00     0.074 A 
ATOM     60  C   UNL A   1      43.102  29.987  29.672  1.00  0.00     0.031 C 
ATOM     61  C   UNL A   1      44.393  28.368  31.217  1.00  0.00     0.031 A 
BRANCH  48  62
ATOM     62  C   UNL A   1      46.842  30.620  26.947  1.00  0.00    -0.014 A 
ATOM     63  C   UNL A   1      48.074  31.299  27.044  1.00  0.00     0.010 A 
ATOM     64  C   UNL A   1      45.703  31.397  26.649  1.00  0.00     0.010 A 
ATOM     65  C   UNL A   1      48.145  32.694  26.957  1.00  0.00     0.020 A 
ATOM     66  C   UNL A   1      45.770  32.784  26.516  1.00  0.00     0.020 A 
ATOM     67  C   UNL A   1      46.985  33.427  26.714  1.00  0.00     0.054 A 
BRANCH  67  68
ATOM     68  S   UNL A   1      47.067  35.233  26.742  1.00  0.00     0.124 S 
ATOM     69  O   UNL A   1      46.033  35.564  27.719  1.00  0.00    -0.237 OA
ATOM     70  O   UNL A   1      48.442  35.471  27.171  1.00  0.00    -0.237 OA
ATOM     71  O   UNL A   1      46.772  35.612  25.364  1.00  0.00    -0.744 OA
ENDBRANCH  67  68
ENDBRANCH  48  62
BRANCH  49  72
ATOM     72  C   UNL A   1      38.831  28.638  29.176  1.00  0.00    -0.014 A 
ATOM     73  C   UNL A   1      37.902  28.875  30.206  1.00  0.00     0.010 A 
ATOM     74  C   UNL A   1      38.535  29.162  27.899  1.00  0.00     0.010 A 
ATOM     75  C   UNL A   1      36.761  29.671  29.988  1.00  0.00     0.020 A 
ATOM     76  C   UNL A   1      37.399  29.951  27.674  1.00  0.00     0.020 A 
ATOM     77  C   UNL A   1      36.531  30.225  28.727  1.00  0.00     0.054 A 
BRANCH  77  78
ATOM     78  S   UNL A   1      35.163  31.402  28.499  1.00  0.00     0.124 S 
ATOM     79  O   UNL A   1      35.753  32.398  27.608  1.00  0.00    -0.237 OA
ATOM     80  O   UNL A   1      34.120  30.567  27.910  1.00  0.00    -0.237 OA
ATOM     81  O   UNL A   1      34.885  31.873  29.855  1.00  0.00    -0.744 OA
ENDBRANCH  77  78
ENDBRANCH  49  72
BRANCH  61  82
ATOM     82  C   UNL A   1      44.225  27.303  32.280  1.00  0.00    -0.014 A 
ATOM     83  C   UNL A   1      43.747  27.556  33.580  1.00  0.00     0.010 A 
ATOM     84  C   UNL A   1      44.387  25.965  31.877  1.00  0.00     0.010 A 
ATOM     85  C   UNL A   1      43.454  26.496  34.456  1.00  0.00     0.020 A 
ATOM     86  C   UNL A   1      44.082  24.908  32.736  1.00  0.00     0.020 A 
ATOM     87  C   UNL A   1      43.622  25.176  34.025  1.00  0.00     0.054 A 
BRANCH  87  88
ATOM     88  S   UNL A   1      43.195  23.807  35.139  1.00  0.00     0.124 S 
ATOM     89  O   UNL A   1      43.403  22.633  34.295  1.00  0.00    -0.237 OA
ATOM     90  O   UNL A   1      44.147  23.970  36.235  1.00  0.00    -0.237 OA
ATOM     91  O   UNL A   1      41.801  24.069  35.496  1.00  0.00    -0.744 OA
ENDBRANCH  87  88
ENDBRANCH  61  82
ENDBRANCH  35  36
ENDBRANCH  27  30
ENDBRANCH  25  26
ENDBRANCH  24  25
ENDBRANCH  23  24
ENDBRANCH   1  23
TORSDOF 20
ENDMDL
MODEL 3
REMARK VINA RESULT:     -10.1      2.500      3.519
REMARK SMILES Cc1cc(C)c2c(OCCCC(=O)NCCCCCCNC(=O)c3ccc(-c4c5nc(c(-c6ccc(S(=O)(=O)[O-])cc6)c6ccc([nH]6)c(-c6ccc(S(=O)(=O)[O-])cc6)c6nc(c(-c7ccc(S(=O)(=O)[O-])cc7)c7ccc4[nH]7)C=C6)C=C5)cc3)nsc2n1
REMARK SMILES IDX 17 1 16 2 15 3 14 4 12 5 13 6 11 8 10 9 9 10 8 11 7 12 1 13
REMARK SMILES IDX 2 14 3 15 87 16 4 17 86 18 5 19 6 20 85 21 84 22 18 23 19 24
REMARK SMILES IDX 20 25 21 26 22 27 23 29 24 30 25 31 83 32 26 33 82 34 27 35
REMARK SMILES IDX 28 36 29 37 76 38 30 39 81 40 75 41 77 42 31 43 80 44 74 45
REMARK SMILES IDX 73 46 32 48 62 49 43 50 61 51 44 52 47 53 60 54 78 55 45 56
REMARK SMILES IDX 46 57 59 59 79 60 48 61 33 62 34 63 42 64 35 65 41 66 36 67
REMARK SMILES IDX 37 68 38 69 39 70 40 71 63 72 64 73 72 74 65 75 71 76 66 77
REMARK SMILES IDX 67 78 68 79 69 80 70 81 49 82 50 83 58 84 51 85 57 86 52 87
REMARK SMILES IDX 53 88 54 89 55 90 56 91
REMARK H PARENT 14 7 21 28 77 47 47 58
REMARK Flexibility Score: inf
ROOT
ATOM      1  C   UNL A   1      40.287  21.503  27.050  1.00  0.00     0.002 C 
ENDROOT
BRANCH   1   2
ATOM      2  C   UNL A   1      39.428  21.549  25.772  1.00  0.00     0.021 C 
BRANCH   2   3
ATOM      3  C   UNL A   1      37.996  22.168  25.927  1.00  0.00     0.116 C 
BRANCH   3   4
ATOM      4  N   UNL A   1      36.820  21.246  25.528  1.00  0.00    -0.356 N 
ATOM      5  C   UNL A   1      35.613  21.006  24.924  1.00  0.00     0.220 C 
ATOM      6  O   UNL A   1      35.404  19.770  24.947  1.00  0.00    -0.275 OA
ATOM      7  H   UNL A   1      37.067  20.373  25.910  1.00  0.00     0.163 HD
BRANCH   5   8
ATOM      8  C   UNL A   1      34.515  21.838  24.031  1.00  0.00     0.103 C 
BRANCH   8   9
ATOM      9  C   UNL A   1      34.375  23.304  23.366  1.00  0.00     0.051 C 
BRANCH   9  10
ATOM     10  C   UNL A   1      35.011  24.731  23.692  1.00  0.00     0.232 C 
BRANCH  10  11
ATOM     11  O   UNL A   1      34.309  25.983  23.616  1.00  0.00    -0.477 OA
BRANCH  11  12
ATOM     12  C   UNL A   1      33.325  26.345  24.480  1.00  0.00     0.235 A 
ATOM     13  C   UNL A   1      29.953  22.905  27.011  1.00  0.00     0.067 C 
ATOM     14  C   UNL A   1      30.520  24.041  26.201  1.00  0.00     0.039 A 
ATOM     15  C   UNL A   1      30.559  23.948  24.812  1.00  0.00     0.027 A 
ATOM     16  N   UNL A   1      30.993  25.113  26.872  1.00  0.00    -0.240 NA
ATOM     17  C   UNL A   1      31.263  24.894  24.039  1.00  0.00    -0.034 A 
ATOM     18  C   UNL A   1      31.796  25.887  26.112  1.00  0.00     0.147 A 
ATOM     19  C   UNL A   1      31.284  25.098  22.570  1.00  0.00     0.045 C 
ATOM     20  C   UNL A   1      32.098  25.708  24.773  1.00  0.00     0.078 A 
ATOM     21  S   UNL A   1      32.615  27.290  26.616  1.00  0.00    -0.012 S 
ATOM     22  N   UNL A   1      33.653  27.345  25.302  1.00  0.00    -0.153 NA
ENDBRANCH  11  12
ENDBRANCH  10  11
ENDBRANCH   9  10
ENDBRANCH   8   9
ENDBRANCH   5   8
ENDBRANCH   3   4
ENDBRANCH   2   3
ENDBRANCH   1   2
BRANCH   1  23
ATOM     23  C   UNL A   1      41.122  20.235  27.331  1.00  0.00     0.002 C 
BRANCH  23  24
ATOM     24  C   UNL A   1      41.708  19.439  26.149  1.00  0.00     0.021 C 
BRANCH  24  25
ATOM     25  C   UNL A   1      43.166  19.017  26.280  1.00  0.00     0.116 C 
BRANCH  25  26
ATOM     26  N   UNL A   1      43.996  19.370  25.125  1.00  0.00    -0.352 N 
ATOM     27  C   UNL A   1      44.270  20.618  24.599  1.00  0.00     0.251 C 
ATOM     28  H   UNL A   1      44.419  18.613  24.658  1.00  0.00     0.163 HD
ATOM     29  O   UNL A   1      44.719  20.721  23.451  1.00  0.00    -0.269 OA
BRANCH  27  30
ATOM     30  C   UNL A   1      44.024  21.823  25.408  1.00  0.00     0.039 A 
ATOM     31  C   UNL A   1      44.823  22.165  26.503  1.00  0.00     0.014 A 
ATOM     32  C   UNL A   1      42.954  22.633  25.045  1.00  0.00     0.014 A 
ATOM     33  C   UNL A   1      44.565  23.360  27.172  1.00  0.00     0.010 A 
ATOM     34  C   UNL A   1      42.838  23.895  25.557  1.00  0.00     0.010 A 
ATOM     35  C   UNL A   1      43.578  24.228  26.678  1.00  0.00    -0.014 A 
BRANCH  35  36
ATOM     36  C   UNL A   1      43.330  25.526  27.281  1.00  0.00     0.031 A 
ATOM     37  C   UNL A   1      44.309  26.572  26.905  1.00  0.00     0.074 A 
ATOM     38  C   UNL A   1      42.211  25.820  27.979  1.00  0.00     0.049 A 
ATOM     39  N   UNL A   1      45.275  27.018  27.633  1.00  0.00    -0.248 NA
ATOM     40  C   UNL A   1      44.334  27.057  25.517  1.00  0.00     0.031 C 
ATOM     41  C   UNL A   1      41.003  25.011  28.189  1.00  0.00     0.029 A 
ATOM     42  N   UNL A   1      41.887  26.989  28.585  1.00  0.00    -0.354 N 
ATOM     43  C   UNL A   1      45.894  28.011  26.886  1.00  0.00     0.074 A 
ATOM     44  C   UNL A   1      45.403  27.857  25.538  1.00  0.00     0.031 C 
ATOM     45  C   UNL A   1      40.005  25.798  28.656  1.00  0.00     0.029 A 
ATOM     46  C   UNL A   1      40.554  27.106  28.956  1.00  0.00     0.049 A 
ATOM     47  H   UNL A   1      42.547  27.700  28.749  1.00  0.00     0.167 HD
ATOM     48  C   UNL A   1      46.572  29.025  27.492  1.00  0.00     0.031 A 
ATOM     49  C   UNL A   1      39.953  28.213  29.461  1.00  0.00     0.031 A 
ATOM     50  C   UNL A   1      46.763  28.761  28.898  1.00  0.00     0.049 A 
ATOM     51  C   UNL A   1      41.035  29.049  30.043  1.00  0.00     0.074 A 
ATOM     52  C   UNL A   1      47.397  27.773  29.624  1.00  0.00     0.029 A 
ATOM     53  N   UNL A   1      45.883  29.367  29.769  1.00  0.00    -0.354 N 
ATOM     54  N   UNL A   1      41.753  28.670  31.066  1.00  0.00    -0.248 NA
ATOM     55  C   UNL A   1      41.645  30.062  29.196  1.00  0.00     0.031 C 
ATOM     56  C   UNL A   1      46.526  27.516  30.725  1.00  0.00     0.029 A 
ATOM     57  C   UNL A   1      45.457  28.411  30.654  1.00  0.00     0.049 A 
ATOM     58  H   UNL A   1      45.612  30.313  29.757  1.00  0.00     0.167 HD
ATOM     59  C   UNL A   1      43.049  29.056  30.756  1.00  0.00     0.074 A 
ATOM     60  C   UNL A   1      42.907  29.985  29.633  1.00  0.00     0.031 C 
ATOM     61  C   UNL A   1      44.132  28.381  31.245  1.00  0.00     0.031 A 
BRANCH  48  62
ATOM     62  C   UNL A   1      46.694  30.421  26.935  1.00  0.00    -0.014 A 
ATOM     63  C   UNL A   1      47.947  31.063  27.016  1.00  0.00     0.010 A 
ATOM     64  C   UNL A   1      45.582  31.224  26.608  1.00  0.00     0.010 A 
ATOM     65  C   UNL A   1      48.062  32.451  26.885  1.00  0.00     0.020 A 
ATOM     66  C   UNL A   1      45.693  32.603  26.431  1.00  0.00     0.020 A 
ATOM     67  C   UNL A   1      46.928  33.213  26.613  1.00  0.00     0.054 A 
BRANCH  67  68
ATOM     68  S   UNL A   1      47.067  35.016  26.585  1.00  0.00     0.124 S 
ATOM     69  O   UNL A   1      45.866  35.397  25.848  1.00  0.00    -0.237 OA
ATOM     70  O   UNL A   1      47.069  35.346  28.007  1.00  0.00    -0.237 OA
ATOM     71  O   UNL A   1      48.330  35.251  25.891  1.00  0.00    -0.744 OA
ENDBRANCH  67  68
ENDBRANCH  48  62
BRANCH  49  72
ATOM     72  C   UNL A   1      38.604  28.743  29.128  1.00  0.00    -0.014 A 
ATOM     73  C   UNL A   1      37.620  28.900  30.122  1.00  0.00     0.010 A 
ATOM     74  C   UNL A   1      38.379  29.371  27.884  1.00  0.00     0.010 A 
ATOM     75  C   UNL A   1      36.493  29.715  29.907  1.00  0.00     0.020 A 
ATOM     76  C   UNL A   1      37.257  30.181  27.661  1.00  0.00     0.020 A 
ATOM     77  C   UNL A   1      36.332  30.372  28.684  1.00  0.00     0.054 A 
BRANCH  77  78
ATOM     78  S   UNL A   1      34.979  31.570  28.478  1.00  0.00     0.124 S 
ATOM     79  O   UNL A   1      34.805  32.080  29.835  1.00  0.00    -0.237 OA
ATOM     80  O   UNL A   1      35.535  32.515  27.514  1.00  0.00    -0.237 OA
ATOM     81  O   UNL A   1      33.873  30.756  27.976  1.00  0.00    -0.744 OA
ENDBRANCH  77  78
ENDBRANCH  49  72
BRANCH  61  82
ATOM     82  C   UNL A   1      43.922  27.356  32.340  1.00  0.00    -0.014 A 
ATOM     83  C   UNL A   1      44.008  25.964  32.141  1.00  0.00     0.010 A 
ATOM     84  C   UNL A   1      43.815  27.837  33.657  1.00  0.00     0.010 A 
ATOM     85  C   UNL A   1      43.971  25.080  33.234  1.00  0.00     0.020 A 
ATOM     86  C   UNL A   1      43.797  26.965  34.747  1.00  0.00     0.020 A 
ATOM     87  C   UNL A   1      43.869  25.590  34.533  1.00  0.00     0.054 A 
BRANCH  87  88
ATOM     88  S   UNL A   1      43.875  24.451  35.947  1.00  0.00     0.124 S 
ATOM     89  O   UNL A   1      43.386  23.208  35.357  1.00  0.00    -0.237 OA
ATOM     90  O   UNL A   1      45.278  24.445  36.354  1.00  0.00    -0.237 OA
ATOM     91  O   UNL A   1      42.964  25.078  36.904  1.00  0.00    -0.744 OA
ENDBRANCH  87  88
ENDBRANCH  61  82
ENDBRANCH  35  36
ENDBRANCH  27  30
ENDBRANCH  25  26
ENDBRANCH  24  25
ENDBRANCH  23  24
ENDBRANCH   1  23
TORSDOF 20
ENDMDL
