MODEL 1
REMARK VINA RESULT:     -12.3      0.000      0.000
REMARK SMILES Cc1ccc(C(=O)N2C[C@@H](C(=O)NCCCCCCNC(=O)c3ccc(-c4c5nc(c(-c6ccc(S(=O)(=O)[O-])cc6)c6ccc([nH]6)c(-c6ccc(S(=O)(=O)[O-])cc6)c6nc(c(-c7ccc(S(=O)(=O)[O-])cc7)c7ccc4[nH]7)C=C6)C=C5)cc3)C[C@H](C(=O)N3CCOCC3)C2)cc1F
REMARK SMILES IDX 17 1 16 2 15 3 14 4 13 5 11 6 12 7 10 9 8 10 9 11 93 12
REMARK SMILES IDX 84 13 83 14 6 15 7 16 5 17 1 18 2 19 3 20 95 21 4 22 94 23
REMARK SMILES IDX 96 24 85 25 86 26 87 27 88 28 92 29 89 30 91 31 90 32 18 33
REMARK SMILES IDX 19 34 20 35 21 36 22 38 23 39 24 40 82 41 25 42 81 43 26 44
REMARK SMILES IDX 27 45 28 46 75 47 29 48 80 49 74 50 76 51 30 52 79 53 73 54
REMARK SMILES IDX 72 55 31 57 61 58 42 59 60 60 43 61 46 62 59 63 77 64 44 65
REMARK SMILES IDX 45 66 58 68 78 69 47 70 32 71 33 72 41 73 34 74 40 75 35 76
REMARK SMILES IDX 36 77 37 78 38 79 39 80 62 81 63 82 71 83 64 84 70 85 65 86
REMARK SMILES IDX 66 87 67 88 68 89 69 90 48 91 49 92 57 93 50 94 56 95 51 96
REMARK SMILES IDX 52 97 53 98 54 99 55 100
REMARK H PARENT 13 8 20 37 76 56 46 67
REMARK Flexibility Score: inf
ROOT
ATOM      1  C   UNL A   1      40.513  22.097  27.543  1.00  0.00     0.002 C 
ENDROOT
BRANCH   1   2
ATOM      2  C   UNL A   1      39.469  22.282  26.436  1.00  0.00     0.002 C 
BRANCH   2   3
ATOM      3  C   UNL A   1      38.625  23.553  26.562  1.00  0.00     0.021 C 
BRANCH   3   4
ATOM      4  C   UNL A   1      37.251  23.433  25.921  1.00  0.00     0.116 C 
BRANCH   4   5
ATOM      5  N   UNL A   1      37.365  23.430  24.479  1.00  0.00    -0.356 N 
ATOM      6  C   UNL A   1      36.520  22.952  23.538  1.00  0.00     0.224 C 
ATOM      7  O   UNL A   1      36.903  22.926  22.367  1.00  0.00    -0.275 OA
ATOM      8  H   UNL A   1      38.186  23.842  24.127  1.00  0.00     0.163 HD
BRANCH   6   9
ATOM      9  C   UNL A   1      35.138  22.460  23.905  1.00  0.00     0.099 C 
ATOM     10  N   UNL A   1      32.996  23.105  24.969  1.00  0.00    -0.337 N 
ATOM     11  C   UNL A   1      34.288  23.570  24.494  1.00  0.00     0.133 C 
ATOM     12  C   UNL A   1      32.988  21.929  25.839  1.00  0.00     0.133 C 
ATOM     13  C   UNL A   1      33.775  20.741  25.247  1.00  0.00     0.099 C 
ATOM     14  C   UNL A   1      35.137  21.138  24.678  1.00  0.00     0.030 C 
BRANCH  10  15
ATOM     15  C   UNL A   1      31.902  23.915  24.687  1.00  0.00     0.254 C 
ATOM     16  O   UNL A   1      30.945  23.517  24.024  1.00  0.00    -0.269 OA
BRANCH  15  17
ATOM     17  C   UNL A   1      31.909  25.345  25.064  1.00  0.00     0.042 A 
ATOM     18  C   UNL A   1      32.950  29.489  25.530  1.00  0.00     0.047 C 
ATOM     19  C   UNL A   1      32.511  28.058  25.429  1.00  0.00    -0.015 A 
ATOM     20  C   UNL A   1      32.855  27.123  26.413  1.00  0.00     0.007 A 
ATOM     21  C   UNL A   1      31.817  27.623  24.297  1.00  0.00     0.126 A 
ATOM     22  C   UNL A   1      32.560  25.768  26.231  1.00  0.00     0.014 A 
ATOM     23  C   UNL A   1      31.519  26.279  24.102  1.00  0.00     0.053 A 
ATOM     24  F   UNL A   1      31.482  28.501  23.341  1.00  0.00    -0.207 F 
ENDBRANCH  15  17
ENDBRANCH  10  15
BRANCH  13  25
ATOM     25  C   UNL A   1      32.831  19.868  24.405  1.00  0.00     0.227 C 
ATOM     26  O   UNL A   1      32.153  20.413  23.528  1.00  0.00    -0.275 OA
ATOM     27  N   UNL A   1      32.949  18.500  24.440  1.00  0.00    -0.338 N 
ATOM     28  C   UNL A   1      32.696  17.631  25.590  1.00  0.00     0.148 C 
ATOM     29  C   UNL A   1      32.940  17.760  23.180  1.00  0.00     0.148 C 
ATOM     30  C   UNL A   1      33.735  16.500  25.615  1.00  0.00     0.181 C 
ATOM     31  C   UNL A   1      33.954  16.612  23.261  1.00  0.00     0.181 C 
ATOM     32  O   UNL A   1      33.680  15.753  24.383  1.00  0.00    -0.378 OA
ENDBRANCH  13  25
ENDBRANCH   6   9
ENDBRANCH   4   5
ENDBRANCH   3   4
ENDBRANCH   2   3
ENDBRANCH   1   2
BRANCH   1  33
ATOM     33  C   UNL A   1      41.961  22.054  27.052  1.00  0.00     0.021 C 
BRANCH  33  34
ATOM     34  C   UNL A   1      42.702  23.370  27.207  1.00  0.00     0.116 C 
BRANCH  34  35
ATOM     35  N   UNL A   1      42.526  24.225  26.046  1.00  0.00    -0.352 N 
ATOM     36  C   UNL A   1      42.059  25.514  26.015  1.00  0.00     0.251 C 
ATOM     37  H   UNL A   1      42.770  23.832  25.177  1.00  0.00     0.163 HD
ATOM     38  O   UNL A   1      41.754  26.046  24.953  1.00  0.00    -0.269 OA
BRANCH  36  39
ATOM     39  C   UNL A   1      41.916  26.237  27.293  1.00  0.00     0.039 A 
ATOM     40  C   UNL A   1      42.811  27.259  27.606  1.00  0.00     0.014 A 
ATOM     41  C   UNL A   1      40.854  25.928  28.148  1.00  0.00     0.014 A 
ATOM     42  C   UNL A   1      42.614  28.009  28.767  1.00  0.00     0.010 A 
ATOM     43  C   UNL A   1      40.614  26.726  29.257  1.00  0.00     0.010 A 
ATOM     44  C   UNL A   1      41.501  27.763  29.587  1.00  0.00    -0.014 A 
BRANCH  44  45
ATOM     45  C   UNL A   1      41.254  28.536  30.829  1.00  0.00     0.031 A 
ATOM     46  C   UNL A   1      40.138  29.544  30.851  1.00  0.00     0.074 A 
ATOM     47  C   UNL A   1      42.074  28.401  31.888  1.00  0.00     0.049 A 
ATOM     48  N   UNL A   1      39.844  30.430  31.766  1.00  0.00    -0.248 NA
ATOM     49  C   UNL A   1      39.256  29.584  29.670  1.00  0.00     0.031 C 
ATOM     50  C   UNL A   1      43.200  27.468  31.979  1.00  0.00     0.029 A 
ATOM     51  N   UNL A   1      42.095  29.063  33.090  1.00  0.00    -0.354 N 
ATOM     52  C   UNL A   1      38.767  31.148  31.261  1.00  0.00     0.074 A 
ATOM     53  C   UNL A   1      38.492  30.632  29.938  1.00  0.00     0.031 C 
ATOM     54  C   UNL A   1      43.790  27.608  33.178  1.00  0.00     0.029 A 
ATOM     55  C   UNL A   1      43.121  28.673  33.919  1.00  0.00     0.049 A 
ATOM     56  H   UNL A   1      41.437  29.753  33.336  1.00  0.00     0.167 HD
ATOM     57  C   UNL A   1      38.058  32.138  31.852  1.00  0.00     0.031 A 
ATOM     58  C   UNL A   1      43.492  29.135  35.129  1.00  0.00     0.031 A 
ATOM     59  C   UNL A   1      38.325  32.632  33.174  1.00  0.00     0.049 A 
ATOM     60  C   UNL A   1      42.703  30.253  35.759  1.00  0.00     0.074 A 
ATOM     61  C   UNL A   1      37.638  33.598  33.886  1.00  0.00     0.029 A 
ATOM     62  N   UNL A   1      39.361  32.194  33.987  1.00  0.00    -0.354 N 
ATOM     63  N   UNL A   1      41.661  30.894  35.284  1.00  0.00    -0.248 NA
ATOM     64  C   UNL A   1      43.131  30.705  37.091  1.00  0.00     0.031 C 
ATOM     65  C   UNL A   1      38.291  33.785  35.107  1.00  0.00     0.029 A 
ATOM     66  C   UNL A   1      39.341  32.884  35.185  1.00  0.00     0.049 A 
ATOM     67  H   UNL A   1      40.012  31.496  33.747  1.00  0.00     0.167 HD
ATOM     68  C   UNL A   1      41.283  31.791  36.277  1.00  0.00     0.074 A 
ATOM     69  C   UNL A   1      42.209  31.614  37.376  1.00  0.00     0.031 C 
ATOM     70  C   UNL A   1      40.256  32.675  36.279  1.00  0.00     0.031 A 
BRANCH  57  71
ATOM     71  C   UNL A   1      36.930  32.756  31.068  1.00  0.00    -0.014 A 
ATOM     72  C   UNL A   1      35.602  32.324  31.236  1.00  0.00     0.010 A 
ATOM     73  C   UNL A   1      37.198  33.811  30.176  1.00  0.00     0.010 A 
ATOM     74  C   UNL A   1      34.569  32.905  30.497  1.00  0.00     0.020 A 
ATOM     75  C   UNL A   1      36.164  34.418  29.459  1.00  0.00     0.020 A 
ATOM     76  C   UNL A   1      34.857  33.949  29.612  1.00  0.00     0.054 A 
BRANCH  76  77
ATOM     77  S   UNL A   1      33.494  34.700  28.684  1.00  0.00     0.124 S 
ATOM     78  O   UNL A   1      33.103  33.612  27.790  1.00  0.00    -0.237 OA
ATOM     79  O   UNL A   1      32.533  35.023  29.734  1.00  0.00    -0.237 OA
ATOM     80  O   UNL A   1      34.111  35.851  28.029  1.00  0.00    -0.744 OA
ENDBRANCH  76  77
ENDBRANCH  57  71
BRANCH  58  81
ATOM     81  C   UNL A   1      44.663  28.538  35.829  1.00  0.00    -0.014 A 
ATOM     82  C   UNL A   1      45.953  29.066  35.644  1.00  0.00     0.010 A 
ATOM     83  C   UNL A   1      44.494  27.438  36.690  1.00  0.00     0.010 A 
ATOM     84  C   UNL A   1      47.053  28.494  36.288  1.00  0.00     0.020 A 
ATOM     85  C   UNL A   1      45.587  26.883  37.360  1.00  0.00     0.020 A 
ATOM     86  C   UNL A   1      46.863  27.406  37.144  1.00  0.00     0.054 A 
BRANCH  86  87
ATOM     87  S   UNL A   1      48.300  26.706  38.002  1.00  0.00     0.124 S 
ATOM     88  O   UNL A   1      47.800  25.399  38.414  1.00  0.00    -0.237 OA
ATOM     89  O   UNL A   1      49.317  26.696  36.954  1.00  0.00    -0.237 OA
ATOM     90  O   UNL A   1      48.543  27.654  39.088  1.00  0.00    -0.744 OA
ENDBRANCH  86  87
ENDBRANCH  58  81
BRANCH  70  91
ATOM     91  C   UNL A   1      40.018  33.479  37.529  1.00  0.00    -0.014 A 
ATOM     92  C   UNL A   1      40.640  34.721  37.735  1.00  0.00     0.010 A 
ATOM     93  C   UNL A   1      39.060  33.027  38.458  1.00  0.00     0.010 A 
ATOM     94  C   UNL A   1      40.312  35.496  38.852  1.00  0.00     0.020 A 
ATOM     95  C   UNL A   1      38.709  33.811  39.558  1.00  0.00     0.020 A 
ATOM     96  C   UNL A   1      39.340  35.040  39.750  1.00  0.00     0.054 A 
BRANCH  96  97
ATOM     97  S   UNL A   1      38.864  36.108  41.136  1.00  0.00     0.124 S 
ATOM     98  O   UNL A   1      40.073  36.100  41.956  1.00  0.00    -0.237 OA
ATOM     99  O   UNL A   1      38.562  37.374  40.474  1.00  0.00    -0.237 OA
ATOM    100  O   UNL A   1      37.711  35.426  41.721  1.00  0.00    -0.744 OA
ENDBRANCH  96  97
ENDBRANCH  70  91
ENDBRANCH  44  45
ENDBRANCH  36  39
ENDBRANCH  34  35
ENDBRANCH  33  34
ENDBRANCH   1  33
TORSDOF 19
ENDMDL
MODEL 2
REMARK VINA RESULT:     -12.3      1.577      4.202
REMARK SMILES Cc1ccc(C(=O)N2C[C@@H](C(=O)NCCCCCCNC(=O)c3ccc(-c4c5nc(c(-c6ccc(S(=O)(=O)[O-])cc6)c6ccc([nH]6)c(-c6ccc(S(=O)(=O)[O-])cc6)c6nc(c(-c7ccc(S(=O)(=O)[O-])cc7)c7ccc4[nH]7)C=C6)C=C5)cc3)C[C@H](C(=O)N3CCOCC3)C2)cc1F
REMARK SMILES IDX 17 1 16 2 15 3 14 4 13 5 11 6 12 7 10 9 8 10 9 11 93 12
REMARK SMILES IDX 84 13 83 14 6 15 7 16 5 17 1 18 2 19 3 20 95 21 4 22 94 23
REMARK SMILES IDX 96 24 85 25 86 26 87 27 88 28 92 29 89 30 91 31 90 32 18 33
REMARK SMILES IDX 19 34 20 35 21 36 22 38 23 39 24 40 82 41 25 42 81 43 26 44
REMARK SMILES IDX 27 45 28 46 75 47 29 48 80 49 74 50 76 51 30 52 79 53 73 54
REMARK SMILES IDX 72 55 31 57 61 58 42 59 60 60 43 61 46 62 59 63 77 64 44 65
REMARK SMILES IDX 45 66 58 68 78 69 47 70 32 71 33 72 41 73 34 74 40 75 35 76
REMARK SMILES IDX 36 77 37 78 38 79 39 80 62 81 63 82 71 83 64 84 70 85 65 86
REMARK SMILES IDX 66 87 67 88 68 89 69 90 48 91 49 92 57 93 50 94 56 95 51 96
REMARK SMILES IDX 52 97 53 98 54 99 55 100
REMARK H PARENT 13 8 20 37 76 56 46 67
REMARK Flexibility Score: inf
ROOT
ATOM      1  C   UNL A   1      40.603  22.056  27.610  1.00  0.00     0.002 C 
ENDROOT
BRANCH   1   2
ATOM      2  C   UNL A   1      39.604  22.342  26.484  1.00  0.00     0.002 C 
BRANCH   2   3
ATOM      3  C   UNL A   1      38.855  23.670  26.619  1.00  0.00     0.021 C 
BRANCH   3   4
ATOM      4  C   UNL A   1      37.441  23.626  26.058  1.00  0.00     0.116 C 
BRANCH   4   5
ATOM      5  N   UNL A   1      37.471  23.387  24.632  1.00  0.00    -0.356 N 
ATOM      6  C   UNL A   1      36.456  23.247  23.749  1.00  0.00     0.224 C 
ATOM      7  O   UNL A   1      36.726  22.897  22.598  1.00  0.00    -0.275 OA
ATOM      8  H   UNL A   1      38.371  23.316  24.242  1.00  0.00     0.163 HD
BRANCH   6   9
ATOM      9  C   UNL A   1      35.024  23.514  24.155  1.00  0.00     0.099 C 
ATOM     10  N   UNL A   1      32.728  22.584  24.143  1.00  0.00    -0.337 N 
ATOM     11  C   UNL A   1      34.132  22.319  23.876  1.00  0.00     0.133 C 
ATOM     12  C   UNL A   1      32.158  23.802  23.568  1.00  0.00     0.133 C 
ATOM     13  C   UNL A   1      32.988  25.062  23.892  1.00  0.00     0.099 C 
ATOM     14  C   UNL A   1      34.490  24.870  23.685  1.00  0.00     0.030 C 
BRANCH  10  15
ATOM     15  C   UNL A   1      32.016  21.576  24.780  1.00  0.00     0.254 C 
ATOM     16  O   UNL A   1      31.280  21.799  25.740  1.00  0.00    -0.269 OA
BRANCH  15  17
ATOM     17  C   UNL A   1      32.224  20.159  24.409  1.00  0.00     0.042 A 
ATOM     18  C   UNL A   1      33.972  16.401  23.271  1.00  0.00     0.047 C 
ATOM     19  C   UNL A   1      33.273  17.670  23.660  1.00  0.00    -0.015 A 
ATOM     20  C   UNL A   1      32.730  18.524  22.692  1.00  0.00     0.007 A 
ATOM     21  C   UNL A   1      33.230  18.056  25.003  1.00  0.00     0.126 A 
ATOM     22  C   UNL A   1      32.210  19.769  23.063  1.00  0.00     0.014 A 
ATOM     23  C   UNL A   1      32.719  19.290  25.385  1.00  0.00     0.053 A 
ATOM     24  F   UNL A   1      33.748  17.254  25.944  1.00  0.00    -0.207 F 
ENDBRANCH  15  17
ENDBRANCH  10  15
BRANCH  13  25
ATOM     25  C   UNL A   1      32.481  25.689  25.200  1.00  0.00     0.227 C 
ATOM     26  O   UNL A   1      32.273  24.947  26.166  1.00  0.00    -0.275 OA
ATOM     27  N   UNL A   1      32.530  27.052  25.371  1.00  0.00    -0.338 N 
ATOM     28  C   UNL A   1      31.773  28.053  24.621  1.00  0.00     0.148 C 
ATOM     29  C   UNL A   1      33.051  27.585  26.628  1.00  0.00     0.148 C 
ATOM     30  C   UNL A   1      32.660  29.281  24.366  1.00  0.00     0.181 C 
ATOM     31  C   UNL A   1      33.891  28.834  26.338  1.00  0.00     0.181 C 
ATOM     32  O   UNL A   1      33.127  29.820  25.618  1.00  0.00    -0.378 OA
ENDBRANCH  13  25
ENDBRANCH   6   9
ENDBRANCH   4   5
ENDBRANCH   3   4
ENDBRANCH   2   3
ENDBRANCH   1   2
BRANCH   1  33
ATOM     33  C   UNL A   1      42.067  22.018  27.169  1.00  0.00     0.021 C 
BRANCH  33  34
ATOM     34  C   UNL A   1      42.788  23.347  27.316  1.00  0.00     0.116 C 
BRANCH  34  35
ATOM     35  N   UNL A   1      42.608  24.187  26.146  1.00  0.00    -0.352 N 
ATOM     36  C   UNL A   1      42.135  25.473  26.099  1.00  0.00     0.251 C 
ATOM     37  H   UNL A   1      42.856  23.786  25.282  1.00  0.00     0.163 HD
ATOM     38  O   UNL A   1      41.828  25.992  25.031  1.00  0.00    -0.269 OA
BRANCH  36  39
ATOM     39  C   UNL A   1      41.986  26.210  27.369  1.00  0.00     0.039 A 
ATOM     40  C   UNL A   1      42.854  27.264  27.656  1.00  0.00     0.014 A 
ATOM     41  C   UNL A   1      40.946  25.881  28.243  1.00  0.00     0.014 A 
ATOM     42  C   UNL A   1      42.649  28.024  28.808  1.00  0.00     0.010 A 
ATOM     43  C   UNL A   1      40.696  26.687  29.343  1.00  0.00     0.010 A 
ATOM     44  C   UNL A   1      41.555  27.755  29.647  1.00  0.00    -0.014 A 
BRANCH  44  45
ATOM     45  C   UNL A   1      41.301  28.538  30.881  1.00  0.00     0.031 A 
ATOM     46  C   UNL A   1      40.179  29.540  30.892  1.00  0.00     0.074 A 
ATOM     47  C   UNL A   1      42.119  28.417  31.944  1.00  0.00     0.049 A 
ATOM     48  N   UNL A   1      39.879  30.433  31.798  1.00  0.00    -0.248 NA
ATOM     49  C   UNL A   1      39.300  29.565  29.709  1.00  0.00     0.031 C 
ATOM     50  C   UNL A   1      43.251  27.492  32.046  1.00  0.00     0.029 A 
ATOM     51  N   UNL A   1      42.134  29.091  33.140  1.00  0.00    -0.354 N 
ATOM     52  C   UNL A   1      38.798  31.140  31.284  1.00  0.00     0.074 A 
ATOM     53  C   UNL A   1      38.529  30.610  29.966  1.00  0.00     0.031 C 
ATOM     54  C   UNL A   1      43.837  27.646  33.244  1.00  0.00     0.029 A 
ATOM     55  C   UNL A   1      43.160  28.714  33.975  1.00  0.00     0.049 A 
ATOM     56  H   UNL A   1      41.472  29.779  33.378  1.00  0.00     0.167 HD
ATOM     57  C   UNL A   1      38.082  32.131  31.865  1.00  0.00     0.031 A 
ATOM     58  C   UNL A   1      43.525  29.189  35.181  1.00  0.00     0.031 A 
ATOM     59  C   UNL A   1      38.344  32.638  33.183  1.00  0.00     0.049 A 
ATOM     60  C   UNL A   1      42.729  30.307  35.799  1.00  0.00     0.074 A 
ATOM     61  C   UNL A   1      37.649  33.607  33.885  1.00  0.00     0.029 A 
ATOM     62  N   UNL A   1      39.380  32.214  34.002  1.00  0.00    -0.354 N 
ATOM     63  N   UNL A   1      41.684  30.938  35.316  1.00  0.00    -0.248 NA
ATOM     64  C   UNL A   1      43.152  30.774  37.128  1.00  0.00     0.031 C 
ATOM     65  C   UNL A   1      38.298  33.808  35.105  1.00  0.00     0.029 A 
ATOM     66  C   UNL A   1      39.353  32.915  35.194  1.00  0.00     0.049 A 
ATOM     67  H   UNL A   1      40.035  31.517  33.770  1.00  0.00     0.167 HD
ATOM     68  C   UNL A   1      41.299  31.843  36.300  1.00  0.00     0.074 A 
ATOM     69  C   UNL A   1      42.223  31.681  37.403  1.00  0.00     0.031 C 
ATOM     70  C   UNL A   1      40.267  32.721  36.292  1.00  0.00     0.031 A 
BRANCH  57  71
ATOM     71  C   UNL A   1      36.953  32.735  31.073  1.00  0.00    -0.014 A 
ATOM     72  C   UNL A   1      35.627  32.296  31.240  1.00  0.00     0.010 A 
ATOM     73  C   UNL A   1      37.216  33.785  30.174  1.00  0.00     0.010 A 
ATOM     74  C   UNL A   1      34.593  32.865  30.493  1.00  0.00     0.020 A 
ATOM     75  C   UNL A   1      36.181  34.380  29.449  1.00  0.00     0.020 A 
ATOM     76  C   UNL A   1      34.876  33.903  29.601  1.00  0.00     0.054 A 
BRANCH  76  77
ATOM     77  S   UNL A   1      33.511  34.638  28.664  1.00  0.00     0.124 S 
ATOM     78  O   UNL A   1      33.086  33.520  27.825  1.00  0.00    -0.237 OA
ATOM     79  O   UNL A   1      32.574  35.025  29.714  1.00  0.00    -0.237 OA
ATOM     80  O   UNL A   1      34.137  35.748  27.948  1.00  0.00    -0.744 OA
ENDBRANCH  76  77
ENDBRANCH  57  71
BRANCH  58  81
ATOM     81  C   UNL A   1      44.698  28.604  35.889  1.00  0.00    -0.014 A 
ATOM     82  C   UNL A   1      45.987  29.133  35.696  1.00  0.00     0.010 A 
ATOM     83  C   UNL A   1      44.532  27.516  36.765  1.00  0.00     0.010 A 
ATOM     84  C   UNL A   1      47.089  28.574  36.347  1.00  0.00     0.020 A 
ATOM     85  C   UNL A   1      45.627  26.973  37.443  1.00  0.00     0.020 A 
ATOM     86  C   UNL A   1      46.901  27.497  37.219  1.00  0.00     0.054 A 
BRANCH  86  87
ATOM     87  S   UNL A   1      48.341  26.813  38.086  1.00  0.00     0.124 S 
ATOM     88  O   UNL A   1      47.843  25.512  38.521  1.00  0.00    -0.237 OA
ATOM     89  O   UNL A   1      49.357  26.787  37.037  1.00  0.00    -0.237 OA
ATOM     90  O   UNL A   1      48.585  27.779  39.156  1.00  0.00    -0.744 OA
ENDBRANCH  86  87
ENDBRANCH  58  81
BRANCH  70  91
ATOM     91  C   UNL A   1      40.022  33.534  37.534  1.00  0.00    -0.014 A 
ATOM     92  C   UNL A   1      40.470  34.861  37.646  1.00  0.00     0.010 A 
ATOM     93  C   UNL A   1      39.223  32.989  38.559  1.00  0.00     0.010 A 
ATOM     94  C   UNL A   1      40.128  35.627  38.764  1.00  0.00     0.020 A 
ATOM     95  C   UNL A   1      38.857  33.761  39.663  1.00  0.00     0.020 A 
ATOM     96  C   UNL A   1      39.315  35.075  39.760  1.00  0.00     0.054 A 
BRANCH  96  97
ATOM     97  S   UNL A   1      38.808  36.121  41.152  1.00  0.00     0.124 S 
ATOM     98  O   UNL A   1      38.527  37.393  40.490  1.00  0.00    -0.237 OA
ATOM     99  O   UNL A   1      37.642  35.414  41.675  1.00  0.00    -0.237 OA
ATOM    100  O   UNL A   1      39.975  36.122  42.031  1.00  0.00    -0.744 OA
ENDBRANCH  96  97
ENDBRANCH  70  91
ENDBRANCH  44  45
ENDBRANCH  36  39
ENDBRANCH  34  35
ENDBRANCH  33  34
ENDBRANCH   1  33
TORSDOF 19
ENDMDL
MODEL 3
REMARK VINA RESULT:     -12.2      4.256      9.665
REMARK SMILES Cc1ccc(C(=O)N2C[C@@H](C(=O)NCCCCCCNC(=O)c3ccc(-c4c5nc(c(-c6ccc(S(=O)(=O)[O-])cc6)c6ccc([nH]6)c(-c6ccc(S(=O)(=O)[O-])cc6)c6nc(c(-c7ccc(S(=O)(=O)[O-])cc7)c7ccc4[nH]7)C=C6)C=C5)cc3)C[C@H](C(=O)N3CCOCC3)C2)cc1F
REMARK SMILES IDX 17 1 16 2 15 3 14 4 13 5 11 6 12 7 10 9 8 10 9 11 93 12
REMARK SMILES IDX 84 13 83 14 6 15 7 16 5 17 1 18 2 19 3 20 95 21 4 22 94 23
REMARK SMILES IDX 96 24 85 25 86 26 87 27 88 28 92 29 89 30 91 31 90 32 18 33
REMARK SMILES IDX 19 34 20 35 21 36 22 38 23 39 24 40 82 41 25 42 81 43 26 44
REMARK SMILES IDX 27 45 28 46 75 47 29 48 80 49 74 50 76 51 30 52 79 53 73 54
REMARK SMILES IDX 72 55 31 57 61 58 42 59 60 60 43 61 46 62 59 63 77 64 44 65
REMARK SMILES IDX 45 66 58 68 78 69 47 70 32 71 33 72 41 73 34 74 40 75 35 76
REMARK SMILES IDX 36 77 37 78 38 79 39 80 62 81 63 82 71 83 64 84 70 85 65 86
REMARK SMILES IDX 66 87 67 88 68 89 69 90 48 91 49 92 57 93 50 94 56 95 51 96
REMARK SMILES IDX 52 97 53 98 54 99 55 100
REMARK H PARENT 13 8 20 37 76 56 46 67
REMARK Flexibility Score: inf
ROOT
ATOM      1  C   UNL A   1      32.144  28.111  25.045  1.00  0.00     0.002 C 
ENDROOT
BRANCH   1   2
ATOM      2  C   UNL A   1      31.053  27.069  25.315  1.00  0.00     0.002 C 
BRANCH   2   3
ATOM      3  C   UNL A   1      30.160  26.754  24.112  1.00  0.00     0.021 C 
BRANCH   3   4
ATOM      4  C   UNL A   1      30.511  25.443  23.425  1.00  0.00     0.116 C 
BRANCH   4   5
ATOM      5  N   UNL A   1      31.738  25.581  22.671  1.00  0.00    -0.356 N 
ATOM      6  C   UNL A   1      32.902  24.899  22.767  1.00  0.00     0.224 C 
ATOM      7  O   UNL A   1      33.869  25.298  22.114  1.00  0.00    -0.275 OA
ATOM      8  H   UNL A   1      31.723  26.279  21.979  1.00  0.00     0.163 HD
BRANCH   6   9
ATOM      9  C   UNL A   1      33.022  23.677  23.649  1.00  0.00     0.099 C 
ATOM     10  N   UNL A   1      32.218  21.358  23.986  1.00  0.00    -0.337 N 
ATOM     11  C   UNL A   1      32.222  22.511  23.101  1.00  0.00     0.133 C 
ATOM     12  C   UNL A   1      31.889  21.598  25.391  1.00  0.00     0.133 C 
ATOM     13  C   UNL A   1      32.734  22.725  26.021  1.00  0.00     0.099 C 
ATOM     14  C   UNL A   1      32.837  23.970  25.141  1.00  0.00     0.030 C 
BRANCH  10  15
ATOM     15  C   UNL A   1      32.366  20.114  23.387  1.00  0.00     0.254 C 
ATOM     16  O   UNL A   1      31.888  19.857  22.283  1.00  0.00    -0.269 OA
BRANCH  15  17
ATOM     17  C   UNL A   1      32.996  18.996  24.122  1.00  0.00     0.042 A 
ATOM     18  C   UNL A   1      35.179  15.440  25.153  1.00  0.00     0.047 C 
ATOM     19  C   UNL A   1      34.389  16.687  24.888  1.00  0.00    -0.015 A 
ATOM     20  C   UNL A   1      33.003  16.640  24.692  1.00  0.00     0.007 A 
ATOM     21  C   UNL A   1      35.049  17.911  24.750  1.00  0.00     0.126 A 
ATOM     22  C   UNL A   1      32.306  17.789  24.305  1.00  0.00     0.014 A 
ATOM     23  C   UNL A   1      34.370  19.060  24.364  1.00  0.00     0.053 A 
ATOM     24  F   UNL A   1      36.376  17.977  24.929  1.00  0.00    -0.207 F 
ENDBRANCH  15  17
ENDBRANCH  10  15
BRANCH  13  25
ATOM     25  C   UNL A   1      34.011  22.129  26.635  1.00  0.00     0.227 C 
ATOM     26  O   UNL A   1      33.895  21.218  27.463  1.00  0.00    -0.275 OA
ATOM     27  N   UNL A   1      35.235  22.406  26.075  1.00  0.00    -0.338 N 
ATOM     28  C   UNL A   1      35.894  23.710  26.019  1.00  0.00     0.148 C 
ATOM     29  C   UNL A   1      36.171  21.306  25.854  1.00  0.00     0.148 C 
ATOM     30  C   UNL A   1      36.606  23.866  24.668  1.00  0.00     0.181 C 
ATOM     31  C   UNL A   1      36.896  21.521  24.520  1.00  0.00     0.181 C 
ATOM     32  O   UNL A   1      37.559  22.799  24.487  1.00  0.00    -0.378 OA
ENDBRANCH  13  25
ENDBRANCH   6   9
ENDBRANCH   4   5
ENDBRANCH   3   4
ENDBRANCH   2   3
ENDBRANCH   1   2
BRANCH   1  33
ATOM     33  C   UNL A   1      33.570  27.619  25.294  1.00  0.00     0.021 C 
BRANCH  33  34
ATOM     34  C   UNL A   1      34.182  28.134  26.586  1.00  0.00     0.116 C 
BRANCH  34  35
ATOM     35  N   UNL A   1      33.783  29.503  26.860  1.00  0.00    -0.352 N 
ATOM     36  C   UNL A   1      34.419  30.422  27.654  1.00  0.00     0.251 C 
ATOM     37  H   UNL A   1      32.955  29.808  26.423  1.00  0.00     0.163 HD
ATOM     38  O   UNL A   1      33.865  31.468  27.973  1.00  0.00    -0.269 OA
BRANCH  36  39
ATOM     39  C   UNL A   1      35.781  30.111  28.129  1.00  0.00     0.039 A 
ATOM     40  C   UNL A   1      35.955  29.561  29.399  1.00  0.00     0.014 A 
ATOM     41  C   UNL A   1      36.874  30.319  27.283  1.00  0.00     0.014 A 
ATOM     42  C   UNL A   1      37.232  29.175  29.808  1.00  0.00     0.010 A 
ATOM     43  C   UNL A   1      38.127  29.860  27.659  1.00  0.00     0.010 A 
ATOM     44  C   UNL A   1      38.323  29.299  28.931  1.00  0.00    -0.014 A 
BRANCH  44  45
ATOM     45  C   UNL A   1      39.696  28.901  29.326  1.00  0.00     0.031 A 
ATOM     46  C   UNL A   1      40.577  29.906  30.016  1.00  0.00     0.074 A 
ATOM     47  C   UNL A   1      40.176  27.689  28.990  1.00  0.00     0.049 A 
ATOM     48  N   UNL A   1      41.849  29.826  30.309  1.00  0.00    -0.248 NA
ATOM     49  C   UNL A   1      39.952  31.186  30.397  1.00  0.00     0.031 C 
ATOM     50  C   UNL A   1      39.423  26.636  28.304  1.00  0.00     0.029 A 
ATOM     51  N   UNL A   1      41.423  27.143  29.166  1.00  0.00    -0.354 N 
ATOM     52  C   UNL A   1      42.180  31.050  30.879  1.00  0.00     0.074 A 
ATOM     53  C   UNL A   1      40.992  31.873  30.843  1.00  0.00     0.031 C 
ATOM     54  C   UNL A   1      40.218  25.567  28.135  1.00  0.00     0.029 A 
ATOM     55  C   UNL A   1      41.550  25.875  28.649  1.00  0.00     0.049 A 
ATOM     56  H   UNL A   1      42.158  27.614  29.621  1.00  0.00     0.167 HD
ATOM     57  C   UNL A   1      43.364  31.446  31.402  1.00  0.00     0.031 A 
ATOM     58  C   UNL A   1      42.622  25.062  28.578  1.00  0.00     0.031 A 
ATOM     59  C   UNL A   1      44.534  30.614  31.451  1.00  0.00     0.049 A 
ATOM     60  C   UNL A   1      43.935  25.532  29.146  1.00  0.00     0.074 A 
ATOM     61  C   UNL A   1      45.770  30.902  32.002  1.00  0.00     0.029 A 
ATOM     62  N   UNL A   1      44.613  29.330  30.934  1.00  0.00    -0.354 N 
ATOM     63  N   UNL A   1      44.222  26.678  29.718  1.00  0.00    -0.248 NA
ATOM     64  C   UNL A   1      45.069  24.599  29.067  1.00  0.00     0.031 C 
ATOM     65  C   UNL A   1      46.613  29.812  31.769  1.00  0.00     0.029 A 
ATOM     66  C   UNL A   1      45.882  28.819  31.137  1.00  0.00     0.049 A 
ATOM     67  H   UNL A   1      43.876  28.852  30.489  1.00  0.00     0.167 HD
ATOM     68  C   UNL A   1      45.553  26.585  30.108  1.00  0.00     0.074 A 
ATOM     69  C   UNL A   1      46.018  25.274  29.703  1.00  0.00     0.031 C 
ATOM     70  C   UNL A   1      46.318  27.500  30.750  1.00  0.00     0.031 A 
BRANCH  57  71
ATOM     71  C   UNL A   1      43.452  32.844  31.955  1.00  0.00    -0.014 A 
ATOM     72  C   UNL A   1      43.266  33.100  33.326  1.00  0.00     0.010 A 
ATOM     73  C   UNL A   1      43.762  33.915  31.096  1.00  0.00     0.010 A 
ATOM     74  C   UNL A   1      43.346  34.404  33.820  1.00  0.00     0.020 A 
ATOM     75  C   UNL A   1      43.876  35.216  31.591  1.00  0.00     0.020 A 
ATOM     76  C   UNL A   1      43.650  35.454  32.949  1.00  0.00     0.054 A 
BRANCH  76  77
ATOM     77  S   UNL A   1      43.771  37.132  33.623  1.00  0.00     0.124 S 
ATOM     78  O   UNL A   1      43.898  37.936  32.410  1.00  0.00    -0.237 OA
ATOM     79  O   UNL A   1      42.509  37.279  34.343  1.00  0.00    -0.237 OA
ATOM     80  O   UNL A   1      44.965  37.084  34.464  1.00  0.00    -0.744 OA
ENDBRANCH  76  77
ENDBRANCH  57  71
BRANCH  58  81
ATOM     81  C   UNL A   1      42.498  23.716  27.952  1.00  0.00    -0.014 A 
ATOM     82  C   UNL A   1      42.845  23.520  26.604  1.00  0.00     0.010 A 
ATOM     83  C   UNL A   1      42.036  22.620  28.703  1.00  0.00     0.010 A 
ATOM     84  C   UNL A   1      42.712  22.261  26.012  1.00  0.00     0.020 A 
ATOM     85  C   UNL A   1      41.932  21.353  28.125  1.00  0.00     0.020 A 
ATOM     86  C   UNL A   1      42.258  21.183  26.779  1.00  0.00     0.054 A 
BRANCH  86  87
ATOM     87  S   UNL A   1      42.133  19.549  26.002  1.00  0.00     0.124 S 
ATOM     88  O   UNL A   1      42.998  19.700  24.836  1.00  0.00    -0.237 OA
ATOM     89  O   UNL A   1      42.629  18.663  27.051  1.00  0.00    -0.237 OA
ATOM     90  O   UNL A   1      40.707  19.419  25.710  1.00  0.00    -0.744 OA
ENDBRANCH  86  87
ENDBRANCH  58  81
BRANCH  70  91
ATOM     91  C   UNL A   1      47.721  27.108  31.130  1.00  0.00    -0.014 A 
ATOM     92  C   UNL A   1      48.013  26.540  32.381  1.00  0.00     0.010 A 
ATOM     93  C   UNL A   1      48.741  27.208  30.164  1.00  0.00     0.010 A 
ATOM     94  C   UNL A   1      49.303  26.082  32.661  1.00  0.00     0.020 A 
ATOM     95  C   UNL A   1      50.024  26.725  30.430  1.00  0.00     0.020 A 
ATOM     96  C   UNL A   1      50.298  26.168  31.679  1.00  0.00     0.054 A 
BRANCH  96  97
ATOM     97  S   UNL A   1      51.937  25.478  32.035  1.00  0.00     0.124 S 
ATOM     98  O   UNL A   1      52.262  26.109  33.312  1.00  0.00    -0.237 OA
ATOM     99  O   UNL A   1      51.673  24.042  32.093  1.00  0.00    -0.237 OA
ATOM    100  O   UNL A   1      52.751  25.912  30.902  1.00  0.00    -0.744 OA
ENDBRANCH  96  97
ENDBRANCH  70  91
ENDBRANCH  44  45
ENDBRANCH  36  39
ENDBRANCH  34  35
ENDBRANCH  33  34
ENDBRANCH   1  33
TORSDOF 19
ENDMDL
