MODEL 1
REMARK VINA RESULT:     -10.8      0.000      0.000
REMARK SMILES COC(=O)[C@@H]1CN(C(=O)NC(=O)CCCC(=O)NCCCCCCNC(=O)c2ccc(-c3c4nc(c(-c5ccc(S(=O)(=O)[O-])cc5)c5ccc([nH]5)c(-c5ccc(S(=O)(=O)[O-])cc5)c5nc(c(-c6ccc(S(=O)(=O)[O-])cc6)c6ccc3[nH]6)C=C5)C=C4)cc2)C[C@H]1C
REMARK SMILES IDX 20 1 19 2 18 3 16 4 17 5 15 7 14 8 13 9 11 10 8 11 9 12
REMARK SMILES IDX 10 13 12 15 7 16 5 17 6 18 89 19 88 20 90 21 3 22 4 23 2 24
REMARK SMILES IDX 1 25 21 26 22 27 23 28 24 29 25 30 26 31 27 33 28 34 29 35
REMARK SMILES IDX 87 36 30 37 86 38 31 39 32 40 33 41 80 42 34 43 85 44 79 45
REMARK SMILES IDX 81 46 35 47 84 48 78 49 77 50 36 52 66 53 47 54 65 55 48 56
REMARK SMILES IDX 51 57 64 58 82 59 49 60 50 61 63 63 83 64 52 65 37 66 38 67
REMARK SMILES IDX 46 68 39 69 45 70 40 71 41 72 42 73 43 74 44 75 67 76 68 77
REMARK SMILES IDX 76 78 69 79 75 80 70 81 71 82 72 83 73 84 74 85 53 86 54 87
REMARK SMILES IDX 62 88 55 89 61 90 56 91 57 92 58 93 59 94 60 95
REMARK H PARENT 18 6 10 14 25 32 81 51 51 62
REMARK Flexibility Score: inf
ROOT
ATOM      1  C   UNL A   1      32.355  28.762  26.224  1.00  0.00     0.021 C 
ENDROOT
BRANCH   1   2
ATOM      2  C   UNL A   1      32.723  29.622  25.003  1.00  0.00     0.116 C 
BRANCH   2   3
ATOM      3  N   UNL A   1      31.513  29.515  23.902  1.00  0.00    -0.356 N 
ATOM      4  C   UNL A   1      30.127  28.256  23.293  1.00  0.00     0.220 C 
ATOM      5  O   UNL A   1      29.370  28.308  22.294  1.00  0.00    -0.275 OA
ATOM      6  H   UNL A   1      31.464  30.346  23.377  1.00  0.00     0.163 HD
BRANCH   4   7
ATOM      7  C   UNL A   1      29.717  26.665  24.074  1.00  0.00     0.100 C 
BRANCH   7   8
ATOM      8  C   UNL A   1      30.473  25.291  24.164  1.00  0.00     0.020 C 
BRANCH   8   9
ATOM      9  C   UNL A   1      31.995  25.046  24.106  1.00  0.00     0.101 C 
BRANCH   9  10
ATOM     10  C   UNL A   1      32.879  25.762  23.124  1.00  0.00     0.227 C 
ATOM     11  C   UNL A   1      33.241  23.940  21.456  1.00  0.00     0.324 C 
ATOM     12  O   UNL A   1      33.341  23.786  20.237  1.00  0.00    -0.248 OA
ATOM     13  N   UNL A   1      33.213  25.200  21.937  1.00  0.00    -0.278 N 
ATOM     14  H   UNL A   1      33.502  25.866  21.272  1.00  0.00     0.174 HD
ATOM     15  O   UNL A   1      33.375  26.854  23.417  1.00  0.00    -0.275 OA
BRANCH  11  16
ATOM     16  N   UNL A   1      33.194  22.858  22.295  1.00  0.00    -0.323 N 
ATOM     17  C   UNL A   1      32.714  20.521  24.496  1.00  0.00     0.123 C 
ATOM     18  C   UNL A   1      31.861  21.501  22.921  1.00  0.00     0.137 C 
ATOM     19  C   UNL A   1      34.594  21.276  24.722  1.00  0.00     0.021 C 
ATOM     20  C   UNL A   1      34.822  22.714  23.336  1.00  0.00     0.125 C 
ATOM     21  C   UNL A   1      34.906  21.842  26.140  1.00  0.00     0.010 C 
BRANCH  17  22
ATOM     22  C   UNL A   1      32.672  18.999  24.573  1.00  0.00     0.310 C 
ATOM     23  O   UNL A   1      32.213  18.428  25.561  1.00  0.00    -0.252 OA
BRANCH  22  24
ATOM     24  O   UNL A   1      32.945  18.275  23.464  1.00  0.00    -0.469 OA
ATOM     25  C   UNL A   1      33.638  17.024  23.430  1.00  0.00     0.282 C 
ENDBRANCH  22  24
ENDBRANCH  17  22
ENDBRANCH  11  16
ENDBRANCH   9  10
ENDBRANCH   8   9
ENDBRANCH   7   8
ENDBRANCH   4   7
ENDBRANCH   2   3
ENDBRANCH   1   2
BRANCH   1  26
ATOM     26  C   UNL A   1      32.994  29.242  27.517  1.00  0.00     0.002 C 
BRANCH  26  27
ATOM     27  C   UNL A   1      33.734  30.570  27.362  1.00  0.00     0.002 C 
BRANCH  27  28
ATOM     28  C   UNL A   1      32.890  31.799  27.707  1.00  0.00     0.021 C 
BRANCH  28  29
ATOM     29  C   UNL A   1      33.545  33.122  27.330  1.00  0.00     0.116 C 
BRANCH  29  30
ATOM     30  N   UNL A   1      32.987  34.224  28.095  1.00  0.00    -0.352 N 
ATOM     31  C   UNL A   1      33.297  34.594  29.377  1.00  0.00     0.251 C 
ATOM     32  H   UNL A   1      32.306  34.768  27.639  1.00  0.00     0.163 HD
ATOM     33  O   UNL A   1      32.581  35.365  30.003  1.00  0.00    -0.269 OA
BRANCH  31  34
ATOM     34  C   UNL A   1      34.517  34.027  29.973  1.00  0.00     0.039 A 
ATOM     35  C   UNL A   1      35.765  34.492  29.562  1.00  0.00     0.014 A 
ATOM     36  C   UNL A   1      34.395  33.089  31.003  1.00  0.00     0.014 A 
ATOM     37  C   UNL A   1      36.907  34.032  30.215  1.00  0.00     0.010 A 
ATOM     38  C   UNL A   1      35.522  32.705  31.708  1.00  0.00     0.010 A 
ATOM     39  C   UNL A   1      36.791  33.153  31.305  1.00  0.00    -0.014 A 
BRANCH  39  40
ATOM     40  C   UNL A   1      37.974  32.623  32.021  1.00  0.00     0.031 A 
ATOM     41  C   UNL A   1      38.696  31.437  31.448  1.00  0.00     0.074 A 
ATOM     42  C   UNL A   1      38.334  33.138  33.210  1.00  0.00     0.049 A 
ATOM     43  N   UNL A   1      39.654  30.720  31.972  1.00  0.00    -0.248 NA
ATOM     44  C   UNL A   1      38.250  30.972  30.122  1.00  0.00     0.031 C 
ATOM     45  C   UNL A   1      37.707  34.286  33.867  1.00  0.00     0.029 A 
ATOM     46  N   UNL A   1      39.316  32.749  34.086  1.00  0.00    -0.354 N 
ATOM     47  C   UNL A   1      39.905  29.706  31.054  1.00  0.00     0.074 A 
ATOM     48  C   UNL A   1      38.953  29.861  29.978  1.00  0.00     0.031 C 
ATOM     49  C   UNL A   1      38.340  34.527  35.027  1.00  0.00     0.029 A 
ATOM     50  C   UNL A   1      39.377  33.517  35.223  1.00  0.00     0.049 A 
ATOM     51  H   UNL A   1      39.921  31.991  33.914  1.00  0.00     0.167 HD
ATOM     52  C   UNL A   1      40.857  28.743  31.094  1.00  0.00     0.031 A 
ATOM     53  C   UNL A   1      40.171  33.410  36.307  1.00  0.00     0.031 A 
ATOM     54  C   UNL A   1      41.793  28.598  32.175  1.00  0.00     0.049 A 
ATOM     55  C   UNL A   1      41.183  32.298  36.363  1.00  0.00     0.074 A 
ATOM     56  C   UNL A   1      42.819  27.682  32.307  1.00  0.00     0.029 A 
ATOM     57  N   UNL A   1      41.810  29.389  33.316  1.00  0.00    -0.354 N 
ATOM     58  N   UNL A   1      41.434  31.367  35.473  1.00  0.00    -0.248 NA
ATOM     59  C   UNL A   1      42.023  32.224  37.566  1.00  0.00     0.031 C 
ATOM     60  C   UNL A   1      43.415  27.876  33.555  1.00  0.00     0.029 A 
ATOM     61  C   UNL A   1      42.814  28.967  34.167  1.00  0.00     0.049 A 
ATOM     62  H   UNL A   1      41.198  30.140  33.492  1.00  0.00     0.167 HD
ATOM     63  C   UNL A   1      42.495  30.628  35.986  1.00  0.00     0.074 A 
ATOM     64  C   UNL A   1      42.829  31.213  37.269  1.00  0.00     0.031 C 
ATOM     65  C   UNL A   1      43.143  29.572  35.435  1.00  0.00     0.031 A 
BRANCH  52  66
ATOM     66  C   UNL A   1      40.894  27.766  29.947  1.00  0.00    -0.014 A 
ATOM     67  C   UNL A   1      41.991  27.712  29.065  1.00  0.00     0.010 A 
ATOM     68  C   UNL A   1      39.806  26.902  29.731  1.00  0.00     0.010 A 
ATOM     69  C   UNL A   1      41.961  26.878  27.946  1.00  0.00     0.020 A 
ATOM     70  C   UNL A   1      39.789  26.035  28.636  1.00  0.00     0.020 A 
ATOM     71  C   UNL A   1      40.855  26.052  27.733  1.00  0.00     0.054 A 
BRANCH  71  72
ATOM     72  S   UNL A   1      40.825  25.007  26.252  1.00  0.00     0.124 S 
ATOM     73  O   UNL A   1      41.258  25.941  25.217  1.00  0.00    -0.237 OA
ATOM     74  O   UNL A   1      41.778  23.952  26.586  1.00  0.00    -0.237 OA
ATOM     75  O   UNL A   1      39.431  24.577  26.158  1.00  0.00    -0.744 OA
ENDBRANCH  71  72
ENDBRANCH  52  66
BRANCH  53  76
ATOM     76  C   UNL A   1      40.065  34.415  37.399  1.00  0.00    -0.014 A 
ATOM     77  C   UNL A   1      40.702  35.662  37.270  1.00  0.00     0.010 A 
ATOM     78  C   UNL A   1      39.295  34.158  38.548  1.00  0.00     0.010 A 
ATOM     79  C   UNL A   1      40.574  36.632  38.269  1.00  0.00     0.020 A 
ATOM     80  C   UNL A   1      39.140  35.135  39.536  1.00  0.00     0.020 A 
ATOM     81  C   UNL A   1      39.785  36.365  39.390  1.00  0.00     0.054 A 
BRANCH  81  82
ATOM     82  S   UNL A   1      39.572  37.671  40.632  1.00  0.00     0.124 S 
ATOM     83  O   UNL A   1      38.967  36.941  41.742  1.00  0.00    -0.237 OA
ATOM     84  O   UNL A   1      40.944  38.125  40.845  1.00  0.00    -0.237 OA
ATOM     85  O   UNL A   1      38.699  38.637  39.969  1.00  0.00    -0.744 OA
ENDBRANCH  81  82
ENDBRANCH  53  76
BRANCH  65  86
ATOM     86  C   UNL A   1      44.330  29.009  36.171  1.00  0.00    -0.014 A 
ATOM     87  C   UNL A   1      45.585  29.642  36.143  1.00  0.00     0.010 A 
ATOM     88  C   UNL A   1      44.144  27.889  37.002  1.00  0.00     0.010 A 
ATOM     89  C   UNL A   1      46.632  29.161  36.935  1.00  0.00     0.020 A 
ATOM     90  C   UNL A   1      45.178  27.425  37.817  1.00  0.00     0.020 A 
ATOM     91  C   UNL A   1      46.418  28.063  37.776  1.00  0.00     0.054 A 
BRANCH  91  92
ATOM     92  S   UNL A   1      47.762  27.526  38.869  1.00  0.00     0.124 S 
ATOM     93  O   UNL A   1      47.068  27.342  40.140  1.00  0.00    -0.237 OA
ATOM     94  O   UNL A   1      48.226  26.300  38.222  1.00  0.00    -0.237 OA
ATOM     95  O   UNL A   1      48.707  28.639  38.832  1.00  0.00    -0.744 OA
ENDBRANCH  91  92
ENDBRANCH  65  86
ENDBRANCH  39  40
ENDBRANCH  31  34
ENDBRANCH  29  30
ENDBRANCH  28  29
ENDBRANCH  27  28
ENDBRANCH  26  27
ENDBRANCH   1  26
TORSDOF 22
ENDMDL
MODEL 2
REMARK VINA RESULT:     -10.8      2.771      8.936
REMARK SMILES COC(=O)[C@@H]1CN(C(=O)NC(=O)CCCC(=O)NCCCCCCNC(=O)c2ccc(-c3c4nc(c(-c5ccc(S(=O)(=O)[O-])cc5)c5ccc([nH]5)c(-c5ccc(S(=O)(=O)[O-])cc5)c5nc(c(-c6ccc(S(=O)(=O)[O-])cc6)c6ccc3[nH]6)C=C5)C=C4)cc2)C[C@H]1C
REMARK SMILES IDX 20 1 19 2 18 3 16 4 17 5 15 7 14 8 13 9 11 10 8 11 9 12
REMARK SMILES IDX 10 13 12 15 7 16 5 17 6 18 89 19 88 20 90 21 3 22 4 23 2 24
REMARK SMILES IDX 1 25 21 26 22 27 23 28 24 29 25 30 26 31 27 33 28 34 29 35
REMARK SMILES IDX 87 36 30 37 86 38 31 39 32 40 33 41 80 42 34 43 85 44 79 45
REMARK SMILES IDX 81 46 35 47 84 48 78 49 77 50 36 52 66 53 47 54 65 55 48 56
REMARK SMILES IDX 51 57 64 58 82 59 49 60 50 61 63 63 83 64 52 65 37 66 38 67
REMARK SMILES IDX 46 68 39 69 45 70 40 71 41 72 42 73 43 74 44 75 67 76 68 77
REMARK SMILES IDX 76 78 69 79 75 80 70 81 71 82 72 83 73 84 74 85 53 86 54 87
REMARK SMILES IDX 62 88 55 89 61 90 56 91 57 92 58 93 59 94 60 95
REMARK H PARENT 18 6 10 14 25 32 81 51 51 62
REMARK Flexibility Score: inf
ROOT
ATOM      1  C   UNL A   1      30.646  27.558  23.586  1.00  0.00     0.021 C 
ENDROOT
BRANCH   1   2
ATOM      2  C   UNL A   1      29.219  27.007  23.739  1.00  0.00     0.116 C 
BRANCH   2   3
ATOM      3  N   UNL A   1      29.209  25.899  24.947  1.00  0.00    -0.356 N 
ATOM      4  C   UNL A   1      30.455  24.950  26.140  1.00  0.00     0.220 C 
ATOM      5  O   UNL A   1      30.252  23.990  26.923  1.00  0.00    -0.275 OA
ATOM      6  H   UNL A   1      28.285  25.619  25.138  1.00  0.00     0.163 HD
BRANCH   4   7
ATOM      7  C   UNL A   1      32.242  25.262  26.280  1.00  0.00     0.100 C 
BRANCH   7   8
ATOM      8  C   UNL A   1      33.480  24.789  25.436  1.00  0.00     0.020 C 
BRANCH   8   9
ATOM      9  C   UNL A   1      34.194  25.550  24.301  1.00  0.00     0.101 C 
BRANCH   9  10
ATOM     10  C   UNL A   1      33.631  25.616  22.909  1.00  0.00     0.227 C 
ATOM     11  C   UNL A   1      33.467  23.180  22.391  1.00  0.00     0.324 C 
ATOM     12  O   UNL A   1      32.719  22.389  21.811  1.00  0.00    -0.248 OA
ATOM     13  N   UNL A   1      33.218  24.500  22.263  1.00  0.00    -0.278 N 
ATOM     14  H   UNL A   1      32.590  24.697  21.531  1.00  0.00     0.174 HD
ATOM     15  O   UNL A   1      33.602  26.691  22.302  1.00  0.00    -0.275 OA
BRANCH  11  16
ATOM     16  N   UNL A   1      34.538  22.726  23.114  1.00  0.00    -0.323 N 
ATOM     17  C   UNL A   1      37.263  21.521  24.403  1.00  0.00     0.123 C 
ATOM     18  C   UNL A   1      36.524  22.976  23.175  1.00  0.00     0.137 C 
ATOM     19  C   UNL A   1      35.666  20.474  25.117  1.00  0.00     0.021 C 
ATOM     20  C   UNL A   1      34.020  21.267  24.280  1.00  0.00     0.125 C 
ATOM     21  C   UNL A   1      35.719  18.940  24.852  1.00  0.00     0.010 C 
BRANCH  17  22
ATOM     22  C   UNL A   1      38.279  21.867  25.486  1.00  0.00     0.310 C 
ATOM     23  O   UNL A   1      38.167  22.896  26.151  1.00  0.00    -0.252 OA
BRANCH  22  24
ATOM     24  O   UNL A   1      39.186  20.938  25.861  1.00  0.00    -0.469 OA
ATOM     25  C   UNL A   1      40.234  21.128  26.816  1.00  0.00     0.282 C 
ENDBRANCH  22  24
ENDBRANCH  17  22
ENDBRANCH  11  16
ENDBRANCH   9  10
ENDBRANCH   8   9
ENDBRANCH   7   8
ENDBRANCH   4   7
ENDBRANCH   2   3
ENDBRANCH   1   2
BRANCH   1  26
ATOM     26  C   UNL A   1      31.003  28.609  24.624  1.00  0.00     0.002 C 
BRANCH  26  27
ATOM     27  C   UNL A   1      32.506  28.867  24.721  1.00  0.00     0.002 C 
BRANCH  27  28
ATOM     28  C   UNL A   1      33.127  28.452  26.057  1.00  0.00     0.021 C 
BRANCH  28  29
ATOM     29  C   UNL A   1      34.389  29.226  26.417  1.00  0.00     0.116 C 
BRANCH  29  30
ATOM     30  N   UNL A   1      34.069  30.563  26.888  1.00  0.00    -0.352 N 
ATOM     31  C   UNL A   1      34.648  31.244  27.927  1.00  0.00     0.251 C 
ATOM     32  H   UNL A   1      33.354  31.035  26.405  1.00  0.00     0.163 HD
ATOM     33  O   UNL A   1      34.125  32.246  28.395  1.00  0.00    -0.269 OA
BRANCH  31  34
ATOM     34  C   UNL A   1      35.917  30.722  28.460  1.00  0.00     0.039 A 
ATOM     35  C   UNL A   1      37.116  31.346  28.118  1.00  0.00     0.014 A 
ATOM     36  C   UNL A   1      35.884  29.659  29.367  1.00  0.00     0.014 A 
ATOM     37  C   UNL A   1      38.297  30.917  28.721  1.00  0.00     0.010 A 
ATOM     38  C   UNL A   1      37.044  29.297  30.030  1.00  0.00     0.010 A 
ATOM     39  C   UNL A   1      38.265  29.905  29.695  1.00  0.00    -0.014 A 
BRANCH  39  40
ATOM     40  C   UNL A   1      39.494  29.403  30.351  1.00  0.00     0.031 A 
ATOM     41  C   UNL A   1      39.961  30.063  31.618  1.00  0.00     0.074 A 
ATOM     42  C   UNL A   1      40.227  28.436  29.770  1.00  0.00     0.049 A 
ATOM     43  N   UNL A   1      41.075  29.891  32.278  1.00  0.00    -0.248 NA
ATOM     44  C   UNL A   1      39.068  31.083  32.196  1.00  0.00     0.031 C 
ATOM     45  C   UNL A   1      39.876  27.724  28.540  1.00  0.00     0.029 A 
ATOM     46  N   UNL A   1      41.432  27.893  30.137  1.00  0.00    -0.354 N 
ATOM     47  C   UNL A   1      41.029  30.799  33.330  1.00  0.00     0.074 A 
ATOM     48  C   UNL A   1      39.812  31.564  33.177  1.00  0.00     0.031 C 
ATOM     49  C   UNL A   1      40.831  26.818  28.271  1.00  0.00     0.029 A 
ATOM     50  C   UNL A   1      41.885  26.924  29.276  1.00  0.00     0.049 A 
ATOM     51  H   UNL A   1      41.925  28.172  30.943  1.00  0.00     0.167 HD
ATOM     52  C   UNL A   1      41.911  30.967  34.343  1.00  0.00     0.031 A 
ATOM     53  C   UNL A   1      43.029  26.211  29.289  1.00  0.00     0.031 A 
ATOM     54  C   UNL A   1      43.120  30.202  34.477  1.00  0.00     0.049 A 
ATOM     55  C   UNL A   1      44.027  26.452  30.389  1.00  0.00     0.074 A 
ATOM     56  C   UNL A   1      44.070  30.264  35.479  1.00  0.00     0.029 A 
ATOM     57  N   UNL A   1      43.549  29.239  33.574  1.00  0.00    -0.354 N 
ATOM     58  N   UNL A   1      43.955  27.288  31.397  1.00  0.00    -0.248 NA
ATOM     59  C   UNL A   1      45.258  25.651  30.356  1.00  0.00     0.031 C 
ATOM     60  C   UNL A   1      45.105  29.385  35.148  1.00  0.00     0.029 A 
ATOM     61  C   UNL A   1      44.762  28.716  33.983  1.00  0.00     0.049 A 
ATOM     62  H   UNL A   1      43.061  28.969  32.762  1.00  0.00     0.167 HD
ATOM     63  C   UNL A   1      45.107  27.078  32.148  1.00  0.00     0.074 A 
ATOM     64  C   UNL A   1      45.864  26.044  31.470  1.00  0.00     0.031 C 
ATOM     65  C   UNL A   1      45.493  27.675  33.302  1.00  0.00     0.031 A 
BRANCH  52  66
ATOM     66  C   UNL A   1      41.600  32.042  35.354  1.00  0.00    -0.014 A 
ATOM     67  C   UNL A   1      41.016  31.731  36.598  1.00  0.00     0.010 A 
ATOM     68  C   UNL A   1      41.872  33.386  35.048  1.00  0.00     0.010 A 
ATOM     69  C   UNL A   1      40.635  32.748  37.476  1.00  0.00     0.020 A 
ATOM     70  C   UNL A   1      41.531  34.405  35.941  1.00  0.00     0.020 A 
ATOM     71  C   UNL A   1      40.886  34.080  37.137  1.00  0.00     0.054 A 
BRANCH  71  72
ATOM     72  S   UNL A   1      40.347  35.382  38.276  1.00  0.00     0.124 S 
ATOM     73  O   UNL A   1      38.900  35.184  38.296  1.00  0.00    -0.237 OA
ATOM     74  O   UNL A   1      41.045  35.035  39.512  1.00  0.00    -0.237 OA
ATOM     75  O   UNL A   1      40.797  36.616  37.634  1.00  0.00    -0.744 OA
ENDBRANCH  71  72
ENDBRANCH  52  66
BRANCH  53  76
ATOM     76  C   UNL A   1      43.261  25.171  28.249  1.00  0.00    -0.014 A 
ATOM     77  C   UNL A   1      43.861  25.522  27.028  1.00  0.00     0.010 A 
ATOM     78  C   UNL A   1      42.931  23.824  28.486  1.00  0.00     0.010 A 
ATOM     79  C   UNL A   1      44.126  24.548  26.061  1.00  0.00     0.020 A 
ATOM     80  C   UNL A   1      43.220  22.842  27.534  1.00  0.00     0.020 A 
ATOM     81  C   UNL A   1      43.813  23.212  26.325  1.00  0.00     0.054 A 
BRANCH  81  82
ATOM     82  S   UNL A   1      44.240  21.959  25.085  1.00  0.00     0.124 S 
ATOM     83  O   UNL A   1      45.652  21.720  25.367  1.00  0.00    -0.237 OA
ATOM     84  O   UNL A   1      43.332  20.865  25.422  1.00  0.00    -0.237 OA
ATOM     85  O   UNL A   1      43.959  22.623  23.814  1.00  0.00    -0.744 OA
ENDBRANCH  81  82
ENDBRANCH  53  76
BRANCH  65  86
ATOM     86  C   UNL A   1      46.757  27.189  33.962  1.00  0.00    -0.014 A 
ATOM     87  C   UNL A   1      46.734  26.219  34.979  1.00  0.00     0.010 A 
ATOM     88  C   UNL A   1      47.996  27.631  33.461  1.00  0.00     0.010 A 
ATOM     89  C   UNL A   1      47.931  25.701  35.483  1.00  0.00     0.020 A 
ATOM     90  C   UNL A   1      49.192  27.094  33.940  1.00  0.00     0.020 A 
ATOM     91  C   UNL A   1      49.151  26.133  34.951  1.00  0.00     0.054 A 
BRANCH  91  92
ATOM     92  S   UNL A   1      50.684  25.368  35.551  1.00  0.00     0.124 S 
ATOM     93  O   UNL A   1      50.182  24.392  36.513  1.00  0.00    -0.237 OA
ATOM     94  O   UNL A   1      51.259  24.809  34.329  1.00  0.00    -0.237 OA
ATOM     95  O   UNL A   1      51.427  26.485  36.128  1.00  0.00    -0.744 OA
ENDBRANCH  91  92
ENDBRANCH  65  86
ENDBRANCH  39  40
ENDBRANCH  31  34
ENDBRANCH  29  30
ENDBRANCH  28  29
ENDBRANCH  27  28
ENDBRANCH  26  27
ENDBRANCH   1  26
TORSDOF 22
ENDMDL
MODEL 3
REMARK VINA RESULT:     -10.7      6.126     11.684
REMARK SMILES COC(=O)[C@@H]1CN(C(=O)NC(=O)CCCC(=O)NCCCCCCNC(=O)c2ccc(-c3c4nc(c(-c5ccc(S(=O)(=O)[O-])cc5)c5ccc([nH]5)c(-c5ccc(S(=O)(=O)[O-])cc5)c5nc(c(-c6ccc(S(=O)(=O)[O-])cc6)c6ccc3[nH]6)C=C5)C=C4)cc2)C[C@H]1C
REMARK SMILES IDX 20 1 19 2 18 3 16 4 17 5 15 7 14 8 13 9 11 10 8 11 9 12
REMARK SMILES IDX 10 13 12 15 7 16 5 17 6 18 89 19 88 20 90 21 3 22 4 23 2 24
REMARK SMILES IDX 1 25 21 26 22 27 23 28 24 29 25 30 26 31 27 33 28 34 29 35
REMARK SMILES IDX 87 36 30 37 86 38 31 39 32 40 33 41 80 42 34 43 85 44 79 45
REMARK SMILES IDX 81 46 35 47 84 48 78 49 77 50 36 52 66 53 47 54 65 55 48 56
REMARK SMILES IDX 51 57 64 58 82 59 49 60 50 61 63 63 83 64 52 65 37 66 38 67
REMARK SMILES IDX 46 68 39 69 45 70 40 71 41 72 42 73 43 74 44 75 67 76 68 77
REMARK SMILES IDX 76 78 69 79 75 80 70 81 71 82 72 83 73 84 74 85 53 86 54 87
REMARK SMILES IDX 62 88 55 89 61 90 56 91 57 92 58 93 59 94 60 95
REMARK H PARENT 18 6 10 14 25 32 81 51 51 62
REMARK Flexibility Score: inf
ROOT
ATOM      1  C   UNL A   1      35.190  22.827  23.930  1.00  0.00     0.021 C 
ENDROOT
BRANCH   1   2
ATOM      2  C   UNL A   1      33.749  22.741  23.403  1.00  0.00     0.116 C 
BRANCH   2   3
ATOM      3  N   UNL A   1      33.661  23.550  21.980  1.00  0.00    -0.356 N 
ATOM      4  C   UNL A   1      32.885  25.190  21.216  1.00  0.00     0.220 C 
ATOM      5  O   UNL A   1      32.801  25.566  20.022  1.00  0.00    -0.275 OA
ATOM      6  H   UNL A   1      34.154  23.058  21.284  1.00  0.00     0.163 HD
BRANCH   4   7
ATOM      7  C   UNL A   1      32.039  26.502  22.150  1.00  0.00     0.100 C 
BRANCH   7   8
ATOM      8  C   UNL A   1      30.621  26.592  22.822  1.00  0.00     0.020 C 
BRANCH   8   9
ATOM      9  C   UNL A   1      30.000  25.623  23.848  1.00  0.00     0.101 C 
BRANCH   9  10
ATOM     10  C   UNL A   1      30.550  24.242  24.073  1.00  0.00     0.227 C 
ATOM     11  C   UNL A   1      31.480  24.514  26.373  1.00  0.00     0.324 C 
ATOM     12  O   UNL A   1      31.592  23.879  27.425  1.00  0.00    -0.248 OA
ATOM     13  N   UNL A   1      31.026  23.862  25.283  1.00  0.00    -0.278 N 
ATOM     14  H   UNL A   1      31.044  22.884  25.392  1.00  0.00     0.174 HD
ATOM     15  O   UNL A   1      30.640  23.449  23.131  1.00  0.00    -0.275 OA
BRANCH  11  16
ATOM     16  N   UNL A   1      31.838  25.834  26.315  1.00  0.00    -0.323 N 
ATOM     17  C   UNL A   1      32.303  29.019  25.888  1.00  0.00     0.123 C 
ATOM     18  C   UNL A   1      31.017  27.629  26.654  1.00  0.00     0.137 C 
ATOM     19  C   UNL A   1      33.920  28.006  25.171  1.00  0.00     0.021 C 
ATOM     20  C   UNL A   1      33.566  26.049  25.463  1.00  0.00     0.125 C 
ATOM     21  C   UNL A   1      34.249  28.275  23.673  1.00  0.00     0.010 C 
BRANCH  17  22
ATOM     22  C   UNL A   1      32.686  30.248  26.704  1.00  0.00     0.310 C 
ATOM     23  O   UNL A   1      31.880  31.159  26.892  1.00  0.00    -0.252 OA
BRANCH  22  24
ATOM     24  O   UNL A   1      33.845  30.243  27.401  1.00  0.00    -0.469 OA
ATOM     25  C   UNL A   1      34.686  31.375  27.637  1.00  0.00     0.282 C 
ENDBRANCH  22  24
ENDBRANCH  17  22
ENDBRANCH  11  16
ENDBRANCH   9  10
ENDBRANCH   8   9
ENDBRANCH   7   8
ENDBRANCH   4   7
ENDBRANCH   2   3
ENDBRANCH   1   2
BRANCH   1  26
ATOM     26  C   UNL A   1      35.520  21.766  24.968  1.00  0.00     0.002 C 
BRANCH  26  27
ATOM     27  C   UNL A   1      36.798  22.071  25.749  1.00  0.00     0.002 C 
BRANCH  27  28
ATOM     28  C   UNL A   1      38.039  21.344  25.226  1.00  0.00     0.021 C 
BRANCH  28  29
ATOM     29  C   UNL A   1      39.250  21.454  26.144  1.00  0.00     0.116 C 
BRANCH  29  30
ATOM     30  N   UNL A   1      40.041  20.235  26.119  1.00  0.00    -0.352 N 
ATOM     31  C   UNL A   1      41.407  20.125  26.117  1.00  0.00     0.251 C 
ATOM     32  H   UNL A   1      39.538  19.390  26.103  1.00  0.00     0.163 HD
ATOM     33  O   UNL A   1      41.956  19.069  25.831  1.00  0.00    -0.269 OA
BRANCH  31  34
ATOM     34  C   UNL A   1      42.187  21.324  26.464  1.00  0.00     0.039 A 
ATOM     35  C   UNL A   1      42.473  22.269  25.480  1.00  0.00     0.014 A 
ATOM     36  C   UNL A   1      42.555  21.529  27.797  1.00  0.00     0.014 A 
ATOM     37  C   UNL A   1      43.109  23.455  25.846  1.00  0.00     0.010 A 
ATOM     38  C   UNL A   1      43.104  22.744  28.170  1.00  0.00     0.010 A 
ATOM     39  C   UNL A   1      43.409  23.707  27.194  1.00  0.00    -0.014 A 
BRANCH  39  40
ATOM     40  C   UNL A   1      44.099  24.943  27.631  1.00  0.00     0.031 A 
ATOM     41  C   UNL A   1      43.294  26.031  28.283  1.00  0.00     0.074 A 
ATOM     42  C   UNL A   1      45.405  25.122  27.361  1.00  0.00     0.049 A 
ATOM     43  N   UNL A   1      43.654  27.245  28.607  1.00  0.00    -0.248 NA
ATOM     44  C   UNL A   1      41.883  25.723  28.571  1.00  0.00     0.031 C 
ATOM     45  C   UNL A   1      46.287  24.139  26.730  1.00  0.00     0.029 A 
ATOM     46  N   UNL A   1      46.216  26.208  27.575  1.00  0.00    -0.354 N 
ATOM     47  C   UNL A   1      42.508  27.851  29.110  1.00  0.00     0.074 A 
ATOM     48  C   UNL A   1      41.431  26.895  28.983  1.00  0.00     0.031 C 
ATOM     49  C   UNL A   1      47.524  24.656  26.637  1.00  0.00     0.029 A 
ATOM     50  C   UNL A   1      47.508  26.024  27.147  1.00  0.00     0.049 A 
ATOM     51  H   UNL A   1      45.901  27.040  27.998  1.00  0.00     0.167 HD
ATOM     52  C   UNL A   1      42.370  29.085  29.649  1.00  0.00     0.031 A 
ATOM     53  C   UNL A   1      48.558  26.869  27.154  1.00  0.00     0.031 A 
ATOM     54  C   UNL A   1      43.450  30.026  29.764  1.00  0.00     0.049 A 
ATOM     55  C   UNL A   1      48.372  28.259  27.701  1.00  0.00     0.074 A 
ATOM     56  C   UNL A   1      43.434  31.291  30.320  1.00  0.00     0.029 A 
ATOM     57  N   UNL A   1      44.741  29.805  29.304  1.00  0.00    -0.354 N 
ATOM     58  N   UNL A   1      47.293  28.808  28.207  1.00  0.00    -0.248 NA
ATOM     59  C   UNL A   1      49.546  29.142  27.684  1.00  0.00     0.031 C 
ATOM     60  C   UNL A   1      44.697  31.860  30.140  1.00  0.00     0.029 A 
ATOM     61  C   UNL A   1      45.524  30.920  29.543  1.00  0.00     0.049 A 
ATOM     62  H   UNL A   1      45.053  28.977  28.871  1.00  0.00     0.167 HD
ATOM     63  C   UNL A   1      47.671  30.083  28.615  1.00  0.00     0.074 A 
ATOM     64  C   UNL A   1      49.075  30.227  28.286  1.00  0.00     0.031 C 
ATOM     65  C   UNL A   1      46.926  31.039  29.222  1.00  0.00     0.031 A 
BRANCH  52  66
ATOM     66  C   UNL A   1      40.993  29.480  30.118  1.00  0.00    -0.014 A 
ATOM     67  C   UNL A   1      40.095  30.155  29.268  1.00  0.00     0.010 A 
ATOM     68  C   UNL A   1      40.595  29.193  31.435  1.00  0.00     0.010 A 
ATOM     69  C   UNL A   1      38.866  30.609  29.751  1.00  0.00     0.020 A 
ATOM     70  C   UNL A   1      39.349  29.608  31.912  1.00  0.00     0.020 A 
ATOM     71  C   UNL A   1      38.505  30.342  31.074  1.00  0.00     0.054 A 
BRANCH  71  72
ATOM     72  S   UNL A   1      36.922  30.975  31.687  1.00  0.00     0.124 S 
ATOM     73  O   UNL A   1      36.246  29.747  32.097  1.00  0.00    -0.237 OA
ATOM     74  O   UNL A   1      37.331  31.860  32.775  1.00  0.00    -0.237 OA
ATOM     75  O   UNL A   1      36.342  31.646  30.525  1.00  0.00    -0.744 OA
ENDBRANCH  71  72
ENDBRANCH  52  66
BRANCH  53  76
ATOM     76  C   UNL A   1      49.884  26.401  26.667  1.00  0.00    -0.014 A 
ATOM     77  C   UNL A   1      50.189  26.458  25.297  1.00  0.00     0.010 A 
ATOM     78  C   UNL A   1      50.864  25.943  27.567  1.00  0.00     0.010 A 
ATOM     79  C   UNL A   1      51.446  26.064  24.831  1.00  0.00     0.020 A 
ATOM     80  C   UNL A   1      52.133  25.574  27.110  1.00  0.00     0.020 A 
ATOM     81  C   UNL A   1      52.414  25.634  25.743  1.00  0.00     0.054 A 
BRANCH  81  82
ATOM     82  S   UNL A   1      54.063  25.205  25.120  1.00  0.00     0.124 S 
ATOM     83  O   UNL A   1      54.109  25.927  23.853  1.00  0.00    -0.237 OA
ATOM     84  O   UNL A   1      54.937  25.716  26.173  1.00  0.00    -0.237 OA
ATOM     85  O   UNL A   1      54.020  23.748  25.009  1.00  0.00    -0.744 OA
ENDBRANCH  81  82
ENDBRANCH  53  76
BRANCH  65  86
ATOM     86  C   UNL A   1      47.615  32.310  29.644  1.00  0.00    -0.014 A 
ATOM     87  C   UNL A   1      47.646  33.445  28.815  1.00  0.00     0.010 A 
ATOM     88  C   UNL A   1      48.134  32.399  30.950  1.00  0.00     0.010 A 
ATOM     89  C   UNL A   1      48.186  34.645  29.287  1.00  0.00     0.020 A 
ATOM     90  C   UNL A   1      48.646  33.603  31.434  1.00  0.00     0.020 A 
ATOM     91  C   UNL A   1      48.671  34.719  30.597  1.00  0.00     0.054 A 
BRANCH  91  92
ATOM     92  S   UNL A   1      49.270  36.316  31.216  1.00  0.00     0.124 S 
ATOM     93  O   UNL A   1      50.175  36.737  30.151  1.00  0.00    -0.237 OA
ATOM     94  O   UNL A   1      48.038  37.092  31.338  1.00  0.00    -0.237 OA
ATOM     95  O   UNL A   1      49.915  35.978  32.483  1.00  0.00    -0.744 OA
ENDBRANCH  91  92
ENDBRANCH  65  86
ENDBRANCH  39  40
ENDBRANCH  31  34
ENDBRANCH  29  30
ENDBRANCH  28  29
ENDBRANCH  27  28
ENDBRANCH  26  27
ENDBRANCH   1  26
TORSDOF 22
ENDMDL
