MODEL 1
REMARK VINA RESULT:      -7.9      0.000      0.000
REMARK SMILES CC(C)C[C@@H](C[NH3+])C(=O)N1CCC(CC(=O)NCCCCCCNC(=O)c2ccc(-c3c4nc(c(-c5ccc(S(=O)(=O)[O-])cc5)c5ccc([nH]5)c(-c5ccc(S(=O)(=O)[O-])cc5)c5nc(c(-c6ccc(S(=O)(=O)[O-])cc6)c6ccc3[nH]6)C=C5)C=C4)cc2)CC1
REMARK SMILES IDX 20 1 19 2 18 3 17 4 15 5 16 6 14 8 13 9 8 10 9 11 10 12
REMARK SMILES IDX 11 13 88 14 12 15 87 16 5 17 4 18 2 19 1 20 3 21 6 22 7 23
REMARK SMILES IDX 21 27 22 28 23 29 24 30 25 31 26 33 27 34 28 35 86 36 29 37
REMARK SMILES IDX 85 38 30 39 31 40 32 41 79 42 33 43 84 44 78 45 80 46 34 47
REMARK SMILES IDX 83 48 77 49 76 50 35 52 65 53 46 54 64 55 47 56 50 57 63 58
REMARK SMILES IDX 81 59 48 60 49 61 62 63 82 64 51 65 36 66 37 67 45 68 38 69
REMARK SMILES IDX 44 70 39 71 40 72 41 73 42 74 43 75 66 76 67 77 75 78 68 79
REMARK SMILES IDX 74 80 69 81 70 82 71 83 72 84 73 85 52 86 53 87 61 88 54 89
REMARK SMILES IDX 60 90 55 91 56 92 57 93 58 94 59 95
REMARK H PARENT 17 7 7 24 7 25 7 26 24 32 80 51 50 62
REMARK Flexibility Score: inf
ROOT
ATOM      1  C   UNL A   1      36.859  33.349  31.713  1.00  0.00     0.002 C 
ENDROOT
BRANCH   1   2
ATOM      2  C   UNL A   1      37.589  34.451  32.478  1.00  0.00     0.021 C 
BRANCH   2   3
ATOM      3  C   UNL A   1      39.089  34.205  32.674  1.00  0.00     0.116 C 
BRANCH   3   4
ATOM      4  N   UNL A   1      39.424  34.175  34.090  1.00  0.00    -0.356 N 
ATOM      5  C   UNL A   1      39.409  33.144  34.983  1.00  0.00     0.220 C 
ATOM      6  O   UNL A   1      39.626  33.396  36.170  1.00  0.00    -0.275 OA
ATOM      7  H   UNL A   1      39.710  35.039  34.464  1.00  0.00     0.163 HD
BRANCH   5   8
ATOM      8  C   UNL A   1      39.148  31.719  34.528  1.00  0.00     0.103 C 
BRANCH   8   9
ATOM      9  C   UNL A   1      40.415  30.853  34.385  1.00  0.00     0.002 C 
ATOM     10  C   UNL A   1      41.528  27.201  35.860  1.00  0.00     0.231 C 
ATOM     11  O   UNL A   1      41.055  27.284  36.999  1.00  0.00    -0.274 OA
ATOM     12  N   UNL A   1      41.681  28.327  35.076  1.00  0.00    -0.342 N 
ATOM     13  C   UNL A   1      42.150  29.537  35.712  1.00  0.00     0.120 C 
ATOM     14  C   UNL A   1      41.184  28.492  33.721  1.00  0.00     0.120 C 
ATOM     15  C   UNL A   1      41.052  30.575  35.750  1.00  0.00     0.026 C 
ATOM     16  C   UNL A   1      40.063  29.535  33.671  1.00  0.00     0.026 C 
BRANCH  10  17
ATOM     17  C   UNL A   1      42.227  25.907  35.422  1.00  0.00     0.133 C 
BRANCH  17  18
ATOM     18  C   UNL A   1      43.720  25.811  35.753  1.00  0.00     0.022 C 
BRANCH  18  19
ATOM     19  C   UNL A   1      44.698  26.004  34.578  1.00  0.00    -0.016 C 
ATOM     20  C   UNL A   1      44.012  25.977  33.214  1.00  0.00     0.007 C 
ATOM     21  C   UNL A   1      45.434  27.336  34.763  1.00  0.00     0.007 C 
ENDBRANCH  18  19
ENDBRANCH  17  18
BRANCH  17  22
ATOM     22  C   UNL A   1      41.377  24.710  35.898  1.00  0.00     0.272 C 
BRANCH  22  23
ATOM     23  N   UNL A   1      41.322  24.524  37.351  1.00  0.00    -0.357 N 
ATOM     24  H   UNL A   1      40.779  25.280  37.770  1.00  0.00     0.344 HD
ATOM     25  H   UNL A   1      42.268  24.533  37.731  1.00  0.00     0.344 HD
ATOM     26  H   UNL A   1      40.879  23.630  37.563  1.00  0.00     0.344 HD
ENDBRANCH  22  23
ENDBRANCH  17  22
ENDBRANCH  10  17
ENDBRANCH   8   9
ENDBRANCH   5   8
ENDBRANCH   3   4
ENDBRANCH   2   3
ENDBRANCH   1   2
BRANCH   1  27
ATOM     27  C   UNL A   1      35.722  33.837  30.814  1.00  0.00     0.002 C 
BRANCH  27  28
ATOM     28  C   UNL A   1      34.785  32.748  30.282  1.00  0.00     0.021 C 
BRANCH  28  29
ATOM     29  C   UNL A   1      34.654  32.684  28.760  1.00  0.00     0.116 C 
BRANCH  29  30
ATOM     30  N   UNL A   1      33.957  31.485  28.324  1.00  0.00    -0.352 N 
ATOM     31  C   UNL A   1      34.460  30.252  27.991  1.00  0.00     0.251 C 
ATOM     32  H   UNL A   1      32.978  31.570  28.258  1.00  0.00     0.163 HD
ATOM     33  O   UNL A   1      33.743  29.431  27.426  1.00  0.00    -0.269 OA
BRANCH  31  34
ATOM     34  C   UNL A   1      35.865  29.916  28.305  1.00  0.00     0.039 A 
ATOM     35  C   UNL A   1      36.838  30.074  27.314  1.00  0.00     0.014 A 
ATOM     36  C   UNL A   1      36.218  29.418  29.563  1.00  0.00     0.014 A 
ATOM     37  C   UNL A   1      38.173  29.783  27.601  1.00  0.00     0.010 A 
ATOM     38  C   UNL A   1      37.558  29.188  29.866  1.00  0.00     0.010 A 
ATOM     39  C   UNL A   1      38.548  29.363  28.888  1.00  0.00    -0.014 A 
BRANCH  39  40
ATOM     40  C   UNL A   1      39.971  29.103  29.228  1.00  0.00     0.031 A 
ATOM     41  C   UNL A   1      40.606  27.785  28.874  1.00  0.00     0.074 A 
ATOM     42  C   UNL A   1      40.669  30.027  29.918  1.00  0.00     0.049 A 
ATOM     43  N   UNL A   1      41.812  27.353  29.142  1.00  0.00    -0.248 NA
ATOM     44  C   UNL A   1      39.770  26.815  28.147  1.00  0.00     0.031 C 
ATOM     45  C   UNL A   1      40.150  31.323  30.364  1.00  0.00     0.029 A 
ATOM     46  N   UNL A   1      41.962  30.012  30.378  1.00  0.00    -0.354 N 
ATOM     47  C   UNL A   1      41.871  26.057  28.641  1.00  0.00     0.074 A 
ATOM     48  C   UNL A   1      40.569  25.760  28.085  1.00  0.00     0.031 C 
ATOM     49  C   UNL A   1      41.118  31.981  31.022  1.00  0.00     0.029 A 
ATOM     50  C   UNL A   1      42.313  31.145  31.075  1.00  0.00     0.049 A 
ATOM     51  H   UNL A   1      42.580  29.261  30.224  1.00  0.00     0.167 HD
ATOM     52  C   UNL A   1      42.918  25.198  28.634  1.00  0.00     0.031 A 
ATOM     53  C   UNL A   1      43.463  31.470  31.699  1.00  0.00     0.031 A 
ATOM     54  C   UNL A   1      44.218  25.507  29.168  1.00  0.00     0.049 A 
ATOM     55  C   UNL A   1      44.618  30.506  31.658  1.00  0.00     0.074 A 
ATOM     56  C   UNL A   1      45.366  24.735  29.136  1.00  0.00     0.029 A 
ATOM     57  N   UNL A   1      44.544  26.679  29.834  1.00  0.00    -0.354 N 
ATOM     58  N   UNL A   1      44.680  29.320  31.102  1.00  0.00    -0.248 NA
ATOM     59  C   UNL A   1      45.861  30.931  32.315  1.00  0.00     0.031 C 
ATOM     60  C   UNL A   1      46.372  25.417  29.825  1.00  0.00     0.029 A 
ATOM     61  C   UNL A   1      45.867  26.640  30.239  1.00  0.00     0.049 A 
ATOM     62  H   UNL A   1      43.925  27.428  29.993  1.00  0.00     0.167 HD
ATOM     63  C   UNL A   1      45.975  28.867  31.322  1.00  0.00     0.074 A 
ATOM     64  C   UNL A   1      46.668  29.914  32.046  1.00  0.00     0.031 C 
ATOM     65  C   UNL A   1      46.542  27.691  30.956  1.00  0.00     0.031 A 
BRANCH  52  66
ATOM     66  C   UNL A   1      42.702  23.832  28.036  1.00  0.00    -0.014 A 
ATOM     67  C   UNL A   1      42.248  22.757  28.821  1.00  0.00     0.010 A 
ATOM     68  C   UNL A   1      42.900  23.637  26.657  1.00  0.00     0.010 A 
ATOM     69  C   UNL A   1      42.030  21.503  28.243  1.00  0.00     0.020 A 
ATOM     70  C   UNL A   1      42.658  22.392  26.071  1.00  0.00     0.020 A 
ATOM     71  C   UNL A   1      42.237  21.328  26.872  1.00  0.00     0.054 A 
BRANCH  71  72
ATOM     72  S   UNL A   1      41.912  19.699  26.143  1.00  0.00     0.124 S 
ATOM     73  O   UNL A   1      42.300  18.802  27.228  1.00  0.00    -0.237 OA
ATOM     74  O   UNL A   1      40.481  19.755  25.856  1.00  0.00    -0.237 OA
ATOM     75  O   UNL A   1      42.779  19.665  24.968  1.00  0.00    -0.744 OA
ENDBRANCH  71  72
ENDBRANCH  52  66
BRANCH  53  76
ATOM     76  C   UNL A   1      43.580  32.771  32.412  1.00  0.00    -0.014 A 
ATOM     77  C   UNL A   1      43.214  32.882  33.765  1.00  0.00     0.010 A 
ATOM     78  C   UNL A   1      44.064  33.908  31.740  1.00  0.00     0.010 A 
ATOM     79  C   UNL A   1      43.306  34.110  34.426  1.00  0.00     0.020 A 
ATOM     80  C   UNL A   1      44.182  35.132  32.404  1.00  0.00     0.020 A 
ATOM     81  C   UNL A   1      43.788  35.229  33.740  1.00  0.00     0.054 A 
BRANCH  81  82
ATOM     82  S   UNL A   1      43.938  36.806  34.627  1.00  0.00     0.124 S 
ATOM     83  O   UNL A   1      45.162  37.358  34.059  1.00  0.00    -0.237 OA
ATOM     84  O   UNL A   1      42.702  37.493  34.260  1.00  0.00    -0.237 OA
ATOM     85  O   UNL A   1      44.022  36.400  36.028  1.00  0.00    -0.744 OA
ENDBRANCH  81  82
ENDBRANCH  53  76
BRANCH  65  86
ATOM     86  C   UNL A   1      47.992  27.482  31.302  1.00  0.00    -0.014 A 
ATOM     87  C   UNL A   1      48.371  26.812  32.479  1.00  0.00     0.010 A 
ATOM     88  C   UNL A   1      48.987  27.914  30.407  1.00  0.00     0.010 A 
ATOM     89  C   UNL A   1      49.722  26.603  32.767  1.00  0.00     0.020 A 
ATOM     90  C   UNL A   1      50.338  27.684  30.679  1.00  0.00     0.020 A 
ATOM     91  C   UNL A   1      50.697  27.042  31.866  1.00  0.00     0.054 A 
BRANCH  91  92
ATOM     92  S   UNL A   1      52.442  26.719  32.240  1.00  0.00     0.124 S 
ATOM     93  O   UNL A   1      53.021  28.058  32.165  1.00  0.00    -0.237 OA
ATOM     94  O   UNL A   1      52.382  26.134  33.578  1.00  0.00    -0.237 OA
ATOM     95  O   UNL A   1      52.859  25.800  31.184  1.00  0.00    -0.744 OA
ENDBRANCH  91  92
ENDBRANCH  65  86
ENDBRANCH  39  40
ENDBRANCH  31  34
ENDBRANCH  29  30
ENDBRANCH  28  29
ENDBRANCH  27  28
ENDBRANCH   1  27
TORSDOF 22
ENDMDL
MODEL 2
REMARK VINA RESULT:      -7.7      4.519     10.963
REMARK SMILES CC(C)C[C@@H](C[NH3+])C(=O)N1CCC(CC(=O)NCCCCCCNC(=O)c2ccc(-c3c4nc(c(-c5ccc(S(=O)(=O)[O-])cc5)c5ccc([nH]5)c(-c5ccc(S(=O)(=O)[O-])cc5)c5nc(c(-c6ccc(S(=O)(=O)[O-])cc6)c6ccc3[nH]6)C=C5)C=C4)cc2)CC1
REMARK SMILES IDX 20 1 19 2 18 3 17 4 15 5 16 6 14 8 13 9 8 10 9 11 10 12
REMARK SMILES IDX 11 13 88 14 12 15 87 16 5 17 4 18 2 19 1 20 3 21 6 22 7 23
REMARK SMILES IDX 21 27 22 28 23 29 24 30 25 31 26 33 27 34 28 35 86 36 29 37
REMARK SMILES IDX 85 38 30 39 31 40 32 41 79 42 33 43 84 44 78 45 80 46 34 47
REMARK SMILES IDX 83 48 77 49 76 50 35 52 65 53 46 54 64 55 47 56 50 57 63 58
REMARK SMILES IDX 81 59 48 60 49 61 62 63 82 64 51 65 36 66 37 67 45 68 38 69
REMARK SMILES IDX 44 70 39 71 40 72 41 73 42 74 43 75 66 76 67 77 75 78 68 79
REMARK SMILES IDX 74 80 69 81 70 82 71 83 72 84 73 85 52 86 53 87 61 88 54 89
REMARK SMILES IDX 60 90 55 91 56 92 57 93 58 94 59 95
REMARK H PARENT 17 7 7 24 7 25 7 26 24 32 80 51 50 62
REMARK Flexibility Score: inf
ROOT
ATOM      1  C   UNL A   1      34.678  32.718  29.026  1.00  0.00     0.002 C 
ENDROOT
BRANCH   1   2
ATOM      2  C   UNL A   1      34.469  32.104  27.643  1.00  0.00     0.021 C 
BRANCH   2   3
ATOM      3  C   UNL A   1      34.741  30.598  27.565  1.00  0.00     0.116 C 
BRANCH   3   4
ATOM      4  N   UNL A   1      33.528  29.842  27.843  1.00  0.00    -0.356 N 
ATOM      5  C   UNL A   1      32.505  29.474  27.021  1.00  0.00     0.220 C 
ATOM      6  O   UNL A   1      31.518  28.930  27.521  1.00  0.00    -0.275 OA
ATOM      7  H   UNL A   1      33.431  29.547  28.777  1.00  0.00     0.163 HD
BRANCH   5   8
ATOM      8  C   UNL A   1      32.581  29.712  25.523  1.00  0.00     0.103 C 
BRANCH   8   9
ATOM      9  C   UNL A   1      32.529  28.429  24.670  1.00  0.00     0.002 C 
ATOM     10  C   UNL A   1      32.035  24.463  25.553  1.00  0.00     0.231 C 
ATOM     11  O   UNL A   1      32.703  24.396  26.591  1.00  0.00    -0.274 OA
ATOM     12  N   UNL A   1      32.157  25.544  24.703  1.00  0.00    -0.342 N 
ATOM     13  C   UNL A   1      33.481  26.072  24.464  1.00  0.00     0.120 C 
ATOM     14  C   UNL A   1      31.064  26.366  24.212  1.00  0.00     0.120 C 
ATOM     15  C   UNL A   1      33.624  27.443  25.085  1.00  0.00     0.026 C 
ATOM     16  C   UNL A   1      31.137  27.781  24.796  1.00  0.00     0.026 C 
BRANCH  10  17
ATOM     17  C   UNL A   1      31.295  23.218  25.046  1.00  0.00     0.133 C 
BRANCH  17  18
ATOM     18  C   UNL A   1      32.167  22.150  24.377  1.00  0.00     0.022 C 
BRANCH  18  19
ATOM     19  C   UNL A   1      32.377  20.843  25.165  1.00  0.00    -0.016 C 
ATOM     20  C   UNL A   1      32.469  19.609  24.270  1.00  0.00     0.007 C 
ATOM     21  C   UNL A   1      33.654  20.972  26.003  1.00  0.00     0.007 C 
ENDBRANCH  18  19
ENDBRANCH  17  18
BRANCH  17  22
ATOM     22  C   UNL A   1      30.385  22.698  26.180  1.00  0.00     0.272 C 
BRANCH  22  23
ATOM     23  N   UNL A   1      29.731  23.738  26.979  1.00  0.00    -0.357 N 
ATOM     24  H   UNL A   1      29.010  23.315  27.564  1.00  0.00     0.344 HD
ATOM     25  H   UNL A   1      29.306  24.426  26.360  1.00  0.00     0.344 HD
ATOM     26  H   UNL A   1      30.424  24.196  27.572  1.00  0.00     0.344 HD
ENDBRANCH  22  23
ENDBRANCH  17  22
ENDBRANCH  10  17
ENDBRANCH   8   9
ENDBRANCH   5   8
ENDBRANCH   3   4
ENDBRANCH   2   3
ENDBRANCH   1   2
BRANCH   1  27
ATOM     27  C   UNL A   1      35.897  33.632  29.146  1.00  0.00     0.002 C 
BRANCH  27  28
ATOM     28  C   UNL A   1      36.239  34.097  30.565  1.00  0.00     0.021 C 
BRANCH  28  29
ATOM     29  C   UNL A   1      37.096  33.130  31.382  1.00  0.00     0.116 C 
BRANCH  29  30
ATOM     30  N   UNL A   1      36.395  31.887  31.663  1.00  0.00    -0.352 N 
ATOM     31  C   UNL A   1      36.720  30.599  31.316  1.00  0.00     0.251 C 
ATOM     32  H   UNL A   1      35.563  31.983  32.182  1.00  0.00     0.163 HD
ATOM     33  O   UNL A   1      35.891  29.703  31.443  1.00  0.00    -0.269 OA
BRANCH  31  34
ATOM     34  C   UNL A   1      38.064  30.295  30.781  1.00  0.00     0.039 A 
ATOM     35  C   UNL A   1      39.091  29.967  31.671  1.00  0.00     0.014 A 
ATOM     36  C   UNL A   1      38.321  30.362  29.408  1.00  0.00     0.014 A 
ATOM     37  C   UNL A   1      40.360  29.654  31.181  1.00  0.00     0.010 A 
ATOM     38  C   UNL A   1      39.570  29.990  28.917  1.00  0.00     0.010 A 
ATOM     39  C   UNL A   1      40.604  29.637  29.797  1.00  0.00    -0.014 A 
BRANCH  39  40
ATOM     40  C   UNL A   1      41.932  29.253  29.254  1.00  0.00     0.031 A 
ATOM     41  C   UNL A   1      43.021  30.283  29.116  1.00  0.00     0.074 A 
ATOM     42  C   UNL A   1      42.133  27.992  28.821  1.00  0.00     0.049 A 
ATOM     43  N   UNL A   1      44.220  30.151  28.609  1.00  0.00    -0.248 NA
ATOM     44  C   UNL A   1      42.715  31.645  29.584  1.00  0.00     0.031 C 
ATOM     45  C   UNL A   1      41.140  26.915  28.854  1.00  0.00     0.029 A 
ATOM     46  N   UNL A   1      43.238  27.407  28.253  1.00  0.00    -0.354 N 
ATOM     47  C   UNL A   1      44.801  31.412  28.673  1.00  0.00     0.074 A 
ATOM     48  C   UNL A   1      43.810  32.304  29.235  1.00  0.00     0.031 C 
ATOM     49  C   UNL A   1      41.684  25.800  28.341  1.00  0.00     0.029 A 
ATOM     50  C   UNL A   1      43.049  26.088  27.912  1.00  0.00     0.049 A 
ATOM     51  H   UNL A   1      44.085  27.886  28.104  1.00  0.00     0.167 HD
ATOM     52  C   UNL A   1      46.049  31.791  28.309  1.00  0.00     0.031 A 
ATOM     53  C   UNL A   1      43.876  25.210  27.310  1.00  0.00     0.031 A 
ATOM     54  C   UNL A   1      47.039  30.895  27.772  1.00  0.00     0.049 A 
ATOM     55  C   UNL A   1      45.265  25.650  26.935  1.00  0.00     0.074 A 
ATOM     56  C   UNL A   1      48.357  31.165  27.449  1.00  0.00     0.029 A 
ATOM     57  N   UNL A   1      46.820  29.558  27.476  1.00  0.00    -0.354 N 
ATOM     58  N   UNL A   1      45.824  26.828  27.085  1.00  0.00    -0.248 NA
ATOM     59  C   UNL A   1      46.139  24.641  26.323  1.00  0.00     0.031 C 
ATOM     60  C   UNL A   1      48.921  30.005  26.910  1.00  0.00     0.029 A 
ATOM     61  C   UNL A   1      47.971  28.996  26.950  1.00  0.00     0.049 A 
ATOM     62  H   UNL A   1      45.972  29.079  27.619  1.00  0.00     0.167 HD
ATOM     63  C   UNL A   1      47.122  26.693  26.609  1.00  0.00     0.074 A 
ATOM     64  C   UNL A   1      47.272  25.316  26.182  1.00  0.00     0.031 C 
ATOM     65  C   UNL A   1      48.104  27.625  26.532  1.00  0.00     0.031 A 
BRANCH  52  66
ATOM     66  C   UNL A   1      46.418  33.242  28.471  1.00  0.00    -0.014 A 
ATOM     67  C   UNL A   1      46.191  34.171  27.439  1.00  0.00     0.010 A 
ATOM     68  C   UNL A   1      46.946  33.694  29.694  1.00  0.00     0.010 A 
ATOM     69  C   UNL A   1      46.517  35.518  27.617  1.00  0.00     0.020 A 
ATOM     70  C   UNL A   1      47.249  35.045  29.884  1.00  0.00     0.020 A 
ATOM     71  C   UNL A   1      47.046  35.947  28.838  1.00  0.00     0.054 A 
BRANCH  71  72
ATOM     72  S   UNL A   1      47.427  37.707  29.052  1.00  0.00     0.124 S 
ATOM     73  O   UNL A   1      48.122  37.710  30.337  1.00  0.00    -0.237 OA
ATOM     74  O   UNL A   1      48.259  38.000  27.888  1.00  0.00    -0.237 OA
ATOM     75  O   UNL A   1      46.115  38.349  29.054  1.00  0.00    -0.744 OA
ENDBRANCH  71  72
ENDBRANCH  52  66
BRANCH  53  76
ATOM     76  C   UNL A   1      43.413  23.824  27.030  1.00  0.00    -0.014 A 
ATOM     77  C   UNL A   1      42.962  23.465  25.747  1.00  0.00     0.010 A 
ATOM     78  C   UNL A   1      43.427  22.851  28.046  1.00  0.00     0.010 A 
ATOM     79  C   UNL A   1      42.508  22.167  25.493  1.00  0.00     0.020 A 
ATOM     80  C   UNL A   1      42.999  21.546  27.789  1.00  0.00     0.020 A 
ATOM     81  C   UNL A   1      42.529  21.215  26.517  1.00  0.00     0.054 A 
BRANCH  81  82
ATOM     82  S   UNL A   1      41.973  19.526  26.156  1.00  0.00     0.124 S 
ATOM     83  O   UNL A   1      42.841  19.153  25.044  1.00  0.00    -0.237 OA
ATOM     84  O   UNL A   1      42.225  18.833  27.417  1.00  0.00    -0.237 OA
ATOM     85  O   UNL A   1      40.561  19.696  25.821  1.00  0.00    -0.744 OA
ENDBRANCH  81  82
ENDBRANCH  53  76
BRANCH  65  86
ATOM     86  C   UNL A   1      49.440  27.183  25.997  1.00  0.00    -0.014 A 
ATOM     87  C   UNL A   1      50.370  26.520  26.818  1.00  0.00     0.010 A 
ATOM     88  C   UNL A   1      49.744  27.384  24.639  1.00  0.00     0.010 A 
ATOM     89  C   UNL A   1      51.593  26.091  26.295  1.00  0.00     0.020 A 
ATOM     90  C   UNL A   1      50.955  26.934  24.106  1.00  0.00     0.020 A 
ATOM     91  C   UNL A   1      51.877  26.303  24.942  1.00  0.00     0.054 A 
BRANCH  91  92
ATOM     92  S   UNL A   1      53.453  25.698  24.276  1.00  0.00     0.124 S 
ATOM     93  O   UNL A   1      54.417  26.571  24.938  1.00  0.00    -0.237 OA
ATOM     94  O   UNL A   1      53.469  24.301  24.706  1.00  0.00    -0.237 OA
ATOM     95  O   UNL A   1      53.318  25.897  22.835  1.00  0.00    -0.744 OA
ENDBRANCH  91  92
ENDBRANCH  65  86
ENDBRANCH  39  40
ENDBRANCH  31  34
ENDBRANCH  29  30
ENDBRANCH  28  29
ENDBRANCH  27  28
ENDBRANCH   1  27
TORSDOF 22
ENDMDL
MODEL 3
REMARK VINA RESULT:      -7.7      4.792     12.008
REMARK SMILES CC(C)C[C@@H](C[NH3+])C(=O)N1CCC(CC(=O)NCCCCCCNC(=O)c2ccc(-c3c4nc(c(-c5ccc(S(=O)(=O)[O-])cc5)c5ccc([nH]5)c(-c5ccc(S(=O)(=O)[O-])cc5)c5nc(c(-c6ccc(S(=O)(=O)[O-])cc6)c6ccc3[nH]6)C=C5)C=C4)cc2)CC1
REMARK SMILES IDX 20 1 19 2 18 3 17 4 15 5 16 6 14 8 13 9 8 10 9 11 10 12
REMARK SMILES IDX 11 13 88 14 12 15 87 16 5 17 4 18 2 19 1 20 3 21 6 22 7 23
REMARK SMILES IDX 21 27 22 28 23 29 24 30 25 31 26 33 27 34 28 35 86 36 29 37
REMARK SMILES IDX 85 38 30 39 31 40 32 41 79 42 33 43 84 44 78 45 80 46 34 47
REMARK SMILES IDX 83 48 77 49 76 50 35 52 65 53 46 54 64 55 47 56 50 57 63 58
REMARK SMILES IDX 81 59 48 60 49 61 62 63 82 64 51 65 36 66 37 67 45 68 38 69
REMARK SMILES IDX 44 70 39 71 40 72 41 73 42 74 43 75 66 76 67 77 75 78 68 79
REMARK SMILES IDX 74 80 69 81 70 82 71 83 72 84 73 85 52 86 53 87 61 88 54 89
REMARK SMILES IDX 60 90 55 91 56 92 57 93 58 94 59 95
REMARK H PARENT 17 7 7 24 7 25 7 26 24 32 80 51 50 62
REMARK Flexibility Score: inf
ROOT
ATOM      1  C   UNL A   1      34.406  26.476  25.794  1.00  0.00     0.002 C 
ENDROOT
BRANCH   1   2
ATOM      2  C   UNL A   1      33.263  25.517  26.121  1.00  0.00     0.021 C 
BRANCH   2   3
ATOM      3  C   UNL A   1      33.551  24.047  25.797  1.00  0.00     0.116 C 
BRANCH   3   4
ATOM      4  N   UNL A   1      34.511  23.938  24.708  1.00  0.00    -0.356 N 
ATOM      5  C   UNL A   1      34.344  23.540  23.415  1.00  0.00     0.220 C 
ATOM      6  O   UNL A   1      35.345  23.420  22.706  1.00  0.00    -0.275 OA
ATOM      7  H   UNL A   1      35.431  24.195  24.944  1.00  0.00     0.163 HD
BRANCH   5   8
ATOM      8  C   UNL A   1      32.960  23.266  22.854  1.00  0.00     0.103 C 
BRANCH   8   9
ATOM      9  C   UNL A   1      32.213  24.521  22.361  1.00  0.00     0.002 C 
ATOM     10  C   UNL A   1      30.887  27.930  24.197  1.00  0.00     0.231 C 
ATOM     11  O   UNL A   1      30.492  27.451  25.265  1.00  0.00    -0.274 OA
ATOM     12  N   UNL A   1      31.138  27.119  23.109  1.00  0.00    -0.342 N 
ATOM     13  C   UNL A   1      30.218  26.035  22.846  1.00  0.00     0.120 C 
ATOM     14  C   UNL A   1      32.369  27.087  22.338  1.00  0.00     0.120 C 
ATOM     15  C   UNL A   1      30.884  24.702  23.101  1.00  0.00     0.026 C 
ATOM     16  C   UNL A   1      33.108  25.761  22.540  1.00  0.00     0.026 C 
BRANCH  10  17
ATOM     17  C   UNL A   1      30.812  29.447  23.972  1.00  0.00     0.133 C 
BRANCH  17  18
ATOM     18  C   UNL A   1      29.423  30.006  23.646  1.00  0.00     0.022 C 
BRANCH  18  19
ATOM     19  C   UNL A   1      28.629  29.273  22.549  1.00  0.00    -0.016 C 
ATOM     20  C   UNL A   1      27.371  28.584  23.074  1.00  0.00     0.007 C 
ATOM     21  C   UNL A   1      28.250  30.282  21.458  1.00  0.00     0.007 C 
ENDBRANCH  18  19
ENDBRANCH  17  18
BRANCH  17  22
ATOM     22  C   UNL A   1      31.537  30.148  25.142  1.00  0.00     0.272 C 
BRANCH  22  23
ATOM     23  N   UNL A   1      30.997  31.458  25.513  1.00  0.00    -0.357 N 
ATOM     24  H   UNL A   1      31.484  32.188  24.991  1.00  0.00     0.344 HD
ATOM     25  H   UNL A   1      31.128  31.610  26.512  1.00  0.00     0.344 HD
ATOM     26  H   UNL A   1      30.002  31.491  25.292  1.00  0.00     0.344 HD
ENDBRANCH  22  23
ENDBRANCH  17  22
ENDBRANCH  10  17
ENDBRANCH   8   9
ENDBRANCH   5   8
ENDBRANCH   3   4
ENDBRANCH   2   3
ENDBRANCH   1   2
BRANCH   1  27
ATOM     27  C   UNL A   1      34.050  27.959  25.900  1.00  0.00     0.002 C 
BRANCH  27  28
ATOM     28  C   UNL A   1      34.100  28.553  27.311  1.00  0.00     0.021 C 
BRANCH  28  29
ATOM     29  C   UNL A   1      35.427  29.205  27.700  1.00  0.00     0.116 C 
BRANCH  29  30
ATOM     30  N   UNL A   1      35.392  29.748  29.048  1.00  0.00    -0.352 N 
ATOM     31  C   UNL A   1      36.384  29.809  29.995  1.00  0.00     0.251 C 
ATOM     32  H   UNL A   1      34.527  30.131  29.323  1.00  0.00     0.163 HD
ATOM     33  O   UNL A   1      36.106  30.096  31.155  1.00  0.00    -0.269 OA
BRANCH  31  34
ATOM     34  C   UNL A   1      37.784  29.521  29.618  1.00  0.00     0.039 A 
ATOM     35  C   UNL A   1      38.698  29.174  30.617  1.00  0.00     0.014 A 
ATOM     36  C   UNL A   1      38.204  29.623  28.288  1.00  0.00     0.014 A 
ATOM     37  C   UNL A   1      40.019  28.876  30.276  1.00  0.00     0.010 A 
ATOM     38  C   UNL A   1      39.505  29.266  27.942  1.00  0.00     0.010 A 
ATOM     39  C   UNL A   1      40.427  28.894  28.932  1.00  0.00    -0.014 A 
BRANCH  39  40
ATOM     40  C   UNL A   1      41.812  28.526  28.543  1.00  0.00     0.031 A 
ATOM     41  C   UNL A   1      42.880  29.583  28.454  1.00  0.00     0.074 A 
ATOM     42  C   UNL A   1      42.092  27.252  28.204  1.00  0.00     0.049 A 
ATOM     43  N   UNL A   1      44.128  29.465  28.075  1.00  0.00    -0.248 NA
ATOM     44  C   UNL A   1      42.491  30.958  28.813  1.00  0.00     0.031 C 
ATOM     45  C   UNL A   1      41.131  26.145  28.200  1.00  0.00     0.029 A 
ATOM     46  N   UNL A   1      43.263  26.675  27.780  1.00  0.00    -0.354 N 
ATOM     47  C   UNL A   1      44.662  30.748  28.124  1.00  0.00     0.074 A 
ATOM     48  C   UNL A   1      43.596  31.634  28.535  1.00  0.00     0.031 C 
ATOM     49  C   UNL A   1      41.754  25.023  27.807  1.00  0.00     0.029 A 
ATOM     50  C   UNL A   1      43.146  25.334  27.498  1.00  0.00     0.049 A 
ATOM     51  H   UNL A   1      44.107  27.173  27.688  1.00  0.00     0.167 HD
ATOM     52  C   UNL A   1      45.930  31.148  27.863  1.00  0.00     0.031 A 
ATOM     53  C   UNL A   1      44.054  24.454  27.030  1.00  0.00     0.031 A 
ATOM     54  C   UNL A   1      46.993  30.259  27.477  1.00  0.00     0.049 A 
ATOM     55  C   UNL A   1      45.461  24.920  26.768  1.00  0.00     0.074 A 
ATOM     56  C   UNL A   1      48.328  30.555  27.269  1.00  0.00     0.029 A 
ATOM     57  N   UNL A   1      46.843  28.901  27.236  1.00  0.00    -0.354 N 
ATOM     58  N   UNL A   1      45.968  26.122  26.905  1.00  0.00    -0.248 NA
ATOM     59  C   UNL A   1      46.419  23.910  26.302  1.00  0.00     0.031 C 
ATOM     60  C   UNL A   1      48.976  29.388  26.854  1.00  0.00     0.029 A 
ATOM     61  C   UNL A   1      48.056  28.352  26.858  1.00  0.00     0.049 A 
ATOM     62  H   UNL A   1      45.998  28.402  27.323  1.00  0.00     0.167 HD
ATOM     63  C   UNL A   1      47.311  26.005  26.566  1.00  0.00     0.074 A 
ATOM     64  C   UNL A   1      47.540  24.614  26.234  1.00  0.00     0.031 C 
ATOM     65  C   UNL A   1      48.268  26.965  26.533  1.00  0.00     0.031 A 
BRANCH  52  66
ATOM     66  C   UNL A   1      46.239  32.618  27.978  1.00  0.00    -0.014 A 
ATOM     67  C   UNL A   1      46.684  33.176  29.190  1.00  0.00     0.010 A 
ATOM     68  C   UNL A   1      46.140  33.440  26.841  1.00  0.00     0.010 A 
ATOM     69  C   UNL A   1      46.990  34.537  29.271  1.00  0.00     0.020 A 
ATOM     70  C   UNL A   1      46.471  34.797  26.912  1.00  0.00     0.020 A 
ATOM     71  C   UNL A   1      46.880  35.340  28.131  1.00  0.00     0.054 A 
BRANCH  71  72
ATOM     72  S   UNL A   1      47.318  37.096  28.257  1.00  0.00     0.124 S 
ATOM     73  O   UNL A   1      47.703  37.209  29.661  1.00  0.00    -0.237 OA
ATOM     74  O   UNL A   1      48.409  37.225  27.294  1.00  0.00    -0.237 OA
ATOM     75  O   UNL A   1      46.084  37.788  27.892  1.00  0.00    -0.744 OA
ENDBRANCH  71  72
ENDBRANCH  52  66
BRANCH  53  76
ATOM     76  C   UNL A   1      43.661  23.040  26.784  1.00  0.00    -0.014 A 
ATOM     77  C   UNL A   1      44.147  22.345  25.662  1.00  0.00     0.010 A 
ATOM     78  C   UNL A   1      42.799  22.377  27.677  1.00  0.00     0.010 A 
ATOM     79  C   UNL A   1      43.759  21.024  25.424  1.00  0.00     0.020 A 
ATOM     80  C   UNL A   1      42.430  21.047  27.456  1.00  0.00     0.020 A 
ATOM     81  C   UNL A   1      42.901  20.383  26.323  1.00  0.00     0.054 A 
BRANCH  81  82
ATOM     82  S   UNL A   1      42.441  18.654  26.016  1.00  0.00     0.124 S 
ATOM     83  O   UNL A   1      42.754  18.026  27.295  1.00  0.00    -0.237 OA
ATOM     84  O   UNL A   1      41.020  18.757  25.691  1.00  0.00    -0.237 OA
ATOM     85  O   UNL A   1      43.300  18.266  24.899  1.00  0.00    -0.744 OA
ENDBRANCH  81  82
ENDBRANCH  53  76
BRANCH  65  86
ATOM     86  C   UNL A   1      49.663  26.540  26.156  1.00  0.00    -0.014 A 
ATOM     87  C   UNL A   1      50.173  26.775  24.867  1.00  0.00     0.010 A 
ATOM     88  C   UNL A   1      50.492  25.949  27.126  1.00  0.00     0.010 A 
ATOM     89  C   UNL A   1      51.479  26.399  24.546  1.00  0.00     0.020 A 
ATOM     90  C   UNL A   1      51.808  25.596  26.816  1.00  0.00     0.020 A 
ATOM     91  C   UNL A   1      52.288  25.811  25.523  1.00  0.00     0.054 A 
BRANCH  91  92
ATOM     92  S   UNL A   1      53.996  25.372  25.096  1.00  0.00     0.124 S 
ATOM     93  O   UNL A   1      53.905  23.925  24.931  1.00  0.00    -0.237 OA
ATOM     94  O   UNL A   1      54.227  26.133  23.870  1.00  0.00    -0.237 OA
ATOM     95  O   UNL A   1      54.768  25.820  26.253  1.00  0.00    -0.744 OA
ENDBRANCH  91  92
ENDBRANCH  65  86
ENDBRANCH  39  40
ENDBRANCH  31  34
ENDBRANCH  29  30
ENDBRANCH  28  29
ENDBRANCH  27  28
ENDBRANCH   1  27
TORSDOF 22
ENDMDL
