MODEL 1
REMARK VINA RESULT:     -11.4      0.000      0.000
REMARK SMILES CO[C@H]1C[C@@H](C(=O)NCCCCCCNC(=O)c2ccc(-c3c4nc(c(-c5ccc(S(=O)(=O)[O-])cc5)c5ccc([nH]5)c(-c5ccc(S(=O)(=O)[O-])cc5)c5nc(c(-c6ccc(S(=O)(=O)[O-])cc6)c6ccc3[nH]6)C=C5)C=C4)cc2)N(C(=O)Nc2cc(C)cc(F)c2)C1
REMARK SMILES IDX 12 1 11 2 10 3 9 4 8 5 6 6 7 7 5 9 3 10 4 11 90 12 78 13
REMARK SMILES IDX 2 14 1 15 79 16 80 17 81 18 82 20 83 21 89 22 84 23 87 24
REMARK SMILES IDX 85 25 86 26 88 27 13 28 14 29 15 30 16 31 17 33 18 34 19 35
REMARK SMILES IDX 77 36 20 37 76 38 21 39 22 40 23 41 70 42 24 43 75 44 69 45
REMARK SMILES IDX 71 46 25 47 74 48 68 49 67 50 26 52 56 53 37 54 55 55 38 56
REMARK SMILES IDX 41 57 54 58 72 59 39 60 40 61 53 63 73 64 42 65 27 66 28 67
REMARK SMILES IDX 36 68 29 69 35 70 30 71 31 72 32 73 33 74 34 75 57 76 58 77
REMARK SMILES IDX 66 78 59 79 65 80 60 81 61 82 62 83 63 84 64 85 43 86 44 87
REMARK SMILES IDX 52 88 45 89 51 90 46 91 47 92 48 93 49 94 50 95
REMARK H PARENT 8 8 81 19 15 32 71 51 41 62
REMARK Flexibility Score: inf
ROOT
ATOM      1  C   UNL A   1      41.043  21.073  27.033  1.00  0.00     0.002 C 
ENDROOT
BRANCH   1   2
ATOM      2  C   UNL A   1      39.913  22.082  27.258  1.00  0.00     0.002 C 
BRANCH   2   3
ATOM      3  C   UNL A   1      39.168  22.471  25.971  1.00  0.00     0.021 C 
BRANCH   3   4
ATOM      4  C   UNL A   1      37.949  21.588  25.717  1.00  0.00     0.116 C 
BRANCH   4   5
ATOM      5  N   UNL A   1      36.815  22.250  26.312  1.00  0.00    -0.354 N 
ATOM      6  C   UNL A   1      35.956  23.056  25.620  1.00  0.00     0.242 C 
ATOM      7  O   UNL A   1      35.844  24.239  25.935  1.00  0.00    -0.273 OA
ATOM      8  H   UNL A   1      36.650  22.113  27.272  1.00  0.00     0.163 HD
BRANCH   6   9
ATOM      9  C   UNL A   1      35.137  22.367  24.541  1.00  0.00     0.179 C 
ATOM     10  C   UNL A   1      33.914  23.545  22.784  1.00  0.00     0.140 C 
ATOM     11  C   UNL A   1      35.308  23.207  23.274  1.00  0.00     0.069 C 
ATOM     12  C   UNL A   1      33.004  23.281  23.982  1.00  0.00     0.154 C 
ATOM     13  N   UNL A   1      33.721  22.394  24.893  1.00  0.00    -0.310 N 
BRANCH  10  14
ATOM     14  O   UNL A   1      33.912  24.927  22.424  1.00  0.00    -0.380 OA
ATOM     15  C   UNL A   1      32.858  25.284  21.548  1.00  0.00     0.195 C 
ENDBRANCH  10  14
BRANCH  13  16
ATOM     16  C   UNL A   1      32.999  21.703  25.821  1.00  0.00     0.322 C 
ATOM     17  O   UNL A   1      32.690  22.243  26.893  1.00  0.00    -0.248 OA
ATOM     18  N   UNL A   1      32.404  20.505  25.607  1.00  0.00    -0.308 N 
ATOM     19  H   UNL A   1      31.609  20.407  26.178  1.00  0.00     0.171 HD
BRANCH  18  20
ATOM     20  C   UNL A   1      32.586  19.366  24.815  1.00  0.00     0.046 A 
ATOM     21  C   UNL A   1      33.084  18.215  25.441  1.00  0.00     0.029 A 
ATOM     22  C   UNL A   1      32.480  19.355  23.434  1.00  0.00     0.065 A 
ATOM     23  C   UNL A   1      33.281  17.017  24.730  1.00  0.00    -0.046 A 
ATOM     24  C   UNL A   1      32.618  18.157  22.729  1.00  0.00     0.125 A 
ATOM     25  C   UNL A   1      33.888  15.820  25.397  1.00  0.00     0.044 C 
ATOM     26  C   UNL A   1      32.985  16.983  23.367  1.00  0.00     0.042 A 
ATOM     27  F   UNL A   1      32.373  18.137  21.411  1.00  0.00    -0.207 F 
ENDBRANCH  18  20
ENDBRANCH  13  16
ENDBRANCH   6   9
ENDBRANCH   4   5
ENDBRANCH   3   4
ENDBRANCH   2   3
ENDBRANCH   1   2
BRANCH   1  28
ATOM     28  C   UNL A   1      42.435  21.702  27.069  1.00  0.00     0.021 C 
BRANCH  28  29
ATOM     29  C   UNL A   1      42.410  23.196  27.356  1.00  0.00     0.116 C 
BRANCH  29  30
ATOM     30  N   UNL A   1      42.537  23.974  26.135  1.00  0.00    -0.352 N 
ATOM     31  C   UNL A   1      42.263  25.306  25.956  1.00  0.00     0.251 C 
ATOM     32  H   UNL A   1      42.856  23.486  25.342  1.00  0.00     0.163 HD
ATOM     33  O   UNL A   1      42.197  25.788  24.837  1.00  0.00    -0.269 OA
BRANCH  31  34
ATOM     34  C   UNL A   1      42.029  26.130  27.157  1.00  0.00     0.039 A 
ATOM     35  C   UNL A   1      42.895  27.188  27.427  1.00  0.00     0.014 A 
ATOM     36  C   UNL A   1      40.927  25.876  27.981  1.00  0.00     0.014 A 
ATOM     37  C   UNL A   1      42.640  28.012  28.521  1.00  0.00     0.010 A 
ATOM     38  C   UNL A   1      40.626  26.751  29.015  1.00  0.00     0.010 A 
ATOM     39  C   UNL A   1      41.494  27.812  29.310  1.00  0.00    -0.014 A 
BRANCH  39  40
ATOM     40  C   UNL A   1      41.211  28.687  30.471  1.00  0.00     0.031 A 
ATOM     41  C   UNL A   1      42.030  28.556  31.726  1.00  0.00     0.074 A 
ATOM     42  C   UNL A   1      40.198  29.572  30.408  1.00  0.00     0.049 A 
ATOM     43  N   UNL A   1      41.933  29.223  32.847  1.00  0.00    -0.248 NA
ATOM     44  C   UNL A   1      43.077  27.520  31.733  1.00  0.00     0.031 C 
ATOM     45  C   UNL A   1      39.301  29.751  29.265  1.00  0.00     0.029 A 
ATOM     46  N   UNL A   1      39.752  30.486  31.327  1.00  0.00    -0.354 N 
ATOM     47  C   UNL A   1      42.897  28.684  33.691  1.00  0.00     0.074 A 
ATOM     48  C   UNL A   1      43.517  27.588  32.980  1.00  0.00     0.031 C 
ATOM     49  C   UNL A   1      38.430  30.735  29.540  1.00  0.00     0.029 A 
ATOM     50  C   UNL A   1      38.681  31.228  30.892  1.00  0.00     0.049 A 
ATOM     51  H   UNL A   1      40.160  30.600  32.217  1.00  0.00     0.167 HD
ATOM     52  C   UNL A   1      43.255  29.081  34.934  1.00  0.00     0.031 A 
ATOM     53  C   UNL A   1      37.975  32.193  31.511  1.00  0.00     0.031 A 
ATOM     54  C   UNL A   1      42.627  30.168  35.637  1.00  0.00     0.049 A 
ATOM     55  C   UNL A   1      38.382  32.617  32.895  1.00  0.00     0.074 A 
ATOM     56  C   UNL A   1      42.938  30.682  36.883  1.00  0.00     0.029 A 
ATOM     57  N   UNL A   1      41.553  30.905  35.156  1.00  0.00    -0.354 N 
ATOM     58  N   UNL A   1      39.344  32.145  33.651  1.00  0.00    -0.248 NA
ATOM     59  C   UNL A   1      37.620  33.717  33.501  1.00  0.00     0.031 C 
ATOM     60  C   UNL A   1      42.014  31.690  37.181  1.00  0.00     0.029 A 
ATOM     61  C   UNL A   1      41.173  31.853  36.090  1.00  0.00     0.049 A 
ATOM     62  H   UNL A   1      41.126  30.773  34.280  1.00  0.00     0.167 HD
ATOM     63  C   UNL A   1      39.320  32.905  34.815  1.00  0.00     0.074 A 
ATOM     64  C   UNL A   1      38.260  33.880  34.651  1.00  0.00     0.031 C 
ATOM     65  C   UNL A   1      40.106  32.808  35.917  1.00  0.00     0.031 A 
BRANCH  52  66
ATOM     66  C   UNL A   1      44.369  28.321  35.608  1.00  0.00    -0.014 A 
ATOM     67  C   UNL A   1      45.713  28.720  35.469  1.00  0.00     0.010 A 
ATOM     68  C   UNL A   1      44.073  27.190  36.390  1.00  0.00     0.010 A 
ATOM     69  C   UNL A   1      46.740  27.969  36.046  1.00  0.00     0.020 A 
ATOM     70  C   UNL A   1      45.096  26.457  37.000  1.00  0.00     0.020 A 
ATOM     71  C   UNL A   1      46.425  26.838  36.803  1.00  0.00     0.054 A 
BRANCH  71  72
ATOM     72  S   UNL A   1      47.780  25.880  37.536  1.00  0.00     0.124 S 
ATOM     73  O   UNL A   1      48.062  24.906  36.483  1.00  0.00    -0.237 OA
ATOM     74  O   UNL A   1      48.810  26.893  37.747  1.00  0.00    -0.237 OA
ATOM     75  O   UNL A   1      47.194  25.326  38.754  1.00  0.00    -0.744 OA
ENDBRANCH  71  72
ENDBRANCH  52  66
BRANCH  53  76
ATOM     76  C   UNL A   1      36.821  32.822  30.811  1.00  0.00    -0.014 A 
ATOM     77  C   UNL A   1      35.502  32.425  31.091  1.00  0.00     0.010 A 
ATOM     78  C   UNL A   1      37.041  33.862  29.889  1.00  0.00     0.010 A 
ATOM     79  C   UNL A   1      34.426  33.052  30.456  1.00  0.00     0.020 A 
ATOM     80  C   UNL A   1      35.967  34.511  29.275  1.00  0.00     0.020 A 
ATOM     81  C   UNL A   1      34.664  34.097  29.558  1.00  0.00     0.054 A 
BRANCH  81  82
ATOM     82  S   UNL A   1      33.249  34.946  28.805  1.00  0.00     0.124 S 
ATOM     83  O   UNL A   1      32.742  33.935  27.883  1.00  0.00    -0.237 OA
ATOM     84  O   UNL A   1      32.403  35.231  29.961  1.00  0.00    -0.237 OA
ATOM     85  O   UNL A   1      33.850  36.121  28.177  1.00  0.00    -0.744 OA
ENDBRANCH  81  82
ENDBRANCH  53  76
BRANCH  65  86
ATOM     86  C   UNL A   1      39.870  33.803  37.024  1.00  0.00    -0.014 A 
ATOM     87  C   UNL A   1      38.961  33.540  38.065  1.00  0.00     0.010 A 
ATOM     88  C   UNL A   1      40.608  35.000  37.046  1.00  0.00     0.010 A 
ATOM     89  C   UNL A   1      38.767  34.475  39.085  1.00  0.00     0.020 A 
ATOM     90  C   UNL A   1      40.441  35.923  38.081  1.00  0.00     0.020 A 
ATOM     91  C   UNL A   1      39.508  35.661  39.087  1.00  0.00     0.054 A 
BRANCH  91  92
ATOM     92  S   UNL A   1      39.260  36.843  40.439  1.00  0.00     0.124 S 
ATOM     93  O   UNL A   1      38.442  37.869  39.798  1.00  0.00    -0.237 OA
ATOM     94  O   UNL A   1      38.578  36.035  41.448  1.00  0.00    -0.237 OA
ATOM     95  O   UNL A   1      40.615  37.257  40.792  1.00  0.00    -0.744 OA
ENDBRANCH  91  92
ENDBRANCH  65  86
ENDBRANCH  39  40
ENDBRANCH  31  34
ENDBRANCH  29  30
ENDBRANCH  28  29
ENDBRANCH   1  28
TORSDOF 19
ENDMDL
MODEL 2
REMARK VINA RESULT:     -11.1      6.350     11.869
REMARK SMILES CO[C@H]1C[C@@H](C(=O)NCCCCCCNC(=O)c2ccc(-c3c4nc(c(-c5ccc(S(=O)(=O)[O-])cc5)c5ccc([nH]5)c(-c5ccc(S(=O)(=O)[O-])cc5)c5nc(c(-c6ccc(S(=O)(=O)[O-])cc6)c6ccc3[nH]6)C=C5)C=C4)cc2)N(C(=O)Nc2cc(C)cc(F)c2)C1
REMARK SMILES IDX 12 1 11 2 10 3 9 4 8 5 6 6 7 7 5 9 3 10 4 11 90 12 78 13
REMARK SMILES IDX 2 14 1 15 79 16 80 17 81 18 82 20 83 21 89 22 84 23 87 24
REMARK SMILES IDX 85 25 86 26 88 27 13 28 14 29 15 30 16 31 17 33 18 34 19 35
REMARK SMILES IDX 77 36 20 37 76 38 21 39 22 40 23 41 70 42 24 43 75 44 69 45
REMARK SMILES IDX 71 46 25 47 74 48 68 49 67 50 26 52 56 53 37 54 55 55 38 56
REMARK SMILES IDX 41 57 54 58 72 59 39 60 40 61 53 63 73 64 42 65 27 66 28 67
REMARK SMILES IDX 36 68 29 69 35 70 30 71 31 72 32 73 33 74 34 75 57 76 58 77
REMARK SMILES IDX 66 78 59 79 65 80 60 81 61 82 62 83 63 84 64 85 43 86 44 87
REMARK SMILES IDX 52 88 45 89 51 90 46 91 47 92 48 93 49 94 50 95
REMARK H PARENT 8 8 81 19 15 32 71 51 41 62
REMARK Flexibility Score: inf
ROOT
ATOM      1  C   UNL A   1      34.110  32.008  28.082  1.00  0.00     0.002 C 
ENDROOT
BRANCH   1   2
ATOM      2  C   UNL A   1      33.447  30.854  27.324  1.00  0.00     0.002 C 
BRANCH   2   3
ATOM      3  C   UNL A   1      34.144  29.499  27.532  1.00  0.00     0.021 C 
BRANCH   3   4
ATOM      4  C   UNL A   1      34.509  28.827  26.211  1.00  0.00     0.116 C 
BRANCH   4   5
ATOM      5  N   UNL A   1      33.684  27.650  26.092  1.00  0.00    -0.354 N 
ATOM      6  C   UNL A   1      32.422  27.657  25.568  1.00  0.00     0.242 C 
ATOM      7  O   UNL A   1      31.471  27.320  26.270  1.00  0.00    -0.273 OA
ATOM      8  H   UNL A   1      34.051  26.793  26.405  1.00  0.00     0.163 HD
BRANCH   6   9
ATOM      9  C   UNL A   1      32.326  28.018  24.095  1.00  0.00     0.179 C 
ATOM     10  C   UNL A   1      30.255  27.954  22.799  1.00  0.00     0.140 C 
ATOM     11  C   UNL A   1      30.968  28.698  23.911  1.00  0.00     0.069 C 
ATOM     12  C   UNL A   1      31.004  26.629  22.673  1.00  0.00     0.154 C 
ATOM     13  N   UNL A   1      32.319  26.806  23.282  1.00  0.00    -0.310 N 
BRANCH  10  14
ATOM     14  O   UNL A   1      28.905  27.751  23.219  1.00  0.00    -0.380 OA
ATOM     15  C   UNL A   1      28.713  26.556  23.954  1.00  0.00     0.195 C 
ENDBRANCH  10  14
BRANCH  13  16
ATOM     16  C   UNL A   1      33.304  25.921  22.956  1.00  0.00     0.322 C 
ATOM     17  O   UNL A   1      33.886  26.018  21.866  1.00  0.00    -0.248 OA
ATOM     18  N   UNL A   1      33.860  25.029  23.809  1.00  0.00    -0.308 N 
ATOM     19  H   UNL A   1      34.790  24.835  23.550  1.00  0.00     0.171 HD
BRANCH  18  20
ATOM     20  C   UNL A   1      33.505  24.300  24.951  1.00  0.00     0.046 A 
ATOM     21  C   UNL A   1      32.142  24.044  25.156  1.00  0.00     0.029 A 
ATOM     22  C   UNL A   1      34.384  23.978  25.971  1.00  0.00     0.065 A 
ATOM     23  C   UNL A   1      31.692  23.303  26.264  1.00  0.00    -0.046 A 
ATOM     24  C   UNL A   1      33.955  23.195  27.044  1.00  0.00     0.125 A 
ATOM     25  C   UNL A   1      30.227  23.106  26.511  1.00  0.00     0.044 C 
ATOM     26  C   UNL A   1      32.627  22.827  27.184  1.00  0.00     0.042 A 
ATOM     27  F   UNL A   1      34.850  22.773  27.950  1.00  0.00    -0.207 F 
ENDBRANCH  18  20
ENDBRANCH  13  16
ENDBRANCH   6   9
ENDBRANCH   4   5
ENDBRANCH   3   4
ENDBRANCH   2   3
ENDBRANCH   1   2
BRANCH   1  28
ATOM     28  C   UNL A   1      35.598  32.164  27.769  1.00  0.00     0.021 C 
BRANCH  28  29
ATOM     29  C   UNL A   1      36.445  32.429  29.004  1.00  0.00     0.116 C 
BRANCH  29  30
ATOM     30  N   UNL A   1      36.017  31.613  30.128  1.00  0.00    -0.352 N 
ATOM     31  C   UNL A   1      36.615  30.481  30.619  1.00  0.00     0.251 C 
ATOM     32  H   UNL A   1      35.199  31.907  30.590  1.00  0.00     0.163 HD
ATOM     33  O   UNL A   1      36.038  29.765  31.422  1.00  0.00    -0.269 OA
BRANCH  31  34
ATOM     34  C   UNL A   1      37.966  30.146  30.131  1.00  0.00     0.039 A 
ATOM     35  C   UNL A   1      39.013  30.067  31.047  1.00  0.00     0.014 A 
ATOM     36  C   UNL A   1      38.175  29.869  28.775  1.00  0.00     0.014 A 
ATOM     37  C   UNL A   1      40.277  29.683  30.603  1.00  0.00     0.010 A 
ATOM     38  C   UNL A   1      39.412  29.402  28.353  1.00  0.00     0.010 A 
ATOM     39  C   UNL A   1      40.480  29.330  29.257  1.00  0.00    -0.014 A 
BRANCH  39  40
ATOM     40  C   UNL A   1      41.819  28.915  28.777  1.00  0.00     0.031 A 
ATOM     41  C   UNL A   1      42.927  29.927  28.682  1.00  0.00     0.074 A 
ATOM     42  C   UNL A   1      42.025  27.640  28.394  1.00  0.00     0.049 A 
ATOM     43  N   UNL A   1      44.162  29.763  28.281  1.00  0.00    -0.248 NA
ATOM     44  C   UNL A   1      42.600  31.312  29.060  1.00  0.00     0.031 C 
ATOM     45  C   UNL A   1      41.011  26.584  28.391  1.00  0.00     0.029 A 
ATOM     46  N   UNL A   1      43.156  27.018  27.934  1.00  0.00    -0.354 N 
ATOM     47  C   UNL A   1      44.752  31.019  28.351  1.00  0.00     0.074 A 
ATOM     48  C   UNL A   1      43.723  31.947  28.762  1.00  0.00     0.031 C 
ATOM     49  C   UNL A   1      41.574  25.438  27.976  1.00  0.00     0.029 A 
ATOM     50  C   UNL A   1      42.975  25.687  27.648  1.00  0.00     0.049 A 
ATOM     51  H   UNL A   1      44.018  27.481  27.818  1.00  0.00     0.167 HD
ATOM     52  C   UNL A   1      46.040  31.366  28.122  1.00  0.00     0.031 A 
ATOM     53  C   UNL A   1      43.837  24.769  27.170  1.00  0.00     0.031 A 
ATOM     54  C   UNL A   1      47.057  30.436  27.706  1.00  0.00     0.049 A 
ATOM     55  C   UNL A   1      45.262  25.173  26.914  1.00  0.00     0.074 A 
ATOM     56  C   UNL A   1      48.401  30.671  27.487  1.00  0.00     0.029 A 
ATOM     57  N   UNL A   1      46.836  29.092  27.440  1.00  0.00    -0.354 N 
ATOM     58  N   UNL A   1      45.821  26.352  27.056  1.00  0.00    -0.248 NA
ATOM     59  C   UNL A   1      46.177  24.121  26.454  1.00  0.00     0.031 C 
ATOM     60  C   UNL A   1      48.982  29.483  27.030  1.00  0.00     0.029 A 
ATOM     61  C   UNL A   1      48.014  28.489  27.035  1.00  0.00     0.049 A 
ATOM     62  H   UNL A   1      45.969  28.633  27.528  1.00  0.00     0.167 HD
ATOM     63  C   UNL A   1      47.160  26.178  26.724  1.00  0.00     0.074 A 
ATOM     64  C   UNL A   1      47.327  24.776  26.395  1.00  0.00     0.031 C 
ATOM     65  C   UNL A   1      48.161  27.094  26.698  1.00  0.00     0.031 A 
BRANCH  52  66
ATOM     66  C   UNL A   1      46.408  32.817  28.308  1.00  0.00    -0.014 A 
ATOM     67  C   UNL A   1      46.300  33.738  27.248  1.00  0.00     0.010 A 
ATOM     68  C   UNL A   1      46.870  33.268  29.557  1.00  0.00     0.010 A 
ATOM     69  C   UNL A   1      46.705  35.064  27.415  1.00  0.00     0.020 A 
ATOM     70  C   UNL A   1      47.241  34.604  29.739  1.00  0.00     0.020 A 
ATOM     71  C   UNL A   1      47.179  35.488  28.660  1.00  0.00     0.054 A 
BRANCH  71  72
ATOM     72  S   UNL A   1      47.702  37.214  28.848  1.00  0.00     0.124 S 
ATOM     73  O   UNL A   1      46.506  37.938  28.421  1.00  0.00    -0.237 OA
ATOM     74  O   UNL A   1      48.014  37.300  30.272  1.00  0.00    -0.237 OA
ATOM     75  O   UNL A   1      48.850  37.329  27.953  1.00  0.00    -0.744 OA
ENDBRANCH  71  72
ENDBRANCH  52  66
BRANCH  53  76
ATOM     76  C   UNL A   1      43.363  23.380  26.916  1.00  0.00    -0.014 A 
ATOM     77  C   UNL A   1      43.306  22.863  25.611  1.00  0.00     0.010 A 
ATOM     78  C   UNL A   1      43.011  22.550  27.996  1.00  0.00     0.010 A 
ATOM     79  C   UNL A   1      42.898  21.544  25.390  1.00  0.00     0.020 A 
ATOM     80  C   UNL A   1      42.631  21.223  27.783  1.00  0.00     0.020 A 
ATOM     81  C   UNL A   1      42.571  20.729  26.479  1.00  0.00     0.054 A 
BRANCH  81  82
ATOM     82  S   UNL A   1      42.119  18.999  26.173  1.00  0.00     0.124 S 
ATOM     83  O   UNL A   1      40.707  19.110  25.823  1.00  0.00    -0.237 OA
ATOM     84  O   UNL A   1      43.016  18.628  25.082  1.00  0.00    -0.237 OA
ATOM     85  O   UNL A   1      42.397  18.343  27.450  1.00  0.00    -0.744 OA
ENDBRANCH  81  82
ENDBRANCH  53  76
BRANCH  65  86
ATOM     86  C   UNL A   1      49.537  26.604  26.327  1.00  0.00    -0.014 A 
ATOM     87  C   UNL A   1      50.054  26.778  25.031  1.00  0.00     0.010 A 
ATOM     88  C   UNL A   1      50.343  26.002  27.311  1.00  0.00     0.010 A 
ATOM     89  C   UNL A   1      51.337  26.323  24.716  1.00  0.00     0.020 A 
ATOM     90  C   UNL A   1      51.639  25.575  27.009  1.00  0.00     0.020 A 
ATOM     91  C   UNL A   1      52.121  25.724  25.707  1.00  0.00     0.054 A 
BRANCH  91  92
ATOM     92  S   UNL A   1      53.794  25.170  25.280  1.00  0.00     0.124 S 
ATOM     93  O   UNL A   1      53.673  23.720  25.399  1.00  0.00    -0.237 OA
ATOM     94  O   UNL A   1      53.960  25.677  23.920  1.00  0.00    -0.237 OA
ATOM     95  O   UNL A   1      54.639  25.809  26.285  1.00  0.00    -0.744 OA
ENDBRANCH  91  92
ENDBRANCH  65  86
ENDBRANCH  39  40
ENDBRANCH  31  34
ENDBRANCH  29  30
ENDBRANCH  28  29
ENDBRANCH   1  28
TORSDOF 19
ENDMDL
MODEL 3
REMARK VINA RESULT:     -11.0      4.087      6.140
REMARK SMILES CO[C@H]1C[C@@H](C(=O)NCCCCCCNC(=O)c2ccc(-c3c4nc(c(-c5ccc(S(=O)(=O)[O-])cc5)c5ccc([nH]5)c(-c5ccc(S(=O)(=O)[O-])cc5)c5nc(c(-c6ccc(S(=O)(=O)[O-])cc6)c6ccc3[nH]6)C=C5)C=C4)cc2)N(C(=O)Nc2cc(C)cc(F)c2)C1
REMARK SMILES IDX 12 1 11 2 10 3 9 4 8 5 6 6 7 7 5 9 3 10 4 11 90 12 78 13
REMARK SMILES IDX 2 14 1 15 79 16 80 17 81 18 82 20 83 21 89 22 84 23 87 24
REMARK SMILES IDX 85 25 86 26 88 27 13 28 14 29 15 30 16 31 17 33 18 34 19 35
REMARK SMILES IDX 77 36 20 37 76 38 21 39 22 40 23 41 70 42 24 43 75 44 69 45
REMARK SMILES IDX 71 46 25 47 74 48 68 49 67 50 26 52 56 53 37 54 55 55 38 56
REMARK SMILES IDX 41 57 54 58 72 59 39 60 40 61 53 63 73 64 42 65 27 66 28 67
REMARK SMILES IDX 36 68 29 69 35 70 30 71 31 72 32 73 33 74 34 75 57 76 58 77
REMARK SMILES IDX 66 78 59 79 65 80 60 81 61 82 62 83 63 84 64 85 43 86 44 87
REMARK SMILES IDX 52 88 45 89 51 90 46 91 47 92 48 93 49 94 50 95
REMARK H PARENT 8 8 81 19 15 32 71 51 41 62
REMARK Flexibility Score: inf
ROOT
ATOM      1  C   UNL A   1      34.807  22.366  25.722  1.00  0.00     0.002 C 
ENDROOT
BRANCH   1   2
ATOM      2  C   UNL A   1      33.338  22.334  26.152  1.00  0.00     0.002 C 
BRANCH   2   3
ATOM      3  C   UNL A   1      32.893  23.589  26.922  1.00  0.00     0.021 C 
BRANCH   3   4
ATOM      4  C   UNL A   1      31.707  24.286  26.259  1.00  0.00     0.116 C 
BRANCH   4   5
ATOM      5  N   UNL A   1      32.011  25.695  26.223  1.00  0.00    -0.354 N 
ATOM      6  C   UNL A   1      32.670  26.305  25.193  1.00  0.00     0.242 C 
ATOM      7  O   UNL A   1      33.749  26.856  25.402  1.00  0.00    -0.273 OA
ATOM      8  H   UNL A   1      31.727  26.250  26.983  1.00  0.00     0.163 HD
BRANCH   6   9
ATOM      9  C   UNL A   1      31.942  26.306  23.859  1.00  0.00     0.179 C 
ATOM     10  C   UNL A   1      32.574  24.919  21.949  1.00  0.00     0.140 C 
ATOM     11  C   UNL A   1      31.989  24.866  23.346  1.00  0.00     0.069 C 
ATOM     12  C   UNL A   1      33.244  26.289  21.858  1.00  0.00     0.154 C 
ATOM     13  N   UNL A   1      32.662  27.134  22.896  1.00  0.00    -0.310 N 
BRANCH  10  14
ATOM     14  O   UNL A   1      33.531  23.864  21.846  1.00  0.00    -0.380 OA
ATOM     15  C   UNL A   1      33.061  22.621  22.339  1.00  0.00     0.195 C 
ENDBRANCH  10  14
BRANCH  13  16
ATOM     16  C   UNL A   1      32.795  28.486  22.776  1.00  0.00     0.322 C 
ATOM     17  O   UNL A   1      33.909  29.012  22.906  1.00  0.00    -0.248 OA
ATOM     18  N   UNL A   1      31.829  29.324  22.330  1.00  0.00    -0.308 N 
ATOM     19  H   UNL A   1      32.229  30.113  21.898  1.00  0.00     0.171 HD
BRANCH  18  20
ATOM     20  C   UNL A   1      30.432  29.400  22.300  1.00  0.00     0.046 A 
ATOM     21  C   UNL A   1      29.857  30.456  21.580  1.00  0.00     0.029 A 
ATOM     22  C   UNL A   1      29.595  28.617  23.077  1.00  0.00     0.065 A 
ATOM     23  C   UNL A   1      28.461  30.602  21.478  1.00  0.00    -0.046 A 
ATOM     24  C   UNL A   1      28.209  28.718  22.938  1.00  0.00     0.125 A 
ATOM     25  C   UNL A   1      27.863  31.780  20.771  1.00  0.00     0.044 C 
ATOM     26  C   UNL A   1      27.635  29.681  22.122  1.00  0.00     0.042 A 
ATOM     27  F   UNL A   1      27.417  27.857  23.592  1.00  0.00    -0.207 F 
ENDBRANCH  18  20
ENDBRANCH  13  16
ENDBRANCH   6   9
ENDBRANCH   4   5
ENDBRANCH   3   4
ENDBRANCH   2   3
ENDBRANCH   1   2
BRANCH   1  28
ATOM     28  C   UNL A   1      35.239  23.710  25.138  1.00  0.00     0.021 C 
BRANCH  28  29
ATOM     29  C   UNL A   1      36.636  24.129  25.570  1.00  0.00     0.116 C 
BRANCH  29  30
ATOM     30  N   UNL A   1      37.519  22.982  25.701  1.00  0.00    -0.352 N 
ATOM     31  C   UNL A   1      38.803  22.962  26.181  1.00  0.00     0.251 C 
ATOM     32  H   UNL A   1      37.150  22.117  25.410  1.00  0.00     0.163 HD
ATOM     33  O   UNL A   1      39.513  21.980  26.033  1.00  0.00    -0.269 OA
BRANCH  31  34
ATOM     34  C   UNL A   1      39.306  24.170  26.860  1.00  0.00     0.039 A 
ATOM     35  C   UNL A   1      40.055  25.092  26.131  1.00  0.00     0.014 A 
ATOM     36  C   UNL A   1      38.992  24.403  28.204  1.00  0.00     0.014 A 
ATOM     37  C   UNL A   1      40.474  26.268  26.749  1.00  0.00     0.010 A 
ATOM     38  C   UNL A   1      39.335  25.614  28.790  1.00  0.00     0.010 A 
ATOM     39  C   UNL A   1      40.100  26.546  28.076  1.00  0.00    -0.014 A 
BRANCH  39  40
ATOM     40  C   UNL A   1      40.536  27.797  28.739  1.00  0.00     0.031 A 
ATOM     41  C   UNL A   1      41.919  27.893  29.322  1.00  0.00     0.074 A 
ATOM     42  C   UNL A   1      39.676  28.828  28.849  1.00  0.00     0.049 A 
ATOM     43  N   UNL A   1      42.483  28.896  29.945  1.00  0.00    -0.248 NA
ATOM     44  C   UNL A   1      42.773  26.698  29.215  1.00  0.00     0.031 C 
ATOM     45  C   UNL A   1      38.292  28.830  28.371  1.00  0.00     0.029 A 
ATOM     46  N   UNL A   1      39.841  30.073  29.397  1.00  0.00    -0.354 N 
ATOM     47  C   UNL A   1      43.748  28.450  30.310  1.00  0.00     0.074 A 
ATOM     48  C   UNL A   1      43.842  27.066  29.903  1.00  0.00     0.031 C 
ATOM     49  C   UNL A   1      37.743  30.029  28.623  1.00  0.00     0.029 A 
ATOM     50  C   UNL A   1      38.722  30.865  29.313  1.00  0.00     0.049 A 
ATOM     51  H   UNL A   1      40.682  30.373  29.814  1.00  0.00     0.167 HD
ATOM     52  C   UNL A   1      44.752  29.138  30.903  1.00  0.00     0.031 A 
ATOM     53  C   UNL A   1      38.503  32.121  29.747  1.00  0.00     0.031 A 
ATOM     54  C   UNL A   1      44.647  30.514  31.310  1.00  0.00     0.049 A 
ATOM     55  C   UNL A   1      39.627  32.867  30.410  1.00  0.00     0.074 A 
ATOM     56  C   UNL A   1      45.615  31.319  31.881  1.00  0.00     0.029 A 
ATOM     57  N   UNL A   1      43.499  31.286  31.195  1.00  0.00    -0.354 N 
ATOM     58  N   UNL A   1      40.842  32.453  30.682  1.00  0.00    -0.248 NA
ATOM     59  C   UNL A   1      39.357  34.254  30.808  1.00  0.00     0.031 C 
ATOM     60  C   UNL A   1      45.035  32.560  32.167  1.00  0.00     0.029 A 
ATOM     61  C   UNL A   1      43.726  32.552  31.708  1.00  0.00     0.049 A 
ATOM     62  H   UNL A   1      42.649  30.979  30.806  1.00  0.00     0.167 HD
ATOM     63  C   UNL A   1      41.491  33.538  31.262  1.00  0.00     0.074 A 
ATOM     64  C   UNL A   1      40.537  34.629  31.282  1.00  0.00     0.031 C 
ATOM     65  C   UNL A   1      42.761  33.624  31.732  1.00  0.00     0.031 A 
BRANCH  52  66
ATOM     66  C   UNL A   1      46.042  28.397  31.152  1.00  0.00    -0.014 A 
ATOM     67  C   UNL A   1      46.249  27.675  32.343  1.00  0.00     0.010 A 
ATOM     68  C   UNL A   1      47.063  28.424  30.186  1.00  0.00     0.010 A 
ATOM     69  C   UNL A   1      47.473  27.048  32.590  1.00  0.00     0.020 A 
ATOM     70  C   UNL A   1      48.276  27.766  30.413  1.00  0.00     0.020 A 
ATOM     71  C   UNL A   1      48.481  27.102  31.624  1.00  0.00     0.054 A 
BRANCH  71  72
ATOM     72  S   UNL A   1      50.062  26.282  31.973  1.00  0.00     0.124 S 
ATOM     73  O   UNL A   1      49.639  24.903  32.203  1.00  0.00    -0.237 OA
ATOM     74  O   UNL A   1      50.818  26.511  30.744  1.00  0.00    -0.237 OA
ATOM     75  O   UNL A   1      50.564  26.984  33.151  1.00  0.00    -0.744 OA
ENDBRANCH  71  72
ENDBRANCH  52  66
BRANCH  53  76
ATOM     76  C   UNL A   1      37.164  32.742  29.552  1.00  0.00    -0.014 A 
ATOM     77  C   UNL A   1      36.145  32.578  30.506  1.00  0.00     0.010 A 
ATOM     78  C   UNL A   1      36.920  33.545  28.423  1.00  0.00     0.010 A 
ATOM     79  C   UNL A   1      34.905  33.200  30.330  1.00  0.00     0.020 A 
ATOM     80  C   UNL A   1      35.693  34.192  28.258  1.00  0.00     0.020 A 
ATOM     81  C   UNL A   1      34.690  34.010  29.211  1.00  0.00     0.054 A 
BRANCH  81  82
ATOM     82  S   UNL A   1      33.100  34.868  29.044  1.00  0.00     0.124 S 
ATOM     83  O   UNL A   1      33.514  36.188  28.579  1.00  0.00    -0.237 OA
ATOM     84  O   UNL A   1      32.399  34.042  28.064  1.00  0.00    -0.237 OA
ATOM     85  O   UNL A   1      32.544  34.825  30.395  1.00  0.00    -0.744 OA
ENDBRANCH  81  82
ENDBRANCH  53  76
BRANCH  65  86
ATOM     86  C   UNL A   1      43.206  34.954  32.283  1.00  0.00    -0.014 A 
ATOM     87  C   UNL A   1      43.032  35.283  33.639  1.00  0.00     0.010 A 
ATOM     88  C   UNL A   1      43.854  35.871  31.433  1.00  0.00     0.010 A 
ATOM     89  C   UNL A   1      43.462  36.519  34.126  1.00  0.00     0.020 A 
ATOM     90  C   UNL A   1      44.314  37.095  31.924  1.00  0.00     0.020 A 
ATOM     91  C   UNL A   1      44.100  37.418  33.266  1.00  0.00     0.054 A 
BRANCH  91  92
ATOM     92  S   UNL A   1      44.676  39.003  33.931  1.00  0.00     0.124 S 
ATOM     93  O   UNL A   1      43.435  39.769  34.008  1.00  0.00    -0.237 OA
ATOM     94  O   UNL A   1      45.259  38.618  35.214  1.00  0.00    -0.237 OA
ATOM     95  O   UNL A   1      45.635  39.471  32.933  1.00  0.00    -0.744 OA
ENDBRANCH  91  92
ENDBRANCH  65  86
ENDBRANCH  39  40
ENDBRANCH  31  34
ENDBRANCH  29  30
ENDBRANCH  28  29
ENDBRANCH   1  28
TORSDOF 19
ENDMDL
