MODEL 1
REMARK VINA RESULT:     -12.5      0.000      0.000
REMARK SMILES O=C(Cn1c2ccccc2c(=O)c2ccccc21)N[C@@H](Cc1ccccc1)C(=O)NCCCCCCNC(=O)c1ccc(-c2c3nc(c(-c4ccc(S(=O)(=O)[O-])cc4)c4ccc([nH]4)c(-c4ccc(S(=O)(=O)[O-])cc4)c4nc(c(-c5ccc(S(=O)(=O)[O-])cc5)c5ccc2[nH]5)C=C4)C=C3)cc1
REMARK SMILES IDX 33 1 32 2 31 3 30 4 28 5 29 6 20 8 19 9 1 10 2 11 3 13 4 14
REMARK SMILES IDX 5 15 18 16 6 17 10 18 13 19 17 20 7 21 9 22 11 23 14 24
REMARK SMILES IDX 16 25 8 26 12 27 15 28 21 29 22 30 23 31 27 32 24 33 26 34
REMARK SMILES IDX 25 35 34 36 35 37 36 38 37 39 38 40 39 42 40 43 41 44 99 45
REMARK SMILES IDX 42 46 98 47 43 48 44 49 45 50 92 51 46 52 97 53 91 54 93 55
REMARK SMILES IDX 47 56 96 57 90 58 89 59 48 61 78 62 59 63 77 64 60 65 63 66
REMARK SMILES IDX 76 67 94 68 61 69 62 70 75 72 95 73 64 74 49 75 50 76 58 77
REMARK SMILES IDX 51 78 57 79 52 80 53 81 54 82 55 83 56 84 79 85 80 86 88 87
REMARK SMILES IDX 81 88 87 89 82 90 83 91 84 92 85 93 86 94 65 95 66 96 74 97
REMARK SMILES IDX 67 98 73 99 68 100 69 101 70 102 71 103 72 104
REMARK H PARENT 30 7 19 12 37 41 93 60 63 71
REMARK Flexibility Score: inf
ROOT
ATOM      1  C   UNL A   1      33.269  30.204  27.155  1.00  0.00     0.002 C 
ENDROOT
BRANCH   1   2
ATOM      2  C   UNL A   1      33.044  28.737  26.792  1.00  0.00     0.021 C 
BRANCH   2   3
ATOM      3  C   UNL A   1      31.601  28.291  26.627  1.00  0.00     0.116 C 
BRANCH   3   4
ATOM      4  N   UNL A   1      31.347  26.938  27.063  1.00  0.00    -0.354 N 
ATOM      5  C   UNL A   1      31.393  25.772  26.357  1.00  0.00     0.242 C 
ATOM      6  O   UNL A   1      31.441  24.730  27.023  1.00  0.00    -0.273 OA
ATOM      7  H   UNL A   1      31.106  26.843  28.013  1.00  0.00     0.163 HD
BRANCH   5   8
ATOM      8  C   UNL A   1      31.442  25.705  24.806  1.00  0.00     0.175 C 
BRANCH   8   9
ATOM      9  N   UNL A   1      32.415  24.740  24.260  1.00  0.00    -0.342 N 
ATOM     10  O   UNL A   1      34.250  25.820  25.099  1.00  0.00    -0.273 OA
ATOM     11  C   UNL A   1      33.780  24.903  24.420  1.00  0.00     0.240 C 
ATOM     12  H   UNL A   1      32.083  23.956  23.766  1.00  0.00     0.164 HD
BRANCH  11  13
ATOM     13  C   UNL A   1      34.712  24.010  23.576  1.00  0.00     0.222 C 
BRANCH  13  14
ATOM     14  N   UNL A   1      35.225  22.801  24.262  1.00  0.00    -0.331 N 
ATOM     15  C   UNL A   1      36.470  22.853  24.930  1.00  0.00     0.053 A 
ATOM     16  C   UNL A   1      34.422  21.633  24.356  1.00  0.00     0.053 A 
ATOM     17  C   UNL A   1      37.049  24.039  25.405  1.00  0.00     0.027 A 
ATOM     18  C   UNL A   1      37.142  21.654  25.240  1.00  0.00     0.046 A 
ATOM     19  C   UNL A   1      35.028  20.407  24.707  1.00  0.00     0.046 A 
ATOM     20  C   UNL A   1      33.022  21.621  24.253  1.00  0.00     0.027 A 
ATOM     21  C   UNL A   1      38.240  24.025  26.140  1.00  0.00     0.002 A 
ATOM     22  C   UNL A   1      38.353  21.632  25.939  1.00  0.00     0.014 A 
ATOM     23  C   UNL A   1      36.487  20.372  24.918  1.00  0.00     0.197 A 
ATOM     24  C   UNL A   1      34.291  19.239  24.956  1.00  0.00     0.014 A 
ATOM     25  C   UNL A   1      32.275  20.462  24.521  1.00  0.00     0.002 A 
ATOM     26  C   UNL A   1      38.891  22.824  26.405  1.00  0.00     0.001 A 
ATOM     27  O   UNL A   1      37.112  19.318  24.912  1.00  0.00    -0.288 OA
ATOM     28  C   UNL A   1      32.906  19.274  24.878  1.00  0.00     0.001 A 
ENDBRANCH  13  14
ENDBRANCH  11  13
ENDBRANCH   8   9
BRANCH   8  29
ATOM     29  C   UNL A   1      30.065  25.703  24.087  1.00  0.00     0.070 C 
BRANCH  29  30
ATOM     30  C   UNL A   1      29.485  27.004  23.575  1.00  0.00    -0.045 A 
ATOM     31  C   UNL A   1      28.105  27.249  23.671  1.00  0.00     0.004 A 
ATOM     32  C   UNL A   1      30.299  27.992  23.003  1.00  0.00     0.004 A 
ATOM     33  C   UNL A   1      27.549  28.418  23.146  1.00  0.00     0.000 A 
ATOM     34  C   UNL A   1      29.739  29.151  22.456  1.00  0.00     0.000 A 
ATOM     35  C   UNL A   1      28.363  29.360  22.521  1.00  0.00     0.000 A 
ENDBRANCH  29  30
ENDBRANCH   8  29
ENDBRANCH   5   8
ENDBRANCH   3   4
ENDBRANCH   2   3
ENDBRANCH   1   2
BRANCH   1  36
ATOM     36  C   UNL A   1      34.654  30.569  27.708  1.00  0.00     0.002 C 
BRANCH  36  37
ATOM     37  C   UNL A   1      34.891  32.034  28.089  1.00  0.00     0.021 C 
BRANCH  37  38
ATOM     38  C   UNL A   1      35.835  32.287  29.261  1.00  0.00     0.116 C 
BRANCH  38  39
ATOM     39  N   UNL A   1      35.689  31.338  30.351  1.00  0.00    -0.352 N 
ATOM     40  C   UNL A   1      36.539  30.360  30.813  1.00  0.00     0.251 C 
ATOM     41  H   UNL A   1      34.839  31.407  30.842  1.00  0.00     0.163 HD
ATOM     42  O   UNL A   1      36.160  29.612  31.712  1.00  0.00    -0.269 OA
BRANCH  40  43
ATOM     43  C   UNL A   1      37.880  30.162  30.213  1.00  0.00     0.039 A 
ATOM     44  C   UNL A   1      38.061  30.031  28.835  1.00  0.00     0.014 A 
ATOM     45  C   UNL A   1      38.992  30.118  31.061  1.00  0.00     0.014 A 
ATOM     46  C   UNL A   1      39.311  29.676  28.330  1.00  0.00     0.010 A 
ATOM     47  C   UNL A   1      40.263  29.843  30.542  1.00  0.00     0.010 A 
ATOM     48  C   UNL A   1      40.425  29.559  29.179  1.00  0.00    -0.014 A 
BRANCH  48  49
ATOM     49  C   UNL A   1      41.738  29.117  28.630  1.00  0.00     0.031 A 
ATOM     50  C   UNL A   1      42.907  30.070  28.573  1.00  0.00     0.074 A 
ATOM     51  C   UNL A   1      41.902  27.839  28.232  1.00  0.00     0.049 A 
ATOM     52  N   UNL A   1      44.133  29.841  28.175  1.00  0.00    -0.248 NA
ATOM     53  C   UNL A   1      42.674  31.453  29.019  1.00  0.00     0.031 C 
ATOM     54  C   UNL A   1      40.857  26.814  28.248  1.00  0.00     0.029 A 
ATOM     55  N   UNL A   1      43.011  27.175  27.765  1.00  0.00    -0.354 N 
ATOM     56  C   UNL A   1      44.813  31.047  28.312  1.00  0.00     0.074 A 
ATOM     57  C   UNL A   1      43.854  32.016  28.795  1.00  0.00     0.031 C 
ATOM     58  C   UNL A   1      41.387  25.641  27.868  1.00  0.00     0.029 A 
ATOM     59  C   UNL A   1      42.792  25.839  27.522  1.00  0.00     0.049 A 
ATOM     60  H   UNL A   1      43.879  27.615  27.618  1.00  0.00     0.167 HD
ATOM     61  C   UNL A   1      46.118  31.320  28.076  1.00  0.00     0.031 A 
ATOM     62  C   UNL A   1      43.620  24.874  27.071  1.00  0.00     0.031 A 
ATOM     63  C   UNL A   1      47.075  30.353  27.606  1.00  0.00     0.049 A 
ATOM     64  C   UNL A   1      45.055  25.209  26.776  1.00  0.00     0.074 A 
ATOM     65  C   UNL A   1      48.425  30.537  27.357  1.00  0.00     0.029 A 
ATOM     66  N   UNL A   1      46.796  29.025  27.318  1.00  0.00    -0.354 N 
ATOM     67  N   UNL A   1      45.678  26.353  26.930  1.00  0.00    -0.248 NA
ATOM     68  C   UNL A   1      45.902  24.127  26.256  1.00  0.00     0.031 C 
ATOM     69  C   UNL A   1      48.947  29.342  26.861  1.00  0.00     0.029 A 
ATOM     70  C   UNL A   1      47.942  28.388  26.872  1.00  0.00     0.049 A 
ATOM     71  H   UNL A   1      45.914  28.599  27.417  1.00  0.00     0.167 HD
ATOM     72  C   UNL A   1      46.992  26.125  26.538  1.00  0.00     0.074 A 
ATOM     73  C   UNL A   1      47.081  24.730  26.161  1.00  0.00     0.031 C 
ATOM     74  C   UNL A   1      48.028  26.999  26.495  1.00  0.00     0.031 A 
BRANCH  61  75
ATOM     75  C   UNL A   1      46.614  32.722  28.328  1.00  0.00    -0.014 A 
ATOM     76  C   UNL A   1      46.678  33.643  27.265  1.00  0.00     0.010 A 
ATOM     77  C   UNL A   1      47.134  33.090  29.582  1.00  0.00     0.010 A 
ATOM     78  C   UNL A   1      47.280  34.892  27.442  1.00  0.00     0.020 A 
ATOM     79  C   UNL A   1      47.710  34.349  29.771  1.00  0.00     0.020 A 
ATOM     80  C   UNL A   1      47.801  35.233  28.693  1.00  0.00     0.054 A 
BRANCH  80  81
ATOM     81  S   UNL A   1      48.601  36.849  28.900  1.00  0.00     0.124 S 
ATOM     82  O   UNL A   1      49.213  37.059  27.592  1.00  0.00    -0.237 OA
ATOM     83  O   UNL A   1      47.476  37.724  29.220  1.00  0.00    -0.237 OA
ATOM     84  O   UNL A   1      49.536  36.626  30.001  1.00  0.00    -0.744 OA
ENDBRANCH  80  81
ENDBRANCH  61  75
BRANCH  62  85
ATOM     85  C   UNL A   1      43.096  23.489  26.911  1.00  0.00    -0.014 A 
ATOM     86  C   UNL A   1      43.200  22.563  27.967  1.00  0.00     0.010 A 
ATOM     87  C   UNL A   1      42.576  23.061  25.678  1.00  0.00     0.010 A 
ATOM     88  C   UNL A   1      42.860  21.222  27.772  1.00  0.00     0.020 A 
ATOM     89  C   UNL A   1      42.204  21.726  25.488  1.00  0.00     0.020 A 
ATOM     90  C   UNL A   1      42.380  20.810  26.526  1.00  0.00     0.054 A 
BRANCH  90  91
ATOM     91  S   UNL A   1      42.012  19.051  26.274  1.00  0.00     0.124 S 
ATOM     92  O   UNL A   1      43.042  18.668  25.311  1.00  0.00    -0.237 OA
ATOM     93  O   UNL A   1      42.166  18.496  27.615  1.00  0.00    -0.237 OA
ATOM     94  O   UNL A   1      40.646  19.059  25.758  1.00  0.00    -0.744 OA
ENDBRANCH  90  91
ENDBRANCH  62  85
BRANCH  74  95
ATOM     95  C   UNL A   1      49.369  26.495  26.028  1.00  0.00    -0.014 A 
ATOM     96  C   UNL A   1      50.205  25.804  26.927  1.00  0.00     0.010 A 
ATOM     97  C   UNL A   1      49.859  26.817  24.750  1.00  0.00     0.010 A 
ATOM     98  C   UNL A   1      51.515  25.475  26.570  1.00  0.00     0.020 A 
ATOM     99  C   UNL A   1      51.160  26.463  24.379  1.00  0.00     0.020 A 
ATOM    100  C   UNL A   1      51.987  25.817  25.301  1.00  0.00     0.054 A 
BRANCH 100 101
ATOM    101  S   UNL A   1      53.702  25.411  24.867  1.00  0.00     0.124 S 
ATOM    102  O   UNL A   1      53.660  23.955  24.778  1.00  0.00    -0.237 OA
ATOM    103  O   UNL A   1      53.888  26.115  23.600  1.00  0.00    -0.237 OA
ATOM    104  O   UNL A   1      54.473  25.947  25.986  1.00  0.00    -0.744 OA
ENDBRANCH 100 101
ENDBRANCH  74  95
ENDBRANCH  48  49
ENDBRANCH  40  43
ENDBRANCH  38  39
ENDBRANCH  37  38
ENDBRANCH  36  37
ENDBRANCH   1  36
TORSDOF 21
ENDMDL
MODEL 2
REMARK VINA RESULT:     -11.4      0.603      7.672
REMARK SMILES O=C(Cn1c2ccccc2c(=O)c2ccccc21)N[C@@H](Cc1ccccc1)C(=O)NCCCCCCNC(=O)c1ccc(-c2c3nc(c(-c4ccc(S(=O)(=O)[O-])cc4)c4ccc([nH]4)c(-c4ccc(S(=O)(=O)[O-])cc4)c4nc(c(-c5ccc(S(=O)(=O)[O-])cc5)c5ccc2[nH]5)C=C4)C=C3)cc1
REMARK SMILES IDX 33 1 32 2 31 3 30 4 28 5 29 6 20 8 19 9 1 10 2 11 3 13 4 14
REMARK SMILES IDX 5 15 18 16 6 17 10 18 13 19 17 20 7 21 9 22 11 23 14 24
REMARK SMILES IDX 16 25 8 26 12 27 15 28 21 29 22 30 23 31 27 32 24 33 26 34
REMARK SMILES IDX 25 35 34 36 35 37 36 38 37 39 38 40 39 42 40 43 41 44 99 45
REMARK SMILES IDX 42 46 98 47 43 48 44 49 45 50 92 51 46 52 97 53 91 54 93 55
REMARK SMILES IDX 47 56 96 57 90 58 89 59 48 61 78 62 59 63 77 64 60 65 63 66
REMARK SMILES IDX 76 67 94 68 61 69 62 70 75 72 95 73 64 74 49 75 50 76 58 77
REMARK SMILES IDX 51 78 57 79 52 80 53 81 54 82 55 83 56 84 79 85 80 86 88 87
REMARK SMILES IDX 81 88 87 89 82 90 83 91 84 92 85 93 86 94 65 95 66 96 74 97
REMARK SMILES IDX 67 98 73 99 68 100 69 101 70 102 71 103 72 104
REMARK H PARENT 30 7 19 12 37 41 93 60 63 71
REMARK Flexibility Score: inf
ROOT
ATOM      1  C   UNL A   1      33.458  29.925  27.456  1.00  0.00     0.002 C 
ENDROOT
BRANCH   1   2
ATOM      2  C   UNL A   1      33.396  28.432  27.139  1.00  0.00     0.021 C 
BRANCH   2   3
ATOM      3  C   UNL A   1      32.110  27.923  26.510  1.00  0.00     0.116 C 
BRANCH   3   4
ATOM      4  N   UNL A   1      31.638  26.674  27.057  1.00  0.00    -0.354 N 
ATOM      5  C   UNL A   1      31.445  25.471  26.443  1.00  0.00     0.242 C 
ATOM      6  O   UNL A   1      31.335  24.489  27.188  1.00  0.00    -0.273 OA
ATOM      7  H   UNL A   1      31.424  26.693  28.018  1.00  0.00     0.163 HD
BRANCH   5   8
ATOM      8  C   UNL A   1      31.417  25.284  24.902  1.00  0.00     0.175 C 
BRANCH   8   9
ATOM      9  N   UNL A   1      32.359  24.275  24.385  1.00  0.00    -0.342 N 
ATOM     10  O   UNL A   1      34.008  25.782  23.893  1.00  0.00    -0.273 OA
ATOM     11  C   UNL A   1      33.596  24.620  23.869  1.00  0.00     0.240 C 
ATOM     12  H   UNL A   1      32.100  23.325  24.406  1.00  0.00     0.164 HD
BRANCH  11  13
ATOM     13  C   UNL A   1      34.378  23.539  23.097  1.00  0.00     0.222 C 
BRANCH  13  14
ATOM     14  N   UNL A   1      34.946  22.451  23.929  1.00  0.00    -0.331 N 
ATOM     15  C   UNL A   1      36.156  22.667  24.629  1.00  0.00     0.053 A 
ATOM     16  C   UNL A   1      34.225  21.243  24.122  1.00  0.00     0.053 A 
ATOM     17  C   UNL A   1      36.628  23.937  24.991  1.00  0.00     0.027 A 
ATOM     18  C   UNL A   1      36.897  21.561  25.091  1.00  0.00     0.046 A 
ATOM     19  C   UNL A   1      34.901  20.110  24.626  1.00  0.00     0.046 A 
ATOM     20  C   UNL A   1      32.835  21.115  23.973  1.00  0.00     0.027 A 
ATOM     21  C   UNL A   1      37.785  24.091  25.764  1.00  0.00     0.002 A 
ATOM     22  C   UNL A   1      38.076  21.706  25.829  1.00  0.00     0.014 A 
ATOM     23  C   UNL A   1      36.349  20.208  24.889  1.00  0.00     0.197 A 
ATOM     24  C   UNL A   1      34.239  18.923  24.975  1.00  0.00     0.014 A 
ATOM     25  C   UNL A   1      32.161  19.938  24.340  1.00  0.00     0.002 A 
ATOM     26  C   UNL A   1      38.508  22.978  26.180  1.00  0.00     0.001 A 
ATOM     27  O   UNL A   1      37.047  19.208  25.020  1.00  0.00    -0.288 OA
ATOM     28  C   UNL A   1      32.859  18.846  24.846  1.00  0.00     0.001 A 
ENDBRANCH  13  14
ENDBRANCH  11  13
ENDBRANCH   8   9
BRANCH   8  29
ATOM     29  C   UNL A   1      30.005  25.235  24.255  1.00  0.00     0.070 C 
BRANCH  29  30
ATOM     30  C   UNL A   1      29.365  26.512  23.755  1.00  0.00    -0.045 A 
ATOM     31  C   UNL A   1      30.150  27.505  23.145  1.00  0.00     0.004 A 
ATOM     32  C   UNL A   1      27.985  26.734  23.876  1.00  0.00     0.004 A 
ATOM     33  C   UNL A   1      29.580  28.713  22.736  1.00  0.00     0.000 A 
ATOM     34  C   UNL A   1      27.420  27.953  23.488  1.00  0.00     0.000 A 
ATOM     35  C   UNL A   1      28.220  28.946  22.925  1.00  0.00     0.000 A 
ENDBRANCH  29  30
ENDBRANCH   8  29
ENDBRANCH   5   8
ENDBRANCH   3   4
ENDBRANCH   2   3
ENDBRANCH   1   2
BRANCH   1  36
ATOM     36  C   UNL A   1      34.846  30.580  27.405  1.00  0.00     0.002 C 
BRANCH  36  37
ATOM     37  C   UNL A   1      34.952  32.034  27.876  1.00  0.00     0.021 C 
BRANCH  37  38
ATOM     38  C   UNL A   1      36.064  32.346  28.874  1.00  0.00     0.116 C 
BRANCH  38  39
ATOM     39  N   UNL A   1      35.810  31.847  30.214  1.00  0.00    -0.352 N 
ATOM     40  C   UNL A   1      36.510  30.953  30.990  1.00  0.00     0.251 C 
ATOM     41  H   UNL A   1      35.000  32.211  30.639  1.00  0.00     0.163 HD
ATOM     42  O   UNL A   1      36.051  30.616  32.080  1.00  0.00    -0.269 OA
BRANCH  40  43
ATOM     43  C   UNL A   1      37.779  30.354  30.514  1.00  0.00     0.039 A 
ATOM     44  C   UNL A   1      38.718  29.816  31.396  1.00  0.00     0.014 A 
ATOM     45  C   UNL A   1      38.031  30.324  29.138  1.00  0.00     0.014 A 
ATOM     46  C   UNL A   1      39.968  29.420  30.922  1.00  0.00     0.010 A 
ATOM     47  C   UNL A   1      39.256  29.850  28.656  1.00  0.00     0.010 A 
ATOM     48  C   UNL A   1      40.261  29.450  29.548  1.00  0.00    -0.014 A 
BRANCH  48  49
ATOM     49  C   UNL A   1      41.624  29.085  29.068  1.00  0.00     0.031 A 
ATOM     50  C   UNL A   1      41.908  27.698  28.545  1.00  0.00     0.074 A 
ATOM     51  C   UNL A   1      42.599  30.016  29.047  1.00  0.00     0.049 A 
ATOM     52  N   UNL A   1      43.020  27.223  28.041  1.00  0.00    -0.248 NA
ATOM     53  C   UNL A   1      40.810  26.720  28.590  1.00  0.00     0.031 C 
ATOM     54  C   UNL A   1      42.452  31.396  29.511  1.00  0.00     0.029 A 
ATOM     55  N   UNL A   1      43.895  29.954  28.594  1.00  0.00    -0.354 N 
ATOM     56  C   UNL A   1      42.758  25.895  27.720  1.00  0.00     0.074 A 
ATOM     57  C   UNL A   1      41.395  25.627  28.120  1.00  0.00     0.031 C 
ATOM     58  C   UNL A   1      43.589  32.065  29.266  1.00  0.00     0.029 A 
ATOM     59  C   UNL A   1      44.568  31.150  28.685  1.00  0.00     0.049 A 
ATOM     60  H   UNL A   1      44.303  29.132  28.239  1.00  0.00     0.167 HD
ATOM     61  C   UNL A   1      43.571  24.986  27.130  1.00  0.00     0.031 A 
ATOM     62  C   UNL A   1      45.830  31.485  28.343  1.00  0.00     0.031 A 
ATOM     63  C   UNL A   1      44.925  25.257  26.722  1.00  0.00     0.049 A 
ATOM     64  C   UNL A   1      46.728  30.449  27.727  1.00  0.00     0.074 A 
ATOM     65  C   UNL A   1      45.817  24.399  26.098  1.00  0.00     0.029 A 
ATOM     66  N   UNL A   1      45.585  26.465  26.886  1.00  0.00    -0.354 N 
ATOM     67  N   UNL A   1      46.453  29.204  27.419  1.00  0.00    -0.248 NA
ATOM     68  C   UNL A   1      48.102  30.860  27.407  1.00  0.00     0.031 C 
ATOM     69  C   UNL A   1      47.033  25.068  25.943  1.00  0.00     0.029 A 
ATOM     70  C   UNL A   1      46.878  26.367  26.398  1.00  0.00     0.049 A 
ATOM     71  H   UNL A   1      45.192  27.273  27.289  1.00  0.00     0.167 HD
ATOM     72  C   UNL A   1      47.614  28.687  26.855  1.00  0.00     0.074 A 
ATOM     73  C   UNL A   1      48.588  29.758  26.846  1.00  0.00     0.031 C 
ATOM     74  C   UNL A   1      47.847  27.435  26.391  1.00  0.00     0.031 A 
BRANCH  61  75
ATOM     75  C   UNL A   1      43.031  23.603  26.871  1.00  0.00    -0.014 A 
ATOM     76  C   UNL A   1      42.688  22.771  27.953  1.00  0.00     0.010 A 
ATOM     77  C   UNL A   1      42.981  23.079  25.566  1.00  0.00     0.010 A 
ATOM     78  C   UNL A   1      42.336  21.434  27.740  1.00  0.00     0.020 A 
ATOM     79  C   UNL A   1      42.602  21.752  25.346  1.00  0.00     0.020 A 
ATOM     80  C   UNL A   1      42.305  20.931  26.437  1.00  0.00     0.054 A 
BRANCH  80  81
ATOM     81  S   UNL A   1      41.871  19.189  26.179  1.00  0.00     0.124 S 
ATOM     82  O   UNL A   1      40.433  19.262  25.938  1.00  0.00    -0.237 OA
ATOM     83  O   UNL A   1      42.687  18.824  25.024  1.00  0.00    -0.237 OA
ATOM     84  O   UNL A   1      42.264  18.551  27.434  1.00  0.00    -0.744 OA
ENDBRANCH  80  81
ENDBRANCH  61  75
BRANCH  62  85
ATOM     85  C   UNL A   1      46.288  32.886  28.553  1.00  0.00    -0.014 A 
ATOM     86  C   UNL A   1      46.082  33.859  27.556  1.00  0.00     0.010 A 
ATOM     87  C   UNL A   1      47.013  33.234  29.706  1.00  0.00     0.010 A 
ATOM     88  C   UNL A   1      46.649  35.130  27.676  1.00  0.00     0.020 A 
ATOM     89  C   UNL A   1      47.555  34.516  29.844  1.00  0.00     0.020 A 
ATOM     90  C   UNL A   1      47.397  35.444  28.812  1.00  0.00     0.054 A 
BRANCH  90  91
ATOM     91  S   UNL A   1      48.184  37.076  28.914  1.00  0.00     0.124 S 
ATOM     92  O   UNL A   1      47.104  37.953  28.472  1.00  0.00    -0.237 OA
ATOM     93  O   UNL A   1      48.536  37.173  30.328  1.00  0.00    -0.237 OA
ATOM     94  O   UNL A   1      49.316  36.966  27.998  1.00  0.00    -0.744 OA
ENDBRANCH  90  91
ENDBRANCH  62  85
BRANCH  74  95
ATOM     95  C   UNL A   1      49.207  27.126  25.820  1.00  0.00    -0.014 A 
ATOM     96  C   UNL A   1      50.254  26.747  26.683  1.00  0.00     0.010 A 
ATOM     97  C   UNL A   1      49.486  27.337  24.458  1.00  0.00     0.010 A 
ATOM     98  C   UNL A   1      51.559  26.619  26.202  1.00  0.00     0.020 A 
ATOM     99  C   UNL A   1      50.786  27.180  23.969  1.00  0.00     0.020 A 
ATOM    100  C   UNL A   1      51.819  26.847  24.849  1.00  0.00     0.054 A 
BRANCH 100 101
ATOM    101  S   UNL A   1      53.525  26.708  24.249  1.00  0.00     0.124 S 
ATOM    102  O   UNL A   1      53.330  26.348  22.848  1.00  0.00    -0.237 OA
ATOM    103  O   UNL A   1      54.060  28.047  24.487  1.00  0.00    -0.237 OA
ATOM    104  O   UNL A   1      54.098  25.659  25.090  1.00  0.00    -0.744 OA
ENDBRANCH 100 101
ENDBRANCH  74  95
ENDBRANCH  48  49
ENDBRANCH  40  43
ENDBRANCH  38  39
ENDBRANCH  37  38
ENDBRANCH  36  37
ENDBRANCH   1  36
TORSDOF 21
ENDMDL
MODEL 3
REMARK VINA RESULT:     -11.2      5.415      9.886
REMARK SMILES O=C(Cn1c2ccccc2c(=O)c2ccccc21)N[C@@H](Cc1ccccc1)C(=O)NCCCCCCNC(=O)c1ccc(-c2c3nc(c(-c4ccc(S(=O)(=O)[O-])cc4)c4ccc([nH]4)c(-c4ccc(S(=O)(=O)[O-])cc4)c4nc(c(-c5ccc(S(=O)(=O)[O-])cc5)c5ccc2[nH]5)C=C4)C=C3)cc1
REMARK SMILES IDX 33 1 32 2 31 3 30 4 28 5 29 6 20 8 19 9 1 10 2 11 3 13 4 14
REMARK SMILES IDX 5 15 18 16 6 17 10 18 13 19 17 20 7 21 9 22 11 23 14 24
REMARK SMILES IDX 16 25 8 26 12 27 15 28 21 29 22 30 23 31 27 32 24 33 26 34
REMARK SMILES IDX 25 35 34 36 35 37 36 38 37 39 38 40 39 42 40 43 41 44 99 45
REMARK SMILES IDX 42 46 98 47 43 48 44 49 45 50 92 51 46 52 97 53 91 54 93 55
REMARK SMILES IDX 47 56 96 57 90 58 89 59 48 61 78 62 59 63 77 64 60 65 63 66
REMARK SMILES IDX 76 67 94 68 61 69 62 70 75 72 95 73 64 74 49 75 50 76 58 77
REMARK SMILES IDX 51 78 57 79 52 80 53 81 54 82 55 83 56 84 79 85 80 86 88 87
REMARK SMILES IDX 81 88 87 89 82 90 83 91 84 92 85 93 86 94 65 95 66 96 74 97
REMARK SMILES IDX 67 98 73 99 68 100 69 101 70 102 71 103 72 104
REMARK H PARENT 30 7 19 12 37 41 93 60 63 71
REMARK Flexibility Score: inf
ROOT
ATOM      1  C   UNL A   1      32.074  28.163  27.184  1.00  0.00     0.002 C 
ENDROOT
BRANCH   1   2
ATOM      2  C   UNL A   1      31.818  26.813  26.517  1.00  0.00     0.021 C 
BRANCH   2   3
ATOM      3  C   UNL A   1      32.965  26.225  25.712  1.00  0.00     0.116 C 
BRANCH   3   4
ATOM      4  N   UNL A   1      33.541  27.137  24.754  1.00  0.00    -0.354 N 
ATOM      5  C   UNL A   1      33.121  27.460  23.496  1.00  0.00     0.242 C 
ATOM      6  O   UNL A   1      33.605  28.488  23.005  1.00  0.00    -0.273 OA
ATOM      7  H   UNL A   1      34.360  27.594  25.051  1.00  0.00     0.163 HD
BRANCH   5   8
ATOM      8  C   UNL A   1      32.055  26.650  22.708  1.00  0.00     0.175 C 
BRANCH   8   9
ATOM      9  N   UNL A   1      32.496  25.314  22.268  1.00  0.00    -0.342 N 
ATOM     10  O   UNL A   1      31.023  24.175  23.597  1.00  0.00    -0.273 OA
ATOM     11  C   UNL A   1      31.957  24.153  22.794  1.00  0.00     0.240 C 
ATOM     12  H   UNL A   1      33.196  25.246  21.579  1.00  0.00     0.164 HD
BRANCH  11  13
ATOM     13  C   UNL A   1      32.679  22.825  22.485  1.00  0.00     0.222 C 
BRANCH  13  14
ATOM     14  N   UNL A   1      33.229  22.113  23.662  1.00  0.00    -0.331 N 
ATOM     15  C   UNL A   1      32.860  20.768  23.900  1.00  0.00     0.053 A 
ATOM     16  C   UNL A   1      34.213  22.729  24.480  1.00  0.00     0.053 A 
ATOM     17  C   UNL A   1      32.401  19.899  22.898  1.00  0.00     0.027 A 
ATOM     18  C   UNL A   1      33.048  20.213  25.181  1.00  0.00     0.046 A 
ATOM     19  C   UNL A   1      34.481  22.193  25.759  1.00  0.00     0.046 A 
ATOM     20  C   UNL A   1      35.052  23.773  24.062  1.00  0.00     0.027 A 
ATOM     21  C   UNL A   1      32.137  18.552  23.168  1.00  0.00     0.002 A 
ATOM     22  C   UNL A   1      32.748  18.878  25.470  1.00  0.00     0.014 A 
ATOM     23  C   UNL A   1      33.692  21.036  26.221  1.00  0.00     0.197 A 
ATOM     24  C   UNL A   1      35.528  22.654  26.571  1.00  0.00     0.014 A 
ATOM     25  C   UNL A   1      36.116  24.227  24.860  1.00  0.00     0.002 A 
ATOM     26  C   UNL A   1      32.308  18.043  24.452  1.00  0.00     0.001 A 
ATOM     27  O   UNL A   1      33.646  20.722  27.405  1.00  0.00    -0.288 OA
ATOM     28  C   UNL A   1      36.359  23.665  26.110  1.00  0.00     0.001 A 
ENDBRANCH  13  14
ENDBRANCH  11  13
ENDBRANCH   8   9
BRANCH   8  29
ATOM     29  C   UNL A   1      30.614  26.692  23.287  1.00  0.00     0.070 C 
BRANCH  29  30
ATOM     30  C   UNL A   1      29.700  27.848  22.940  1.00  0.00    -0.045 A 
ATOM     31  C   UNL A   1      30.216  28.995  22.315  1.00  0.00     0.004 A 
ATOM     32  C   UNL A   1      28.326  27.802  23.221  1.00  0.00     0.004 A 
ATOM     33  C   UNL A   1      29.394  30.092  22.047  1.00  0.00     0.000 A 
ATOM     34  C   UNL A   1      27.510  28.910  22.974  1.00  0.00     0.000 A 
ATOM     35  C   UNL A   1      28.046  30.058  22.394  1.00  0.00     0.000 A 
ENDBRANCH  29  30
ENDBRANCH   8  29
ENDBRANCH   5   8
ENDBRANCH   3   4
ENDBRANCH   2   3
ENDBRANCH   1   2
BRANCH   1  36
ATOM     36  C   UNL A   1      31.607  29.407  26.415  1.00  0.00     0.002 C 
BRANCH  36  37
ATOM     37  C   UNL A   1      32.664  30.468  26.090  1.00  0.00     0.021 C 
BRANCH  37  38
ATOM     38  C   UNL A   1      33.303  31.178  27.279  1.00  0.00     0.116 C 
BRANCH  38  39
ATOM     39  N   UNL A   1      32.881  32.559  27.437  1.00  0.00    -0.352 N 
ATOM     40  C   UNL A   1      33.362  33.561  28.247  1.00  0.00     0.251 C 
ATOM     41  H   UNL A   1      32.122  32.822  26.868  1.00  0.00     0.163 HD
ATOM     42  O   UNL A   1      32.783  34.645  28.270  1.00  0.00    -0.269 OA
BRANCH  40  43
ATOM     43  C   UNL A   1      34.535  33.340  29.127  1.00  0.00     0.039 A 
ATOM     44  C   UNL A   1      35.761  33.963  28.892  1.00  0.00     0.014 A 
ATOM     45  C   UNL A   1      34.394  32.487  30.228  1.00  0.00     0.014 A 
ATOM     46  C   UNL A   1      36.881  33.596  29.639  1.00  0.00     0.010 A 
ATOM     47  C   UNL A   1      35.501  32.183  31.028  1.00  0.00     0.010 A 
ATOM     48  C   UNL A   1      36.769  32.687  30.705  1.00  0.00    -0.014 A 
BRANCH  48  49
ATOM     49  C   UNL A   1      37.987  32.258  31.450  1.00  0.00     0.031 A 
ATOM     50  C   UNL A   1      38.978  31.309  30.821  1.00  0.00     0.074 A 
ATOM     51  C   UNL A   1      38.235  32.763  32.675  1.00  0.00     0.049 A 
ATOM     52  N   UNL A   1      40.114  30.871  31.303  1.00  0.00    -0.248 NA
ATOM     53  C   UNL A   1      38.658  30.787  29.483  1.00  0.00     0.031 C 
ATOM     54  C   UNL A   1      37.365  33.698  33.390  1.00  0.00     0.029 A 
ATOM     55  N   UNL A   1      39.302  32.587  33.524  1.00  0.00    -0.354 N 
ATOM     56  C   UNL A   1      40.637  30.018  30.337  1.00  0.00     0.074 A 
ATOM     57  C   UNL A   1      39.678  29.970  29.255  1.00  0.00     0.031 C 
ATOM     58  C   UNL A   1      37.958  34.058  34.539  1.00  0.00     0.029 A 
ATOM     59  C   UNL A   1      39.221  33.335  34.675  1.00  0.00     0.049 A 
ATOM     60  H   UNL A   1      40.053  31.982  33.326  1.00  0.00     0.167 HD
ATOM     61  C   UNL A   1      41.815  29.350  30.339  1.00  0.00     0.031 A 
ATOM     62  C   UNL A   1      40.059  33.436  35.727  1.00  0.00     0.031 A 
ATOM     63  C   UNL A   1      42.775  29.407  31.411  1.00  0.00     0.049 A 
ATOM     64  C   UNL A   1      41.342  32.654  35.727  1.00  0.00     0.074 A 
ATOM     65  C   UNL A   1      44.006  28.776  31.490  1.00  0.00     0.029 A 
ATOM     66  N   UNL A   1      42.625  30.132  32.583  1.00  0.00    -0.354 N 
ATOM     67  N   UNL A   1      41.822  31.866  34.795  1.00  0.00    -0.248 NA
ATOM     68  C   UNL A   1      42.200  32.775  36.914  1.00  0.00     0.031 C 
ATOM     69  C   UNL A   1      44.570  29.069  32.733  1.00  0.00     0.029 A 
ATOM     70  C   UNL A   1      43.728  29.945  33.399  1.00  0.00     0.049 A 
ATOM     71  H   UNL A   1      41.848  30.697  32.802  1.00  0.00     0.167 HD
ATOM     72  C   UNL A   1      43.045  31.410  35.275  1.00  0.00     0.074 A 
ATOM     73  C   UNL A   1      43.241  32.025  36.571  1.00  0.00     0.031 C 
ATOM     74  C   UNL A   1      43.920  30.556  34.691  1.00  0.00     0.031 A 
BRANCH  61  75
ATOM     75  C   UNL A   1      42.158  28.497  29.144  1.00  0.00    -0.014 A 
ATOM     76  C   UNL A   1      41.965  27.103  29.200  1.00  0.00     0.010 A 
ATOM     77  C   UNL A   1      42.787  29.054  28.016  1.00  0.00     0.010 A 
ATOM     78  C   UNL A   1      42.422  26.280  28.167  1.00  0.00     0.020 A 
ATOM     79  C   UNL A   1      43.219  28.237  26.967  1.00  0.00     0.020 A 
ATOM     80  C   UNL A   1      43.055  26.852  27.061  1.00  0.00     0.054 A 
BRANCH  80  81
ATOM     81  S   UNL A   1      43.664  25.768  25.739  1.00  0.00     0.124 S 
ATOM     82  O   UNL A   1      43.727  24.472  26.409  1.00  0.00    -0.237 OA
ATOM     83  O   UNL A   1      42.631  25.901  24.715  1.00  0.00    -0.237 OA
ATOM     84  O   UNL A   1      44.955  26.355  25.387  1.00  0.00    -0.744 OA
ENDBRANCH  80  81
ENDBRANCH  61  75
BRANCH  62  85
ATOM     85  C   UNL A   1      39.705  34.351  36.848  1.00  0.00    -0.014 A 
ATOM     86  C   UNL A   1      40.060  35.712  36.793  1.00  0.00     0.010 A 
ATOM     87  C   UNL A   1      39.098  33.851  38.012  1.00  0.00     0.010 A 
ATOM     88  C   UNL A   1      39.877  36.539  37.903  1.00  0.00     0.020 A 
ATOM     89  C   UNL A   1      38.884  34.684  39.115  1.00  0.00     0.020 A 
ATOM     90  C   UNL A   1      39.306  36.014  39.065  1.00  0.00     0.054 A 
BRANCH  90  91
ATOM     91  S   UNL A   1      39.143  37.086  40.519  1.00  0.00     0.124 S 
ATOM     92  O   UNL A   1      38.502  36.191  41.477  1.00  0.00    -0.237 OA
ATOM     93  O   UNL A   1      40.530  37.436  40.814  1.00  0.00    -0.237 OA
ATOM     94  O   UNL A   1      38.313  38.188  40.039  1.00  0.00    -0.744 OA
ENDBRANCH  90  91
ENDBRANCH  62  85
BRANCH  74  95
ATOM     95  C   UNL A   1      45.190  30.219  35.429  1.00  0.00    -0.014 A 
ATOM     96  C   UNL A   1      45.199  29.153  36.349  1.00  0.00     0.010 A 
ATOM     97  C   UNL A   1      46.332  31.033  35.316  1.00  0.00     0.010 A 
ATOM     98  C   UNL A   1      46.309  28.927  37.166  1.00  0.00     0.020 A 
ATOM     99  C   UNL A   1      47.456  30.791  36.111  1.00  0.00     0.020 A 
ATOM    100  C   UNL A   1      47.428  29.756  37.048  1.00  0.00     0.054 A 
BRANCH 100 101
ATOM    101  S   UNL A   1      48.848  29.468  38.140  1.00  0.00     0.124 S 
ATOM    102  O   UNL A   1      49.620  28.484  37.386  1.00  0.00    -0.237 OA
ATOM    103  O   UNL A   1      49.450  30.796  38.242  1.00  0.00    -0.237 OA
ATOM    104  O   UNL A   1      48.238  28.973  39.372  1.00  0.00    -0.744 OA
ENDBRANCH 100 101
ENDBRANCH  74  95
ENDBRANCH  48  49
ENDBRANCH  40  43
ENDBRANCH  38  39
ENDBRANCH  37  38
ENDBRANCH  36  37
ENDBRANCH   1  36
TORSDOF 21
ENDMDL
