MODEL 1
REMARK VINA RESULT:     -13.3      0.000      0.000
REMARK SMILES CC(=O)Nc1cnc(N2CC=C(c3ccccc3C)CC2)c(C(=O)NCCCCCCNC(=O)c2ccc(-c3c4nc(c(-c5ccc(S(=O)(=O)[O-])cc5)c5ccc([nH]5)c(-c5ccc(S(=O)(=O)[O-])cc5)c5nc(c(-c6ccc(S(=O)(=O)[O-])cc6)c6ccc3[nH]6)C=C5)C=C4)cc2)c1
REMARK SMILES IDX 29 1 28 2 27 3 26 4 25 5 23 6 24 7 22 9 5 10 6 11 95 12 7 13
REMARK SMILES IDX 8 14 4 15 1 16 2 17 3 18 9 20 10 21 21 22 11 23 20 24 12 25
REMARK SMILES IDX 13 26 14 27 18 28 15 29 17 30 19 31 16 32 30 33 31 34 32 35
REMARK SMILES IDX 33 36 34 38 35 39 36 40 94 41 37 42 93 43 38 44 39 45 40 46
REMARK SMILES IDX 87 47 41 48 92 49 86 50 88 51 42 52 91 53 85 54 84 55 43 57
REMARK SMILES IDX 73 58 54 59 72 60 55 61 58 62 71 63 89 64 56 65 57 66 70 68
REMARK SMILES IDX 90 69 59 70 44 71 45 72 53 73 46 74 52 75 47 76 48 77 49 78
REMARK SMILES IDX 50 79 51 80 74 81 75 82 83 83 76 84 82 85 77 86 78 87 79 88
REMARK SMILES IDX 80 89 81 90 60 91 61 92 69 93 62 94 68 95 63 96 64 97 65 98
REMARK SMILES IDX 66 99 67 100
REMARK H PARENT 25 8 4 19 32 37 88 56 58 67
REMARK Flexibility Score: inf
ROOT
ATOM      1  C   UNL A   1      31.378  27.697  27.571  1.00  0.00     0.002 C 
ENDROOT
BRANCH   1   2
ATOM      2  C   UNL A   1      31.458  26.692  26.409  1.00  0.00     0.002 C 
BRANCH   2   3
ATOM      3  C   UNL A   1      31.439  25.202  26.783  1.00  0.00     0.021 C 
BRANCH   3   4
ATOM      4  C   UNL A   1      30.191  24.448  26.328  1.00  0.00     0.116 C 
BRANCH   4   5
ATOM      5  N   UNL A   1      30.467  23.546  25.230  1.00  0.00    -0.352 N 
ATOM      6  C   UNL A   1      31.261  23.539  24.112  1.00  0.00     0.255 C 
ATOM      7  O   UNL A   1      31.395  22.405  23.648  1.00  0.00    -0.269 OA
ATOM      8  H   UNL A   1      29.945  22.715  25.306  1.00  0.00     0.163 HD
BRANCH   6   9
ATOM      9  C   UNL A   1      31.963  24.725  23.497  1.00  0.00     0.084 A 
ATOM     10  C   UNL A   1      31.893  26.916  22.409  1.00  0.00     0.060 A 
ATOM     11  C   UNL A   1      33.253  27.008  22.630  1.00  0.00     0.139 A 
ATOM     12  C   UNL A   1      31.270  25.731  22.797  1.00  0.00     0.045 A 
ATOM     13  N   UNL A   1      33.976  26.052  23.240  1.00  0.00    -0.236 NA
ATOM     14  C   UNL A   1      33.359  24.909  23.656  1.00  0.00     0.141 A 
BRANCH  10  15
ATOM     15  N   UNL A   1      31.242  28.000  21.798  1.00  0.00    -0.325 N 
ATOM     16  C   UNL A   1      30.460  29.238  23.816  1.00  0.00     0.114 C 
ATOM     17  C   UNL A   1      30.511  29.025  22.329  1.00  0.00     0.221 C 
ATOM     18  O   UNL A   1      29.959  29.816  21.563  1.00  0.00    -0.275 OA
ATOM     19  H   UNL A   1      31.327  28.026  20.818  1.00  0.00     0.169 HD
ENDBRANCH  10  15
BRANCH  14  20
ATOM     20  N   UNL A   1      34.242  23.989  24.159  1.00  0.00    -0.352 N 
ATOM     21  C   UNL A   1      34.289  23.781  25.595  1.00  0.00     0.146 C 
ATOM     22  C   UNL A   1      35.089  23.177  23.295  1.00  0.00     0.123 C 
ATOM     23  C   UNL A   1      35.659  23.340  26.039  1.00  0.00    -0.002 C 
ATOM     24  C   UNL A   1      36.553  23.323  23.722  1.00  0.00     0.057 C 
ATOM     25  C   UNL A   1      36.703  23.141  25.212  1.00  0.00    -0.041 C 
BRANCH  25  26
ATOM     26  C   UNL A   1      38.009  22.705  25.737  1.00  0.00    -0.020 A 
ATOM     27  C   UNL A   1      38.799  23.655  26.409  1.00  0.00     0.008 A 
ATOM     28  C   UNL A   1      38.487  21.388  25.598  1.00  0.00    -0.044 A 
ATOM     29  C   UNL A   1      40.039  23.307  26.947  1.00  0.00     0.001 A 
ATOM     30  C   UNL A   1      39.731  21.050  26.159  1.00  0.00     0.004 A 
ATOM     31  C   UNL A   1      37.703  20.316  24.891  1.00  0.00     0.045 C 
ATOM     32  C   UNL A   1      40.503  22.003  26.825  1.00  0.00     0.000 A 
ENDBRANCH  25  26
ENDBRANCH  14  20
ENDBRANCH   6   9
ENDBRANCH   4   5
ENDBRANCH   3   4
ENDBRANCH   2   3
ENDBRANCH   1   2
BRANCH   1  33
ATOM     33  C   UNL A   1      31.817  29.132  27.268  1.00  0.00     0.021 C 
BRANCH  33  34
ATOM     34  C   UNL A   1      33.264  29.245  26.806  1.00  0.00     0.116 C 
BRANCH  34  35
ATOM     35  N   UNL A   1      33.732  30.623  26.775  1.00  0.00    -0.352 N 
ATOM     36  C   UNL A   1      34.725  31.172  27.568  1.00  0.00     0.251 C 
ATOM     37  H   UNL A   1      33.300  31.224  26.126  1.00  0.00     0.163 HD
ATOM     38  O   UNL A   1      34.801  32.363  27.822  1.00  0.00    -0.269 OA
BRANCH  36  39
ATOM     39  C   UNL A   1      35.807  30.249  27.954  1.00  0.00     0.039 A 
ATOM     40  C   UNL A   1      35.826  29.819  29.287  1.00  0.00     0.014 A 
ATOM     41  C   UNL A   1      36.912  30.097  27.124  1.00  0.00     0.014 A 
ATOM     42  C   UNL A   1      37.023  29.381  29.844  1.00  0.00     0.010 A 
ATOM     43  C   UNL A   1      38.115  29.745  27.701  1.00  0.00     0.010 A 
ATOM     44  C   UNL A   1      38.179  29.438  29.071  1.00  0.00    -0.014 A 
BRANCH  44  45
ATOM     45  C   UNL A   1      39.525  29.267  29.604  1.00  0.00     0.031 A 
ATOM     46  C   UNL A   1      40.261  28.010  29.342  1.00  0.00     0.074 A 
ATOM     47  C   UNL A   1      40.147  30.305  30.209  1.00  0.00     0.049 A 
ATOM     48  N   UNL A   1      41.355  27.669  29.937  1.00  0.00    -0.248 NA
ATOM     49  C   UNL A   1      39.767  26.978  28.428  1.00  0.00     0.031 C 
ATOM     50  C   UNL A   1      41.584  30.458  30.426  1.00  0.00     0.029 A 
ATOM     51  N   UNL A   1      39.586  31.336  30.968  1.00  0.00    -0.354 N 
ATOM     52  C   UNL A   1      41.871  26.594  29.254  1.00  0.00     0.074 A 
ATOM     53  C   UNL A   1      40.785  26.114  28.436  1.00  0.00     0.031 C 
ATOM     54  C   UNL A   1      41.777  31.285  31.464  1.00  0.00     0.029 A 
ATOM     55  C   UNL A   1      40.470  31.550  32.040  1.00  0.00     0.049 A 
ATOM     56  H   UNL A   1      38.743  31.814  30.789  1.00  0.00     0.167 HD
ATOM     57  C   UNL A   1      43.206  26.338  29.331  1.00  0.00     0.031 A 
ATOM     58  C   UNL A   1      40.145  31.369  33.354  1.00  0.00     0.031 A 
ATOM     59  C   UNL A   1      43.829  27.079  30.427  1.00  0.00     0.049 A 
ATOM     60  C   UNL A   1      41.058  30.389  34.063  1.00  0.00     0.074 A 
ATOM     61  C   UNL A   1      44.686  28.164  30.488  1.00  0.00     0.029 A 
ATOM     62  N   UNL A   1      43.368  26.867  31.722  1.00  0.00    -0.354 N 
ATOM     63  N   UNL A   1      41.853  29.556  33.448  1.00  0.00    -0.248 NA
ATOM     64  C   UNL A   1      41.129  30.245  35.514  1.00  0.00     0.031 C 
ATOM     65  C   UNL A   1      44.652  28.669  31.819  1.00  0.00     0.029 A 
ATOM     66  C   UNL A   1      43.815  27.861  32.570  1.00  0.00     0.049 A 
ATOM     67  H   UNL A   1      42.801  26.111  31.997  1.00  0.00     0.167 HD
ATOM     68  C   UNL A   1      42.535  28.796  34.362  1.00  0.00     0.074 A 
ATOM     69  C   UNL A   1      42.049  29.273  35.646  1.00  0.00     0.031 C 
ATOM     70  C   UNL A   1      43.434  27.840  33.979  1.00  0.00     0.031 A 
BRANCH  57  71
ATOM     71  C   UNL A   1      43.992  25.598  28.266  1.00  0.00    -0.014 A 
ATOM     72  C   UNL A   1      44.420  26.281  27.108  1.00  0.00     0.010 A 
ATOM     73  C   UNL A   1      44.225  24.206  28.276  1.00  0.00     0.010 A 
ATOM     74  C   UNL A   1      45.008  25.610  26.018  1.00  0.00     0.020 A 
ATOM     75  C   UNL A   1      44.836  23.529  27.212  1.00  0.00     0.020 A 
ATOM     76  C   UNL A   1      45.204  24.232  26.076  1.00  0.00     0.054 A 
BRANCH  76  77
ATOM     77  S   UNL A   1      45.905  23.357  24.652  1.00  0.00     0.124 S 
ATOM     78  O   UNL A   1      44.735  23.168  23.797  1.00  0.00    -0.237 OA
ATOM     79  O   UNL A   1      46.904  24.298  24.158  1.00  0.00    -0.237 OA
ATOM     80  O   UNL A   1      46.447  22.130  25.233  1.00  0.00    -0.744 OA
ENDBRANCH  76  77
ENDBRANCH  57  71
BRANCH  58  81
ATOM     81  C   UNL A   1      38.707  31.598  33.668  1.00  0.00    -0.014 A 
ATOM     82  C   UNL A   1      38.327  32.913  34.009  1.00  0.00     0.010 A 
ATOM     83  C   UNL A   1      37.728  30.709  33.189  1.00  0.00     0.010 A 
ATOM     84  C   UNL A   1      37.056  33.391  33.685  1.00  0.00     0.020 A 
ATOM     85  C   UNL A   1      36.446  31.185  32.874  1.00  0.00     0.020 A 
ATOM     86  C   UNL A   1      36.151  32.541  33.049  1.00  0.00     0.054 A 
BRANCH  86  87
ATOM     87  S   UNL A   1      34.684  33.285  32.268  1.00  0.00     0.124 S 
ATOM     88  O   UNL A   1      33.691  33.217  33.334  1.00  0.00    -0.237 OA
ATOM     89  O   UNL A   1      35.166  34.628  31.939  1.00  0.00    -0.237 OA
ATOM     90  O   UNL A   1      34.439  32.417  31.121  1.00  0.00    -0.744 OA
ENDBRANCH  86  87
ENDBRANCH  58  81
BRANCH  70  91
ATOM     91  C   UNL A   1      44.101  26.814  34.873  1.00  0.00    -0.014 A 
ATOM     92  C   UNL A   1      45.438  26.867  35.294  1.00  0.00     0.010 A 
ATOM     93  C   UNL A   1      43.305  25.782  35.433  1.00  0.00     0.010 A 
ATOM     94  C   UNL A   1      45.967  25.913  36.179  1.00  0.00     0.020 A 
ATOM     95  C   UNL A   1      43.806  24.854  36.349  1.00  0.00     0.020 A 
ATOM     96  C   UNL A   1      45.148  24.910  36.700  1.00  0.00     0.054 A 
BRANCH  96  97
ATOM     97  S   UNL A   1      45.820  23.730  37.897  1.00  0.00     0.124 S 
ATOM     98  O   UNL A   1      47.228  24.112  37.939  1.00  0.00    -0.237 OA
ATOM     99  O   UNL A   1      45.056  24.023  39.109  1.00  0.00    -0.237 OA
ATOM    100  O   UNL A   1      45.538  22.431  37.293  1.00  0.00    -0.744 OA
ENDBRANCH  96  97
ENDBRANCH  70  91
ENDBRANCH  44  45
ENDBRANCH  36  39
ENDBRANCH  34  35
ENDBRANCH  33  34
ENDBRANCH   1  33
TORSDOF 19
ENDMDL
MODEL 2
REMARK VINA RESULT:     -13.1      3.931      9.979
REMARK SMILES CC(=O)Nc1cnc(N2CC=C(c3ccccc3C)CC2)c(C(=O)NCCCCCCNC(=O)c2ccc(-c3c4nc(c(-c5ccc(S(=O)(=O)[O-])cc5)c5ccc([nH]5)c(-c5ccc(S(=O)(=O)[O-])cc5)c5nc(c(-c6ccc(S(=O)(=O)[O-])cc6)c6ccc3[nH]6)C=C5)C=C4)cc2)c1
REMARK SMILES IDX 29 1 28 2 27 3 26 4 25 5 23 6 24 7 22 9 5 10 6 11 95 12 7 13
REMARK SMILES IDX 8 14 4 15 1 16 2 17 3 18 9 20 10 21 21 22 11 23 20 24 12 25
REMARK SMILES IDX 13 26 14 27 18 28 15 29 17 30 19 31 16 32 30 33 31 34 32 35
REMARK SMILES IDX 33 36 34 38 35 39 36 40 94 41 37 42 93 43 38 44 39 45 40 46
REMARK SMILES IDX 87 47 41 48 92 49 86 50 88 51 42 52 91 53 85 54 84 55 43 57
REMARK SMILES IDX 73 58 54 59 72 60 55 61 58 62 71 63 89 64 56 65 57 66 70 68
REMARK SMILES IDX 90 69 59 70 44 71 45 72 53 73 46 74 52 75 47 76 48 77 49 78
REMARK SMILES IDX 50 79 51 80 74 81 75 82 83 83 76 84 82 85 77 86 78 87 79 88
REMARK SMILES IDX 80 89 81 90 60 91 61 92 69 93 62 94 68 95 63 96 64 97 65 98
REMARK SMILES IDX 66 99 67 100
REMARK H PARENT 25 8 4 19 32 37 88 56 58 67
REMARK Flexibility Score: inf
ROOT
ATOM      1  C   UNL A   1      35.883  23.009  24.828  1.00  0.00     0.002 C 
ENDROOT
BRANCH   1   2
ATOM      2  C   UNL A   1      35.117  24.282  24.429  1.00  0.00     0.002 C 
BRANCH   2   3
ATOM      3  C   UNL A   1      34.615  25.175  25.575  1.00  0.00     0.021 C 
BRANCH   3   4
ATOM      4  C   UNL A   1      33.802  26.387  25.128  1.00  0.00     0.116 C 
BRANCH   4   5
ATOM      5  N   UNL A   1      33.603  26.415  23.695  1.00  0.00    -0.352 N 
ATOM      6  C   UNL A   1      32.725  26.995  22.815  1.00  0.00     0.255 C 
ATOM      7  O   UNL A   1      33.156  26.984  21.660  1.00  0.00    -0.269 OA
ATOM      8  H   UNL A   1      34.277  25.872  23.227  1.00  0.00     0.163 HD
BRANCH   6   9
ATOM      9  C   UNL A   1      31.402  27.637  23.151  1.00  0.00     0.084 A 
ATOM     10  C   UNL A   1      29.905  29.573  23.130  1.00  0.00     0.060 A 
ATOM     11  C   UNL A   1      28.888  28.722  23.516  1.00  0.00     0.139 A 
ATOM     12  C   UNL A   1      31.179  29.021  23.011  1.00  0.00     0.045 A 
ATOM     13  N   UNL A   1      29.057  27.404  23.722  1.00  0.00    -0.236 NA
ATOM     14  C   UNL A   1      30.295  26.855  23.565  1.00  0.00     0.141 A 
BRANCH  10  15
ATOM     15  N   UNL A   1      29.594  30.925  22.907  1.00  0.00    -0.325 N 
ATOM     16  C   UNL A   1      28.087  30.709  20.932  1.00  0.00     0.114 C 
ATOM     17  C   UNL A   1      28.874  31.530  21.916  1.00  0.00     0.221 C 
ATOM     18  O   UNL A   1      28.818  32.760  21.893  1.00  0.00    -0.275 OA
ATOM     19  H   UNL A   1      29.959  31.543  23.580  1.00  0.00     0.169 HD
ENDBRANCH  10  15
BRANCH  14  20
ATOM     20  N   UNL A   1      30.330  25.529  23.914  1.00  0.00    -0.352 N 
ATOM     21  C   UNL A   1      30.330  25.180  25.322  1.00  0.00     0.146 C 
ATOM     22  C   UNL A   1      30.311  24.466  22.916  1.00  0.00     0.123 C 
ATOM     23  C   UNL A   1      31.043  23.874  25.561  1.00  0.00    -0.002 C 
ATOM     24  C   UNL A   1      31.496  23.523  23.145  1.00  0.00     0.057 C 
ATOM     25  C   UNL A   1      31.591  23.115  24.594  1.00  0.00    -0.041 C 
BRANCH  25  26
ATOM     26  C   UNL A   1      32.268  21.847  24.922  1.00  0.00    -0.020 A 
ATOM     27  C   UNL A   1      32.304  20.845  23.937  1.00  0.00     0.008 A 
ATOM     28  C   UNL A   1      32.878  21.608  26.170  1.00  0.00    -0.044 A 
ATOM     29  C   UNL A   1      32.942  19.627  24.174  1.00  0.00     0.001 A 
ATOM     30  C   UNL A   1      33.531  20.382  26.386  1.00  0.00     0.004 A 
ATOM     31  C   UNL A   1      32.881  22.629  27.274  1.00  0.00     0.045 C 
ATOM     32  C   UNL A   1      33.559  19.397  25.399  1.00  0.00     0.000 A 
ENDBRANCH  25  26
ENDBRANCH  14  20
ENDBRANCH   6   9
ENDBRANCH   4   5
ENDBRANCH   3   4
ENDBRANCH   2   3
ENDBRANCH   1   2
BRANCH   1  33
ATOM     33  C   UNL A   1      36.726  23.088  26.102  1.00  0.00     0.021 C 
BRANCH  33  34
ATOM     34  C   UNL A   1      38.137  23.617  25.871  1.00  0.00     0.116 C 
BRANCH  34  35
ATOM     35  N   UNL A   1      39.067  23.190  26.905  1.00  0.00    -0.352 N 
ATOM     36  C   UNL A   1      39.976  23.990  27.576  1.00  0.00     0.251 C 
ATOM     37  H   UNL A   1      39.048  22.237  27.153  1.00  0.00     0.163 HD
ATOM     38  O   UNL A   1      40.992  23.564  28.098  1.00  0.00    -0.269 OA
BRANCH  36  39
ATOM     39  C   UNL A   1      39.556  25.389  27.779  1.00  0.00     0.039 A 
ATOM     40  C   UNL A   1      40.062  26.339  26.883  1.00  0.00     0.014 A 
ATOM     41  C   UNL A   1      38.967  25.763  28.983  1.00  0.00     0.014 A 
ATOM     42  C   UNL A   1      40.131  27.673  27.272  1.00  0.00     0.010 A 
ATOM     43  C   UNL A   1      39.116  27.070  29.399  1.00  0.00     0.010 A 
ATOM     44  C   UNL A   1      39.743  28.011  28.565  1.00  0.00    -0.014 A 
BRANCH  44  45
ATOM     45  C   UNL A   1      40.012  29.304  29.184  1.00  0.00     0.031 A 
ATOM     46  C   UNL A   1      39.018  30.394  29.060  1.00  0.00     0.074 A 
ATOM     47  C   UNL A   1      41.092  29.457  29.984  1.00  0.00     0.049 A 
ATOM     48  N   UNL A   1      39.244  31.624  29.377  1.00  0.00    -0.248 NA
ATOM     49  C   UNL A   1      37.690  30.192  28.478  1.00  0.00     0.031 C 
ATOM     50  C   UNL A   1      41.297  30.501  30.986  1.00  0.00     0.029 A 
ATOM     51  N   UNL A   1      42.340  28.834  29.894  1.00  0.00    -0.354 N 
ATOM     52  C   UNL A   1      38.032  32.272  29.379  1.00  0.00     0.074 A 
ATOM     53  C   UNL A   1      37.135  31.392  28.672  1.00  0.00     0.031 C 
ATOM     54  C   UNL A   1      42.615  30.652  31.187  1.00  0.00     0.029 A 
ATOM     55  C   UNL A   1      43.288  29.826  30.199  1.00  0.00     0.049 A 
ATOM     56  H   UNL A   1      42.518  27.893  29.663  1.00  0.00     0.167 HD
ATOM     57  C   UNL A   1      37.885  33.402  30.125  1.00  0.00     0.031 A 
ATOM     58  C   UNL A   1      44.244  30.271  29.331  1.00  0.00     0.031 A 
ATOM     59  C   UNL A   1      39.179  33.933  30.550  1.00  0.00     0.049 A 
ATOM     60  C   UNL A   1      44.185  31.768  29.097  1.00  0.00     0.074 A 
ATOM     61  C   UNL A   1      39.843  33.990  31.764  1.00  0.00     0.029 A 
ATOM     62  N   UNL A   1      40.107  34.289  29.576  1.00  0.00    -0.354 N 
ATOM     63  N   UNL A   1      43.161  32.515  29.409  1.00  0.00    -0.248 NA
ATOM     64  C   UNL A   1      45.255  32.537  28.470  1.00  0.00     0.031 C 
ATOM     65  C   UNL A   1      41.211  34.281  31.496  1.00  0.00     0.029 A 
ATOM     66  C   UNL A   1      41.361  34.448  30.130  1.00  0.00     0.049 A 
ATOM     67  H   UNL A   1      39.896  34.411  28.623  1.00  0.00     0.167 HD
ATOM     68  C   UNL A   1      43.408  33.817  29.061  1.00  0.00     0.074 A 
ATOM     69  C   UNL A   1      44.740  33.779  28.482  1.00  0.00     0.031 C 
ATOM     70  C   UNL A   1      42.491  34.808  29.278  1.00  0.00     0.031 A 
BRANCH  57  71
ATOM     71  C   UNL A   1      36.557  33.894  30.669  1.00  0.00    -0.014 A 
ATOM     72  C   UNL A   1      35.532  34.274  29.776  1.00  0.00     0.010 A 
ATOM     73  C   UNL A   1      36.299  34.136  32.034  1.00  0.00     0.010 A 
ATOM     74  C   UNL A   1      34.345  34.887  30.219  1.00  0.00     0.020 A 
ATOM     75  C   UNL A   1      35.111  34.719  32.494  1.00  0.00     0.020 A 
ATOM     76  C   UNL A   1      34.147  35.114  31.580  1.00  0.00     0.054 A 
BRANCH  76  77
ATOM     77  S   UNL A   1      32.647  35.958  32.148  1.00  0.00     0.124 S 
ATOM     78  O   UNL A   1      33.167  36.858  33.175  1.00  0.00    -0.237 OA
ATOM     79  O   UNL A   1      32.161  36.601  30.931  1.00  0.00    -0.237 OA
ATOM     80  O   UNL A   1      31.807  34.871  32.650  1.00  0.00    -0.744 OA
ENDBRANCH  76  77
ENDBRANCH  57  71
BRANCH  58  81
ATOM     81  C   UNL A   1      44.691  29.256  28.337  1.00  0.00    -0.014 A 
ATOM     82  C   UNL A   1      45.633  28.301  28.777  1.00  0.00     0.010 A 
ATOM     83  C   UNL A   1      43.890  28.957  27.221  1.00  0.00     0.010 A 
ATOM     84  C   UNL A   1      45.632  27.008  28.250  1.00  0.00     0.020 A 
ATOM     85  C   UNL A   1      43.897  27.661  26.683  1.00  0.00     0.020 A 
ATOM     86  C   UNL A   1      44.708  26.678  27.259  1.00  0.00     0.054 A 
BRANCH  86  87
ATOM     87  S   UNL A   1      44.441  24.915  26.893  1.00  0.00     0.124 S 
ATOM     88  O   UNL A   1      43.297  24.950  25.989  1.00  0.00    -0.237 OA
ATOM     89  O   UNL A   1      45.716  24.536  26.283  1.00  0.00    -0.237 OA
ATOM     90  O   UNL A   1      44.188  24.335  28.208  1.00  0.00    -0.744 OA
ENDBRANCH  86  87
ENDBRANCH  58  81
BRANCH  70  91
ATOM     91  C   UNL A   1      42.563  36.235  28.771  1.00  0.00    -0.014 A 
ATOM     92  C   UNL A   1      43.311  37.261  29.368  1.00  0.00     0.010 A 
ATOM     93  C   UNL A   1      41.932  36.550  27.540  1.00  0.00     0.010 A 
ATOM     94  C   UNL A   1      43.381  38.544  28.800  1.00  0.00     0.020 A 
ATOM     95  C   UNL A   1      42.031  37.808  26.941  1.00  0.00     0.020 A 
ATOM     96  C   UNL A   1      42.739  38.811  27.591  1.00  0.00     0.054 A 
BRANCH  96  97
ATOM     97  S   UNL A   1      42.897  40.445  26.828  1.00  0.00     0.124 S 
ATOM     98  O   UNL A   1      43.869  40.191  25.770  1.00  0.00    -0.237 OA
ATOM     99  O   UNL A   1      41.537  40.728  26.374  1.00  0.00    -0.237 OA
ATOM    100  O   UNL A   1      43.366  41.289  27.923  1.00  0.00    -0.744 OA
ENDBRANCH  96  97
ENDBRANCH  70  91
ENDBRANCH  44  45
ENDBRANCH  36  39
ENDBRANCH  34  35
ENDBRANCH  33  34
ENDBRANCH   1  33
TORSDOF 19
ENDMDL
MODEL 3
REMARK VINA RESULT:     -12.9      3.767     10.045
REMARK SMILES CC(=O)Nc1cnc(N2CC=C(c3ccccc3C)CC2)c(C(=O)NCCCCCCNC(=O)c2ccc(-c3c4nc(c(-c5ccc(S(=O)(=O)[O-])cc5)c5ccc([nH]5)c(-c5ccc(S(=O)(=O)[O-])cc5)c5nc(c(-c6ccc(S(=O)(=O)[O-])cc6)c6ccc3[nH]6)C=C5)C=C4)cc2)c1
REMARK SMILES IDX 29 1 28 2 27 3 26 4 25 5 23 6 24 7 22 9 5 10 6 11 95 12 7 13
REMARK SMILES IDX 8 14 4 15 1 16 2 17 3 18 9 20 10 21 21 22 11 23 20 24 12 25
REMARK SMILES IDX 13 26 14 27 18 28 15 29 17 30 19 31 16 32 30 33 31 34 32 35
REMARK SMILES IDX 33 36 34 38 35 39 36 40 94 41 37 42 93 43 38 44 39 45 40 46
REMARK SMILES IDX 87 47 41 48 92 49 86 50 88 51 42 52 91 53 85 54 84 55 43 57
REMARK SMILES IDX 73 58 54 59 72 60 55 61 58 62 71 63 89 64 56 65 57 66 70 68
REMARK SMILES IDX 90 69 59 70 44 71 45 72 53 73 46 74 52 75 47 76 48 77 49 78
REMARK SMILES IDX 50 79 51 80 74 81 75 82 83 83 76 84 82 85 77 86 78 87 79 88
REMARK SMILES IDX 80 89 81 90 60 91 61 92 69 93 62 94 68 95 63 96 64 97 65 98
REMARK SMILES IDX 66 99 67 100
REMARK H PARENT 25 8 4 19 32 37 88 56 58 67
REMARK Flexibility Score: inf
ROOT
ATOM      1  C   UNL A   1      35.429  22.689  23.553  1.00  0.00     0.002 C 
ENDROOT
BRANCH   1   2
ATOM      2  C   UNL A   1      34.682  23.939  23.058  1.00  0.00     0.002 C 
BRANCH   2   3
ATOM      3  C   UNL A   1      33.543  23.709  22.052  1.00  0.00     0.021 C 
BRANCH   3   4
ATOM      4  C   UNL A   1      32.781  24.972  21.655  1.00  0.00     0.116 C 
BRANCH   4   5
ATOM      5  N   UNL A   1      31.456  25.017  22.235  1.00  0.00    -0.352 N 
ATOM      6  C   UNL A   1      30.890  24.792  23.465  1.00  0.00     0.255 C 
ATOM      7  O   UNL A   1      29.758  25.273  23.546  1.00  0.00    -0.269 OA
ATOM      8  H   UNL A   1      30.779  25.279  21.570  1.00  0.00     0.163 HD
BRANCH   6   9
ATOM      9  C   UNL A   1      31.533  24.097  24.640  1.00  0.00     0.084 A 
ATOM     10  C   UNL A   1      32.184  22.049  25.811  1.00  0.00     0.060 A 
ATOM     11  C   UNL A   1      32.952  22.836  26.646  1.00  0.00     0.139 A 
ATOM     12  C   UNL A   1      31.427  22.708  24.843  1.00  0.00     0.045 A 
ATOM     13  N   UNL A   1      33.044  24.173  26.535  1.00  0.00    -0.236 NA
ATOM     14  C   UNL A   1      32.335  24.814  25.563  1.00  0.00     0.141 A 
BRANCH  10  15
ATOM     15  N   UNL A   1      32.202  20.658  26.003  1.00  0.00    -0.325 N 
ATOM     16  C   UNL A   1      33.165  19.925  23.822  1.00  0.00     0.114 C 
ATOM     17  C   UNL A   1      32.534  19.638  25.157  1.00  0.00     0.221 C 
ATOM     18  O   UNL A   1      32.381  18.477  25.541  1.00  0.00    -0.275 OA
ATOM     19  H   UNL A   1      31.927  20.367  26.902  1.00  0.00     0.169 HD
ENDBRANCH  10  15
BRANCH  14  20
ATOM     20  N   UNL A   1      32.446  26.179  25.644  1.00  0.00    -0.352 N 
ATOM     21  C   UNL A   1      33.520  26.833  24.922  1.00  0.00     0.146 C 
ATOM     22  C   UNL A   1      31.487  26.990  26.383  1.00  0.00     0.123 C 
ATOM     23  C   UNL A   1      33.944  28.106  25.607  1.00  0.00    -0.002 C 
ATOM     24  C   UNL A   1      32.229  27.875  27.389  1.00  0.00     0.057 C 
ATOM     25  C   UNL A   1      33.384  28.590  26.733  1.00  0.00    -0.041 C 
BRANCH  25  26
ATOM     26  C   UNL A   1      33.863  29.848  27.333  1.00  0.00    -0.020 A 
ATOM     27  C   UNL A   1      35.104  29.833  27.994  1.00  0.00     0.008 A 
ATOM     28  C   UNL A   1      33.135  31.052  27.264  1.00  0.00    -0.044 A 
ATOM     29  C   UNL A   1      35.626  30.992  28.570  1.00  0.00     0.001 A 
ATOM     30  C   UNL A   1      33.683  32.215  27.834  1.00  0.00     0.004 A 
ATOM     31  C   UNL A   1      31.801  31.150  26.576  1.00  0.00     0.045 C 
ATOM     32  C   UNL A   1      34.916  32.184  28.486  1.00  0.00     0.000 A 
ENDBRANCH  25  26
ENDBRANCH  14  20
ENDBRANCH   6   9
ENDBRANCH   4   5
ENDBRANCH   3   4
ENDBRANCH   2   3
ENDBRANCH   1   2
BRANCH   1  33
ATOM     33  C   UNL A   1      36.792  22.920  24.210  1.00  0.00     0.021 C 
BRANCH  33  34
ATOM     34  C   UNL A   1      36.781  22.738  25.723  1.00  0.00     0.116 C 
BRANCH  34  35
ATOM     35  N   UNL A   1      37.953  22.023  26.205  1.00  0.00    -0.352 N 
ATOM     36  C   UNL A   1      39.227  22.541  26.362  1.00  0.00     0.251 C 
ATOM     37  H   UNL A   1      37.828  21.075  26.444  1.00  0.00     0.163 HD
ATOM     38  O   UNL A   1      40.238  21.859  26.352  1.00  0.00    -0.269 OA
BRANCH  36  39
ATOM     39  C   UNL A   1      39.286  23.969  26.723  1.00  0.00     0.039 A 
ATOM     40  C   UNL A   1      40.029  24.806  25.879  1.00  0.00     0.014 A 
ATOM     41  C   UNL A   1      38.905  24.374  27.998  1.00  0.00     0.014 A 
ATOM     42  C   UNL A   1      40.538  25.999  26.380  1.00  0.00     0.010 A 
ATOM     43  C   UNL A   1      39.483  25.514  28.518  1.00  0.00     0.010 A 
ATOM     44  C   UNL A   1      40.340  26.297  27.725  1.00  0.00    -0.014 A 
BRANCH  44  45
ATOM     45  C   UNL A   1      41.036  27.363  28.434  1.00  0.00     0.031 A 
ATOM     46  C   UNL A   1      40.329  28.632  28.723  1.00  0.00     0.074 A 
ATOM     47  C   UNL A   1      42.267  27.139  28.948  1.00  0.00     0.049 A 
ATOM     48  N   UNL A   1      40.906  29.706  29.147  1.00  0.00    -0.248 NA
ATOM     49  C   UNL A   1      38.899  28.815  28.475  1.00  0.00     0.031 C 
ATOM     50  C   UNL A   1      42.927  27.904  30.005  1.00  0.00     0.029 A 
ATOM     51  N   UNL A   1      43.281  26.311  28.457  1.00  0.00    -0.354 N 
ATOM     52  C   UNL A   1      39.914  30.568  29.548  1.00  0.00     0.074 A 
ATOM     53  C   UNL A   1      38.703  30.039  28.973  1.00  0.00     0.031 C 
ATOM     54  C   UNL A   1      44.254  27.748  29.885  1.00  0.00     0.029 A 
ATOM     55  C   UNL A   1      44.481  27.016  28.651  1.00  0.00     0.049 A 
ATOM     56  H   UNL A   1      43.174  25.417  28.056  1.00  0.00     0.167 HD
ATOM     57  C   UNL A   1      40.206  31.535  30.462  1.00  0.00     0.031 A 
ATOM     58  C   UNL A   1      45.306  27.424  27.642  1.00  0.00     0.031 A 
ATOM     59  C   UNL A   1      41.649  31.705  30.617  1.00  0.00     0.049 A 
ATOM     60  C   UNL A   1      45.559  28.919  27.648  1.00  0.00     0.074 A 
ATOM     61  C   UNL A   1      42.552  31.389  31.618  1.00  0.00     0.029 A 
ATOM     62  N   UNL A   1      42.404  32.054  29.501  1.00  0.00    -0.354 N 
ATOM     63  N   UNL A   1      44.835  29.778  28.313  1.00  0.00    -0.248 NA
ATOM     64  C   UNL A   1      46.622  29.568  26.888  1.00  0.00     0.031 C 
ATOM     65  C   UNL A   1      43.860  31.450  31.057  1.00  0.00     0.029 A 
ATOM     66  C   UNL A   1      43.748  31.850  29.736  1.00  0.00     0.049 A 
ATOM     67  H   UNL A   1      42.029  32.401  28.660  1.00  0.00     0.167 HD
ATOM     68  C   UNL A   1      45.306  31.048  28.105  1.00  0.00     0.074 A 
ATOM     69  C   UNL A   1      46.434  30.861  27.208  1.00  0.00     0.031 C 
ATOM     70  C   UNL A   1      44.722  32.139  28.686  1.00  0.00     0.031 A 
BRANCH  57  71
ATOM     71  C   UNL A   1      39.183  32.164  31.388  1.00  0.00    -0.014 A 
ATOM     72  C   UNL A   1      38.408  31.345  32.236  1.00  0.00     0.010 A 
ATOM     73  C   UNL A   1      38.839  33.533  31.378  1.00  0.00     0.010 A 
ATOM     74  C   UNL A   1      37.336  31.857  32.995  1.00  0.00     0.020 A 
ATOM     75  C   UNL A   1      37.795  34.062  32.149  1.00  0.00     0.020 A 
ATOM     76  C   UNL A   1      37.032  33.215  32.937  1.00  0.00     0.054 A 
BRANCH  76  77
ATOM     77  S   UNL A   1      35.617  33.866  33.864  1.00  0.00     0.124 S 
ATOM     78  O   UNL A   1      34.499  33.129  33.281  1.00  0.00    -0.237 OA
ATOM     79  O   UNL A   1      35.952  33.521  35.242  1.00  0.00    -0.237 OA
ATOM     80  O   UNL A   1      35.636  35.297  33.564  1.00  0.00    -0.744 OA
ENDBRANCH  76  77
ENDBRANCH  57  71
BRANCH  58  81
ATOM     81  C   UNL A   1      45.274  26.556  26.433  1.00  0.00    -0.014 A 
ATOM     82  C   UNL A   1      46.213  25.504  26.374  1.00  0.00     0.010 A 
ATOM     83  C   UNL A   1      44.105  26.469  25.655  1.00  0.00     0.010 A 
ATOM     84  C   UNL A   1      45.901  24.310  25.722  1.00  0.00     0.020 A 
ATOM     85  C   UNL A   1      43.796  25.272  24.990  1.00  0.00     0.020 A 
ATOM     86  C   UNL A   1      44.659  24.178  25.101  1.00  0.00     0.054 A 
BRANCH  86  87
ATOM     87  S   UNL A   1      44.110  22.506  24.635  1.00  0.00     0.124 S 
ATOM     88  O   UNL A   1      44.417  22.459  23.209  1.00  0.00    -0.237 OA
ATOM     89  O   UNL A   1      44.949  21.664  25.489  1.00  0.00    -0.237 OA
ATOM     90  O   UNL A   1      42.691  22.512  24.975  1.00  0.00    -0.744 OA
ENDBRANCH  86  87
ENDBRANCH  58  81
BRANCH  70  91
ATOM     91  C   UNL A   1      45.023  33.594  28.388  1.00  0.00    -0.014 A 
ATOM     92  C   UNL A   1      45.736  34.455  29.236  1.00  0.00     0.010 A 
ATOM     93  C   UNL A   1      44.671  34.113  27.115  1.00  0.00     0.010 A 
ATOM     94  C   UNL A   1      46.034  35.775  28.859  1.00  0.00     0.020 A 
ATOM     95  C   UNL A   1      45.000  35.409  26.711  1.00  0.00     0.020 A 
ATOM     96  C   UNL A   1      45.662  36.245  27.599  1.00  0.00     0.054 A 
BRANCH  96  97
ATOM     97  S   UNL A   1      46.115  37.924  27.094  1.00  0.00     0.124 S 
ATOM     98  O   UNL A   1      46.844  37.678  25.853  1.00  0.00    -0.237 OA
ATOM     99  O   UNL A   1      44.819  38.580  26.938  1.00  0.00    -0.237 OA
ATOM    100  O   UNL A   1      46.920  38.411  28.210  1.00  0.00    -0.744 OA
ENDBRANCH  96  97
ENDBRANCH  70  91
ENDBRANCH  44  45
ENDBRANCH  36  39
ENDBRANCH  34  35
ENDBRANCH  33  34
ENDBRANCH   1  33
TORSDOF 19
ENDMDL
