MODEL 1
REMARK VINA RESULT:     -12.1      0.000      0.000
REMARK SMILES Cc1nc(NC(=O)[C@H]2[C@@H]3CC[C@@H](C3)[C@@H]2C(=O)NCCCCCCNC(=O)c2ccc(-c3c4nc(c(-c5ccc(S(=O)(=O)[O-])cc5)c5ccc([nH]5)c(-c5ccc(S(=O)(=O)[O-])cc5)c5nc(c(-c6ccc(S(=O)(=O)[O-])cc6)c6ccc3[nH]6)C=C5)C=C4)cc2)sc1-c1ccccc1
REMARK SMILES IDX 20 1 19 2 18 3 17 4 15 5 16 6 14 8 8 9 9 10 10 11 13 12
REMARK SMILES IDX 12 13 11 14 6 15 5 16 7 18 4 19 1 20 2 21 3 22 88 23 87 24
REMARK SMILES IDX 89 25 90 26 94 27 91 28 93 29 92 30 21 31 22 32 23 33 24 34
REMARK SMILES IDX 25 35 26 37 27 38 28 39 86 40 29 41 85 42 30 43 31 44 32 45
REMARK SMILES IDX 79 46 33 47 84 48 78 49 80 50 34 51 83 52 77 53 76 54 35 56
REMARK SMILES IDX 65 57 46 58 64 59 47 60 50 61 63 62 81 63 48 64 49 65 62 67
REMARK SMILES IDX 82 68 51 69 36 70 37 71 45 72 38 73 44 74 39 75 40 76 41 77
REMARK SMILES IDX 42 78 43 79 66 80 67 81 75 82 68 83 74 84 69 85 70 86 71 87
REMARK SMILES IDX 72 88 73 89 52 90 53 91 61 92 54 93 60 94 55 95 56 96 57 97
REMARK SMILES IDX 58 98 59 99
REMARK H PARENT 17 7 5 17 24 36 80 55 50 66
REMARK Flexibility Score: inf
ROOT
ATOM      1  C   UNL A   1      35.134  22.867  25.940  1.00  0.00     0.002 C 
ENDROOT
BRANCH   1   2
ATOM      2  C   UNL A   1      34.614  23.935  24.968  1.00  0.00     0.021 C 
BRANCH   2   3
ATOM      3  C   UNL A   1      34.211  25.251  25.626  1.00  0.00     0.116 C 
BRANCH   3   4
ATOM      4  N   UNL A   1      34.498  26.415  24.813  1.00  0.00    -0.356 N 
ATOM      5  C   UNL A   1      33.892  27.625  24.670  1.00  0.00     0.224 C 
ATOM      6  O   UNL A   1      34.487  28.429  23.947  1.00  0.00    -0.275 OA
ATOM      7  H   UNL A   1      35.296  26.308  24.246  1.00  0.00     0.163 HD
BRANCH   5   8
ATOM      8  C   UNL A   1      32.546  27.964  25.342  1.00  0.00     0.094 C 
ATOM      9  C   UNL A   1      31.991  29.335  24.809  1.00  0.00     0.094 C 
ATOM     10  C   UNL A   1      31.984  30.178  26.133  1.00  0.00     0.002 C 
ATOM     11  C   UNL A   1      33.416  30.423  26.649  1.00  0.00     0.005 C 
ATOM     12  C   UNL A   1      31.461  29.147  27.128  1.00  0.00     0.009 C 
ATOM     13  C   UNL A   1      32.620  28.191  26.874  1.00  0.00     0.002 C 
ATOM     14  C   UNL A   1      33.822  29.069  27.233  1.00  0.00     0.005 C 
BRANCH   9  15
ATOM     15  C   UNL A   1      30.570  29.443  24.193  1.00  0.00     0.230 C 
ATOM     16  N   UNL A   1      29.870  28.454  23.589  1.00  0.00    -0.302 N 
ATOM     17  H   UNL A   1      28.923  28.650  23.407  1.00  0.00     0.172 HD
ATOM     18  O   UNL A   1      29.972  30.532  24.236  1.00  0.00    -0.274 OA
BRANCH  16  19
ATOM     19  C   UNL A   1      30.305  27.233  23.201  1.00  0.00     0.190 A 
ATOM     20  C   UNL A   1      32.660  25.124  21.588  1.00  0.00     0.068 C 
ATOM     21  C   UNL A   1      31.514  25.615  22.382  1.00  0.00     0.058 A 
ATOM     22  N   UNL A   1      31.210  26.956  22.311  1.00  0.00    -0.225 NA
ATOM     23  C   UNL A   1      30.794  24.896  23.321  1.00  0.00     0.059 A 
ATOM     24  S   UNL A   1      29.617  25.907  24.037  1.00  0.00    -0.096 S 
BRANCH  23  25
ATOM     25  C   UNL A   1      31.042  23.516  23.712  1.00  0.00    -0.006 A 
ATOM     26  C   UNL A   1      31.650  22.638  22.807  1.00  0.00     0.009 A 
ATOM     27  C   UNL A   1      30.975  23.170  25.071  1.00  0.00     0.009 A 
ATOM     28  C   UNL A   1      32.233  21.456  23.265  1.00  0.00     0.001 A 
ATOM     29  C   UNL A   1      31.559  21.988  25.524  1.00  0.00     0.001 A 
ATOM     30  C   UNL A   1      32.204  21.141  24.623  1.00  0.00     0.000 A 
ENDBRANCH  23  25
ENDBRANCH  16  19
ENDBRANCH   9  15
ENDBRANCH   5   8
ENDBRANCH   3   4
ENDBRANCH   2   3
ENDBRANCH   1   2
BRANCH   1  31
ATOM     31  C   UNL A   1      36.592  22.458  25.731  1.00  0.00     0.002 C 
BRANCH  31  32
ATOM     32  C   UNL A   1      37.522  23.600  25.331  1.00  0.00     0.021 C 
BRANCH  32  33
ATOM     33  C   UNL A   1      38.396  24.118  26.469  1.00  0.00     0.116 C 
BRANCH  33  34
ATOM     34  N   UNL A   1      39.807  23.880  26.212  1.00  0.00    -0.352 N 
ATOM     35  C   UNL A   1      40.873  24.692  26.524  1.00  0.00     0.251 C 
ATOM     36  H   UNL A   1      40.026  23.035  25.759  1.00  0.00     0.163 HD
ATOM     37  O   UNL A   1      41.976  24.493  26.038  1.00  0.00    -0.269 OA
BRANCH  35  38
ATOM     38  C   UNL A   1      40.646  25.824  27.445  1.00  0.00     0.039 A 
ATOM     39  C   UNL A   1      39.653  25.722  28.419  1.00  0.00     0.014 A 
ATOM     40  C   UNL A   1      41.466  26.956  27.376  1.00  0.00     0.014 A 
ATOM     41  C   UNL A   1      39.528  26.731  29.375  1.00  0.00     0.010 A 
ATOM     42  C   UNL A   1      41.383  27.925  28.370  1.00  0.00     0.010 A 
ATOM     43  C   UNL A   1      40.419  27.819  29.383  1.00  0.00    -0.014 A 
BRANCH  43  44
ATOM     44  C   UNL A   1      40.390  28.827  30.472  1.00  0.00     0.031 A 
ATOM     45  C   UNL A   1      41.307  28.694  31.656  1.00  0.00     0.074 A 
ATOM     46  C   UNL A   1      39.481  29.822  30.426  1.00  0.00     0.049 A 
ATOM     47  N   UNL A   1      41.379  29.442  32.727  1.00  0.00    -0.248 NA
ATOM     48  C   UNL A   1      42.248  27.564  31.646  1.00  0.00     0.031 C 
ATOM     49  C   UNL A   1      38.511  30.032  29.348  1.00  0.00     0.029 A 
ATOM     50  N   UNL A   1      39.217  30.838  31.310  1.00  0.00    -0.354 N 
ATOM     51  C   UNL A   1      42.365  28.869  33.521  1.00  0.00     0.074 A 
ATOM     52  C   UNL A   1      42.829  27.686  32.831  1.00  0.00     0.031 C 
ATOM     53  C   UNL A   1      37.775  31.120  29.624  1.00  0.00     0.029 A 
ATOM     54  C   UNL A   1      38.184  31.656  30.918  1.00  0.00     0.049 A 
ATOM     55  H   UNL A   1      39.720  30.968  32.146  1.00  0.00     0.167 HD
ATOM     56  C   UNL A   1      42.847  29.298  34.712  1.00  0.00     0.031 A 
ATOM     57  C   UNL A   1      37.615  32.709  31.536  1.00  0.00     0.031 A 
ATOM     58  C   UNL A   1      42.376  30.475  35.395  1.00  0.00     0.049 A 
ATOM     59  C   UNL A   1      38.144  33.144  32.874  1.00  0.00     0.074 A 
ATOM     60  C   UNL A   1      42.841  31.027  36.576  1.00  0.00     0.029 A 
ATOM     61  N   UNL A   1      41.323  31.272  34.971  1.00  0.00    -0.354 N 
ATOM     62  N   UNL A   1      39.134  32.639  33.572  1.00  0.00    -0.248 NA
ATOM     63  C   UNL A   1      37.483  34.293  33.509  1.00  0.00     0.031 C 
ATOM     64  C   UNL A   1      42.026  32.116  36.901  1.00  0.00     0.029 A 
ATOM     65  C   UNL A   1      41.095  32.285  35.888  1.00  0.00     0.049 A 
ATOM     66  H   UNL A   1      40.812  31.138  34.139  1.00  0.00     0.167 HD
ATOM     67  C   UNL A   1      39.222  33.416  34.720  1.00  0.00     0.074 A 
ATOM     68  C   UNL A   1      38.205  34.442  34.610  1.00  0.00     0.031 C 
ATOM     69  C   UNL A   1      40.067  33.290  35.774  1.00  0.00     0.031 A 
BRANCH  56  70
ATOM     70  C   UNL A   1      43.933  28.481  35.365  1.00  0.00    -0.014 A 
ATOM     71  C   UNL A   1      43.626  27.441  36.260  1.00  0.00     0.010 A 
ATOM     72  C   UNL A   1      45.280  28.726  35.039  1.00  0.00     0.010 A 
ATOM     73  C   UNL A   1      44.645  26.688  36.849  1.00  0.00     0.020 A 
ATOM     74  C   UNL A   1      46.302  27.954  35.602  1.00  0.00     0.020 A 
ATOM     75  C   UNL A   1      45.977  26.951  36.517  1.00  0.00     0.054 A 
BRANCH  75  76
ATOM     76  S   UNL A   1      47.277  25.941  37.278  1.00  0.00     0.124 S 
ATOM     77  O   UNL A   1      46.983  26.097  38.701  1.00  0.00    -0.237 OA
ATOM     78  O   UNL A   1      47.016  24.615  36.725  1.00  0.00    -0.237 OA
ATOM     79  O   UNL A   1      48.516  26.570  36.827  1.00  0.00    -0.744 OA
ENDBRANCH  75  76
ENDBRANCH  56  70
BRANCH  57  80
ATOM     80  C   UNL A   1      36.470  33.414  30.897  1.00  0.00    -0.014 A 
ATOM     81  C   UNL A   1      35.237  33.532  31.562  1.00  0.00     0.010 A 
ATOM     82  C   UNL A   1      36.615  33.992  29.622  1.00  0.00     0.010 A 
ATOM     83  C   UNL A   1      34.168  34.204  30.960  1.00  0.00     0.020 A 
ATOM     84  C   UNL A   1      35.560  34.691  29.029  1.00  0.00     0.020 A 
ATOM     85  C   UNL A   1      34.339  34.784  29.699  1.00  0.00     0.054 A 
BRANCH  85  86
ATOM     86  S   UNL A   1      32.958  35.702  28.965  1.00  0.00     0.124 S 
ATOM     87  O   UNL A   1      33.645  36.808  28.305  1.00  0.00    -0.237 OA
ATOM     88  O   UNL A   1      32.356  34.710  28.079  1.00  0.00    -0.237 OA
ATOM     89  O   UNL A   1      32.142  36.071  30.120  1.00  0.00    -0.744 OA
ENDBRANCH  85  86
ENDBRANCH  57  80
BRANCH  69  90
ATOM     90  C   UNL A   1      39.931  34.287  36.894  1.00  0.00    -0.014 A 
ATOM     91  C   UNL A   1      40.501  35.569  36.795  1.00  0.00     0.010 A 
ATOM     92  C   UNL A   1      39.177  33.959  38.036  1.00  0.00     0.010 A 
ATOM     93  C   UNL A   1      40.340  36.495  37.829  1.00  0.00     0.020 A 
ATOM     94  C   UNL A   1      38.988  34.893  39.058  1.00  0.00     0.020 A 
ATOM     95  C   UNL A   1      39.581  36.152  38.952  1.00  0.00     0.054 A 
BRANCH  95  96
ATOM     96  S   UNL A   1      39.346  37.392  40.255  1.00  0.00     0.124 S 
ATOM     97  O   UNL A   1      38.671  36.618  41.293  1.00  0.00    -0.237 OA
ATOM     98  O   UNL A   1      40.717  37.794  40.563  1.00  0.00    -0.237 OA
ATOM     99  O   UNL A   1      38.531  38.421  39.613  1.00  0.00    -0.744 OA
ENDBRANCH  95  96
ENDBRANCH  69  90
ENDBRANCH  43  44
ENDBRANCH  35  38
ENDBRANCH  33  34
ENDBRANCH  32  33
ENDBRANCH  31  32
ENDBRANCH   1  31
TORSDOF 19
ENDMDL
MODEL 2
REMARK VINA RESULT:     -11.9      6.213     11.575
REMARK SMILES Cc1nc(NC(=O)[C@H]2[C@@H]3CC[C@@H](C3)[C@@H]2C(=O)NCCCCCCNC(=O)c2ccc(-c3c4nc(c(-c5ccc(S(=O)(=O)[O-])cc5)c5ccc([nH]5)c(-c5ccc(S(=O)(=O)[O-])cc5)c5nc(c(-c6ccc(S(=O)(=O)[O-])cc6)c6ccc3[nH]6)C=C5)C=C4)cc2)sc1-c1ccccc1
REMARK SMILES IDX 20 1 19 2 18 3 17 4 15 5 16 6 14 8 8 9 9 10 10 11 13 12
REMARK SMILES IDX 12 13 11 14 6 15 5 16 7 18 4 19 1 20 2 21 3 22 88 23 87 24
REMARK SMILES IDX 89 25 90 26 94 27 91 28 93 29 92 30 21 31 22 32 23 33 24 34
REMARK SMILES IDX 25 35 26 37 27 38 28 39 86 40 29 41 85 42 30 43 31 44 32 45
REMARK SMILES IDX 79 46 33 47 84 48 78 49 80 50 34 51 83 52 77 53 76 54 35 56
REMARK SMILES IDX 65 57 46 58 64 59 47 60 50 61 63 62 81 63 48 64 49 65 62 67
REMARK SMILES IDX 82 68 51 69 36 70 37 71 45 72 38 73 44 74 39 75 40 76 41 77
REMARK SMILES IDX 42 78 43 79 66 80 67 81 75 82 68 83 74 84 69 85 70 86 71 87
REMARK SMILES IDX 72 88 73 89 52 90 53 91 61 92 54 93 60 94 55 95 56 96 57 97
REMARK SMILES IDX 58 98 59 99
REMARK H PARENT 17 7 5 17 24 36 80 55 50 66
REMARK Flexibility Score: inf
ROOT
ATOM      1  C   UNL A   1      32.385  29.666  26.951  1.00  0.00     0.002 C 
ENDROOT
BRANCH   1   2
ATOM      2  C   UNL A   1      31.587  28.365  26.784  1.00  0.00     0.021 C 
BRANCH   2   3
ATOM      3  C   UNL A   1      32.440  27.118  26.579  1.00  0.00     0.116 C 
BRANCH   3   4
ATOM      4  N   UNL A   1      31.778  25.893  26.978  1.00  0.00    -0.356 N 
ATOM      5  C   UNL A   1      31.952  24.587  26.640  1.00  0.00     0.224 C 
ATOM      6  O   UNL A   1      31.258  23.783  27.270  1.00  0.00    -0.275 OA
ATOM      7  H   UNL A   1      31.051  26.035  27.626  1.00  0.00     0.163 HD
BRANCH   5   8
ATOM      8  C   UNL A   1      32.929  24.138  25.534  1.00  0.00     0.094 C 
ATOM      9  C   UNL A   1      32.358  22.891  24.764  1.00  0.00     0.094 C 
ATOM     10  C   UNL A   1      33.455  21.819  25.096  1.00  0.00     0.002 C 
ATOM     11  C   UNL A   1      33.466  21.475  26.599  1.00  0.00     0.005 C 
ATOM     12  C   UNL A   1      34.725  22.652  24.954  1.00  0.00     0.009 C 
ATOM     13  C   UNL A   1      34.304  23.632  26.043  1.00  0.00     0.002 C 
ATOM     14  C   UNL A   1      34.127  22.696  27.241  1.00  0.00     0.005 C 
BRANCH   9  15
ATOM     15  C   UNL A   1      32.190  22.906  23.221  1.00  0.00     0.230 C 
ATOM     16  N   UNL A   1      32.047  23.996  22.431  1.00  0.00    -0.302 N 
ATOM     17  H   UNL A   1      32.121  23.836  21.463  1.00  0.00     0.172 HD
ATOM     18  O   UNL A   1      32.179  21.829  22.602  1.00  0.00    -0.274 OA
BRANCH  16  19
ATOM     19  C   UNL A   1      31.815  25.277  22.801  1.00  0.00     0.190 A 
ATOM     20  C   UNL A   1      32.593  28.739  22.725  1.00  0.00     0.068 C 
ATOM     21  C   UNL A   1      31.919  27.448  22.974  1.00  0.00     0.058 A 
ATOM     22  N   UNL A   1      32.617  26.294  22.696  1.00  0.00    -0.225 NA
ATOM     23  C   UNL A   1      30.591  27.264  23.318  1.00  0.00     0.059 A 
ATOM     24  S   UNL A   1      30.250  25.592  23.421  1.00  0.00    -0.096 S 
BRANCH  23  25
ATOM     25  C   UNL A   1      29.600  28.318  23.487  1.00  0.00    -0.006 A 
ATOM     26  C   UNL A   1      30.020  29.644  23.639  1.00  0.00     0.009 A 
ATOM     27  C   UNL A   1      28.259  28.049  23.174  1.00  0.00     0.009 A 
ATOM     28  C   UNL A   1      29.121  30.691  23.424  1.00  0.00     0.001 A 
ATOM     29  C   UNL A   1      27.364  29.097  22.960  1.00  0.00     0.001 A 
ATOM     30  C   UNL A   1      27.801  30.416  23.067  1.00  0.00     0.000 A 
ENDBRANCH  23  25
ENDBRANCH  16  19
ENDBRANCH   9  15
ENDBRANCH   5   8
ENDBRANCH   3   4
ENDBRANCH   2   3
ENDBRANCH   1   2
BRANCH   1  31
ATOM     31  C   UNL A   1      33.868  29.565  26.597  1.00  0.00     0.002 C 
BRANCH  31  32
ATOM     32  C   UNL A   1      34.782  30.470  27.419  1.00  0.00     0.021 C 
BRANCH  32  33
ATOM     33  C   UNL A   1      35.736  29.718  28.341  1.00  0.00     0.116 C 
BRANCH  33  34
ATOM     34  N   UNL A   1      35.571  30.121  29.728  1.00  0.00    -0.352 N 
ATOM     35  C   UNL A   1      36.527  30.164  30.717  1.00  0.00     0.251 C 
ATOM     36  H   UNL A   1      34.664  30.397  29.992  1.00  0.00     0.163 HD
ATOM     37  O   UNL A   1      36.210  30.286  31.890  1.00  0.00    -0.269 OA
BRANCH  35  38
ATOM     38  C   UNL A   1      37.946  30.040  30.326  1.00  0.00     0.039 A 
ATOM     39  C   UNL A   1      38.875  29.596  31.267  1.00  0.00     0.014 A 
ATOM     40  C   UNL A   1      38.334  30.307  29.009  1.00  0.00     0.014 A 
ATOM     41  C   UNL A   1      40.189  29.349  30.865  1.00  0.00     0.010 A 
ATOM     42  C   UNL A   1      39.625  29.996  28.597  1.00  0.00     0.010 A 
ATOM     43  C   UNL A   1      40.563  29.506  29.518  1.00  0.00    -0.014 A 
BRANCH  43  44
ATOM     44  C   UNL A   1      41.914  29.115  29.046  1.00  0.00     0.031 A 
ATOM     45  C   UNL A   1      43.006  30.141  28.929  1.00  0.00     0.074 A 
ATOM     46  C   UNL A   1      42.132  27.844  28.650  1.00  0.00     0.049 A 
ATOM     47  N   UNL A   1      44.226  29.995  28.480  1.00  0.00    -0.248 NA
ATOM     48  C   UNL A   1      42.680  31.512  29.353  1.00  0.00     0.031 C 
ATOM     49  C   UNL A   1      41.138  26.767  28.678  1.00  0.00     0.029 A 
ATOM     50  N   UNL A   1      43.255  27.244  28.138  1.00  0.00    -0.354 N 
ATOM     51  C   UNL A   1      44.810  31.254  28.557  1.00  0.00     0.074 A 
ATOM     52  C   UNL A   1      43.796  32.159  29.051  1.00  0.00     0.031 C 
ATOM     53  C   UNL A   1      41.703  25.636  28.226  1.00  0.00     0.029 A 
ATOM     54  C   UNL A   1      43.079  25.915  27.829  1.00  0.00     0.049 A 
ATOM     55  H   UNL A   1      44.106  27.719  28.004  1.00  0.00     0.167 HD
ATOM     56  C   UNL A   1      46.078  31.618  28.253  1.00  0.00     0.031 A 
ATOM     57  C   UNL A   1      43.921  25.024  27.272  1.00  0.00     0.031 A 
ATOM     58  C   UNL A   1      47.080  30.711  27.756  1.00  0.00     0.049 A 
ATOM     59  C   UNL A   1      45.313  25.462  26.910  1.00  0.00     0.074 A 
ATOM     60  C   UNL A   1      48.410  30.969  27.476  1.00  0.00     0.029 A 
ATOM     61  N   UNL A   1      46.860  29.376  27.448  1.00  0.00    -0.354 N 
ATOM     62  N   UNL A   1      45.873  26.638  27.068  1.00  0.00    -0.248 NA
ATOM     63  C   UNL A   1      46.189  24.453  26.299  1.00  0.00     0.031 C 
ATOM     64  C   UNL A   1      48.976  29.812  26.935  1.00  0.00     0.029 A 
ATOM     65  C   UNL A   1      48.018  28.810  26.941  1.00  0.00     0.049 A 
ATOM     66  H   UNL A   1      46.007  28.901  27.573  1.00  0.00     0.167 HD
ATOM     67  C   UNL A   1      47.170  26.507  26.587  1.00  0.00     0.074 A 
ATOM     68  C   UNL A   1      47.321  25.130  26.160  1.00  0.00     0.031 C 
ATOM     69  C   UNL A   1      48.149  27.442  26.503  1.00  0.00     0.031 A 
BRANCH  56  70
ATOM     70  C   UNL A   1      46.454  33.067  28.434  1.00  0.00    -0.014 A 
ATOM     71  C   UNL A   1      46.994  33.536  29.645  1.00  0.00     0.010 A 
ATOM     72  C   UNL A   1      46.309  33.963  27.359  1.00  0.00     0.010 A 
ATOM     73  C   UNL A   1      47.345  34.880  29.792  1.00  0.00     0.020 A 
ATOM     74  C   UNL A   1      46.688  35.303  27.491  1.00  0.00     0.020 A 
ATOM     75  C   UNL A   1      47.188  35.756  28.714  1.00  0.00     0.054 A 
BRANCH  75  76
ATOM     76  S   UNL A   1      47.675  37.490  28.926  1.00  0.00     0.124 S 
ATOM     77  O   UNL A   1      46.605  38.000  29.782  1.00  0.00    -0.237 OA
ATOM     78  O   UNL A   1      48.986  37.378  29.560  1.00  0.00    -0.237 OA
ATOM     79  O   UNL A   1      47.685  38.018  27.564  1.00  0.00    -0.744 OA
ENDBRANCH  75  76
ENDBRANCH  56  70
BRANCH  57  80
ATOM     80  C   UNL A   1      43.462  23.632  27.012  1.00  0.00    -0.014 A 
ATOM     81  C   UNL A   1      43.349  22.704  28.063  1.00  0.00     0.010 A 
ATOM     82  C   UNL A   1      43.113  23.231  25.708  1.00  0.00     0.010 A 
ATOM     83  C   UNL A   1      42.909  21.401  27.813  1.00  0.00     0.020 A 
ATOM     84  C   UNL A   1      42.643  21.939  25.459  1.00  0.00     0.020 A 
ATOM     85  C   UNL A   1      42.553  21.028  26.513  1.00  0.00     0.054 A 
BRANCH  85  86
ATOM     86  S   UNL A   1      41.927  19.351  26.224  1.00  0.00     0.124 S 
ATOM     87  O   UNL A   1      40.491  19.580  26.102  1.00  0.00    -0.237 OA
ATOM     88  O   UNL A   1      42.615  18.966  24.995  1.00  0.00    -0.237 OA
ATOM     89  O   UNL A   1      42.346  18.621  27.419  1.00  0.00    -0.744 OA
ENDBRANCH  85  86
ENDBRANCH  57  80
BRANCH  69  90
ATOM     90  C   UNL A   1      49.472  27.011  25.930  1.00  0.00    -0.014 A 
ATOM     91  C   UNL A   1      49.785  27.238  24.578  1.00  0.00     0.010 A 
ATOM     92  C   UNL A   1      50.439  26.422  26.766  1.00  0.00     0.010 A 
ATOM     93  C   UNL A   1      51.029  26.860  24.067  1.00  0.00     0.020 A 
ATOM     94  C   UNL A   1      51.696  26.071  26.267  1.00  0.00     0.020 A 
ATOM     95  C   UNL A   1      51.978  26.283  24.916  1.00  0.00     0.054 A 
BRANCH  95  96
ATOM     96  S   UNL A   1      53.605  25.851  24.238  1.00  0.00     0.124 S 
ATOM     97  O   UNL A   1      53.779  24.482  24.716  1.00  0.00    -0.237 OA
ATOM     98  O   UNL A   1      53.397  25.991  22.799  1.00  0.00    -0.237 OA
ATOM     99  O   UNL A   1      54.503  26.839  24.831  1.00  0.00    -0.744 OA
ENDBRANCH  95  96
ENDBRANCH  69  90
ENDBRANCH  43  44
ENDBRANCH  35  38
ENDBRANCH  33  34
ENDBRANCH  32  33
ENDBRANCH  31  32
ENDBRANCH   1  31
TORSDOF 19
ENDMDL
MODEL 3
REMARK VINA RESULT:     -11.8      6.102     10.354
REMARK SMILES Cc1nc(NC(=O)[C@H]2[C@@H]3CC[C@@H](C3)[C@@H]2C(=O)NCCCCCCNC(=O)c2ccc(-c3c4nc(c(-c5ccc(S(=O)(=O)[O-])cc5)c5ccc([nH]5)c(-c5ccc(S(=O)(=O)[O-])cc5)c5nc(c(-c6ccc(S(=O)(=O)[O-])cc6)c6ccc3[nH]6)C=C5)C=C4)cc2)sc1-c1ccccc1
REMARK SMILES IDX 20 1 19 2 18 3 17 4 15 5 16 6 14 8 8 9 9 10 10 11 13 12
REMARK SMILES IDX 12 13 11 14 6 15 5 16 7 18 4 19 1 20 2 21 3 22 88 23 87 24
REMARK SMILES IDX 89 25 90 26 94 27 91 28 93 29 92 30 21 31 22 32 23 33 24 34
REMARK SMILES IDX 25 35 26 37 27 38 28 39 86 40 29 41 85 42 30 43 31 44 32 45
REMARK SMILES IDX 79 46 33 47 84 48 78 49 80 50 34 51 83 52 77 53 76 54 35 56
REMARK SMILES IDX 65 57 46 58 64 59 47 60 50 61 63 62 81 63 48 64 49 65 62 67
REMARK SMILES IDX 82 68 51 69 36 70 37 71 45 72 38 73 44 74 39 75 40 76 41 77
REMARK SMILES IDX 42 78 43 79 66 80 67 81 75 82 68 83 74 84 69 85 70 86 71 87
REMARK SMILES IDX 72 88 73 89 52 90 53 91 61 92 54 93 60 94 55 95 56 96 57 97
REMARK SMILES IDX 58 98 59 99
REMARK H PARENT 17 7 5 17 24 36 80 55 50 66
REMARK Flexibility Score: inf
ROOT
ATOM      1  C   UNL A   1      36.630  23.412  25.891  1.00  0.00     0.002 C 
ENDROOT
BRANCH   1   2
ATOM      2  C   UNL A   1      35.531  24.318  25.319  1.00  0.00     0.021 C 
BRANCH   2   3
ATOM      3  C   UNL A   1      34.935  23.839  24.000  1.00  0.00     0.116 C 
BRANCH   3   4
ATOM      4  N   UNL A   1      34.457  24.916  23.157  1.00  0.00    -0.356 N 
ATOM      5  C   UNL A   1      33.596  25.949  23.364  1.00  0.00     0.224 C 
ATOM      6  O   UNL A   1      33.503  26.751  22.429  1.00  0.00    -0.275 OA
ATOM      7  H   UNL A   1      34.830  24.895  22.247  1.00  0.00     0.163 HD
BRANCH   5   8
ATOM      8  C   UNL A   1      32.776  26.101  24.661  1.00  0.00     0.094 C 
ATOM      9  C   UNL A   1      31.340  26.659  24.347  1.00  0.00     0.094 C 
ATOM     10  C   UNL A   1      31.382  28.019  25.128  1.00  0.00     0.002 C 
ATOM     11  C   UNL A   1      32.407  28.990  24.508  1.00  0.00     0.005 C 
ATOM     12  C   UNL A   1      32.087  27.593  26.412  1.00  0.00     0.009 C 
ATOM     13  C   UNL A   1      33.338  27.134  25.672  1.00  0.00     0.002 C 
ATOM     14  C   UNL A   1      33.755  28.421  24.954  1.00  0.00     0.005 C 
BRANCH   9  15
ATOM     15  C   UNL A   1      30.065  25.907  24.812  1.00  0.00     0.230 C 
ATOM     16  N   UNL A   1      30.015  24.756  25.523  1.00  0.00    -0.302 N 
ATOM     17  H   UNL A   1      29.130  24.508  25.876  1.00  0.00     0.172 HD
ATOM     18  O   UNL A   1      28.949  26.371  24.524  1.00  0.00    -0.274 OA
BRANCH  16  19
ATOM     19  C   UNL A   1      31.025  23.903  25.812  1.00  0.00     0.190 A 
ATOM     20  C   UNL A   1      33.160  22.258  28.121  1.00  0.00     0.068 C 
ATOM     21  C   UNL A   1      32.469  22.668  26.881  1.00  0.00     0.058 A 
ATOM     22  N   UNL A   1      31.689  23.802  26.924  1.00  0.00    -0.225 NA
ATOM     23  C   UNL A   1      32.394  21.946  25.702  1.00  0.00     0.059 A 
ATOM     24  S   UNL A   1      31.421  22.786  24.576  1.00  0.00    -0.096 S 
BRANCH  23  25
ATOM     25  C   UNL A   1      32.976  20.632  25.469  1.00  0.00    -0.006 A 
ATOM     26  C   UNL A   1      32.160  19.580  25.036  1.00  0.00     0.009 A 
ATOM     27  C   UNL A   1      34.371  20.514  25.362  1.00  0.00     0.009 A 
ATOM     28  C   UNL A   1      32.731  18.448  24.452  1.00  0.00     0.001 A 
ATOM     29  C   UNL A   1      34.937  19.381  24.778  1.00  0.00     0.001 A 
ATOM     30  C   UNL A   1      34.115  18.358  24.306  1.00  0.00     0.000 A 
ENDBRANCH  23  25
ENDBRANCH  16  19
ENDBRANCH   9  15
ENDBRANCH   5   8
ENDBRANCH   3   4
ENDBRANCH   2   3
ENDBRANCH   1   2
BRANCH   1  31
ATOM     31  C   UNL A   1      37.429  22.629  24.850  1.00  0.00     0.002 C 
BRANCH  31  32
ATOM     32  C   UNL A   1      38.001  21.304  25.350  1.00  0.00     0.021 C 
BRANCH  32  33
ATOM     33  C   UNL A   1      39.305  21.444  26.129  1.00  0.00     0.116 C 
BRANCH  33  34
ATOM     34  N   UNL A   1      40.093  20.224  26.079  1.00  0.00    -0.352 N 
ATOM     35  C   UNL A   1      41.462  20.101  26.041  1.00  0.00     0.251 C 
ATOM     36  H   UNL A   1      39.583  19.382  26.071  1.00  0.00     0.163 HD
ATOM     37  O   UNL A   1      41.989  19.036  25.756  1.00  0.00    -0.269 OA
BRANCH  35  38
ATOM     38  C   UNL A   1      42.282  21.294  26.336  1.00  0.00     0.039 A 
ATOM     39  C   UNL A   1      42.630  22.155  25.296  1.00  0.00     0.014 A 
ATOM     40  C   UNL A   1      42.646  21.583  27.656  1.00  0.00     0.014 A 
ATOM     41  C   UNL A   1      43.287  23.351  25.590  1.00  0.00     0.010 A 
ATOM     42  C   UNL A   1      43.239  22.806  27.952  1.00  0.00     0.010 A 
ATOM     43  C   UNL A   1      43.558  23.705  26.924  1.00  0.00    -0.014 A 
BRANCH  43  44
ATOM     44  C   UNL A   1      44.127  25.032  27.266  1.00  0.00     0.031 A 
ATOM     45  C   UNL A   1      43.238  26.136  27.766  1.00  0.00     0.074 A 
ATOM     46  C   UNL A   1      45.439  25.262  27.051  1.00  0.00     0.049 A 
ATOM     47  N   UNL A   1      43.549  27.373  28.056  1.00  0.00    -0.248 NA
ATOM     48  C   UNL A   1      41.814  25.814  27.945  1.00  0.00     0.031 C 
ATOM     49  C   UNL A   1      46.395  24.281  26.530  1.00  0.00     0.029 A 
ATOM     50  N   UNL A   1      46.193  26.394  27.235  1.00  0.00    -0.354 N 
ATOM     51  C   UNL A   1      42.359  27.980  28.441  1.00  0.00     0.074 A 
ATOM     52  C   UNL A   1      41.315  26.989  28.303  1.00  0.00     0.031 C 
ATOM     53  C   UNL A   1      47.610  24.848  26.458  1.00  0.00     0.029 A 
ATOM     54  C   UNL A   1      47.513  26.242  26.877  1.00  0.00     0.049 A 
ATOM     55  H   UNL A   1      45.825  27.235  27.588  1.00  0.00     0.167 HD
ATOM     56  C   UNL A   1      42.158  29.245  28.881  1.00  0.00     0.031 A 
ATOM     57  C   UNL A   1      48.528  27.126  26.870  1.00  0.00     0.031 A 
ATOM     58  C   UNL A   1      43.203  30.229  29.011  1.00  0.00     0.049 A 
ATOM     59  C   UNL A   1      48.273  28.536  27.328  1.00  0.00     0.074 A 
ATOM     60  C   UNL A   1      43.113  31.518  29.504  1.00  0.00     0.029 A 
ATOM     61  N   UNL A   1      44.524  30.039  28.630  1.00  0.00    -0.354 N 
ATOM     62  N   UNL A   1      47.157  29.068  27.768  1.00  0.00    -0.248 NA
ATOM     63  C   UNL A   1      49.412  29.463  27.293  1.00  0.00     0.031 C 
ATOM     64  C   UNL A   1      44.361  32.131  29.357  1.00  0.00     0.029 A 
ATOM     65  C   UNL A   1      45.248  31.201  28.837  1.00  0.00     0.049 A 
ATOM     66  H   UNL A   1      44.893  29.201  28.268  1.00  0.00     0.167 HD
ATOM     67  C   UNL A   1      47.463  30.389  28.074  1.00  0.00     0.074 A 
ATOM     68  C   UNL A   1      48.874  30.565  27.797  1.00  0.00     0.031 C 
ATOM     69  C   UNL A   1      46.650  31.368  28.540  1.00  0.00     0.031 A 
BRANCH  56  70
ATOM     70  C   UNL A   1      40.751  29.648  29.240  1.00  0.00    -0.014 A 
ATOM     71  C   UNL A   1      39.743  29.731  28.263  1.00  0.00     0.010 A 
ATOM     72  C   UNL A   1      40.421  29.901  30.585  1.00  0.00     0.010 A 
ATOM     73  C   UNL A   1      38.442  30.098  28.616  1.00  0.00     0.020 A 
ATOM     74  C   UNL A   1      39.113  30.238  30.947  1.00  0.00     0.020 A 
ATOM     75  C   UNL A   1      38.135  30.351  29.956  1.00  0.00     0.054 A 
BRANCH  75  76
ATOM     76  S   UNL A   1      36.433  30.801  30.388  1.00  0.00     0.124 S 
ATOM     77  O   UNL A   1      35.710  30.445  29.168  1.00  0.00    -0.237 OA
ATOM     78  O   UNL A   1      36.163  29.954  31.547  1.00  0.00    -0.237 OA
ATOM     79  O   UNL A   1      36.511  32.232  30.669  1.00  0.00    -0.744 OA
ENDBRANCH  75  76
ENDBRANCH  56  70
BRANCH  57  80
ATOM     80  C   UNL A   1      49.876  26.705  26.399  1.00  0.00    -0.014 A 
ATOM     81  C   UNL A   1      50.243  26.847  25.049  1.00  0.00     0.010 A 
ATOM     82  C   UNL A   1      50.811  26.176  27.308  1.00  0.00     0.010 A 
ATOM     83  C   UNL A   1      51.513  26.458  24.616  1.00  0.00     0.020 A 
ATOM     84  C   UNL A   1      52.093  25.814  26.885  1.00  0.00     0.020 A 
ATOM     85  C   UNL A   1      52.433  25.949  25.538  1.00  0.00     0.054 A 
BRANCH  85  86
ATOM     86  S   UNL A   1      54.096  25.508  24.963  1.00  0.00     0.124 S 
ATOM     87  O   UNL A   1      54.073  24.051  25.056  1.00  0.00    -0.237 OA
ATOM     88  O   UNL A   1      54.115  26.057  23.610  1.00  0.00    -0.237 OA
ATOM     89  O   UNL A   1      54.976  26.183  25.915  1.00  0.00    -0.744 OA
ENDBRANCH  85  86
ENDBRANCH  57  80
BRANCH  69  90
ATOM     90  C   UNL A   1      47.263  32.722  28.782  1.00  0.00    -0.014 A 
ATOM     91  C   UNL A   1      47.252  33.712  27.784  1.00  0.00     0.010 A 
ATOM     92  C   UNL A   1      47.807  33.028  30.043  1.00  0.00     0.010 A 
ATOM     93  C   UNL A   1      47.797  34.974  28.034  1.00  0.00     0.020 A 
ATOM     94  C   UNL A   1      48.325  34.299  30.308  1.00  0.00     0.020 A 
ATOM     95  C   UNL A   1      48.326  35.260  29.296  1.00  0.00     0.054 A 
BRANCH  95  96
ATOM     96  S   UNL A   1      48.980  36.924  29.608  1.00  0.00     0.124 S 
ATOM     97  O   UNL A   1      47.761  37.687  29.861  1.00  0.00    -0.237 OA
ATOM     98  O   UNL A   1      49.842  36.714  30.769  1.00  0.00    -0.237 OA
ATOM     99  O   UNL A   1      49.681  37.259  28.371  1.00  0.00    -0.744 OA
ENDBRANCH  95  96
ENDBRANCH  69  90
ENDBRANCH  43  44
ENDBRANCH  35  38
ENDBRANCH  33  34
ENDBRANCH  32  33
ENDBRANCH  31  32
ENDBRANCH   1  31
TORSDOF 19
ENDMDL
