MODEL 1
REMARK VINA RESULT:     -10.4      0.000      0.000
REMARK SMILES CCOc1cc2nccc(Nc3ccc(C(=O)NCCCCCCNC(=O)c4ccc(-c5c6nc(c(-c7ccc(S(=O)(=O)[O-])cc7)c7ccc([nH]7)c(-c7ccc(S(=O)(=O)[O-])cc7)c7nc(c(-c8ccc(S(=O)(=O)[O-])cc8)c8ccc5[nH]8)C=C7)C=C6)cc4)cc3)c2cc1OCC
REMARK SMILES IDX 21 1 20 2 19 3 18 4 16 5 17 6 15 8 12 9 13 10 89 11 14 12
REMARK SMILES IDX 88 13 11 14 10 16 4 17 5 18 92 19 6 20 91 21 7 22 90 23 8 24
REMARK SMILES IDX 9 25 3 26 2 27 1 28 93 29 94 30 95 31 22 32 23 33 24 34
REMARK SMILES IDX 25 35 26 36 27 38 28 39 29 40 87 41 30 42 86 43 31 44 32 45
REMARK SMILES IDX 33 46 80 47 34 48 85 49 79 50 81 51 35 52 84 53 78 54 77 55
REMARK SMILES IDX 36 57 66 58 47 59 65 60 48 61 51 62 64 63 82 64 49 65 50 66
REMARK SMILES IDX 63 68 83 69 52 70 37 71 38 72 46 73 39 74 45 75 40 76 41 77
REMARK SMILES IDX 42 78 43 79 44 80 67 81 68 82 76 83 69 84 75 85 70 86 71 87
REMARK SMILES IDX 72 88 73 89 74 90 53 91 54 92 62 93 55 94 61 95 56 96 57 97
REMARK SMILES IDX 58 98 59 99 60 100
REMARK H PARENT 18 7 11 15 25 37 81 56 51 67
REMARK Flexibility Score: inf
ROOT
ATOM      1  C   UNL A   1      33.183  29.700  26.458  1.00  0.00     0.002 C 
ENDROOT
BRANCH   1   2
ATOM      2  C   UNL A   1      33.249  28.737  25.267  1.00  0.00     0.021 C 
BRANCH   2   3
ATOM      3  C   UNL A   1      32.425  27.469  25.494  1.00  0.00     0.116 C 
BRANCH   3   4
ATOM      4  N   UNL A   1      31.251  27.507  24.645  1.00  0.00    -0.352 N 
ATOM      5  C   UNL A   1      30.512  26.511  24.065  1.00  0.00     0.251 C 
ATOM      6  O   UNL A   1      29.591  26.835  23.316  1.00  0.00    -0.269 OA
ATOM      7  H   UNL A   1      30.925  28.415  24.449  1.00  0.00     0.163 HD
BRANCH   5   8
ATOM      8  C   UNL A   1      30.717  25.076  24.389  1.00  0.00     0.039 A 
ATOM      9  C   UNL A   1      31.287  22.459  25.248  1.00  0.00     0.038 A 
ATOM     10  C   UNL A   1      30.847  23.427  26.157  1.00  0.00     0.027 A 
ATOM     11  C   UNL A   1      31.392  22.795  23.900  1.00  0.00     0.027 A 
ATOM     12  C   UNL A   1      30.575  24.725  25.735  1.00  0.00     0.016 A 
ATOM     13  C   UNL A   1      31.052  24.082  23.465  1.00  0.00     0.016 A 
BRANCH   9  14
ATOM     14  N   UNL A   1      31.623  21.193  25.731  1.00  0.00    -0.355 N 
ATOM     15  H   UNL A   1      31.028  20.867  26.444  1.00  0.00     0.167 HD
BRANCH  14  16
ATOM     16  C   UNL A   1      32.656  20.289  25.392  1.00  0.00     0.050 A 
ATOM     17  C   UNL A   1      36.643  21.679  25.268  1.00  0.00     0.163 A 
ATOM     18  C   UNL A   1      36.320  20.380  24.849  1.00  0.00     0.079 A 
ATOM     19  C   UNL A   1      35.648  22.487  25.814  1.00  0.00     0.161 A 
ATOM     20  C   UNL A   1      35.014  19.884  24.926  1.00  0.00     0.076 A 
ATOM     21  C   UNL A   1      34.344  22.018  25.867  1.00  0.00     0.063 A 
ATOM     22  N   UNL A   1      34.742  18.632  24.518  1.00  0.00    -0.256 NA
ATOM     23  C   UNL A   1      33.998  20.738  25.403  1.00  0.00     0.028 A 
ATOM     24  C   UNL A   1      33.460  18.198  24.590  1.00  0.00     0.114 A 
ATOM     25  C   UNL A   1      32.398  18.974  25.020  1.00  0.00     0.047 A 
BRANCH  17  26
ATOM     26  O   UNL A   1      37.868  22.236  25.025  1.00  0.00    -0.490 OA
BRANCH  26  27
ATOM     27  C   UNL A   1      38.923  21.796  25.882  1.00  0.00     0.226 C 
ATOM     28  C   UNL A   1      39.318  22.987  26.747  1.00  0.00     0.049 C 
ENDBRANCH  26  27
ENDBRANCH  17  26
BRANCH  19  29
ATOM     29  O   UNL A   1      35.782  23.754  26.306  1.00  0.00    -0.490 OA
BRANCH  29  30
ATOM     30  C   UNL A   1      34.821  24.717  25.880  1.00  0.00     0.226 C 
ATOM     31  C   UNL A   1      34.617  24.790  24.372  1.00  0.00     0.049 C 
ENDBRANCH  29  30
ENDBRANCH  19  29
ENDBRANCH  14  16
ENDBRANCH   9  14
ENDBRANCH   5   8
ENDBRANCH   3   4
ENDBRANCH   2   3
ENDBRANCH   1   2
BRANCH   1  32
ATOM     32  C   UNL A   1      31.799  30.321  26.692  1.00  0.00     0.002 C 
BRANCH  32  33
ATOM     33  C   UNL A   1      31.781  31.852  26.689  1.00  0.00     0.021 C 
BRANCH  33  34
ATOM     34  C   UNL A   1      32.996  32.483  27.358  1.00  0.00     0.116 C 
BRANCH  34  35
ATOM     35  N   UNL A   1      32.735  33.865  27.729  1.00  0.00    -0.352 N 
ATOM     36  C   UNL A   1      33.247  34.586  28.778  1.00  0.00     0.251 C 
ATOM     37  H   UNL A   1      32.104  34.350  27.150  1.00  0.00     0.163 HD
ATOM     38  O   UNL A   1      32.733  35.651  29.102  1.00  0.00    -0.269 OA
BRANCH  36  39
ATOM     39  C   UNL A   1      34.418  34.066  29.515  1.00  0.00     0.039 A 
ATOM     40  C   UNL A   1      34.214  33.192  30.585  1.00  0.00     0.014 A 
ATOM     41  C   UNL A   1      35.712  34.460  29.163  1.00  0.00     0.014 A 
ATOM     42  C   UNL A   1      35.313  32.685  31.281  1.00  0.00     0.010 A 
ATOM     43  C   UNL A   1      36.808  33.896  29.807  1.00  0.00     0.010 A 
ATOM     44  C   UNL A   1      36.619  33.018  30.885  1.00  0.00    -0.014 A 
BRANCH  44  45
ATOM     45  C   UNL A   1      37.803  32.498  31.616  1.00  0.00     0.031 A 
ATOM     46  C   UNL A   1      38.682  31.461  30.968  1.00  0.00     0.074 A 
ATOM     47  C   UNL A   1      38.064  32.927  32.867  1.00  0.00     0.049 A 
ATOM     48  N   UNL A   1      39.714  30.828  31.464  1.00  0.00    -0.248 NA
ATOM     49  C   UNL A   1      38.342  31.065  29.590  1.00  0.00     0.031 C 
ATOM     50  C   UNL A   1      37.274  33.911  33.611  1.00  0.00     0.029 A 
ATOM     51  N   UNL A   1      39.069  32.585  33.737  1.00  0.00    -0.354 N 
ATOM     52  C   UNL A   1      40.143  29.963  30.464  1.00  0.00     0.074 A 
ATOM     53  C   UNL A   1      39.222  30.101  29.358  1.00  0.00     0.031 C 
ATOM     54  C   UNL A   1      37.841  34.113  34.813  1.00  0.00     0.029 A 
ATOM     55  C   UNL A   1      39.006  33.244  34.943  1.00  0.00     0.049 A 
ATOM     56  H   UNL A   1      39.770  31.929  33.518  1.00  0.00     0.167 HD
ATOM     57  C   UNL A   1      41.224  29.147  30.453  1.00  0.00     0.031 A 
ATOM     58  C   UNL A   1      39.795  33.153  36.031  1.00  0.00     0.031 A 
ATOM     59  C   UNL A   1      42.147  29.020  31.548  1.00  0.00     0.049 A 
ATOM     60  C   UNL A   1      40.971  32.210  36.003  1.00  0.00     0.074 A 
ATOM     61  C   UNL A   1      43.281  28.232  31.631  1.00  0.00     0.029 A 
ATOM     62  N   UNL A   1      42.051  29.711  32.746  1.00  0.00    -0.354 N 
ATOM     63  N   UNL A   1      41.376  31.422  35.035  1.00  0.00    -0.248 NA
ATOM     64  C   UNL A   1      41.806  32.158  37.211  1.00  0.00     0.031 C 
ATOM     65  C   UNL A   1      43.851  28.417  32.894  1.00  0.00     0.029 A 
ATOM     66  C   UNL A   1      43.104  29.365  33.574  1.00  0.00     0.049 A 
ATOM     67  H   UNL A   1      41.340  30.352  32.974  1.00  0.00     0.167 HD
ATOM     68  C   UNL A   1      42.539  30.818  35.501  1.00  0.00     0.074 A 
ATOM     69  C   UNL A   1      42.777  31.338  36.831  1.00  0.00     0.031 C 
ATOM     70  C   UNL A   1      43.339  29.915  34.884  1.00  0.00     0.031 A 
BRANCH  57  71
ATOM     71  C   UNL A   1      41.481  28.344  29.205  1.00  0.00    -0.014 A 
ATOM     72  C   UNL A   1      42.299  28.855  28.179  1.00  0.00     0.010 A 
ATOM     73  C   UNL A   1      40.961  27.044  29.081  1.00  0.00     0.010 A 
ATOM     74  C   UNL A   1      42.570  28.091  27.042  1.00  0.00     0.020 A 
ATOM     75  C   UNL A   1      41.253  26.265  27.957  1.00  0.00     0.020 A 
ATOM     76  C   UNL A   1      42.047  26.798  26.940  1.00  0.00     0.054 A 
BRANCH  76  77
ATOM     77  S   UNL A   1      42.460  25.812  25.475  1.00  0.00     0.124 S 
ATOM     78  O   UNL A   1      43.094  26.805  24.612  1.00  0.00    -0.237 OA
ATOM     79  O   UNL A   1      43.352  24.792  26.019  1.00  0.00    -0.237 OA
ATOM     80  O   UNL A   1      41.166  25.320  25.011  1.00  0.00    -0.744 OA
ENDBRANCH  76  77
ENDBRANCH  57  71
BRANCH  58  81
ATOM     81  C   UNL A   1      39.515  33.972  37.243  1.00  0.00    -0.014 A 
ATOM     82  C   UNL A   1      40.053  35.265  37.373  1.00  0.00     0.010 A 
ATOM     83  C   UNL A   1      38.749  33.444  38.298  1.00  0.00     0.010 A 
ATOM     84  C   UNL A   1      39.879  35.992  38.554  1.00  0.00     0.020 A 
ATOM     85  C   UNL A   1      38.543  34.182  39.467  1.00  0.00     0.020 A 
ATOM     86  C   UNL A   1      39.131  35.441  39.598  1.00  0.00     0.054 A 
BRANCH  86  87
ATOM     87  S   UNL A   1      38.926  36.393  41.128  1.00  0.00     0.124 S 
ATOM     88  O   UNL A   1      40.230  36.228  41.762  1.00  0.00    -0.237 OA
ATOM     89  O   UNL A   1      38.629  37.733  40.630  1.00  0.00    -0.237 OA
ATOM     90  O   UNL A   1      37.813  35.724  41.798  1.00  0.00    -0.744 OA
ENDBRANCH  86  87
ENDBRANCH  58  81
BRANCH  70  91
ATOM     91  C   UNL A   1      44.589  29.486  35.607  1.00  0.00    -0.014 A 
ATOM     92  C   UNL A   1      45.798  30.189  35.469  1.00  0.00     0.010 A 
ATOM     93  C   UNL A   1      44.533  28.382  36.479  1.00  0.00     0.010 A 
ATOM     94  C   UNL A   1      46.939  29.771  36.160  1.00  0.00     0.020 A 
ATOM     95  C   UNL A   1      45.661  27.982  37.195  1.00  0.00     0.020 A 
ATOM     96  C   UNL A   1      46.863  28.670  37.019  1.00  0.00     0.054 A 
BRANCH  96  97
ATOM     97  S   UNL A   1      48.347  28.172  37.934  1.00  0.00     0.124 S 
ATOM     98  O   UNL A   1      48.812  29.447  38.474  1.00  0.00    -0.237 OA
ATOM     99  O   UNL A   1      47.817  27.229  38.916  1.00  0.00    -0.237 OA
ATOM    100  O   UNL A   1      49.204  27.580  36.910  1.00  0.00    -0.744 OA
ENDBRANCH  96  97
ENDBRANCH  70  91
ENDBRANCH  44  45
ENDBRANCH  36  39
ENDBRANCH  34  35
ENDBRANCH  33  34
ENDBRANCH  32  33
ENDBRANCH   1  32
TORSDOF 22
ENDMDL
MODEL 2
REMARK VINA RESULT:      -9.8      5.604     10.749
REMARK SMILES CCOc1cc2nccc(Nc3ccc(C(=O)NCCCCCCNC(=O)c4ccc(-c5c6nc(c(-c7ccc(S(=O)(=O)[O-])cc7)c7ccc([nH]7)c(-c7ccc(S(=O)(=O)[O-])cc7)c7nc(c(-c8ccc(S(=O)(=O)[O-])cc8)c8ccc5[nH]8)C=C7)C=C6)cc4)cc3)c2cc1OCC
REMARK SMILES IDX 21 1 20 2 19 3 18 4 16 5 17 6 15 8 12 9 13 10 89 11 14 12
REMARK SMILES IDX 88 13 11 14 10 16 4 17 5 18 92 19 6 20 91 21 7 22 90 23 8 24
REMARK SMILES IDX 9 25 3 26 2 27 1 28 93 29 94 30 95 31 22 32 23 33 24 34
REMARK SMILES IDX 25 35 26 36 27 38 28 39 29 40 87 41 30 42 86 43 31 44 32 45
REMARK SMILES IDX 33 46 80 47 34 48 85 49 79 50 81 51 35 52 84 53 78 54 77 55
REMARK SMILES IDX 36 57 66 58 47 59 65 60 48 61 51 62 64 63 82 64 49 65 50 66
REMARK SMILES IDX 63 68 83 69 52 70 37 71 38 72 46 73 39 74 45 75 40 76 41 77
REMARK SMILES IDX 42 78 43 79 44 80 67 81 68 82 76 83 69 84 75 85 70 86 71 87
REMARK SMILES IDX 72 88 73 89 74 90 53 91 54 92 62 93 55 94 61 95 56 96 57 97
REMARK SMILES IDX 58 98 59 99 60 100
REMARK H PARENT 18 7 11 15 25 37 81 56 51 67
REMARK Flexibility Score: inf
ROOT
ATOM      1  C   UNL A   1      44.457  23.871  24.955  1.00  0.00     0.002 C 
ENDROOT
BRANCH   1   2
ATOM      2  C   UNL A   1      43.655  24.152  26.232  1.00  0.00     0.021 C 
BRANCH   2   3
ATOM      3  C   UNL A   1      42.301  24.798  25.941  1.00  0.00     0.116 C 
BRANCH   3   4
ATOM      4  N   UNL A   1      42.514  26.083  25.305  1.00  0.00    -0.352 N 
ATOM      5  C   UNL A   1      41.899  27.295  25.468  1.00  0.00     0.251 C 
ATOM      6  O   UNL A   1      42.237  28.219  24.729  1.00  0.00    -0.269 OA
ATOM      7  H   UNL A   1      43.232  26.084  24.632  1.00  0.00     0.163 HD
BRANCH   5   8
ATOM      8  C   UNL A   1      40.928  27.555  26.562  1.00  0.00     0.039 A 
ATOM      9  C   UNL A   1      39.259  28.314  28.694  1.00  0.00     0.038 A 
ATOM     10  C   UNL A   1      39.598  29.232  27.695  1.00  0.00     0.027 A 
ATOM     11  C   UNL A   1      39.719  27.002  28.593  1.00  0.00     0.027 A 
ATOM     12  C   UNL A   1      40.433  28.860  26.645  1.00  0.00     0.016 A 
ATOM     13  C   UNL A   1      40.502  26.611  27.500  1.00  0.00     0.016 A 
BRANCH   9  14
ATOM     14  N   UNL A   1      38.483  28.753  29.769  1.00  0.00    -0.355 N 
ATOM     15  H   UNL A   1      37.551  28.960  29.530  1.00  0.00     0.167 HD
BRANCH  14  16
ATOM     16  C   UNL A   1      38.782  28.959  31.136  1.00  0.00     0.050 A 
ATOM     17  C   UNL A   1      36.482  31.729  33.345  1.00  0.00     0.163 A 
ATOM     18  C   UNL A   1      37.611  31.118  33.910  1.00  0.00     0.079 A 
ATOM     19  C   UNL A   1      36.065  31.348  32.072  1.00  0.00     0.161 A 
ATOM     20  C   UNL A   1      38.359  30.164  33.213  1.00  0.00     0.076 A 
ATOM     21  C   UNL A   1      36.816  30.425  31.359  1.00  0.00     0.063 A 
ATOM     22  N   UNL A   1      39.435  29.597  33.787  1.00  0.00    -0.256 NA
ATOM     23  C   UNL A   1      37.978  29.845  31.893  1.00  0.00     0.028 A 
ATOM     24  C   UNL A   1      40.143  28.693  33.068  1.00  0.00     0.114 A 
ATOM     25  C   UNL A   1      39.858  28.339  31.761  1.00  0.00     0.047 A 
BRANCH  17  26
ATOM     26  O   UNL A   1      35.859  32.791  33.940  1.00  0.00    -0.490 OA
BRANCH  26  27
ATOM     27  C   UNL A   1      36.457  34.066  33.702  1.00  0.00     0.226 C 
ATOM     28  C   UNL A   1      35.352  35.107  33.836  1.00  0.00     0.049 C 
ENDBRANCH  26  27
ENDBRANCH  17  26
BRANCH  19  29
ATOM     29  O   UNL A   1      34.977  31.801  31.383  1.00  0.00    -0.490 OA
BRANCH  29  30
ATOM     30  C   UNL A   1      35.227  32.648  30.263  1.00  0.00     0.226 C 
ATOM     31  C   UNL A   1      34.643  34.051  30.384  1.00  0.00     0.049 C 
ENDBRANCH  29  30
ENDBRANCH  19  29
ENDBRANCH  14  16
ENDBRANCH   9  14
ENDBRANCH   5   8
ENDBRANCH   3   4
ENDBRANCH   2   3
ENDBRANCH   1   2
BRANCH   1  32
ATOM     32  C   UNL A   1      45.901  23.416  25.205  1.00  0.00     0.002 C 
BRANCH  32  33
ATOM     33  C   UNL A   1      46.930  24.010  24.239  1.00  0.00     0.021 C 
BRANCH  33  34
ATOM     34  C   UNL A   1      47.868  25.022  24.884  1.00  0.00     0.116 C 
BRANCH  34  35
ATOM     35  N   UNL A   1      48.188  26.104  23.968  1.00  0.00    -0.352 N 
ATOM     36  C   UNL A   1      47.781  27.414  24.006  1.00  0.00     0.251 C 
ATOM     37  H   UNL A   1      48.776  25.865  23.215  1.00  0.00     0.163 HD
ATOM     38  O   UNL A   1      47.927  28.133  23.023  1.00  0.00    -0.269 OA
BRANCH  36  39
ATOM     39  C   UNL A   1      47.164  27.947  25.238  1.00  0.00     0.039 A 
ATOM     40  C   UNL A   1      45.791  27.783  25.436  1.00  0.00     0.014 A 
ATOM     41  C   UNL A   1      47.936  28.629  26.183  1.00  0.00     0.014 A 
ATOM     42  C   UNL A   1      45.198  28.273  26.601  1.00  0.00     0.010 A 
ATOM     43  C   UNL A   1      47.358  29.049  27.377  1.00  0.00     0.010 A 
ATOM     44  C   UNL A   1      45.981  28.892  27.590  1.00  0.00    -0.014 A 
BRANCH  44  45
ATOM     45  C   UNL A   1      45.371  29.428  28.833  1.00  0.00     0.031 A 
ATOM     46  C   UNL A   1      45.249  28.542  30.045  1.00  0.00     0.074 A 
ATOM     47  C   UNL A   1      44.895  30.690  28.861  1.00  0.00     0.049 A 
ATOM     48  N   UNL A   1      44.683  28.794  31.197  1.00  0.00    -0.248 NA
ATOM     49  C   UNL A   1      45.816  27.186  29.940  1.00  0.00     0.031 C 
ATOM     50  C   UNL A   1      44.934  31.638  27.745  1.00  0.00     0.029 A 
ATOM     51  N   UNL A   1      44.282  31.391  29.868  1.00  0.00    -0.354 N 
ATOM     52  C   UNL A   1      44.825  27.634  31.950  1.00  0.00     0.074 A 
ATOM     53  C   UNL A   1      45.468  26.655  31.103  1.00  0.00     0.031 C 
ATOM     54  C   UNL A   1      44.395  32.804  28.139  1.00  0.00     0.029 A 
ATOM     55  C   UNL A   1      43.934  32.675  29.517  1.00  0.00     0.049 A 
ATOM     56  H   UNL A   1      44.108  31.011  30.760  1.00  0.00     0.167 HD
ATOM     57  C   UNL A   1      44.478  27.410  33.240  1.00  0.00     0.031 A 
ATOM     58  C   UNL A   1      43.308  33.635  30.225  1.00  0.00     0.031 A 
ATOM     59  C   UNL A   1      43.849  28.390  34.085  1.00  0.00     0.049 A 
ATOM     60  C   UNL A   1      42.901  33.345  31.647  1.00  0.00     0.074 A 
ATOM     61  C   UNL A   1      43.471  28.266  35.410  1.00  0.00     0.029 A 
ATOM     62  N   UNL A   1      43.521  29.678  33.692  1.00  0.00    -0.354 N 
ATOM     63  N   UNL A   1      43.071  32.250  32.349  1.00  0.00    -0.248 NA
ATOM     64  C   UNL A   1      42.233  34.431  32.379  1.00  0.00     0.031 C 
ATOM     65  C   UNL A   1      42.879  29.469  35.808  1.00  0.00     0.029 A 
ATOM     66  C   UNL A   1      42.943  30.359  34.749  1.00  0.00     0.049 A 
ATOM     67  H   UNL A   1      43.677  30.052  32.796  1.00  0.00     0.167 HD
ATOM     68  C   UNL A   1      42.573  32.532  33.617  1.00  0.00     0.074 A 
ATOM     69  C   UNL A   1      42.106  33.903  33.587  1.00  0.00     0.031 C 
ATOM     70  C   UNL A   1      42.510  31.731  34.708  1.00  0.00     0.031 A 
BRANCH  57  71
ATOM     71  C   UNL A   1      44.793  26.059  33.824  1.00  0.00    -0.014 A 
ATOM     72  C   UNL A   1      46.061  25.793  34.374  1.00  0.00     0.010 A 
ATOM     73  C   UNL A   1      43.798  25.067  33.888  1.00  0.00     0.010 A 
ATOM     74  C   UNL A   1      46.337  24.552  34.953  1.00  0.00     0.020 A 
ATOM     75  C   UNL A   1      44.061  23.834  34.493  1.00  0.00     0.020 A 
ATOM     76  C   UNL A   1      45.333  23.581  35.012  1.00  0.00     0.054 A 
BRANCH  76  77
ATOM     77  S   UNL A   1      45.706  22.000  35.817  1.00  0.00     0.124 S 
ATOM     78  O   UNL A   1      47.115  21.814  35.478  1.00  0.00    -0.237 OA
ATOM     79  O   UNL A   1      45.431  22.285  37.222  1.00  0.00    -0.237 OA
ATOM     80  O   UNL A   1      44.784  21.061  35.183  1.00  0.00    -0.744 OA
ENDBRANCH  76  77
ENDBRANCH  57  71
BRANCH  58  81
ATOM     81  C   UNL A   1      43.024  34.964  29.615  1.00  0.00    -0.014 A 
ATOM     82  C   UNL A   1      41.879  35.157  28.822  1.00  0.00     0.010 A 
ATOM     83  C   UNL A   1      43.924  36.032  29.784  1.00  0.00     0.010 A 
ATOM     84  C   UNL A   1      41.667  36.372  28.164  1.00  0.00     0.020 A 
ATOM     85  C   UNL A   1      43.698  37.260  29.156  1.00  0.00     0.020 A 
ATOM     86  C   UNL A   1      42.584  37.413  28.329  1.00  0.00     0.054 A 
BRANCH  86  87
ATOM     87  S   UNL A   1      42.299  38.979  27.457  1.00  0.00     0.124 S 
ATOM     88  O   UNL A   1      43.626  39.271  26.923  1.00  0.00    -0.237 OA
ATOM     89  O   UNL A   1      41.286  38.613  26.471  1.00  0.00    -0.237 OA
ATOM     90  O   UNL A   1      41.836  39.876  28.513  1.00  0.00    -0.744 OA
ENDBRANCH  86  87
ENDBRANCH  58  81
BRANCH  70  91
ATOM     91  C   UNL A   1      41.984  32.335  35.984  1.00  0.00    -0.014 A 
ATOM     92  C   UNL A   1      40.626  32.249  36.336  1.00  0.00     0.010 A 
ATOM     93  C   UNL A   1      42.883  32.962  36.868  1.00  0.00     0.010 A 
ATOM     94  C   UNL A   1      40.171  32.812  37.531  1.00  0.00     0.020 A 
ATOM     95  C   UNL A   1      42.438  33.497  38.077  1.00  0.00     0.020 A 
ATOM     96  C   UNL A   1      41.079  33.433  38.393  1.00  0.00     0.054 A 
BRANCH  96  97
ATOM     97  S   UNL A   1      40.469  34.122  39.956  1.00  0.00     0.124 S 
ATOM     98  O   UNL A   1      41.089  33.238  40.939  1.00  0.00    -0.237 OA
ATOM     99  O   UNL A   1      40.985  35.489  39.926  1.00  0.00    -0.237 OA
ATOM    100  O   UNL A   1      39.017  34.007  39.843  1.00  0.00    -0.744 OA
ENDBRANCH  96  97
ENDBRANCH  70  91
ENDBRANCH  44  45
ENDBRANCH  36  39
ENDBRANCH  34  35
ENDBRANCH  33  34
ENDBRANCH  32  33
ENDBRANCH   1  32
TORSDOF 22
ENDMDL
MODEL 3
REMARK VINA RESULT:      -9.8      5.336     11.174
REMARK SMILES CCOc1cc2nccc(Nc3ccc(C(=O)NCCCCCCNC(=O)c4ccc(-c5c6nc(c(-c7ccc(S(=O)(=O)[O-])cc7)c7ccc([nH]7)c(-c7ccc(S(=O)(=O)[O-])cc7)c7nc(c(-c8ccc(S(=O)(=O)[O-])cc8)c8ccc5[nH]8)C=C7)C=C6)cc4)cc3)c2cc1OCC
REMARK SMILES IDX 21 1 20 2 19 3 18 4 16 5 17 6 15 8 12 9 13 10 89 11 14 12
REMARK SMILES IDX 88 13 11 14 10 16 4 17 5 18 92 19 6 20 91 21 7 22 90 23 8 24
REMARK SMILES IDX 9 25 3 26 2 27 1 28 93 29 94 30 95 31 22 32 23 33 24 34
REMARK SMILES IDX 25 35 26 36 27 38 28 39 29 40 87 41 30 42 86 43 31 44 32 45
REMARK SMILES IDX 33 46 80 47 34 48 85 49 79 50 81 51 35 52 84 53 78 54 77 55
REMARK SMILES IDX 36 57 66 58 47 59 65 60 48 61 51 62 64 63 82 64 49 65 50 66
REMARK SMILES IDX 63 68 83 69 52 70 37 71 38 72 46 73 39 74 45 75 40 76 41 77
REMARK SMILES IDX 42 78 43 79 44 80 67 81 68 82 76 83 69 84 75 85 70 86 71 87
REMARK SMILES IDX 72 88 73 89 74 90 53 91 54 92 62 93 55 94 61 95 56 96 57 97
REMARK SMILES IDX 58 98 59 99 60 100
REMARK H PARENT 18 7 11 15 25 37 81 56 51 67
REMARK Flexibility Score: inf
ROOT
ATOM      1  C   UNL A   1      43.434  24.172  25.215  1.00  0.00     0.002 C 
ENDROOT
BRANCH   1   2
ATOM      2  C   UNL A   1      44.934  24.060  24.916  1.00  0.00     0.021 C 
BRANCH   2   3
ATOM      3  C   UNL A   1      45.724  25.263  25.433  1.00  0.00     0.116 C 
BRANCH   3   4
ATOM      4  N   UNL A   1      47.039  24.822  25.852  1.00  0.00    -0.352 N 
ATOM      5  C   UNL A   1      47.613  24.709  27.090  1.00  0.00     0.251 C 
ATOM      6  O   UNL A   1      48.794  24.372  27.152  1.00  0.00    -0.269 OA
ATOM      7  H   UNL A   1      47.629  24.556  25.111  1.00  0.00     0.163 HD
BRANCH   5   8
ATOM      8  C   UNL A   1      46.835  24.875  28.346  1.00  0.00     0.039 A 
ATOM      9  C   UNL A   1      45.102  25.208  30.535  1.00  0.00     0.038 A 
ATOM     10  C   UNL A   1      44.822  24.262  29.543  1.00  0.00     0.027 A 
ATOM     11  C   UNL A   1      46.279  25.949  30.450  1.00  0.00     0.027 A 
ATOM     12  C   UNL A   1      45.673  24.104  28.454  1.00  0.00     0.016 A 
ATOM     13  C   UNL A   1      47.169  25.741  29.390  1.00  0.00     0.016 A 
BRANCH   9  14
ATOM     14  N   UNL A   1      44.179  25.386  31.568  1.00  0.00    -0.355 N 
ATOM     15  H   UNL A   1      43.575  24.620  31.699  1.00  0.00     0.167 HD
BRANCH  14  16
ATOM     16  C   UNL A   1      43.947  26.457  32.462  1.00  0.00     0.050 A 
ATOM     17  C   UNL A   1      44.915  25.970  36.545  1.00  0.00     0.163 A 
ATOM     18  C   UNL A   1      44.248  27.120  36.095  1.00  0.00     0.079 A 
ATOM     19  C   UNL A   1      45.341  25.021  35.618  1.00  0.00     0.161 A 
ATOM     20  C   UNL A   1      43.960  27.321  34.741  1.00  0.00     0.076 A 
ATOM     21  C   UNL A   1      45.034  25.196  34.277  1.00  0.00     0.063 A 
ATOM     22  N   UNL A   1      43.321  28.437  34.345  1.00  0.00    -0.256 NA
ATOM     23  C   UNL A   1      44.321  26.317  33.820  1.00  0.00     0.028 A 
ATOM     24  C   UNL A   1      43.043  28.583  33.027  1.00  0.00     0.114 A 
ATOM     25  C   UNL A   1      43.337  27.639  32.059  1.00  0.00     0.047 A 
BRANCH  17  26
ATOM     26  O   UNL A   1      45.034  25.675  37.875  1.00  0.00    -0.490 OA
BRANCH  26  27
ATOM     27  C   UNL A   1      45.030  26.800  38.756  1.00  0.00     0.226 C 
ATOM     28  C   UNL A   1      44.656  26.279  40.139  1.00  0.00     0.049 C 
ENDBRANCH  26  27
ENDBRANCH  17  26
BRANCH  19  29
ATOM     29  O   UNL A   1      46.031  23.869  35.864  1.00  0.00    -0.490 OA
BRANCH  29  30
ATOM     30  C   UNL A   1      45.333  22.642  35.667  1.00  0.00     0.226 C 
ATOM     31  C   UNL A   1      45.782  21.502  36.574  1.00  0.00     0.049 C 
ENDBRANCH  29  30
ENDBRANCH  19  29
ENDBRANCH  14  16
ENDBRANCH   9  14
ENDBRANCH   5   8
ENDBRANCH   3   4
ENDBRANCH   2   3
ENDBRANCH   1   2
BRANCH   1  32
ATOM     32  C   UNL A   1      42.942  23.241  26.331  1.00  0.00     0.002 C 
BRANCH  32  33
ATOM     33  C   UNL A   1      42.057  22.087  25.851  1.00  0.00     0.021 C 
BRANCH  33  34
ATOM     34  C   UNL A   1      40.958  21.704  26.835  1.00  0.00     0.116 C 
BRANCH  34  35
ATOM     35  N   UNL A   1      39.639  21.906  26.257  1.00  0.00    -0.352 N 
ATOM     36  C   UNL A   1      38.816  23.000  26.351  1.00  0.00     0.251 C 
ATOM     37  H   UNL A   1      39.287  21.155  25.727  1.00  0.00     0.163 HD
ATOM     38  O   UNL A   1      37.638  22.913  26.026  1.00  0.00    -0.269 OA
BRANCH  36  39
ATOM     39  C   UNL A   1      39.362  24.279  26.851  1.00  0.00     0.039 A 
ATOM     40  C   UNL A   1      39.303  24.555  28.219  1.00  0.00     0.014 A 
ATOM     41  C   UNL A   1      39.909  25.213  25.967  1.00  0.00     0.014 A 
ATOM     42  C   UNL A   1      39.826  25.755  28.704  1.00  0.00     0.010 A 
ATOM     43  C   UNL A   1      40.497  26.373  26.460  1.00  0.00     0.010 A 
ATOM     44  C   UNL A   1      40.444  26.665  27.830  1.00  0.00    -0.014 A 
BRANCH  44  45
ATOM     45  C   UNL A   1      40.999  27.951  28.323  1.00  0.00     0.031 A 
ATOM     46  C   UNL A   1      42.479  28.212  28.220  1.00  0.00     0.074 A 
ATOM     47  C   UNL A   1      40.185  28.863  28.892  1.00  0.00     0.049 A 
ATOM     48  N   UNL A   1      43.169  29.234  28.657  1.00  0.00    -0.248 NA
ATOM     49  C   UNL A   1      43.296  27.176  27.562  1.00  0.00     0.031 C 
ATOM     50  C   UNL A   1      38.738  28.717  29.070  1.00  0.00     0.029 A 
ATOM     51  N   UNL A   1      40.461  30.094  29.430  1.00  0.00    -0.354 N 
ATOM     52  C   UNL A   1      44.493  28.965  28.329  1.00  0.00     0.074 A 
ATOM     53  C   UNL A   1      44.521  27.656  27.718  1.00  0.00     0.031 C 
ATOM     54  C   UNL A   1      38.252  29.827  29.649  1.00  0.00     0.029 A 
ATOM     55  C   UNL A   1      39.353  30.744  29.923  1.00  0.00     0.049 A 
ATOM     56  H   UNL A   1      41.368  30.477  29.461  1.00  0.00     0.167 HD
ATOM     57  C   UNL A   1      45.585  29.749  28.494  1.00  0.00     0.031 A 
ATOM     58  C   UNL A   1      39.241  31.940  30.532  1.00  0.00     0.031 A 
ATOM     59  C   UNL A   1      45.553  31.057  29.090  1.00  0.00     0.049 A 
ATOM     60  C   UNL A   1      40.480  32.776  30.734  1.00  0.00     0.074 A 
ATOM     61  C   UNL A   1      46.602  31.938  29.289  1.00  0.00     0.029 A 
ATOM     62  N   UNL A   1      44.411  31.680  29.568  1.00  0.00    -0.354 N 
ATOM     63  N   UNL A   1      41.718  32.515  30.390  1.00  0.00    -0.248 NA
ATOM     64  C   UNL A   1      40.300  34.077  31.393  1.00  0.00     0.031 C 
ATOM     65  C   UNL A   1      46.100  33.078  29.923  1.00  0.00     0.029 A 
ATOM     66  C   UNL A   1      44.730  32.932  30.064  1.00  0.00     0.049 A 
ATOM     67  H   UNL A   1      43.507  31.290  29.556  1.00  0.00     0.167 HD
ATOM     68  C   UNL A   1      42.455  33.639  30.748  1.00  0.00     0.074 A 
ATOM     69  C   UNL A   1      41.522  34.584  31.325  1.00  0.00     0.031 C 
ATOM     70  C   UNL A   1      43.784  33.870  30.609  1.00  0.00     0.031 A 
BRANCH  57  71
ATOM     71  C   UNL A   1      46.906  29.221  28.000  1.00  0.00    -0.014 A 
ATOM     72  C   UNL A   1      47.965  28.986  28.897  1.00  0.00     0.010 A 
ATOM     73  C   UNL A   1      47.073  28.892  26.643  1.00  0.00     0.010 A 
ATOM     74  C   UNL A   1      49.174  28.457  28.442  1.00  0.00     0.020 A 
ATOM     75  C   UNL A   1      48.273  28.334  26.189  1.00  0.00     0.020 A 
ATOM     76  C   UNL A   1      49.320  28.131  27.091  1.00  0.00     0.054 A 
BRANCH  76  77
ATOM     77  S   UNL A   1      50.884  27.396  26.541  1.00  0.00     0.124 S 
ATOM     78  O   UNL A   1      50.459  26.616  25.382  1.00  0.00    -0.237 OA
ATOM     79  O   UNL A   1      51.700  28.570  26.244  1.00  0.00    -0.237 OA
ATOM     80  O   UNL A   1      51.322  26.611  27.692  1.00  0.00    -0.744 OA
ENDBRANCH  76  77
ENDBRANCH  57  71
BRANCH  58  81
ATOM     81  C   UNL A   1      37.915  32.434  30.998  1.00  0.00    -0.014 A 
ATOM     82  C   UNL A   1      37.130  33.260  30.174  1.00  0.00     0.010 A 
ATOM     83  C   UNL A   1      37.452  32.122  32.289  1.00  0.00     0.010 A 
ATOM     84  C   UNL A   1      35.936  33.809  30.650  1.00  0.00     0.020 A 
ATOM     85  C   UNL A   1      36.241  32.641  32.756  1.00  0.00     0.020 A 
ATOM     86  C   UNL A   1      35.504  33.503  31.943  1.00  0.00     0.054 A 
BRANCH  86  87
ATOM     87  S   UNL A   1      33.958  34.235  32.548  1.00  0.00     0.124 S 
ATOM     88  O   UNL A   1      34.449  35.271  33.451  1.00  0.00    -0.237 OA
ATOM     89  O   UNL A   1      33.331  34.712  31.318  1.00  0.00    -0.237 OA
ATOM     90  O   UNL A   1      33.279  33.112  33.191  1.00  0.00    -0.744 OA
ENDBRANCH  86  87
ENDBRANCH  58  81
BRANCH  70  91
ATOM     91  C   UNL A   1      44.300  35.224  31.020  1.00  0.00    -0.014 A 
ATOM     92  C   UNL A   1      44.801  35.461  32.311  1.00  0.00     0.010 A 
ATOM     93  C   UNL A   1      44.323  36.265  30.072  1.00  0.00     0.010 A 
ATOM     94  C   UNL A   1      45.282  36.727  32.659  1.00  0.00     0.020 A 
ATOM     95  C   UNL A   1      44.831  37.521  30.406  1.00  0.00     0.020 A 
ATOM     96  C   UNL A   1      45.292  37.749  31.704  1.00  0.00     0.054 A 
BRANCH  96  97
ATOM     97  S   UNL A   1      45.956  39.371  32.169  1.00  0.00     0.124 S 
ATOM     98  O   UNL A   1      47.086  39.509  31.255  1.00  0.00    -0.237 OA
ATOM     99  O   UNL A   1      44.828  40.264  31.914  1.00  0.00    -0.237 OA
ATOM    100  O   UNL A   1      46.311  39.211  33.577  1.00  0.00    -0.744 OA
ENDBRANCH  96  97
ENDBRANCH  70  91
ENDBRANCH  44  45
ENDBRANCH  36  39
ENDBRANCH  34  35
ENDBRANCH  33  34
ENDBRANCH  32  33
ENDBRANCH   1  32
TORSDOF 22
ENDMDL
