MODEL 1
REMARK VINA RESULT:     -10.0      0.000      0.000
REMARK SMILES COc1ccc(CC(=O)NCCCCCCNC(=O)c2ccc(-c3c4nc(c(-c5ccc(S(=O)(=O)[O-])cc5)c5ccc([nH]5)c(-c5ccc(S(=O)(=O)[O-])cc5)c5nc(c(-c6ccc(S(=O)(=O)[O-])cc6)c6ccc3[nH]6)C=C5)C=C4)cc2)cc1S(=O)(=O)Nc1ccccc1Br
REMARK SMILES IDX 13 1 12 2 11 3 10 4 8 5 9 6 7 8 6 9 3 10 4 11 81 12 5 13
REMARK SMILES IDX 80 14 2 15 1 16 82 17 83 18 84 19 85 20 86 22 87 23 91 24
REMARK SMILES IDX 88 25 90 26 92 27 89 28 14 29 15 30 16 31 17 32 18 33 19 35
REMARK SMILES IDX 20 36 21 37 79 38 22 39 78 40 23 41 24 42 25 43 72 44 26 45
REMARK SMILES IDX 77 46 71 47 73 48 27 49 76 50 70 51 69 52 28 54 58 55 39 56
REMARK SMILES IDX 57 57 40 58 43 59 56 60 74 61 41 62 42 63 55 65 75 66 44 67
REMARK SMILES IDX 29 68 30 69 38 70 31 71 37 72 32 73 33 74 34 75 35 76 36 77
REMARK SMILES IDX 59 78 60 79 68 80 61 81 67 82 62 83 63 84 64 85 65 86 66 87
REMARK SMILES IDX 45 88 46 89 54 90 47 91 53 92 48 93 49 94 50 95 51 96 52 97
REMARK H PARENT 10 7 85 21 17 34 73 53 43 64
REMARK Flexibility Score: inf
ROOT
ATOM      1  C   UNL A   1      35.005  33.049  28.524  1.00  0.00     0.002 C 
ENDROOT
BRANCH   1   2
ATOM      2  C   UNL A   1      35.507  31.693  28.018  1.00  0.00     0.021 C 
BRANCH   2   3
ATOM      3  C   UNL A   1      34.406  30.642  27.900  1.00  0.00     0.116 C 
BRANCH   3   4
ATOM      4  N   UNL A   1      34.008  30.479  26.516  1.00  0.00    -0.356 N 
ATOM      5  C   UNL A   1      33.240  29.494  25.970  1.00  0.00     0.224 C 
ATOM      6  O   UNL A   1      33.165  29.404  24.743  1.00  0.00    -0.275 OA
ATOM      7  H   UNL A   1      34.333  31.168  25.892  1.00  0.00     0.163 HD
BRANCH   5   8
ATOM      8  C   UNL A   1      32.450  28.580  26.881  1.00  0.00     0.135 C 
BRANCH   8   9
ATOM      9  C   UNL A   1      32.167  27.198  26.341  1.00  0.00    -0.037 A 
ATOM     10  C   UNL A   1      31.578  24.503  25.833  1.00  0.00     0.139 A 
ATOM     11  C   UNL A   1      30.579  25.481  25.739  1.00  0.00     0.048 A 
ATOM     12  C   UNL A   1      32.905  24.887  25.963  1.00  0.00     0.129 A 
ATOM     13  C   UNL A   1      30.872  26.825  25.979  1.00  0.00     0.008 A 
ATOM     14  C   UNL A   1      33.181  26.230  26.280  1.00  0.00     0.030 A 
BRANCH  10  15
ATOM     15  O   UNL A   1      31.133  23.216  25.826  1.00  0.00    -0.495 OA
ATOM     16  C   UNL A   1      30.191  22.973  26.875  1.00  0.00     0.278 C 
ENDBRANCH  10  15
BRANCH  12  17
ATOM     17  S   UNL A   1      34.310  23.812  25.837  1.00  0.00     0.265 S 
ATOM     18  O   UNL A   1      35.414  24.634  25.371  1.00  0.00    -0.201 OA
ATOM     19  O   UNL A   1      34.417  23.146  27.119  1.00  0.00    -0.201 OA
BRANCH  17  20
ATOM     20  N   UNL A   1      34.164  22.569  24.700  1.00  0.00    -0.278 N 
ATOM     21  H   UNL A   1      33.485  22.663  23.992  1.00  0.00     0.180 HD
BRANCH  20  22
ATOM     22  C   UNL A   1      34.971  21.388  24.711  1.00  0.00     0.063 A 
ATOM     23  C   UNL A   1      36.365  21.570  24.723  1.00  0.00     0.028 A 
ATOM     24  C   UNL A   1      34.458  20.084  24.699  1.00  0.00     0.042 A 
ATOM     25  C   UNL A   1      37.228  20.477  24.820  1.00  0.00     0.002 A 
ATOM     26  C   UNL A   1      35.328  18.991  24.799  1.00  0.00     0.018 A 
ATOM     27  Br  UNL A   1      32.613  19.715  24.475  1.00  0.00    -0.049 Br
ATOM     28  C   UNL A   1      36.707  19.188  24.877  1.00  0.00     0.001 A 
ENDBRANCH  20  22
ENDBRANCH  17  20
ENDBRANCH  12  17
ENDBRANCH   8   9
ENDBRANCH   5   8
ENDBRANCH   3   4
ENDBRANCH   2   3
ENDBRANCH   1   2
BRANCH   1  29
ATOM     29  C   UNL A   1      33.489  33.250  28.424  1.00  0.00     0.002 C 
BRANCH  29  30
ATOM     30  C   UNL A   1      33.046  34.696  28.173  1.00  0.00     0.021 C 
BRANCH  30  31
ATOM     31  C   UNL A   1      33.631  35.714  29.147  1.00  0.00     0.116 C 
BRANCH  31  32
ATOM     32  N   UNL A   1      32.787  35.883  30.319  1.00  0.00    -0.352 N 
ATOM     33  C   UNL A   1      32.892  35.312  31.562  1.00  0.00     0.251 C 
ATOM     34  H   UNL A   1      32.027  36.498  30.204  1.00  0.00     0.163 HD
ATOM     35  O   UNL A   1      31.961  35.406  32.356  1.00  0.00    -0.269 OA
BRANCH  33  36
ATOM     36  C   UNL A   1      34.118  34.574  31.940  1.00  0.00     0.039 A 
ATOM     37  C   UNL A   1      35.358  35.194  31.763  1.00  0.00     0.014 A 
ATOM     38  C   UNL A   1      34.051  33.270  32.438  1.00  0.00     0.014 A 
ATOM     39  C   UNL A   1      36.525  34.522  32.128  1.00  0.00     0.010 A 
ATOM     40  C   UNL A   1      35.212  32.627  32.864  1.00  0.00     0.010 A 
ATOM     41  C   UNL A   1      36.461  33.244  32.706  1.00  0.00    -0.014 A 
BRANCH  41  42
ATOM     42  C   UNL A   1      37.695  32.548  33.153  1.00  0.00     0.031 A 
ATOM     43  C   UNL A   1      38.375  32.945  34.435  1.00  0.00     0.074 A 
ATOM     44  C   UNL A   1      38.229  31.585  32.375  1.00  0.00     0.049 A 
ATOM     45  N   UNL A   1      39.459  32.453  34.979  1.00  0.00    -0.248 NA
ATOM     46  C   UNL A   1      37.774  34.054  35.194  1.00  0.00     0.031 C 
ATOM     47  C   UNL A   1      37.695  31.149  31.083  1.00  0.00     0.029 A 
ATOM     48  N   UNL A   1      39.342  30.803  32.556  1.00  0.00    -0.354 N 
ATOM     49  C   UNL A   1      39.680  33.199  36.131  1.00  0.00     0.074 A 
ATOM     50  C   UNL A   1      38.643  34.207  36.183  1.00  0.00     0.031 C 
ATOM     51  C   UNL A   1      38.465  30.160  30.602  1.00  0.00     0.029 A 
ATOM     52  C   UNL A   1      39.562  29.914  31.531  1.00  0.00     0.049 A 
ATOM     53  H   UNL A   1      39.927  30.872  33.345  1.00  0.00     0.167 HD
ATOM     54  C   UNL A   1      40.647  33.049  37.068  1.00  0.00     0.031 A 
ATOM     55  C   UNL A   1      40.537  29.001  31.358  1.00  0.00     0.031 A 
ATOM     56  C   UNL A   1      41.671  32.040  37.016  1.00  0.00     0.049 A 
ATOM     57  C   UNL A   1      41.588  28.839  32.420  1.00  0.00     0.074 A 
ATOM     58  C   UNL A   1      42.655  31.763  37.950  1.00  0.00     0.029 A 
ATOM     59  N   UNL A   1      41.848  31.145  35.972  1.00  0.00    -0.354 N 
ATOM     60  N   UNL A   1      41.731  29.502  33.544  1.00  0.00    -0.248 NA
ATOM     61  C   UNL A   1      42.598  27.796  32.200  1.00  0.00     0.031 C 
ATOM     62  C   UNL A   1      43.458  30.732  37.448  1.00  0.00     0.029 A 
ATOM     63  C   UNL A   1      42.940  30.330  36.226  1.00  0.00     0.049 A 
ATOM     64  H   UNL A   1      41.282  31.094  35.169  1.00  0.00     0.167 HD
ATOM     65  C   UNL A   1      42.837  28.941  34.174  1.00  0.00     0.074 A 
ATOM     66  C   UNL A   1      43.309  27.873  33.317  1.00  0.00     0.031 C 
ATOM     67  C   UNL A   1      43.408  29.280  35.357  1.00  0.00     0.031 A 
BRANCH  54  68
ATOM     68  C   UNL A   1      40.645  34.011  38.228  1.00  0.00    -0.014 A 
ATOM     69  C   UNL A   1      40.982  35.366  38.051  1.00  0.00     0.010 A 
ATOM     70  C   UNL A   1      40.269  33.563  39.507  1.00  0.00     0.010 A 
ATOM     71  C   UNL A   1      40.987  36.243  39.139  1.00  0.00     0.020 A 
ATOM     72  C   UNL A   1      40.246  34.444  40.593  1.00  0.00     0.020 A 
ATOM     73  C   UNL A   1      40.624  35.775  40.405  1.00  0.00     0.054 A 
BRANCH  73  74
ATOM     74  S   UNL A   1      40.625  36.938  41.798  1.00  0.00     0.124 S 
ATOM     75  O   UNL A   1      40.666  36.034  42.944  1.00  0.00    -0.237 OA
ATOM     76  O   UNL A   1      41.841  37.714  41.568  1.00  0.00    -0.237 OA
ATOM     77  O   UNL A   1      39.376  37.678  41.633  1.00  0.00    -0.744 OA
ENDBRANCH  73  74
ENDBRANCH  54  68
BRANCH  55  78
ATOM     78  C   UNL A   1      40.546  28.154  30.135  1.00  0.00    -0.014 A 
ATOM     79  C   UNL A   1      41.490  28.376  29.117  1.00  0.00     0.010 A 
ATOM     80  C   UNL A   1      39.623  27.100  29.994  1.00  0.00     0.010 A 
ATOM     81  C   UNL A   1      41.504  27.570  27.975  1.00  0.00     0.020 A 
ATOM     82  C   UNL A   1      39.651  26.276  28.866  1.00  0.00     0.020 A 
ATOM     83  C   UNL A   1      40.585  26.523  27.858  1.00  0.00     0.054 A 
BRANCH  83  84
ATOM     84  S   UNL A   1      40.661  25.451  26.395  1.00  0.00     0.124 S 
ATOM     85  O   UNL A   1      39.285  24.974  26.298  1.00  0.00    -0.237 OA
ATOM     86  O   UNL A   1      41.088  26.374  25.347  1.00  0.00    -0.237 OA
ATOM     87  O   UNL A   1      41.650  24.440  26.765  1.00  0.00    -0.744 OA
ENDBRANCH  83  84
ENDBRANCH  55  78
BRANCH  67  88
ATOM     88  C   UNL A   1      44.597  28.471  35.803  1.00  0.00    -0.014 A 
ATOM     89  C   UNL A   1      45.908  28.859  35.470  1.00  0.00     0.010 A 
ATOM     90  C   UNL A   1      44.401  27.323  36.591  1.00  0.00     0.010 A 
ATOM     91  C   UNL A   1      46.997  28.087  35.881  1.00  0.00     0.020 A 
ATOM     92  C   UNL A   1      45.490  26.564  37.028  1.00  0.00     0.020 A 
ATOM     93  C   UNL A   1      46.782  26.942  36.653  1.00  0.00     0.054 A 
BRANCH  93  94
ATOM     94  S   UNL A   1      48.213  25.969  37.194  1.00  0.00     0.124 S 
ATOM     95  O   UNL A   1      47.575  24.809  37.812  1.00  0.00    -0.237 OA
ATOM     96  O   UNL A   1      48.916  25.705  35.941  1.00  0.00    -0.237 OA
ATOM     97  O   UNL A   1      48.911  26.862  38.116  1.00  0.00    -0.744 OA
ENDBRANCH  93  94
ENDBRANCH  67  88
ENDBRANCH  41  42
ENDBRANCH  33  36
ENDBRANCH  31  32
ENDBRANCH  30  31
ENDBRANCH  29  30
ENDBRANCH   1  29
TORSDOF 21
ENDMDL
MODEL 2
REMARK VINA RESULT:     -10.0      6.933     12.620
REMARK SMILES COc1ccc(CC(=O)NCCCCCCNC(=O)c2ccc(-c3c4nc(c(-c5ccc(S(=O)(=O)[O-])cc5)c5ccc([nH]5)c(-c5ccc(S(=O)(=O)[O-])cc5)c5nc(c(-c6ccc(S(=O)(=O)[O-])cc6)c6ccc3[nH]6)C=C5)C=C4)cc2)cc1S(=O)(=O)Nc1ccccc1Br
REMARK SMILES IDX 13 1 12 2 11 3 10 4 8 5 9 6 7 8 6 9 3 10 4 11 81 12 5 13
REMARK SMILES IDX 80 14 2 15 1 16 82 17 83 18 84 19 85 20 86 22 87 23 91 24
REMARK SMILES IDX 88 25 90 26 92 27 89 28 14 29 15 30 16 31 17 32 18 33 19 35
REMARK SMILES IDX 20 36 21 37 79 38 22 39 78 40 23 41 24 42 25 43 72 44 26 45
REMARK SMILES IDX 77 46 71 47 73 48 27 49 76 50 70 51 69 52 28 54 58 55 39 56
REMARK SMILES IDX 57 57 40 58 43 59 56 60 74 61 41 62 42 63 55 65 75 66 44 67
REMARK SMILES IDX 29 68 30 69 38 70 31 71 37 72 32 73 33 74 34 75 35 76 36 77
REMARK SMILES IDX 59 78 60 79 68 80 61 81 67 82 62 83 63 84 64 85 65 86 66 87
REMARK SMILES IDX 45 88 46 89 54 90 47 91 53 92 48 93 49 94 50 95 51 96 52 97
REMARK H PARENT 10 7 85 21 17 34 73 53 43 64
REMARK Flexibility Score: inf
ROOT
ATOM      1  C   UNL A   1      39.577  22.297  26.661  1.00  0.00     0.002 C 
ENDROOT
BRANCH   1   2
ATOM      2  C   UNL A   1      38.585  21.598  25.725  1.00  0.00     0.021 C 
BRANCH   2   3
ATOM      3  C   UNL A   1      37.455  22.507  25.248  1.00  0.00     0.116 C 
BRANCH   3   4
ATOM      4  N   UNL A   1      36.180  21.824  25.348  1.00  0.00    -0.356 N 
ATOM      5  C   UNL A   1      34.968  22.230  24.877  1.00  0.00     0.224 C 
ATOM      6  O   UNL A   1      33.955  21.618  25.223  1.00  0.00    -0.275 OA
ATOM      7  H   UNL A   1      36.193  20.957  25.815  1.00  0.00     0.163 HD
BRANCH   5   8
ATOM      8  C   UNL A   1      34.901  23.377  23.892  1.00  0.00     0.135 C 
BRANCH   8   9
ATOM      9  C   UNL A   1      34.325  24.668  24.425  1.00  0.00    -0.037 A 
ATOM     10  C   UNL A   1      32.800  26.850  25.307  1.00  0.00     0.139 A 
ATOM     11  C   UNL A   1      33.274  25.897  26.218  1.00  0.00     0.048 A 
ATOM     12  C   UNL A   1      33.262  26.840  23.999  1.00  0.00     0.129 A 
ATOM     13  C   UNL A   1      34.044  24.817  25.783  1.00  0.00     0.008 A 
ATOM     14  C   UNL A   1      33.973  25.710  23.553  1.00  0.00     0.030 A 
BRANCH  10  15
ATOM     15  O   UNL A   1      31.862  27.707  25.799  1.00  0.00    -0.495 OA
ATOM     16  C   UNL A   1      32.052  27.959  27.195  1.00  0.00     0.278 C 
ENDBRANCH  10  15
BRANCH  12  17
ATOM     17  S   UNL A   1      32.977  28.107  22.791  1.00  0.00     0.265 S 
ATOM     18  O   UNL A   1      32.832  29.350  23.528  1.00  0.00    -0.201 OA
ATOM     19  O   UNL A   1      34.046  27.979  21.822  1.00  0.00    -0.201 OA
BRANCH  17  20
ATOM     20  N   UNL A   1      31.548  27.943  21.902  1.00  0.00    -0.278 N 
ATOM     21  H   UNL A   1      31.594  27.499  21.024  1.00  0.00     0.180 HD
BRANCH  20  22
ATOM     22  C   UNL A   1      30.275  28.415  22.355  1.00  0.00     0.063 A 
ATOM     23  C   UNL A   1      29.953  29.751  22.064  1.00  0.00     0.028 A 
ATOM     24  C   UNL A   1      29.355  27.635  23.069  1.00  0.00     0.042 A 
ATOM     25  C   UNL A   1      28.699  30.271  22.393  1.00  0.00     0.002 A 
ATOM     26  C   UNL A   1      28.099  28.160  23.394  1.00  0.00     0.018 A 
ATOM     27  Br  UNL A   1      29.763  25.894  23.695  1.00  0.00    -0.049 Br
ATOM     28  C   UNL A   1      27.766  29.469  23.040  1.00  0.00     0.001 A 
ENDBRANCH  20  22
ENDBRANCH  17  20
ENDBRANCH  12  17
ENDBRANCH   8   9
ENDBRANCH   5   8
ENDBRANCH   3   4
ENDBRANCH   2   3
ENDBRANCH   1   2
BRANCH   1  29
ATOM     29  C   UNL A   1      40.959  21.639  26.739  1.00  0.00     0.002 C 
BRANCH  29  30
ATOM     30  C   UNL A   1      41.041  20.238  26.123  1.00  0.00     0.021 C 
BRANCH  30  31
ATOM     31  C   UNL A   1      42.238  19.414  26.587  1.00  0.00     0.116 C 
BRANCH  31  32
ATOM     32  N   UNL A   1      43.122  19.080  25.481  1.00  0.00    -0.352 N 
ATOM     33  C   UNL A   1      43.939  19.895  24.739  1.00  0.00     0.251 C 
ATOM     34  H   UNL A   1      43.137  18.130  25.228  1.00  0.00     0.163 HD
ATOM     35  O   UNL A   1      44.445  19.471  23.705  1.00  0.00    -0.269 OA
BRANCH  33  36
ATOM     36  C   UNL A   1      44.199  21.285  25.176  1.00  0.00     0.039 A 
ATOM     37  C   UNL A   1      44.900  21.496  26.366  1.00  0.00     0.014 A 
ATOM     38  C   UNL A   1      43.731  22.374  24.435  1.00  0.00     0.014 A 
ATOM     39  C   UNL A   1      45.170  22.799  26.788  1.00  0.00     0.010 A 
ATOM     40  C   UNL A   1      44.059  23.672  24.823  1.00  0.00     0.010 A 
ATOM     41  C   UNL A   1      44.775  23.897  26.008  1.00  0.00    -0.014 A 
BRANCH  41  42
ATOM     42  C   UNL A   1      45.112  25.284  26.419  1.00  0.00     0.031 A 
ATOM     43  C   UNL A   1      46.510  25.814  26.249  1.00  0.00     0.074 A 
ATOM     44  C   UNL A   1      44.164  26.052  26.991  1.00  0.00     0.049 A 
ATOM     45  N   UNL A   1      46.986  26.994  26.554  1.00  0.00    -0.248 NA
ATOM     46  C   UNL A   1      47.509  24.892  25.684  1.00  0.00     0.031 C 
ATOM     47  C   UNL A   1      42.787  25.634  27.263  1.00  0.00     0.029 A 
ATOM     48  N   UNL A   1      44.215  27.344  27.453  1.00  0.00    -0.354 N 
ATOM     49  C   UNL A   1      48.339  26.953  26.236  1.00  0.00     0.074 A 
ATOM     50  C   UNL A   1      48.617  25.616  25.756  1.00  0.00     0.031 C 
ATOM     51  C   UNL A   1      42.118  26.658  27.817  1.00  0.00     0.029 A 
ATOM     52  C   UNL A   1      43.024  27.792  27.970  1.00  0.00     0.049 A 
ATOM     53  H   UNL A   1      45.029  27.897  27.415  1.00  0.00     0.167 HD
ATOM     54  C   UNL A   1      49.261  27.941  26.319  1.00  0.00     0.031 A 
ATOM     55  C   UNL A   1      42.694  28.981  28.508  1.00  0.00     0.031 A 
ATOM     56  C   UNL A   1      48.979  29.272  26.789  1.00  0.00     0.049 A 
ATOM     57  C   UNL A   1      43.729  30.069  28.572  1.00  0.00     0.074 A 
ATOM     58  C   UNL A   1      49.829  30.363  26.848  1.00  0.00     0.029 A 
ATOM     59  N   UNL A   1      47.754  29.693  27.285  1.00  0.00    -0.354 N 
ATOM     60  N   UNL A   1      44.984  30.035  28.188  1.00  0.00    -0.248 NA
ATOM     61  C   UNL A   1      43.300  31.361  29.124  1.00  0.00     0.031 C 
ATOM     62  C   UNL A   1      49.132  31.430  27.426  1.00  0.00     0.029 A 
ATOM     63  C   UNL A   1      47.832  31.020  27.676  1.00  0.00     0.049 A 
ATOM     64  H   UNL A   1      46.948  29.132  27.351  1.00  0.00     0.167 HD
ATOM     65  C   UNL A   1      45.489  31.307  28.436  1.00  0.00     0.074 A 
ATOM     66  C   UNL A   1      44.398  32.091  28.980  1.00  0.00     0.031 C 
ATOM     67  C   UNL A   1      46.742  31.784  28.229  1.00  0.00     0.031 A 
BRANCH  54  68
ATOM     68  C   UNL A   1      50.671  27.613  25.899  1.00  0.00    -0.014 A 
ATOM     69  C   UNL A   1      51.630  27.186  26.837  1.00  0.00     0.010 A 
ATOM     70  C   UNL A   1      51.036  27.700  24.543  1.00  0.00     0.010 A 
ATOM     71  C   UNL A   1      52.936  26.897  26.434  1.00  0.00     0.020 A 
ATOM     72  C   UNL A   1      52.334  27.384  24.132  1.00  0.00     0.020 A 
ATOM     73  C   UNL A   1      53.282  27.003  25.084  1.00  0.00     0.054 A 
BRANCH  73  74
ATOM     74  S   UNL A   1      54.981  26.608  24.586  1.00  0.00     0.124 S 
ATOM     75  O   UNL A   1      54.959  26.930  23.162  1.00  0.00    -0.237 OA
ATOM     76  O   UNL A   1      55.778  27.504  25.420  1.00  0.00    -0.237 OA
ATOM     77  O   UNL A   1      55.113  25.187  24.900  1.00  0.00    -0.744 OA
ENDBRANCH  73  74
ENDBRANCH  54  68
BRANCH  55  78
ATOM     78  C   UNL A   1      41.311  29.208  29.007  1.00  0.00    -0.014 A 
ATOM     79  C   UNL A   1      40.261  29.473  28.110  1.00  0.00     0.010 A 
ATOM     80  C   UNL A   1      41.032  29.135  30.385  1.00  0.00     0.010 A 
ATOM     81  C   UNL A   1      38.960  29.673  28.581  1.00  0.00     0.020 A 
ATOM     82  C   UNL A   1      39.728  29.309  30.857  1.00  0.00     0.020 A 
ATOM     83  C   UNL A   1      38.702  29.587  29.952  1.00  0.00     0.054 A 
BRANCH  83  84
ATOM     84  S   UNL A   1      36.995  29.789  30.535  1.00  0.00     0.124 S 
ATOM     85  O   UNL A   1      36.225  29.430  29.349  1.00  0.00    -0.237 OA
ATOM     86  O   UNL A   1      36.926  28.843  31.646  1.00  0.00    -0.237 OA
ATOM     87  O   UNL A   1      36.931  31.197  30.923  1.00  0.00    -0.744 OA
ENDBRANCH  83  84
ENDBRANCH  55  78
BRANCH  67  88
ATOM     88  C   UNL A   1      46.994  33.227  28.575  1.00  0.00    -0.014 A 
ATOM     89  C   UNL A   1      46.761  34.252  27.639  1.00  0.00     0.010 A 
ATOM     90  C   UNL A   1      47.442  33.565  29.864  1.00  0.00     0.010 A 
ATOM     91  C   UNL A   1      47.014  35.584  27.975  1.00  0.00     0.020 A 
ATOM     92  C   UNL A   1      47.669  34.899  30.213  1.00  0.00     0.020 A 
ATOM     93  C   UNL A   1      47.472  35.899  29.258  1.00  0.00     0.054 A 
BRANCH  93  94
ATOM     94  S   UNL A   1      47.772  37.638  29.678  1.00  0.00     0.124 S 
ATOM     95  O   UNL A   1      48.294  38.166  28.421  1.00  0.00    -0.237 OA
ATOM     96  O   UNL A   1      46.443  38.112  30.055  1.00  0.00    -0.237 OA
ATOM     97  O   UNL A   1      48.736  37.568  30.774  1.00  0.00    -0.744 OA
ENDBRANCH  93  94
ENDBRANCH  67  88
ENDBRANCH  41  42
ENDBRANCH  33  36
ENDBRANCH  31  32
ENDBRANCH  30  31
ENDBRANCH  29  30
ENDBRANCH   1  29
TORSDOF 21
ENDMDL
MODEL 3
REMARK VINA RESULT:     -10.0      0.849      7.982
REMARK SMILES COc1ccc(CC(=O)NCCCCCCNC(=O)c2ccc(-c3c4nc(c(-c5ccc(S(=O)(=O)[O-])cc5)c5ccc([nH]5)c(-c5ccc(S(=O)(=O)[O-])cc5)c5nc(c(-c6ccc(S(=O)(=O)[O-])cc6)c6ccc3[nH]6)C=C5)C=C4)cc2)cc1S(=O)(=O)Nc1ccccc1Br
REMARK SMILES IDX 13 1 12 2 11 3 10 4 8 5 9 6 7 8 6 9 3 10 4 11 81 12 5 13
REMARK SMILES IDX 80 14 2 15 1 16 82 17 83 18 84 19 85 20 86 22 87 23 91 24
REMARK SMILES IDX 88 25 90 26 92 27 89 28 14 29 15 30 16 31 17 32 18 33 19 35
REMARK SMILES IDX 20 36 21 37 79 38 22 39 78 40 23 41 24 42 25 43 72 44 26 45
REMARK SMILES IDX 77 46 71 47 73 48 27 49 76 50 70 51 69 52 28 54 58 55 39 56
REMARK SMILES IDX 57 57 40 58 43 59 56 60 74 61 41 62 42 63 55 65 75 66 44 67
REMARK SMILES IDX 29 68 30 69 38 70 31 71 37 72 32 73 33 74 34 75 35 76 36 77
REMARK SMILES IDX 59 78 60 79 68 80 61 81 67 82 62 83 63 84 64 85 65 86 66 87
REMARK SMILES IDX 45 88 46 89 54 90 47 91 53 92 48 93 49 94 50 95 51 96 52 97
REMARK H PARENT 10 7 85 21 17 34 73 53 43 64
REMARK Flexibility Score: inf
ROOT
ATOM      1  C   UNL A   1      35.796  32.612  28.570  1.00  0.00     0.002 C 
ENDROOT
BRANCH   1   2
ATOM      2  C   UNL A   1      36.157  31.243  27.984  1.00  0.00     0.021 C 
BRANCH   2   3
ATOM      3  C   UNL A   1      34.989  30.260  27.969  1.00  0.00     0.116 C 
BRANCH   3   4
ATOM      4  N   UNL A   1      34.269  30.349  26.714  1.00  0.00    -0.356 N 
ATOM      5  C   UNL A   1      33.383  29.457  26.187  1.00  0.00     0.224 C 
ATOM      6  O   UNL A   1      33.015  29.599  25.019  1.00  0.00    -0.275 OA
ATOM      7  H   UNL A   1      34.441  31.155  26.176  1.00  0.00     0.163 HD
BRANCH   5   8
ATOM      8  C   UNL A   1      32.826  28.358  27.065  1.00  0.00     0.135 C 
BRANCH   8   9
ATOM      9  C   UNL A   1      32.350  27.119  26.344  1.00  0.00    -0.037 A 
ATOM     10  C   UNL A   1      31.469  24.602  25.473  1.00  0.00     0.139 A 
ATOM     11  C   UNL A   1      30.552  25.633  25.718  1.00  0.00     0.048 A 
ATOM     12  C   UNL A   1      32.827  24.883  25.449  1.00  0.00     0.129 A 
ATOM     13  C   UNL A   1      30.989  26.890  26.140  1.00  0.00     0.008 A 
ATOM     14  C   UNL A   1      33.259  26.126  25.947  1.00  0.00     0.030 A 
BRANCH  10  15
ATOM     15  O   UNL A   1      30.922  23.365  25.313  1.00  0.00    -0.495 OA
ATOM     16  C   UNL A   1      30.367  22.867  26.534  1.00  0.00     0.278 C 
ENDBRANCH  10  15
BRANCH  12  17
ATOM     17  S   UNL A   1      34.102  23.776  24.906  1.00  0.00     0.265 S 
ATOM     18  O   UNL A   1      33.684  23.274  23.608  1.00  0.00    -0.201 OA
ATOM     19  O   UNL A   1      35.343  24.517  25.012  1.00  0.00    -0.201 OA
BRANCH  17  20
ATOM     20  N   UNL A   1      34.321  22.403  25.869  1.00  0.00    -0.278 N 
ATOM     21  H   UNL A   1      33.984  22.425  26.794  1.00  0.00     0.180 HD
BRANCH  20  22
ATOM     22  C   UNL A   1      34.969  21.212  25.414  1.00  0.00     0.063 A 
ATOM     23  C   UNL A   1      36.374  21.227  25.379  1.00  0.00     0.028 A 
ATOM     24  C   UNL A   1      34.293  20.057  24.999  1.00  0.00     0.042 A 
ATOM     25  C   UNL A   1      37.092  20.082  25.030  1.00  0.00     0.002 A 
ATOM     26  C   UNL A   1      35.018  18.910  24.652  1.00  0.00     0.018 A 
ATOM     27  Br  UNL A   1      32.409  19.992  24.807  1.00  0.00    -0.049 Br
ATOM     28  C   UNL A   1      36.413  18.918  24.685  1.00  0.00     0.001 A 
ENDBRANCH  20  22
ENDBRANCH  17  20
ENDBRANCH  12  17
ENDBRANCH   8   9
ENDBRANCH   5   8
ENDBRANCH   3   4
ENDBRANCH   2   3
ENDBRANCH   1   2
BRANCH   1  29
ATOM     29  C   UNL A   1      34.349  32.740  29.058  1.00  0.00     0.002 C 
BRANCH  29  30
ATOM     30  C   UNL A   1      33.568  33.914  28.457  1.00  0.00     0.021 C 
BRANCH  30  31
ATOM     31  C   UNL A   1      33.868  35.266  29.097  1.00  0.00     0.116 C 
BRANCH  31  32
ATOM     32  N   UNL A   1      32.924  35.580  30.158  1.00  0.00    -0.352 N 
ATOM     33  C   UNL A   1      32.950  35.229  31.483  1.00  0.00     0.251 C 
ATOM     34  H   UNL A   1      32.152  36.126  29.884  1.00  0.00     0.163 HD
ATOM     35  O   UNL A   1      31.954  35.402  32.179  1.00  0.00    -0.269 OA
BRANCH  33  36
ATOM     36  C   UNL A   1      34.170  34.631  32.071  1.00  0.00     0.039 A 
ATOM     37  C   UNL A   1      34.080  33.373  32.671  1.00  0.00     0.014 A 
ATOM     38  C   UNL A   1      35.388  35.317  32.058  1.00  0.00     0.014 A 
ATOM     39  C   UNL A   1      35.221  32.784  33.217  1.00  0.00     0.010 A 
ATOM     40  C   UNL A   1      36.539  34.699  32.544  1.00  0.00     0.010 A 
ATOM     41  C   UNL A   1      36.465  33.429  33.135  1.00  0.00    -0.014 A 
BRANCH  41  42
ATOM     42  C   UNL A   1      37.695  32.782  33.660  1.00  0.00     0.031 A 
ATOM     43  C   UNL A   1      38.379  31.693  32.878  1.00  0.00     0.074 A 
ATOM     44  C   UNL A   1      38.170  33.147  34.867  1.00  0.00     0.049 A 
ATOM     45  N   UNL A   1      39.456  31.015  33.181  1.00  0.00    -0.248 NA
ATOM     46  C   UNL A   1      37.761  31.298  31.602  1.00  0.00     0.031 C 
ATOM     47  C   UNL A   1      37.565  34.150  35.746  1.00  0.00     0.029 A 
ATOM     48  N   UNL A   1      39.268  32.713  35.567  1.00  0.00    -0.354 N 
ATOM     49  C   UNL A   1      39.636  30.104  32.147  1.00  0.00     0.074 A 
ATOM     50  C   UNL A   1      38.531  30.286  31.230  1.00  0.00     0.031 C 
ATOM     51  C   UNL A   1      38.314  34.273  36.853  1.00  0.00     0.029 A 
ATOM     52  C   UNL A   1      39.432  33.338  36.779  1.00  0.00     0.049 A 
ATOM     53  H   UNL A   1      39.881  32.019  35.231  1.00  0.00     0.167 HD
ATOM     54  C   UNL A   1      40.637  29.210  31.967  1.00  0.00     0.031 A 
ATOM     55  C   UNL A   1      40.375  33.178  37.727  1.00  0.00     0.031 A 
ATOM     56  C   UNL A   1      41.739  29.037  32.877  1.00  0.00     0.049 A 
ATOM     57  C   UNL A   1      41.487  32.194  37.496  1.00  0.00     0.074 A 
ATOM     58  C   UNL A   1      42.839  28.206  32.749  1.00  0.00     0.029 A 
ATOM     59  N   UNL A   1      41.880  29.704  34.084  1.00  0.00    -0.354 N 
ATOM     60  N   UNL A   1      41.684  31.400  36.470  1.00  0.00    -0.248 NA
ATOM     61  C   UNL A   1      42.514  32.097  38.542  1.00  0.00     0.031 C 
ATOM     62  C   UNL A   1      43.620  28.334  33.904  1.00  0.00     0.029 A 
ATOM     63  C   UNL A   1      43.035  29.286  34.724  1.00  0.00     0.049 A 
ATOM     64  H   UNL A   1      41.253  30.376  34.435  1.00  0.00     0.167 HD
ATOM     65  C   UNL A   1      42.868  30.722  36.739  1.00  0.00     0.074 A 
ATOM     66  C   UNL A   1      43.353  31.217  38.012  1.00  0.00     0.031 C 
ATOM     67  C   UNL A   1      43.498  29.777  35.998  1.00  0.00     0.031 A 
BRANCH  54  68
ATOM     68  C   UNL A   1      40.579  28.339  30.738  1.00  0.00    -0.014 A 
ATOM     69  C   UNL A   1      39.517  27.438  30.533  1.00  0.00     0.010 A 
ATOM     70  C   UNL A   1      41.582  28.446  29.757  1.00  0.00     0.010 A 
ATOM     71  C   UNL A   1      39.484  26.629  29.394  1.00  0.00     0.020 A 
ATOM     72  C   UNL A   1      41.537  27.658  28.602  1.00  0.00     0.020 A 
ATOM     73  C   UNL A   1      40.497  26.740  28.438  1.00  0.00     0.054 A 
BRANCH  73  74
ATOM     74  S   UNL A   1      40.422  25.689  26.961  1.00  0.00     0.124 S 
ATOM     75  O   UNL A   1      39.011  25.315  26.931  1.00  0.00    -0.237 OA
ATOM     76  O   UNL A   1      40.852  26.595  25.899  1.00  0.00    -0.237 OA
ATOM     77  O   UNL A   1      41.349  24.601  27.261  1.00  0.00    -0.744 OA
ENDBRANCH  73  74
ENDBRANCH  54  68
BRANCH  55  78
ATOM     78  C   UNL A   1      40.316  33.992  38.971  1.00  0.00    -0.014 A 
ATOM     79  C   UNL A   1      41.010  35.212  39.063  1.00  0.00     0.010 A 
ATOM     80  C   UNL A   1      39.542  33.561  40.065  1.00  0.00     0.010 A 
ATOM     81  C   UNL A   1      40.942  35.980  40.228  1.00  0.00     0.020 A 
ATOM     82  C   UNL A   1      39.452  34.339  41.223  1.00  0.00     0.020 A 
ATOM     83  C   UNL A   1      40.161  35.539  41.301  1.00  0.00     0.054 A 
BRANCH  83  84
ATOM     84  S   UNL A   1      40.038  36.582  42.781  1.00  0.00     0.124 S 
ATOM     85  O   UNL A   1      39.784  37.898  42.204  1.00  0.00    -0.237 OA
ATOM     86  O   UNL A   1      38.919  35.979  43.501  1.00  0.00    -0.237 OA
ATOM     87  O   UNL A   1      41.341  36.419  43.423  1.00  0.00    -0.744 OA
ENDBRANCH  83  84
ENDBRANCH  55  78
BRANCH  67  88
ATOM     88  C   UNL A   1      44.794  29.231  36.538  1.00  0.00    -0.014 A 
ATOM     89  C   UNL A   1      46.023  29.850  36.246  1.00  0.00     0.010 A 
ATOM     90  C   UNL A   1      44.777  28.100  37.373  1.00  0.00     0.010 A 
ATOM     91  C   UNL A   1      47.215  29.320  36.745  1.00  0.00     0.020 A 
ATOM     92  C   UNL A   1      45.965  27.584  37.897  1.00  0.00     0.020 A 
ATOM     93  C   UNL A   1      47.179  28.187  37.563  1.00  0.00     0.054 A 
BRANCH  93  94
ATOM     94  S   UNL A   1      48.738  27.530  38.218  1.00  0.00     0.124 S 
ATOM     95  O   UNL A   1      49.708  28.504  37.723  1.00  0.00    -0.237 OA
ATOM     96  O   UNL A   1      48.513  27.546  39.661  1.00  0.00    -0.237 OA
ATOM     97  O   UNL A   1      48.830  26.199  37.622  1.00  0.00    -0.744 OA
ENDBRANCH  93  94
ENDBRANCH  67  88
ENDBRANCH  41  42
ENDBRANCH  33  36
ENDBRANCH  31  32
ENDBRANCH  30  31
ENDBRANCH  29  30
ENDBRANCH   1  29
TORSDOF 21
ENDMDL
