MODEL 1
REMARK VINA RESULT:     -10.7      0.000      0.000
REMARK SMILES C[N@H+]1[C@H]2CC[C@@H]1[C@@H](C(=O)NCCCCCCNC(=O)c1ccc(-c3c4nc(c(-c5ccc(S(=O)(=O)[O-])cc5)c5ccc([nH]5)c(-c5ccc(S(=O)(=O)[O-])cc5)c5nc(c(-c6ccc(S(=O)(=O)[O-])cc6)c6ccc3[nH]6)C=C5)C=C4)cc1)[C@@H](OC(=O)c1ccccc1)C2
REMARK SMILES IDX 13 1 12 2 11 3 10 4 8 5 9 6 7 8 1 9 2 10 3 11 6 12 4 14
REMARK SMILES IDX 90 15 5 16 80 17 81 18 82 19 83 20 84 21 85 22 89 23 86 24
REMARK SMILES IDX 88 25 87 26 14 27 15 28 16 29 17 30 18 31 19 33 20 34 21 35
REMARK SMILES IDX 79 36 22 37 78 38 23 39 24 40 25 41 72 42 26 43 77 44 71 45
REMARK SMILES IDX 73 46 27 47 76 48 70 49 69 50 28 52 58 53 39 54 57 55 40 56
REMARK SMILES IDX 43 57 56 58 74 59 41 60 42 61 55 63 75 64 44 65 29 66 30 67
REMARK SMILES IDX 38 68 31 69 37 70 32 71 33 72 34 73 35 74 36 75 59 76 60 77
REMARK SMILES IDX 68 78 61 79 67 80 62 81 63 82 64 83 65 84 66 85 45 86 46 87
REMARK SMILES IDX 54 88 47 89 53 90 48 91 49 92 50 93 51 94 52 95
REMARK H PARENT 10 7 2 13 17 32 73 51 43 62
REMARK Flexibility Score: inf
ROOT
ATOM      1  C   UNL A   1      31.815  29.694  25.451  1.00  0.00     0.002 C 
ENDROOT
BRANCH   1   2
ATOM      2  C   UNL A   1      32.856  28.607  25.231  1.00  0.00     0.021 C 
BRANCH   2   3
ATOM      3  C   UNL A   1      32.573  27.280  25.914  1.00  0.00     0.116 C 
BRANCH   3   4
ATOM      4  N   UNL A   1      33.727  26.419  26.092  1.00  0.00    -0.356 N 
ATOM      5  C   UNL A   1      34.008  25.167  25.638  1.00  0.00     0.232 C 
ATOM      6  O   UNL A   1      35.196  24.820  25.742  1.00  0.00    -0.274 OA
ATOM      7  H   UNL A   1      34.440  26.815  26.644  1.00  0.00     0.163 HD
BRANCH   5   8
ATOM      8  C   UNL A   1      33.005  24.157  25.042  1.00  0.00     0.177 C 
ATOM      9  C   UNL A   1      34.787  21.143  26.131  1.00  0.00     0.333 C 
ATOM     10  N   UNL A   1      34.217  22.109  25.211  1.00  0.00    -0.332 N 
ATOM     11  C   UNL A   1      33.863  21.646  23.865  1.00  0.00     0.188 C 
ATOM     12  C   UNL A   1      33.017  22.769  25.706  1.00  0.00     0.200 C 
ATOM     13  H   UNL A   1      35.018  22.738  25.145  1.00  0.00     0.348 HD
ATOM     14  C   UNL A   1      32.501  21.009  24.084  1.00  0.00     0.071 C 
ATOM     15  C   UNL A   1      33.786  22.888  22.918  1.00  0.00     0.111 C 
ATOM     16  C   UNL A   1      31.883  21.843  25.209  1.00  0.00     0.072 C 
ATOM     17  C   UNL A   1      32.978  24.076  23.505  1.00  0.00     0.201 C 
BRANCH  17  18
ATOM     18  O   UNL A   1      33.095  25.428  22.964  1.00  0.00    -0.457 OA
BRANCH  18  19
ATOM     19  C   UNL A   1      32.349  25.890  21.944  1.00  0.00     0.338 C 
ATOM     20  O   UNL A   1      32.592  25.773  20.750  1.00  0.00    -0.246 OA
BRANCH  19  21
ATOM     21  C   UNL A   1      31.168  26.660  22.427  1.00  0.00     0.060 A 
ATOM     22  C   UNL A   1      30.290  26.012  23.312  1.00  0.00     0.015 A 
ATOM     23  C   UNL A   1      30.913  27.990  22.071  1.00  0.00     0.015 A 
ATOM     24  C   UNL A   1      29.195  26.684  23.856  1.00  0.00     0.001 A 
ATOM     25  C   UNL A   1      29.819  28.667  22.629  1.00  0.00     0.001 A 
ATOM     26  C   UNL A   1      28.966  28.016  23.525  1.00  0.00     0.000 A 
ENDBRANCH  19  21
ENDBRANCH  18  19
ENDBRANCH  17  18
ENDBRANCH   5   8
ENDBRANCH   3   4
ENDBRANCH   2   3
ENDBRANCH   1   2
BRANCH   1  27
ATOM     27  C   UNL A   1      31.823  30.339  26.840  1.00  0.00     0.002 C 
BRANCH  27  28
ATOM     28  C   UNL A   1      31.731  31.867  26.870  1.00  0.00     0.021 C 
BRANCH  28  29
ATOM     29  C   UNL A   1      33.004  32.588  27.303  1.00  0.00     0.116 C 
BRANCH  29  30
ATOM     30  N   UNL A   1      32.738  33.952  27.730  1.00  0.00    -0.352 N 
ATOM     31  C   UNL A   1      33.321  34.650  28.757  1.00  0.00     0.251 C 
ATOM     32  H   UNL A   1      32.053  34.437  27.216  1.00  0.00     0.163 HD
ATOM     33  O   UNL A   1      32.854  35.717  29.138  1.00  0.00    -0.269 OA
BRANCH  31  34
ATOM     34  C   UNL A   1      34.519  34.080  29.403  1.00  0.00     0.039 A 
ATOM     35  C   UNL A   1      35.783  34.391  28.903  1.00  0.00     0.014 A 
ATOM     36  C   UNL A   1      34.373  33.272  30.535  1.00  0.00     0.014 A 
ATOM     37  C   UNL A   1      36.917  33.927  29.572  1.00  0.00     0.010 A 
ATOM     38  C   UNL A   1      35.501  32.867  31.234  1.00  0.00     0.010 A 
ATOM     39  C   UNL A   1      36.784  33.186  30.757  1.00  0.00    -0.014 A 
BRANCH  39  40
ATOM     40  C   UNL A   1      37.961  32.688  31.510  1.00  0.00     0.031 A 
ATOM     41  C   UNL A   1      38.735  31.518  30.966  1.00  0.00     0.074 A 
ATOM     42  C   UNL A   1      38.276  33.221  32.706  1.00  0.00     0.049 A 
ATOM     43  N   UNL A   1      39.672  30.811  31.538  1.00  0.00    -0.248 NA
ATOM     44  C   UNL A   1      38.386  31.068  29.606  1.00  0.00     0.031 C 
ATOM     45  C   UNL A   1      37.595  34.351  33.341  1.00  0.00     0.029 A 
ATOM     46  N   UNL A   1      39.242  32.866  33.616  1.00  0.00    -0.354 N 
ATOM     47  C   UNL A   1      40.015  29.828  30.618  1.00  0.00     0.074 A 
ATOM     48  C   UNL A   1      39.150  29.994  29.472  1.00  0.00     0.031 C 
ATOM     49  C   UNL A   1      38.165  34.598  34.533  1.00  0.00     0.029 A 
ATOM     50  C   UNL A   1      39.216  33.613  34.771  1.00  0.00     0.049 A 
ATOM     51  H   UNL A   1      39.892  32.144  33.456  1.00  0.00     0.167 HD
ATOM     52  C   UNL A   1      40.981  28.884  30.709  1.00  0.00     0.031 A 
ATOM     53  C   UNL A   1      39.938  33.498  35.903  1.00  0.00     0.031 A 
ATOM     54  C   UNL A   1      41.844  28.731  31.849  1.00  0.00     0.049 A 
ATOM     55  C   UNL A   1      40.972  32.406  36.001  1.00  0.00     0.074 A 
ATOM     56  C   UNL A   1      42.862  27.814  32.039  1.00  0.00     0.029 A 
ATOM     57  N   UNL A   1      41.798  29.523  32.985  1.00  0.00    -0.354 N 
ATOM     58  N   UNL A   1      41.298  31.498  35.111  1.00  0.00    -0.248 NA
ATOM     59  C   UNL A   1      41.743  32.324  37.251  1.00  0.00     0.031 C 
ATOM     60  C   UNL A   1      43.406  28.026  33.307  1.00  0.00     0.029 A 
ATOM     61  C   UNL A   1      42.768  29.115  33.881  1.00  0.00     0.049 A 
ATOM     62  H   UNL A   1      41.169  30.267  33.132  1.00  0.00     0.167 HD
ATOM     63  C   UNL A   1      42.342  30.772  35.676  1.00  0.00     0.074 A 
ATOM     64  C   UNL A   1      42.594  31.344  36.981  1.00  0.00     0.031 C 
ATOM     65  C   UNL A   1      43.032  29.728  35.157  1.00  0.00     0.031 A 
BRANCH  52  66
ATOM     66  C   UNL A   1      41.167  27.955  29.541  1.00  0.00    -0.014 A 
ATOM     67  C   UNL A   1      42.226  28.146  28.634  1.00  0.00     0.010 A 
ATOM     68  C   UNL A   1      40.323  26.841  29.384  1.00  0.00     0.010 A 
ATOM     69  C   UNL A   1      42.422  27.255  27.578  1.00  0.00     0.020 A 
ATOM     70  C   UNL A   1      40.534  25.930  28.343  1.00  0.00     0.020 A 
ATOM     71  C   UNL A   1      41.575  26.151  27.441  1.00  0.00     0.054 A 
BRANCH  71  72
ATOM     72  S   UNL A   1      41.889  24.984  26.088  1.00  0.00     0.124 S 
ATOM     73  O   UNL A   1      43.268  24.580  26.351  1.00  0.00    -0.237 OA
ATOM     74  O   UNL A   1      40.879  23.953  26.315  1.00  0.00    -0.237 OA
ATOM     75  O   UNL A   1      41.695  25.787  24.884  1.00  0.00    -0.744 OA
ENDBRANCH  71  72
ENDBRANCH  52  66
BRANCH  53  76
ATOM     76  C   UNL A   1      39.702  34.421  37.049  1.00  0.00    -0.014 A 
ATOM     77  C   UNL A   1      40.281  35.702  37.068  1.00  0.00     0.010 A 
ATOM     78  C   UNL A   1      38.927  34.007  38.149  1.00  0.00     0.010 A 
ATOM     79  C   UNL A   1      40.132  36.533  38.183  1.00  0.00     0.020 A 
ATOM     80  C   UNL A   1      38.747  34.848  39.252  1.00  0.00     0.020 A 
ATOM     81  C   UNL A   1      39.371  36.097  39.272  1.00  0.00     0.054 A 
BRANCH  81  82
ATOM     82  S   UNL A   1      39.196  37.185  40.712  1.00  0.00     0.124 S 
ATOM     83  O   UNL A   1      38.382  38.270  40.174  1.00  0.00    -0.237 OA
ATOM     84  O   UNL A   1      38.534  36.318  41.684  1.00  0.00    -0.237 OA
ATOM     85  O   UNL A   1      40.575  37.539  41.043  1.00  0.00    -0.744 OA
ENDBRANCH  81  82
ENDBRANCH  53  76
BRANCH  65  86
ATOM     86  C   UNL A   1      44.185  29.178  35.953  1.00  0.00    -0.014 A 
ATOM     87  C   UNL A   1      45.448  29.790  35.933  1.00  0.00     0.010 A 
ATOM     88  C   UNL A   1      43.953  28.098  36.827  1.00  0.00     0.010 A 
ATOM     89  C   UNL A   1      46.465  29.328  36.775  1.00  0.00     0.020 A 
ATOM     90  C   UNL A   1      44.958  27.653  37.688  1.00  0.00     0.020 A 
ATOM     91  C   UNL A   1      46.210  28.271  37.654  1.00  0.00     0.054 A 
BRANCH  91  92
ATOM     92  S   UNL A   1      47.513  27.761  38.808  1.00  0.00     0.124 S 
ATOM     93  O   UNL A   1      47.851  29.022  39.462  1.00  0.00    -0.237 OA
ATOM     94  O   UNL A   1      46.829  26.781  39.649  1.00  0.00    -0.237 OA
ATOM     95  O   UNL A   1      48.552  27.212  37.940  1.00  0.00    -0.744 OA
ENDBRANCH  91  92
ENDBRANCH  65  86
ENDBRANCH  39  40
ENDBRANCH  31  34
ENDBRANCH  29  30
ENDBRANCH  28  29
ENDBRANCH  27  28
ENDBRANCH   1  27
TORSDOF 19
ENDMDL
MODEL 2
REMARK VINA RESULT:     -10.7      5.128     11.675
REMARK SMILES C[N@H+]1[C@H]2CC[C@@H]1[C@@H](C(=O)NCCCCCCNC(=O)c1ccc(-c3c4nc(c(-c5ccc(S(=O)(=O)[O-])cc5)c5ccc([nH]5)c(-c5ccc(S(=O)(=O)[O-])cc5)c5nc(c(-c6ccc(S(=O)(=O)[O-])cc6)c6ccc3[nH]6)C=C5)C=C4)cc1)[C@@H](OC(=O)c1ccccc1)C2
REMARK SMILES IDX 13 1 12 2 11 3 10 4 8 5 9 6 7 8 1 9 2 10 3 11 6 12 4 14
REMARK SMILES IDX 90 15 5 16 80 17 81 18 82 19 83 20 84 21 85 22 89 23 86 24
REMARK SMILES IDX 88 25 87 26 14 27 15 28 16 29 17 30 18 31 19 33 20 34 21 35
REMARK SMILES IDX 79 36 22 37 78 38 23 39 24 40 25 41 72 42 26 43 77 44 71 45
REMARK SMILES IDX 73 46 27 47 76 48 70 49 69 50 28 52 58 53 39 54 57 55 40 56
REMARK SMILES IDX 43 57 56 58 74 59 41 60 42 61 55 63 75 64 44 65 29 66 30 67
REMARK SMILES IDX 38 68 31 69 37 70 32 71 33 72 34 73 35 74 36 75 59 76 60 77
REMARK SMILES IDX 68 78 61 79 67 80 62 81 63 82 64 83 65 84 66 85 45 86 46 87
REMARK SMILES IDX 54 88 47 89 53 90 48 91 49 92 50 93 51 94 52 95
REMARK H PARENT 10 7 2 13 17 32 73 51 43 62
REMARK Flexibility Score: inf
ROOT
ATOM      1  C   UNL A   1      34.638  35.449  33.834  1.00  0.00     0.002 C 
ENDROOT
BRANCH   1   2
ATOM      2  C   UNL A   1      34.885  34.008  33.411  1.00  0.00     0.021 C 
BRANCH   2   3
ATOM      3  C   UNL A   1      36.263  33.457  33.734  1.00  0.00     0.116 C 
BRANCH   3   4
ATOM      4  N   UNL A   1      37.304  34.454  33.895  1.00  0.00    -0.356 N 
ATOM      5  C   UNL A   1      38.456  34.459  34.620  1.00  0.00     0.232 C 
ATOM      6  O   UNL A   1      39.261  35.359  34.328  1.00  0.00    -0.274 OA
ATOM      7  H   UNL A   1      37.147  35.282  33.386  1.00  0.00     0.163 HD
BRANCH   5   8
ATOM      8  C   UNL A   1      38.833  33.487  35.758  1.00  0.00     0.177 C 
ATOM      9  C   UNL A   1      39.708  36.069  38.209  1.00  0.00     0.333 C 
ATOM     10  N   UNL A   1      39.904  34.947  37.311  1.00  0.00    -0.332 N 
ATOM     11  C   UNL A   1      41.017  34.033  37.590  1.00  0.00     0.188 C 
ATOM     12  C   UNL A   1      38.740  34.083  37.172  1.00  0.00     0.200 C 
ATOM     13  H   UNL A   1      40.112  35.473  36.462  1.00  0.00     0.348 HD
ATOM     14  C   UNL A   1      40.434  33.118  38.653  1.00  0.00     0.071 C 
ATOM     15  C   UNL A   1      41.366  33.261  36.276  1.00  0.00     0.111 C 
ATOM     16  C   UNL A   1      38.947  33.038  38.292  1.00  0.00     0.072 C 
ATOM     17  C   UNL A   1      40.128  32.681  35.540  1.00  0.00     0.201 C 
BRANCH  17  18
ATOM     18  O   UNL A   1      40.189  32.263  34.142  1.00  0.00    -0.457 OA
BRANCH  18  19
ATOM     19  C   UNL A   1      40.808  31.145  33.726  1.00  0.00     0.338 C 
ATOM     20  O   UNL A   1      42.017  30.964  33.649  1.00  0.00    -0.246 OA
BRANCH  19  21
ATOM     21  C   UNL A   1      39.837  30.109  33.274  1.00  0.00     0.060 A 
ATOM     22  C   UNL A   1      38.486  30.485  33.182  1.00  0.00     0.015 A 
ATOM     23  C   UNL A   1      40.206  28.807  32.911  1.00  0.00     0.015 A 
ATOM     24  C   UNL A   1      37.524  29.591  32.709  1.00  0.00     0.001 A 
ATOM     25  C   UNL A   1      39.238  27.916  32.424  1.00  0.00     0.001 A 
ATOM     26  C   UNL A   1      37.902  28.310  32.318  1.00  0.00     0.000 A 
ENDBRANCH  19  21
ENDBRANCH  18  19
ENDBRANCH  17  18
ENDBRANCH   5   8
ENDBRANCH   3   4
ENDBRANCH   2   3
ENDBRANCH   1   2
BRANCH   1  27
ATOM     27  C   UNL A   1      33.639  36.224  32.970  1.00  0.00     0.002 C 
BRANCH  27  28
ATOM     28  C   UNL A   1      32.972  35.431  31.843  1.00  0.00     0.021 C 
BRANCH  28  29
ATOM     29  C   UNL A   1      33.746  35.390  30.529  1.00  0.00     0.116 C 
BRANCH  29  30
ATOM     30  N   UNL A   1      33.001  34.714  29.479  1.00  0.00    -0.352 N 
ATOM     31  C   UNL A   1      33.450  33.770  28.591  1.00  0.00     0.251 C 
ATOM     32  H   UNL A   1      32.053  34.965  29.396  1.00  0.00     0.163 HD
ATOM     33  O   UNL A   1      32.770  33.439  27.626  1.00  0.00    -0.269 OA
BRANCH  31  34
ATOM     34  C   UNL A   1      34.778  33.169  28.817  1.00  0.00     0.039 A 
ATOM     35  C   UNL A   1      35.824  33.466  27.945  1.00  0.00     0.014 A 
ATOM     36  C   UNL A   1      34.981  32.344  29.928  1.00  0.00     0.014 A 
ATOM     37  C   UNL A   1      37.102  32.972  28.215  1.00  0.00     0.010 A 
ATOM     38  C   UNL A   1      36.264  31.907  30.228  1.00  0.00     0.010 A 
ATOM     39  C   UNL A   1      37.335  32.213  29.373  1.00  0.00    -0.014 A 
BRANCH  39  40
ATOM     40  C   UNL A   1      38.680  31.682  29.707  1.00  0.00     0.031 A 
ATOM     41  C   UNL A   1      39.693  32.601  30.333  1.00  0.00     0.074 A 
ATOM     42  C   UNL A   1      39.013  30.420  29.372  1.00  0.00     0.049 A 
ATOM     43  N   UNL A   1      40.968  32.406  30.539  1.00  0.00    -0.248 NA
ATOM     44  C   UNL A   1      39.210  33.926  30.759  1.00  0.00     0.031 C 
ATOM     45  C   UNL A   1      38.120  29.439  28.753  1.00  0.00     0.029 A 
ATOM     46  N   UNL A   1      40.207  29.752  29.487  1.00  0.00    -0.354 N 
ATOM     47  C   UNL A   1      41.442  33.584  31.103  1.00  0.00     0.074 A 
ATOM     48  C   UNL A   1      40.332  34.507  31.160  1.00  0.00     0.031 C 
ATOM     49  C   UNL A   1      38.795  28.296  28.546  1.00  0.00     0.029 A 
ATOM     50  C   UNL A   1      40.181  28.478  28.968  1.00  0.00     0.049 A 
ATOM     51  H   UNL A   1      41.008  30.148  29.901  1.00  0.00     0.167 HD
ATOM     52  C   UNL A   1      42.686  33.863  31.556  1.00  0.00     0.031 A 
ATOM     53  C   UNL A   1      41.168  27.572  28.822  1.00  0.00     0.031 A 
ATOM     54  C   UNL A   1      43.783  32.935  31.506  1.00  0.00     0.049 A 
ATOM     55  C   UNL A   1      42.557  27.927  29.288  1.00  0.00     0.074 A 
ATOM     56  C   UNL A   1      45.082  33.114  31.947  1.00  0.00     0.029 A 
ATOM     57  N   UNL A   1      43.706  31.649  30.994  1.00  0.00    -0.354 N 
ATOM     58  N   UNL A   1      42.982  29.039  29.840  1.00  0.00    -0.248 NA
ATOM     59  C   UNL A   1      43.601  26.904  29.119  1.00  0.00     0.031 C 
ATOM     60  C   UNL A   1      45.800  31.951  31.667  1.00  0.00     0.029 A 
ATOM     61  C   UNL A   1      44.933  31.025  31.107  1.00  0.00     0.049 A 
ATOM     62  H   UNL A   1      42.896  31.241  30.608  1.00  0.00     0.167 HD
ATOM     63  C   UNL A   1      44.328  28.829  30.127  1.00  0.00     0.074 A 
ATOM     64  C   UNL A   1      44.647  27.487  29.689  1.00  0.00     0.031 C 
ATOM     65  C   UNL A   1      45.217  29.671  30.705  1.00  0.00     0.031 A 
BRANCH  52  66
ATOM     66  C   UNL A   1      42.925  35.220  32.161  1.00  0.00    -0.014 A 
ATOM     67  C   UNL A   1      42.621  35.466  33.513  1.00  0.00     0.010 A 
ATOM     68  C   UNL A   1      43.521  36.238  31.397  1.00  0.00     0.010 A 
ATOM     69  C   UNL A   1      42.886  36.713  34.082  1.00  0.00     0.020 A 
ATOM     70  C   UNL A   1      43.814  37.479  31.971  1.00  0.00     0.020 A 
ATOM     71  C   UNL A   1      43.484  37.711  33.307  1.00  0.00     0.054 A 
BRANCH  71  72
ATOM     72  S   UNL A   1      43.863  39.303  34.090  1.00  0.00     0.124 S 
ATOM     73  O   UNL A   1      45.143  39.644  33.476  1.00  0.00    -0.237 OA
ATOM     74  O   UNL A   1      42.731  40.134  33.687  1.00  0.00    -0.237 OA
ATOM     75  O   UNL A   1      43.921  38.984  35.514  1.00  0.00    -0.744 OA
ENDBRANCH  71  72
ENDBRANCH  52  66
BRANCH  53  76
ATOM     76  C   UNL A   1      40.896  26.250  28.191  1.00  0.00    -0.014 A 
ATOM     77  C   UNL A   1      39.844  25.439  28.652  1.00  0.00     0.010 A 
ATOM     78  C   UNL A   1      41.715  25.776  27.149  1.00  0.00     0.010 A 
ATOM     79  C   UNL A   1      39.646  24.162  28.119  1.00  0.00     0.020 A 
ATOM     80  C   UNL A   1      41.500  24.513  26.590  1.00  0.00     0.020 A 
ATOM     81  C   UNL A   1      40.481  23.704  27.095  1.00  0.00     0.054 A 
BRANCH  81  82
ATOM     82  S   UNL A   1      40.213  22.041  26.422  1.00  0.00     0.124 S 
ATOM     83  O   UNL A   1      38.889  22.167  25.823  1.00  0.00    -0.237 OA
ATOM     84  O   UNL A   1      41.323  21.898  25.482  1.00  0.00    -0.237 OA
ATOM     85  O   UNL A   1      40.290  21.179  27.600  1.00  0.00    -0.744 OA
ENDBRANCH  81  82
ENDBRANCH  53  76
BRANCH  65  86
ATOM     86  C   UNL A   1      46.603  29.154  30.982  1.00  0.00    -0.014 A 
ATOM     87  C   UNL A   1      47.653  29.346  30.070  1.00  0.00     0.010 A 
ATOM     88  C   UNL A   1      46.874  28.574  32.236  1.00  0.00     0.010 A 
ATOM     89  C   UNL A   1      48.955  28.962  30.407  1.00  0.00     0.020 A 
ATOM     90  C   UNL A   1      48.177  28.215  32.586  1.00  0.00     0.020 A 
ATOM     91  C   UNL A   1      49.210  28.410  31.667  1.00  0.00     0.054 A 
BRANCH  91  92
ATOM     92  S   UNL A   1      50.922  28.018  32.119  1.00  0.00     0.124 S 
ATOM     93  O   UNL A   1      50.819  26.618  32.520  1.00  0.00    -0.237 OA
ATOM     94  O   UNL A   1      51.644  28.262  30.872  1.00  0.00    -0.237 OA
ATOM     95  O   UNL A   1      51.221  28.954  33.199  1.00  0.00    -0.744 OA
ENDBRANCH  91  92
ENDBRANCH  65  86
ENDBRANCH  39  40
ENDBRANCH  31  34
ENDBRANCH  29  30
ENDBRANCH  28  29
ENDBRANCH  27  28
ENDBRANCH   1  27
TORSDOF 19
ENDMDL
MODEL 3
REMARK VINA RESULT:     -10.6      6.524     11.915
REMARK SMILES C[N@H+]1[C@H]2CC[C@@H]1[C@@H](C(=O)NCCCCCCNC(=O)c1ccc(-c3c4nc(c(-c5ccc(S(=O)(=O)[O-])cc5)c5ccc([nH]5)c(-c5ccc(S(=O)(=O)[O-])cc5)c5nc(c(-c6ccc(S(=O)(=O)[O-])cc6)c6ccc3[nH]6)C=C5)C=C4)cc1)[C@@H](OC(=O)c1ccccc1)C2
REMARK SMILES IDX 13 1 12 2 11 3 10 4 8 5 9 6 7 8 1 9 2 10 3 11 6 12 4 14
REMARK SMILES IDX 90 15 5 16 80 17 81 18 82 19 83 20 84 21 85 22 89 23 86 24
REMARK SMILES IDX 88 25 87 26 14 27 15 28 16 29 17 30 18 31 19 33 20 34 21 35
REMARK SMILES IDX 79 36 22 37 78 38 23 39 24 40 25 41 72 42 26 43 77 44 71 45
REMARK SMILES IDX 73 46 27 47 76 48 70 49 69 50 28 52 58 53 39 54 57 55 40 56
REMARK SMILES IDX 43 57 56 58 74 59 41 60 42 61 55 63 75 64 44 65 29 66 30 67
REMARK SMILES IDX 38 68 31 69 37 70 32 71 33 72 34 73 35 74 36 75 59 76 60 77
REMARK SMILES IDX 68 78 61 79 67 80 62 81 63 82 64 83 65 84 66 85 45 86 46 87
REMARK SMILES IDX 54 88 47 89 53 90 48 91 49 92 50 93 51 94 52 95
REMARK H PARENT 10 7 2 13 17 32 73 51 43 62
REMARK Flexibility Score: inf
ROOT
ATOM      1  C   UNL A   1      36.563  21.713  25.498  1.00  0.00     0.002 C 
ENDROOT
BRANCH   1   2
ATOM      2  C   UNL A   1      37.178  23.037  25.926  1.00  0.00     0.021 C 
BRANCH   2   3
ATOM      3  C   UNL A   1      36.417  24.282  25.500  1.00  0.00     0.116 C 
BRANCH   3   4
ATOM      4  N   UNL A   1      35.103  24.434  26.095  1.00  0.00    -0.356 N 
ATOM      5  C   UNL A   1      33.856  24.473  25.550  1.00  0.00     0.232 C 
ATOM      6  O   UNL A   1      32.921  24.340  26.357  1.00  0.00    -0.274 OA
ATOM      7  H   UNL A   1      35.115  24.527  27.075  1.00  0.00     0.163 HD
BRANCH   5   8
ATOM      8  C   UNL A   1      33.507  24.683  24.061  1.00  0.00     0.177 C 
ATOM      9  C   UNL A   1      31.006  27.308  24.610  1.00  0.00     0.333 C 
ATOM     10  N   UNL A   1      31.536  26.019  24.207  1.00  0.00    -0.332 N 
ATOM     11  C   UNL A   1      30.804  25.269  23.180  1.00  0.00     0.188 C 
ATOM     12  C   UNL A   1      32.910  26.061  23.728  1.00  0.00     0.200 C 
ATOM     13  H   UNL A   1      31.441  25.536  25.101  1.00  0.00     0.348 HD
ATOM     14  C   UNL A   1      31.298  25.906  21.893  1.00  0.00     0.071 C 
ATOM     15  C   UNL A   1      31.209  23.763  23.284  1.00  0.00     0.111 C 
ATOM     16  C   UNL A   1      32.742  26.305  22.211  1.00  0.00     0.072 C 
ATOM     17  C   UNL A   1      32.740  23.529  23.389  1.00  0.00     0.201 C 
BRANCH  17  18
ATOM     18  O   UNL A   1      33.296  22.263  23.860  1.00  0.00    -0.457 OA
BRANCH  18  19
ATOM     19  C   UNL A   1      32.568  21.312  24.472  1.00  0.00     0.338 C 
ATOM     20  O   UNL A   1      31.760  21.480  25.376  1.00  0.00    -0.246 OA
BRANCH  19  21
ATOM     21  C   UNL A   1      32.903  19.949  23.970  1.00  0.00     0.060 A 
ATOM     22  C   UNL A   1      33.927  19.250  24.631  1.00  0.00     0.015 A 
ATOM     23  C   UNL A   1      32.232  19.329  22.909  1.00  0.00     0.015 A 
ATOM     24  C   UNL A   1      34.259  17.946  24.261  1.00  0.00     0.001 A 
ATOM     25  C   UNL A   1      32.559  18.014  22.548  1.00  0.00     0.001 A 
ATOM     26  C   UNL A   1      33.566  17.323  23.227  1.00  0.00     0.000 A 
ENDBRANCH  19  21
ENDBRANCH  18  19
ENDBRANCH  17  18
ENDBRANCH   5   8
ENDBRANCH   3   4
ENDBRANCH   2   3
ENDBRANCH   1   2
BRANCH   1  27
ATOM     27  C   UNL A   1      37.448  20.834  24.610  1.00  0.00     0.002 C 
BRANCH  27  28
ATOM     28  C   UNL A   1      38.274  19.767  25.335  1.00  0.00     0.021 C 
BRANCH  28  29
ATOM     29  C   UNL A   1      39.646  20.224  25.820  1.00  0.00     0.116 C 
BRANCH  29  30
ATOM     30  N   UNL A   1      40.574  19.113  25.951  1.00  0.00    -0.352 N 
ATOM     31  C   UNL A   1      41.939  19.156  26.081  1.00  0.00     0.251 C 
ATOM     32  H   UNL A   1      40.172  18.215  25.946  1.00  0.00     0.163 HD
ATOM     33  O   UNL A   1      42.615  18.139  25.971  1.00  0.00    -0.269 OA
BRANCH  31  34
ATOM     34  C   UNL A   1      42.579  20.458  26.345  1.00  0.00     0.039 A 
ATOM     35  C   UNL A   1      43.130  21.180  25.287  1.00  0.00     0.014 A 
ATOM     36  C   UNL A   1      42.583  20.973  27.645  1.00  0.00     0.014 A 
ATOM     37  C   UNL A   1      43.650  22.455  25.525  1.00  0.00     0.010 A 
ATOM     38  C   UNL A   1      43.042  22.264  27.867  1.00  0.00     0.010 A 
ATOM     39  C   UNL A   1      43.584  23.015  26.810  1.00  0.00    -0.014 A 
BRANCH  39  40
ATOM     40  C   UNL A   1      44.108  24.372  27.104  1.00  0.00     0.031 A 
ATOM     41  C   UNL A   1      43.142  25.463  27.478  1.00  0.00     0.074 A 
ATOM     42  C   UNL A   1      45.419  24.640  26.951  1.00  0.00     0.049 A 
ATOM     43  N   UNL A   1      43.353  26.747  27.597  1.00  0.00    -0.248 NA
ATOM     44  C   UNL A   1      41.747  25.057  27.725  1.00  0.00     0.031 C 
ATOM     45  C   UNL A   1      46.450  23.667  26.582  1.00  0.00     0.029 A 
ATOM     46  N   UNL A   1      46.108  25.822  27.064  1.00  0.00    -0.354 N 
ATOM     47  C   UNL A   1      42.121  27.302  27.918  1.00  0.00     0.074 A 
ATOM     48  C   UNL A   1      41.156  26.225  27.923  1.00  0.00     0.031 C 
ATOM     49  C   UNL A   1      47.638  24.291  26.504  1.00  0.00     0.029 A 
ATOM     50  C   UNL A   1      47.446  25.715  26.764  1.00  0.00     0.049 A 
ATOM     51  H   UNL A   1      45.684  26.668  27.335  1.00  0.00     0.167 HD
ATOM     52  C   UNL A   1      41.823  28.590  28.205  1.00  0.00     0.031 A 
ATOM     53  C   UNL A   1      48.403  26.660  26.680  1.00  0.00     0.031 A 
ATOM     54  C   UNL A   1      42.790  29.653  28.208  1.00  0.00     0.049 A 
ATOM     55  C   UNL A   1      48.035  28.096  26.954  1.00  0.00     0.074 A 
ATOM     56  C   UNL A   1      42.595  30.992  28.496  1.00  0.00     0.029 A 
ATOM     57  N   UNL A   1      44.137  29.495  27.921  1.00  0.00    -0.354 N 
ATOM     58  N   UNL A   1      46.867  28.599  27.277  1.00  0.00    -0.248 NA
ATOM     59  C   UNL A   1      49.113  29.092  26.861  1.00  0.00     0.031 C 
ATOM     60  C   UNL A   1      43.817  31.651  28.345  1.00  0.00     0.029 A 
ATOM     61  C   UNL A   1      44.784  30.711  28.024  1.00  0.00     0.049 A 
ATOM     62  H   UNL A   1      44.569  28.642  27.682  1.00  0.00     0.167 HD
ATOM     63  C   UNL A   1      47.083  29.960  27.472  1.00  0.00     0.074 A 
ATOM     64  C   UNL A   1      48.489  30.202  27.232  1.00  0.00     0.031 C 
ATOM     65  C   UNL A   1      46.195  30.921  27.823  1.00  0.00     0.031 A 
BRANCH  52  66
ATOM     66  C   UNL A   1      40.398  28.919  28.557  1.00  0.00    -0.014 A 
ATOM     67  C   UNL A   1      39.981  28.957  29.901  1.00  0.00     0.010 A 
ATOM     68  C   UNL A   1      39.482  29.262  27.546  1.00  0.00     0.010 A 
ATOM     69  C   UNL A   1      38.669  29.307  30.225  1.00  0.00     0.020 A 
ATOM     70  C   UNL A   1      38.175  29.641  27.869  1.00  0.00     0.020 A 
ATOM     71  C   UNL A   1      37.775  29.650  29.206  1.00  0.00     0.054 A 
BRANCH  71  72
ATOM     72  S   UNL A   1      36.093  30.150  29.665  1.00  0.00     0.124 S 
ATOM     73  O   UNL A   1      36.196  31.607  29.647  1.00  0.00    -0.237 OA
ATOM     74  O   UNL A   1      35.284  29.565  28.598  1.00  0.00    -0.237 OA
ATOM     75  O   UNL A   1      35.901  29.556  30.985  1.00  0.00    -0.744 OA
ENDBRANCH  71  72
ENDBRANCH  52  66
BRANCH  53  76
ATOM     76  C   UNL A   1      49.797  26.296  26.300  1.00  0.00    -0.014 A 
ATOM     77  C   UNL A   1      50.672  25.729  27.243  1.00  0.00     0.010 A 
ATOM     78  C   UNL A   1      50.270  26.552  24.999  1.00  0.00     0.010 A 
ATOM     79  C   UNL A   1      52.005  25.470  26.909  1.00  0.00     0.020 A 
ATOM     80  C   UNL A   1      51.593  26.263  24.651  1.00  0.00     0.020 A 
ATOM     81  C   UNL A   1      52.459  25.746  25.616  1.00  0.00     0.054 A 
BRANCH  81  82
ATOM     82  S   UNL A   1      54.194  25.412  25.205  1.00  0.00     0.124 S 
ATOM     83  O   UNL A   1      54.214  25.650  23.765  1.00  0.00    -0.237 OA
ATOM     84  O   UNL A   1      54.907  26.392  26.020  1.00  0.00    -0.237 OA
ATOM     85  O   UNL A   1      54.380  24.021  25.614  1.00  0.00    -0.744 OA
ENDBRANCH  81  82
ENDBRANCH  53  76
BRANCH  65  86
ATOM     86  C   UNL A   1      46.717  32.314  28.055  1.00  0.00    -0.014 A 
ATOM     87  C   UNL A   1      47.224  32.709  29.303  1.00  0.00     0.010 A 
ATOM     88  C   UNL A   1      46.807  33.197  26.961  1.00  0.00     0.010 A 
ATOM     89  C   UNL A   1      47.812  33.969  29.455  1.00  0.00     0.020 A 
ATOM     90  C   UNL A   1      47.418  34.444  27.103  1.00  0.00     0.020 A 
ATOM     91  C   UNL A   1      47.916  34.823  28.351  1.00  0.00     0.054 A 
BRANCH  91  92
ATOM     92  S   UNL A   1      48.776  36.407  28.551  1.00  0.00     0.124 S 
ATOM     93  O   UNL A   1      49.591  36.466  27.341  1.00  0.00    -0.237 OA
ATOM     94  O   UNL A   1      47.673  37.363  28.612  1.00  0.00    -0.237 OA
ATOM     95  O   UNL A   1      49.522  36.244  29.797  1.00  0.00    -0.744 OA
ENDBRANCH  91  92
ENDBRANCH  65  86
ENDBRANCH  39  40
ENDBRANCH  31  34
ENDBRANCH  29  30
ENDBRANCH  28  29
ENDBRANCH  27  28
ENDBRANCH   1  27
TORSDOF 19
ENDMDL
