MODEL 1
REMARK VINA RESULT:     -10.0      0.000      0.000
REMARK SMILES O=C(NCCCCCCNC(=O)c1ccc(-c2c3nc(c(-c4ccc(S(=O)(=O)[O-])cc4)c4ccc([nH]4)c(-c4ccc(S(=O)(=O)[O-])cc4)c4nc(c(-c5ccc(S(=O)(=O)[O-])cc5)c5ccc2[nH]5)C=C4)C=C3)cc1)C1=Cc2cc(S(F)(F)(F)(F)F)cc(Br)c2O[C@H]1C(F)(F)F
REMARK SMILES IDX 7 1 6 2 5 3 4 4 3 5 1 6 2 7 73 9 74 10 89 11 75 12 88 13
REMARK SMILES IDX 76 14 87 15 77 16 85 17 84 18 86 19 90 20 91 21 92 22 93 23
REMARK SMILES IDX 78 24 79 25 80 26 81 27 82 28 83 29 8 30 9 31 10 32 11 33
REMARK SMILES IDX 12 35 13 36 14 37 72 38 15 39 71 40 16 41 17 42 18 43 65 44
REMARK SMILES IDX 19 45 70 46 64 47 66 48 20 49 69 50 63 51 62 52 21 54 51 55
REMARK SMILES IDX 32 56 50 57 33 58 36 59 49 60 67 61 34 62 35 63 48 65 68 66
REMARK SMILES IDX 37 67 22 68 23 69 31 70 24 71 30 72 25 73 26 74 27 75 28 76
REMARK SMILES IDX 29 77 52 78 53 79 61 80 54 81 60 82 55 83 56 84 57 85 58 86
REMARK SMILES IDX 59 87 38 88 39 89 47 90 40 91 46 92 41 93 42 94 43 95 44 96
REMARK SMILES IDX 45 97
REMARK H PARENT 3 8 10 34 66 53 36 64
REMARK Flexibility Score: inf
ROOT
ATOM      1  C   UNL A   1      36.182  34.194  28.747  1.00  0.00     0.002 C 
ENDROOT
BRANCH   1   2
ATOM      2  C   UNL A   1      37.420  33.557  29.356  1.00  0.00     0.002 C 
BRANCH   2   3
ATOM      3  C   UNL A   1      38.063  34.529  30.331  1.00  0.00     0.021 C 
BRANCH   3   4
ATOM      4  C   UNL A   1      38.485  33.782  31.586  1.00  0.00     0.116 C 
BRANCH   4   5
ATOM      5  N   UNL A   1      37.951  34.471  32.770  1.00  0.00    -0.352 N 
ATOM      6  O   UNL A   1      36.254  34.585  34.428  1.00  0.00    -0.270 OA
ATOM      7  C   UNL A   1      36.716  33.990  33.405  1.00  0.00     0.251 C 
ATOM      8  H   UNL A   1      38.421  35.254  33.137  1.00  0.00     0.163 HD
BRANCH   7   9
ATOM      9  C   UNL A   1      35.991  32.781  32.838  1.00  0.00     0.067 C 
ATOM     10  C   UNL A   1      36.517  31.536  32.996  1.00  0.00     0.025 C 
ATOM     11  C   UNL A   1      34.678  32.962  32.093  1.00  0.00     0.314 C 
ATOM     12  C   UNL A   1      37.829  31.355  33.740  1.00  0.00     0.020 A 
ATOM     13  O   UNL A   1      37.179  32.870  35.452  1.00  0.00    -0.474 OA
ATOM     14  C   UNL A   1      38.773  30.583  33.084  1.00  0.00     0.036 A 
ATOM     15  C   UNL A   1      38.112  31.959  34.888  1.00  0.00     0.142 A 
ATOM     16  C   UNL A   1      39.908  30.271  33.870  1.00  0.00     0.109 A 
ATOM     17  C   UNL A   1      39.298  31.712  35.536  1.00  0.00     0.062 A 
ATOM     18  C   UNL A   1      40.253  30.912  34.972  1.00  0.00     0.044 A 
ATOM     19  Br  UNL A   1      39.627  32.519  37.291  1.00  0.00    -0.047 Br
BRANCH  11  20
ATOM     20  C   UNL A   1      34.316  34.437  32.057  1.00  0.00     0.429 C 
ATOM     21  F   UNL A   1      33.362  34.642  31.153  1.00  0.00    -0.167 F 
ATOM     22  F   UNL A   1      33.880  34.816  33.256  1.00  0.00    -0.167 F 
ATOM     23  F   UNL A   1      35.393  35.147  31.733  1.00  0.00    -0.167 F 
ENDBRANCH  11  20
BRANCH  16  24
ATOM     24  S   UNL A   1      40.957  28.900  33.329  1.00  0.00     0.310 S 
ATOM     25  F   UNL A   1      41.095  28.360  34.813  1.00  0.00    -0.094 F 
ATOM     26  F   UNL A   1      42.231  29.786  33.606  1.00  0.00    -0.094 F 
ATOM     27  F   UNL A   1      41.849  27.709  32.877  1.00  0.00    -0.094 F 
ATOM     28  F   UNL A   1      39.678  27.984  33.192  1.00  0.00    -0.094 F 
ATOM     29  F   UNL A   1      40.046  30.063  33.892  1.00  0.00    -0.094 F 
ENDBRANCH  16  24
ENDBRANCH   7   9
ENDBRANCH   4   5
ENDBRANCH   3   4
ENDBRANCH   2   3
ENDBRANCH   1   2
BRANCH   1  30
ATOM     30  C   UNL A   1      35.383  33.139  27.999  1.00  0.00     0.021 C 
BRANCH  30  31
ATOM     31  C   UNL A   1      34.761  32.176  28.996  1.00  0.00     0.116 C 
BRANCH  31  32
ATOM     32  N   UNL A   1      33.939  31.191  28.279  1.00  0.00    -0.352 N 
ATOM     33  C   UNL A   1      34.523  29.903  27.872  1.00  0.00     0.251 C 
ATOM     34  H   UNL A   1      32.998  31.392  28.069  1.00  0.00     0.163 HD
ATOM     35  O   UNL A   1      33.813  29.052  27.252  1.00  0.00    -0.269 OA
BRANCH  33  36
ATOM     36  C   UNL A   1      35.975  29.591  28.195  1.00  0.00     0.039 A 
ATOM     37  C   UNL A   1      36.312  29.165  29.469  1.00  0.00     0.014 A 
ATOM     38  C   UNL A   1      36.897  29.732  27.249  1.00  0.00     0.014 A 
ATOM     39  C   UNL A   1      37.701  29.189  29.733  1.00  0.00     0.010 A 
ATOM     40  C   UNL A   1      38.232  29.607  27.550  1.00  0.00     0.010 A 
ATOM     41  C   UNL A   1      38.639  29.247  28.805  1.00  0.00    -0.014 A 
BRANCH  41  42
ATOM     42  C   UNL A   1      40.093  28.930  29.114  1.00  0.00     0.031 A 
ATOM     43  C   UNL A   1      40.573  27.663  28.779  1.00  0.00     0.074 A 
ATOM     44  C   UNL A   1      40.861  29.915  29.711  1.00  0.00     0.049 A 
ATOM     45  N   UNL A   1      41.814  27.196  28.930  1.00  0.00    -0.248 NA
ATOM     46  C   UNL A   1      39.751  26.603  28.176  1.00  0.00     0.031 C 
ATOM     47  C   UNL A   1      40.386  31.199  30.045  1.00  0.00     0.029 A 
ATOM     48  N   UNL A   1      42.185  29.846  30.084  1.00  0.00    -0.354 N 
ATOM     49  C   UNL A   1      41.894  25.944  28.474  1.00  0.00     0.074 A 
ATOM     50  C   UNL A   1      40.567  25.543  27.988  1.00  0.00     0.031 C 
ATOM     51  C   UNL A   1      41.406  31.888  30.621  1.00  0.00     0.029 A 
ATOM     52  C   UNL A   1      42.535  31.049  30.656  1.00  0.00     0.049 A 
ATOM     53  H   UNL A   1      42.780  29.070  29.962  1.00  0.00     0.167 HD
ATOM     54  C   UNL A   1      43.022  25.124  28.442  1.00  0.00     0.031 A 
ATOM     55  C   UNL A   1      43.763  31.411  31.186  1.00  0.00     0.031 A 
ATOM     56  C   UNL A   1      44.262  25.501  28.934  1.00  0.00     0.049 A 
ATOM     57  C   UNL A   1      44.877  30.568  31.209  1.00  0.00     0.074 A 
ATOM     58  C   UNL A   1      45.411  24.689  28.903  1.00  0.00     0.029 A 
ATOM     59  N   UNL A   1      44.605  26.695  29.528  1.00  0.00    -0.354 N 
ATOM     60  N   UNL A   1      44.968  29.330  30.716  1.00  0.00    -0.248 NA
ATOM     61  C   UNL A   1      46.173  30.929  31.797  1.00  0.00     0.031 C 
ATOM     62  C   UNL A   1      46.431  25.378  29.479  1.00  0.00     0.029 A 
ATOM     63  C   UNL A   1      45.935  26.634  29.881  1.00  0.00     0.049 A 
ATOM     64  H   UNL A   1      44.004  27.460  29.677  1.00  0.00     0.167 HD
ATOM     65  C   UNL A   1      46.198  28.850  30.906  1.00  0.00     0.074 A 
ATOM     66  C   UNL A   1      46.989  29.868  31.610  1.00  0.00     0.031 C 
ATOM     67  C   UNL A   1      46.693  27.605  30.518  1.00  0.00     0.031 A 
BRANCH  54  68
ATOM     68  C   UNL A   1      42.883  23.737  27.836  1.00  0.00    -0.014 A 
ATOM     69  C   UNL A   1      43.070  23.518  26.481  1.00  0.00     0.010 A 
ATOM     70  C   UNL A   1      42.535  22.749  28.651  1.00  0.00     0.010 A 
ATOM     71  C   UNL A   1      42.580  22.270  26.029  1.00  0.00     0.020 A 
ATOM     72  C   UNL A   1      42.199  21.514  28.151  1.00  0.00     0.020 A 
ATOM     73  C   UNL A   1      42.303  21.245  26.814  1.00  0.00     0.054 A 
BRANCH  73  74
ATOM     74  S   UNL A   1      42.073  19.574  26.157  1.00  0.00     0.124 S 
ATOM     75  O   UNL A   1      40.592  19.347  25.847  1.00  0.00    -0.237 OA
ATOM     76  O   UNL A   1      42.894  19.413  24.876  1.00  0.00    -0.237 OA
ATOM     77  O   UNL A   1      42.596  18.430  27.316  1.00  0.00    -0.744 OA
ENDBRANCH  73  74
ENDBRANCH  54  68
BRANCH  55  78
ATOM     78  C   UNL A   1      43.906  32.804  31.779  1.00  0.00    -0.014 A 
ATOM     79  C   UNL A   1      43.540  32.963  33.105  1.00  0.00     0.010 A 
ATOM     80  C   UNL A   1      44.389  33.817  31.071  1.00  0.00     0.010 A 
ATOM     81  C   UNL A   1      43.449  34.313  33.516  1.00  0.00     0.020 A 
ATOM     82  C   UNL A   1      44.395  35.091  31.587  1.00  0.00     0.020 A 
ATOM     83  C   UNL A   1      43.991  35.330  32.871  1.00  0.00     0.054 A 
BRANCH  83  84
ATOM     84  S   UNL A   1      44.187  36.955  33.645  1.00  0.00     0.124 S 
ATOM     85  O   UNL A   1      45.355  36.912  34.633  1.00  0.00    -0.237 OA
ATOM     86  O   UNL A   1      44.467  38.004  32.567  1.00  0.00    -0.237 OA
ATOM     87  O   UNL A   1      42.751  37.365  34.480  1.00  0.00    -0.744 OA
ENDBRANCH  83  84
ENDBRANCH  55  78
BRANCH  67  88
ATOM     88  C   UNL A   1      48.151  27.293  30.810  1.00  0.00    -0.014 A 
ATOM     89  C   UNL A   1      49.123  27.664  29.895  1.00  0.00     0.010 A 
ATOM     90  C   UNL A   1      48.471  26.668  31.938  1.00  0.00     0.010 A 
ATOM     91  C   UNL A   1      50.386  27.071  30.127  1.00  0.00     0.020 A 
ATOM     92  C   UNL A   1      49.757  26.236  32.158  1.00  0.00     0.020 A 
ATOM     93  C   UNL A   1      50.755  26.517  31.268  1.00  0.00     0.054 A 
BRANCH  93  94
ATOM     94  S   UNL A   1      52.490  26.147  31.631  1.00  0.00     0.124 S 
ATOM     95  O   UNL A   1      53.286  26.102  30.326  1.00  0.00    -0.237 OA
ATOM     96  O   UNL A   1      53.062  27.235  32.543  1.00  0.00    -0.237 OA
ATOM     97  O   UNL A   1      52.596  24.631  32.416  1.00  0.00    -0.744 OA
ENDBRANCH  93  94
ENDBRANCH  67  88
ENDBRANCH  41  42
ENDBRANCH  33  36
ENDBRANCH  31  32
ENDBRANCH  30  31
ENDBRANCH   1  30
TORSDOF 18
ENDMDL
MODEL 2
REMARK VINA RESULT:      -9.8      0.313      7.913
REMARK SMILES O=C(NCCCCCCNC(=O)c1ccc(-c2c3nc(c(-c4ccc(S(=O)(=O)[O-])cc4)c4ccc([nH]4)c(-c4ccc(S(=O)(=O)[O-])cc4)c4nc(c(-c5ccc(S(=O)(=O)[O-])cc5)c5ccc2[nH]5)C=C4)C=C3)cc1)C1=Cc2cc(S(F)(F)(F)(F)F)cc(Br)c2O[C@H]1C(F)(F)F
REMARK SMILES IDX 7 1 6 2 5 3 4 4 3 5 1 6 2 7 73 9 74 10 89 11 75 12 88 13
REMARK SMILES IDX 76 14 87 15 77 16 85 17 84 18 86 19 90 20 91 21 92 22 93 23
REMARK SMILES IDX 78 24 79 25 80 26 81 27 82 28 83 29 8 30 9 31 10 32 11 33
REMARK SMILES IDX 12 35 13 36 14 37 72 38 15 39 71 40 16 41 17 42 18 43 65 44
REMARK SMILES IDX 19 45 70 46 64 47 66 48 20 49 69 50 63 51 62 52 21 54 51 55
REMARK SMILES IDX 32 56 50 57 33 58 36 59 49 60 67 61 34 62 35 63 48 65 68 66
REMARK SMILES IDX 37 67 22 68 23 69 31 70 24 71 30 72 25 73 26 74 27 75 28 76
REMARK SMILES IDX 29 77 52 78 53 79 61 80 54 81 60 82 55 83 56 84 57 85 58 86
REMARK SMILES IDX 59 87 38 88 39 89 47 90 40 91 46 92 41 93 42 94 43 95 44 96
REMARK SMILES IDX 45 97
REMARK H PARENT 3 8 10 34 66 53 36 64
REMARK Flexibility Score: inf
ROOT
ATOM      1  C   UNL A   1      36.164  34.317  28.780  1.00  0.00     0.002 C 
ENDROOT
BRANCH   1   2
ATOM      2  C   UNL A   1      37.388  33.647  29.380  1.00  0.00     0.002 C 
BRANCH   2   3
ATOM      3  C   UNL A   1      38.048  34.592  30.370  1.00  0.00     0.021 C 
BRANCH   3   4
ATOM      4  C   UNL A   1      38.438  33.824  31.622  1.00  0.00     0.116 C 
BRANCH   4   5
ATOM      5  N   UNL A   1      37.888  34.503  32.804  1.00  0.00    -0.352 N 
ATOM      6  O   UNL A   1      36.168  34.604  34.441  1.00  0.00    -0.270 OA
ATOM      7  C   UNL A   1      36.644  34.017  33.418  1.00  0.00     0.251 C 
ATOM      8  H   UNL A   1      38.353  35.283  33.185  1.00  0.00     0.163 HD
BRANCH   7   9
ATOM      9  C   UNL A   1      35.926  32.813  32.831  1.00  0.00     0.067 C 
ATOM     10  C   UNL A   1      36.455  31.569  32.976  1.00  0.00     0.025 C 
ATOM     11  C   UNL A   1      34.617  33.000  32.081  1.00  0.00     0.314 C 
ATOM     12  C   UNL A   1      37.764  31.382  33.725  1.00  0.00     0.020 A 
ATOM     13  O   UNL A   1      37.099  32.872  35.453  1.00  0.00    -0.474 OA
ATOM     14  C   UNL A   1      38.715  30.622  33.064  1.00  0.00     0.036 A 
ATOM     15  C   UNL A   1      38.038  31.972  34.883  1.00  0.00     0.142 A 
ATOM     16  C   UNL A   1      39.845  30.304  33.853  1.00  0.00     0.109 A 
ATOM     17  C   UNL A   1      39.222  31.720  35.534  1.00  0.00     0.062 A 
ATOM     18  C   UNL A   1      40.183  30.931  34.965  1.00  0.00     0.044 A 
ATOM     19  Br  UNL A   1      39.537  32.505  37.301  1.00  0.00    -0.047 Br
BRANCH  11  20
ATOM     20  C   UNL A   1      34.250  34.474  32.063  1.00  0.00     0.429 C 
ATOM     21  F   UNL A   1      33.742  34.824  33.242  1.00  0.00    -0.167 F 
ATOM     22  F   UNL A   1      35.337  35.200  31.816  1.00  0.00    -0.167 F 
ATOM     23  F   UNL A   1      33.347  34.690  31.110  1.00  0.00    -0.167 F 
ENDBRANCH  11  20
BRANCH  16  24
ATOM     24  S   UNL A   1      40.903  28.943  33.300  1.00  0.00     0.310 S 
ATOM     25  F   UNL A   1      41.082  28.418  34.784  1.00  0.00    -0.094 F 
ATOM     26  F   UNL A   1      42.169  29.849  33.540  1.00  0.00    -0.094 F 
ATOM     27  F   UNL A   1      41.802  27.761  32.838  1.00  0.00    -0.094 F 
ATOM     28  F   UNL A   1      39.635  28.008  33.198  1.00  0.00    -0.094 F 
ATOM     29  F   UNL A   1      39.987  30.097  33.873  1.00  0.00    -0.094 F 
ENDBRANCH  16  24
ENDBRANCH   7   9
ENDBRANCH   4   5
ENDBRANCH   3   4
ENDBRANCH   2   3
ENDBRANCH   1   2
BRANCH   1  30
ATOM     30  C   UNL A   1      35.326  33.281  28.048  1.00  0.00     0.021 C 
BRANCH  30  31
ATOM     31  C   UNL A   1      34.599  32.411  29.061  1.00  0.00     0.116 C 
BRANCH  31  32
ATOM     32  N   UNL A   1      33.784  31.412  28.356  1.00  0.00    -0.352 N 
ATOM     33  C   UNL A   1      34.388  30.142  27.924  1.00  0.00     0.251 C 
ATOM     34  H   UNL A   1      32.834  31.592  28.171  1.00  0.00     0.163 HD
ATOM     35  O   UNL A   1      33.683  29.279  27.314  1.00  0.00    -0.269 OA
BRANCH  33  36
ATOM     36  C   UNL A   1      35.855  29.863  28.208  1.00  0.00     0.039 A 
ATOM     37  C   UNL A   1      36.791  30.064  27.208  1.00  0.00     0.014 A 
ATOM     38  C   UNL A   1      36.214  29.430  29.412  1.00  0.00     0.014 A 
ATOM     39  C   UNL A   1      38.058  29.501  27.487  1.00  0.00     0.010 A 
ATOM     40  C   UNL A   1      37.504  29.023  29.652  1.00  0.00     0.010 A 
ATOM     41  C   UNL A   1      38.468  29.138  28.689  1.00  0.00    -0.014 A 
BRANCH  41  42
ATOM     42  C   UNL A   1      39.934  28.863  28.986  1.00  0.00     0.031 A 
ATOM     43  C   UNL A   1      40.683  29.879  29.581  1.00  0.00     0.074 A 
ATOM     44  C   UNL A   1      40.444  27.621  28.651  1.00  0.00     0.049 A 
ATOM     45  N   UNL A   1      41.963  29.835  29.954  1.00  0.00    -0.248 NA
ATOM     46  C   UNL A   1      40.153  31.212  29.906  1.00  0.00     0.031 C 
ATOM     47  C   UNL A   1      39.692  26.588  28.058  1.00  0.00     0.029 A 
ATOM     48  N   UNL A   1      41.731  27.161  28.821  1.00  0.00    -0.354 N 
ATOM     49  C   UNL A   1      42.323  30.996  30.506  1.00  0.00     0.074 A 
ATOM     50  C   UNL A   1      41.165  31.900  30.478  1.00  0.00     0.031 C 
ATOM     51  C   UNL A   1      40.516  25.525  27.863  1.00  0.00     0.029 A 
ATOM     52  C   UNL A   1      41.797  25.875  28.330  1.00  0.00     0.049 A 
ATOM     53  H   UNL A   1      42.475  27.664  29.223  1.00  0.00     0.167 HD
ATOM     54  C   UNL A   1      43.570  31.334  31.034  1.00  0.00     0.031 A 
ATOM     55  C   UNL A   1      42.902  25.041  28.283  1.00  0.00     0.031 A 
ATOM     56  C   UNL A   1      44.665  30.484  31.025  1.00  0.00     0.049 A 
ATOM     57  C   UNL A   1      44.166  25.401  28.757  1.00  0.00     0.074 A 
ATOM     58  C   UNL A   1      45.927  30.807  31.559  1.00  0.00     0.029 A 
ATOM     59  N   UNL A   1      44.737  29.208  30.513  1.00  0.00    -0.354 N 
ATOM     60  N   UNL A   1      44.516  26.547  29.345  1.00  0.00    -0.248 NA
ATOM     61  C   UNL A   1      45.352  24.538  28.683  1.00  0.00     0.031 C 
ATOM     62  C   UNL A   1      46.752  29.744  31.364  1.00  0.00     0.029 A 
ATOM     63  C   UNL A   1      46.019  28.740  30.703  1.00  0.00     0.049 A 
ATOM     64  H   UNL A   1      44.001  28.714  30.084  1.00  0.00     0.167 HD
ATOM     65  C   UNL A   1      45.807  26.516  29.680  1.00  0.00     0.074 A 
ATOM     66  C   UNL A   1      46.365  25.226  29.253  1.00  0.00     0.031 C 
ATOM     67  C   UNL A   1      46.541  27.511  30.328  1.00  0.00     0.031 A 
BRANCH  54  68
ATOM     68  C   UNL A   1      43.738  32.713  31.650  1.00  0.00    -0.014 A 
ATOM     69  C   UNL A   1      43.447  32.948  32.984  1.00  0.00     0.010 A 
ATOM     70  C   UNL A   1      44.135  33.693  30.848  1.00  0.00     0.010 A 
ATOM     71  C   UNL A   1      43.328  34.320  33.311  1.00  0.00     0.020 A 
ATOM     72  C   UNL A   1      44.122  34.998  31.279  1.00  0.00     0.020 A 
ATOM     73  C   UNL A   1      43.788  35.310  32.568  1.00  0.00     0.054 A 
BRANCH  73  74
ATOM     74  S   UNL A   1      43.966  36.989  33.219  1.00  0.00     0.124 S 
ATOM     75  O   UNL A   1      45.281  37.099  33.994  1.00  0.00    -0.237 OA
ATOM     76  O   UNL A   1      43.972  37.988  32.060  1.00  0.00    -0.237 OA
ATOM     77  O   UNL A   1      42.657  37.337  34.263  1.00  0.00    -0.744 OA
ENDBRANCH  73  74
ENDBRANCH  54  68
BRANCH  55  78
ATOM     78  C   UNL A   1      42.731  23.656  27.681  1.00  0.00    -0.014 A 
ATOM     79  C   UNL A   1      42.493  22.614  28.561  1.00  0.00     0.010 A 
ATOM     80  C   UNL A   1      42.776  23.454  26.370  1.00  0.00     0.010 A 
ATOM     81  C   UNL A   1      42.601  21.332  27.974  1.00  0.00     0.020 A 
ATOM     82  C   UNL A   1      42.740  22.180  25.857  1.00  0.00     0.020 A 
ATOM     83  C   UNL A   1      42.567  21.098  26.674  1.00  0.00     0.054 A 
BRANCH  83  84
ATOM     84  S   UNL A   1      42.304  19.434  26.011  1.00  0.00     0.124 S 
ATOM     85  O   UNL A   1      43.129  19.257  24.734  1.00  0.00    -0.237 OA
ATOM     86  O   UNL A   1      42.739  18.397  27.049  1.00  0.00    -0.237 OA
ATOM     87  O   UNL A   1      40.646  19.219  25.652  1.00  0.00    -0.744 OA
ENDBRANCH  83  84
ENDBRANCH  55  78
BRANCH  67  88
ATOM     88  C   UNL A   1      48.001  27.231  30.642  1.00  0.00    -0.014 A 
ATOM     89  C   UNL A   1      48.326  26.517  31.784  1.00  0.00     0.010 A 
ATOM     90  C   UNL A   1      48.943  27.676  29.818  1.00  0.00     0.010 A 
ATOM     91  C   UNL A   1      49.698  26.571  32.124  1.00  0.00     0.020 A 
ATOM     92  C   UNL A   1      50.271  27.575  30.153  1.00  0.00     0.020 A 
ATOM     93  C   UNL A   1      50.661  26.933  31.295  1.00  0.00     0.054 A 
BRANCH  93  94
ATOM     94  S   UNL A   1      52.404  26.599  31.655  1.00  0.00     0.124 S 
ATOM     95  O   UNL A   1      52.510  25.752  32.924  1.00  0.00    -0.237 OA
ATOM     96  O   UNL A   1      53.030  25.843  30.481  1.00  0.00    -0.237 OA
ATOM     97  O   UNL A   1      53.231  28.078  31.886  1.00  0.00    -0.744 OA
ENDBRANCH  93  94
ENDBRANCH  67  88
ENDBRANCH  41  42
ENDBRANCH  33  36
ENDBRANCH  31  32
ENDBRANCH  30  31
ENDBRANCH   1  30
TORSDOF 18
ENDMDL
MODEL 3
REMARK VINA RESULT:      -9.7      6.026     10.278
REMARK SMILES O=C(NCCCCCCNC(=O)c1ccc(-c2c3nc(c(-c4ccc(S(=O)(=O)[O-])cc4)c4ccc([nH]4)c(-c4ccc(S(=O)(=O)[O-])cc4)c4nc(c(-c5ccc(S(=O)(=O)[O-])cc5)c5ccc2[nH]5)C=C4)C=C3)cc1)C1=Cc2cc(S(F)(F)(F)(F)F)cc(Br)c2O[C@H]1C(F)(F)F
REMARK SMILES IDX 7 1 6 2 5 3 4 4 3 5 1 6 2 7 73 9 74 10 89 11 75 12 88 13
REMARK SMILES IDX 76 14 87 15 77 16 85 17 84 18 86 19 90 20 91 21 92 22 93 23
REMARK SMILES IDX 78 24 79 25 80 26 81 27 82 28 83 29 8 30 9 31 10 32 11 33
REMARK SMILES IDX 12 35 13 36 14 37 72 38 15 39 71 40 16 41 17 42 18 43 65 44
REMARK SMILES IDX 19 45 70 46 64 47 66 48 20 49 69 50 63 51 62 52 21 54 51 55
REMARK SMILES IDX 32 56 50 57 33 58 36 59 49 60 67 61 34 62 35 63 48 65 68 66
REMARK SMILES IDX 37 67 22 68 23 69 31 70 24 71 30 72 25 73 26 74 27 75 28 76
REMARK SMILES IDX 29 77 52 78 53 79 61 80 54 81 60 82 55 83 56 84 57 85 58 86
REMARK SMILES IDX 59 87 38 88 39 89 47 90 40 91 46 92 41 93 42 94 43 95 44 96
REMARK SMILES IDX 45 97
REMARK H PARENT 3 8 10 34 66 53 36 64
REMARK Flexibility Score: inf
ROOT
ATOM      1  C   UNL A   1      37.099  22.196  24.499  1.00  0.00     0.002 C 
ENDROOT
BRANCH   1   2
ATOM      2  C   UNL A   1      36.940  23.163  25.660  1.00  0.00     0.002 C 
BRANCH   2   3
ATOM      3  C   UNL A   1      35.479  23.559  25.794  1.00  0.00     0.021 C 
BRANCH   3   4
ATOM      4  C   UNL A   1      35.198  24.764  24.911  1.00  0.00     0.116 C 
BRANCH   4   5
ATOM      5  N   UNL A   1      34.052  25.510  25.450  1.00  0.00    -0.352 N 
ATOM      6  O   UNL A   1      31.965  26.563  25.027  1.00  0.00    -0.270 OA
ATOM      7  C   UNL A   1      32.955  25.918  24.560  1.00  0.00     0.251 C 
ATOM      8  H   UNL A   1      34.019  25.737  26.408  1.00  0.00     0.163 HD
BRANCH   7   9
ATOM      9  C   UNL A   1      33.006  25.568  23.082  1.00  0.00     0.067 C 
ATOM     10  C   UNL A   1      32.749  24.296  22.675  1.00  0.00     0.025 C 
ATOM     11  C   UNL A   1      33.345  26.640  22.059  1.00  0.00     0.314 C 
ATOM     12  C   UNL A   1      32.410  23.225  23.698  1.00  0.00     0.020 A 
ATOM     13  O   UNL A   1      30.950  24.679  24.881  1.00  0.00    -0.474 OA
ATOM     14  C   UNL A   1      33.137  22.051  23.581  1.00  0.00     0.036 A 
ATOM     15  C   UNL A   1      31.557  23.409  24.699  1.00  0.00     0.142 A 
ATOM     16  C   UNL A   1      32.678  21.005  24.416  1.00  0.00     0.109 A 
ATOM     17  C   UNL A   1      31.257  22.381  25.561  1.00  0.00     0.062 A 
ATOM     18  C   UNL A   1      31.895  21.175  25.465  1.00  0.00     0.044 A 
ATOM     19  Br  UNL A   1      29.897  22.648  26.946  1.00  0.00    -0.047 Br
BRANCH  11  20
ATOM     20  C   UNL A   1      33.587  27.961  22.770  1.00  0.00     0.429 C 
ATOM     21  F   UNL A   1      32.435  28.435  23.236  1.00  0.00    -0.167 F 
ATOM     22  F   UNL A   1      34.431  27.773  23.780  1.00  0.00    -0.167 F 
ATOM     23  F   UNL A   1      34.110  28.832  21.911  1.00  0.00    -0.167 F 
ENDBRANCH  11  20
BRANCH  16  24
ATOM     24  S   UNL A   1      33.200  19.319  24.018  1.00  0.00     0.310 S 
ATOM     25  F   UNL A   1      32.495  18.746  25.317  1.00  0.00    -0.094 F 
ATOM     26  F   UNL A   1      34.492  19.529  24.895  1.00  0.00    -0.094 F 
ATOM     27  F   UNL A   1      33.630  17.862  23.683  1.00  0.00    -0.094 F 
ATOM     28  F   UNL A   1      31.836  19.082  23.261  1.00  0.00    -0.094 F 
ATOM     29  F   UNL A   1      32.698  20.757  24.443  1.00  0.00    -0.094 F 
ENDBRANCH  16  24
ENDBRANCH   7   9
ENDBRANCH   4   5
ENDBRANCH   3   4
ENDBRANCH   2   3
ENDBRANCH   1   2
BRANCH   1  30
ATOM     30  C   UNL A   1      37.613  20.863  25.017  1.00  0.00     0.021 C 
BRANCH  30  31
ATOM     31  C   UNL A   1      38.909  21.082  25.780  1.00  0.00     0.116 C 
BRANCH  31  32
ATOM     32  N   UNL A   1      39.691  19.838  25.788  1.00  0.00    -0.352 N 
ATOM     33  C   UNL A   1      41.118  19.869  26.142  1.00  0.00     0.251 C 
ATOM     34  H   UNL A   1      39.260  18.983  25.556  1.00  0.00     0.163 HD
ATOM     35  O   UNL A   1      41.794  18.793  26.148  1.00  0.00    -0.269 OA
BRANCH  33  36
ATOM     36  C   UNL A   1      41.784  21.187  26.500  1.00  0.00     0.039 A 
ATOM     37  C   UNL A   1      42.081  21.461  27.824  1.00  0.00     0.014 A 
ATOM     38  C   UNL A   1      42.070  22.056  25.535  1.00  0.00     0.014 A 
ATOM     39  C   UNL A   1      42.422  22.812  28.068  1.00  0.00     0.010 A 
ATOM     40  C   UNL A   1      42.529  23.314  25.841  1.00  0.00     0.010 A 
ATOM     41  C   UNL A   1      42.788  23.672  27.135  1.00  0.00    -0.014 A 
BRANCH  41  42
ATOM     42  C   UNL A   1      43.461  24.991  27.481  1.00  0.00     0.031 A 
ATOM     43  C   UNL A   1      44.837  25.098  27.275  1.00  0.00     0.074 A 
ATOM     44  C   UNL A   1      42.672  26.013  27.982  1.00  0.00     0.049 A 
ATOM     45  N   UNL A   1      45.611  26.165  27.477  1.00  0.00    -0.248 NA
ATOM     46  C   UNL A   1      45.683  24.002  26.776  1.00  0.00     0.031 C 
ATOM     47  C   UNL A   1      41.282  25.915  28.185  1.00  0.00     0.029 A 
ATOM     48  N   UNL A   1      43.067  27.276  28.365  1.00  0.00    -0.354 N 
ATOM     49  C   UNL A   1      46.874  25.889  27.147  1.00  0.00     0.074 A 
ATOM     50  C   UNL A   1      46.939  24.492  26.697  1.00  0.00     0.031 C 
ATOM     51  C   UNL A   1      40.847  27.098  28.695  1.00  0.00     0.029 A 
ATOM     52  C   UNL A   1      41.957  27.955  28.818  1.00  0.00     0.049 A 
ATOM     53  H   UNL A   1      43.984  27.631  28.323  1.00  0.00     0.167 HD
ATOM     54  C   UNL A   1      47.973  26.748  27.202  1.00  0.00     0.031 A 
ATOM     55  C   UNL A   1      41.898  29.246  29.315  1.00  0.00     0.031 A 
ATOM     56  C   UNL A   1      47.905  28.055  27.660  1.00  0.00     0.049 A 
ATOM     57  C   UNL A   1      43.008  30.087  29.425  1.00  0.00     0.074 A 
ATOM     58  C   UNL A   1      49.001  28.936  27.714  1.00  0.00     0.029 A 
ATOM     59  N   UNL A   1      46.800  28.725  28.135  1.00  0.00    -0.354 N 
ATOM     60  N   UNL A   1      44.264  29.824  29.058  1.00  0.00    -0.248 NA
ATOM     61  C   UNL A   1      42.963  31.446  29.980  1.00  0.00     0.031 C 
ATOM     62  C   UNL A   1      48.567  30.119  28.224  1.00  0.00     0.029 A 
ATOM     63  C   UNL A   1      47.191  29.995  28.497  1.00  0.00     0.049 A 
ATOM     64  H   UNL A   1      45.888  28.360  28.204  1.00  0.00     0.167 HD
ATOM     65  C   UNL A   1      45.044  30.879  29.300  1.00  0.00     0.074 A 
ATOM     66  C   UNL A   1      44.220  31.935  29.903  1.00  0.00     0.031 C 
ATOM     67  C   UNL A   1      46.409  31.004  29.039  1.00  0.00     0.031 A 
BRANCH  54  68
ATOM     68  C   UNL A   1      49.319  26.220  26.735  1.00  0.00    -0.014 A 
ATOM     69  C   UNL A   1      50.168  25.544  27.595  1.00  0.00     0.010 A 
ATOM     70  C   UNL A   1      49.667  26.470  25.478  1.00  0.00     0.010 A 
ATOM     71  C   UNL A   1      51.494  25.423  27.114  1.00  0.00     0.020 A 
ATOM     72  C   UNL A   1      50.941  26.201  25.039  1.00  0.00     0.020 A 
ATOM     73  C   UNL A   1      51.852  25.587  25.854  1.00  0.00     0.054 A 
BRANCH  73  74
ATOM     74  S   UNL A   1      53.460  25.031  25.238  1.00  0.00     0.124 S 
ATOM     75  O   UNL A   1      54.570  25.591  26.130  1.00  0.00    -0.237 OA
ATOM     76  O   UNL A   1      53.512  23.502  25.258  1.00  0.00    -0.237 OA
ATOM     77  O   UNL A   1      53.680  25.587  23.636  1.00  0.00    -0.744 OA
ENDBRANCH  73  74
ENDBRANCH  54  68
BRANCH  55  78
ATOM     78  C   UNL A   1      40.548  29.779  29.767  1.00  0.00    -0.014 A 
ATOM     79  C   UNL A   1      40.241  29.652  31.111  1.00  0.00     0.010 A 
ATOM     80  C   UNL A   1      39.711  30.369  28.922  1.00  0.00     0.010 A 
ATOM     81  C   UNL A   1      38.887  29.923  31.418  1.00  0.00     0.020 A 
ATOM     82  C   UNL A   1      38.449  30.732  29.327  1.00  0.00     0.020 A 
ATOM     83  C   UNL A   1      38.057  30.580  30.628  1.00  0.00     0.054 A 
BRANCH  83  84
ATOM     84  S   UNL A   1      36.485  31.242  31.234  1.00  0.00     0.124 S 
ATOM     85  O   UNL A   1      35.486  31.327  30.077  1.00  0.00    -0.237 OA
ATOM     86  O   UNL A   1      35.929  30.320  32.322  1.00  0.00    -0.237 OA
ATOM     87  O   UNL A   1      36.738  32.803  31.884  1.00  0.00    -0.744 OA
ENDBRANCH  83  84
ENDBRANCH  55  78
BRANCH  67  88
ATOM     88  C   UNL A   1      47.080  32.328  29.367  1.00  0.00    -0.014 A 
ATOM     89  C   UNL A   1      47.115  33.329  28.410  1.00  0.00     0.010 A 
ATOM     90  C   UNL A   1      47.625  32.504  30.566  1.00  0.00     0.010 A 
ATOM     91  C   UNL A   1      48.005  34.385  28.715  1.00  0.00     0.020 A 
ATOM     92  C   UNL A   1      48.371  33.624  30.838  1.00  0.00     0.020 A 
ATOM     93  C   UNL A   1      48.495  34.627  29.918  1.00  0.00     0.054 A 
BRANCH  93  94
ATOM     94  S   UNL A   1      49.291  36.202  30.324  1.00  0.00     0.124 S 
ATOM     95  O   UNL A   1      48.236  37.194  30.817  1.00  0.00    -0.237 OA
ATOM     96  O   UNL A   1      50.334  35.978  31.421  1.00  0.00    -0.237 OA
ATOM     97  O   UNL A   1      50.056  36.829  28.929  1.00  0.00    -0.744 OA
ENDBRANCH  93  94
ENDBRANCH  67  88
ENDBRANCH  41  42
ENDBRANCH  33  36
ENDBRANCH  31  32
ENDBRANCH  30  31
ENDBRANCH   1  30
TORSDOF 18
ENDMDL
