MODEL 1
REMARK VINA RESULT:     -11.7      0.000      0.000
REMARK SMILES CC[C@@](C)(NC(=O)[C@H]1Cc2[nH]cnc2C[NH2+]1)C(=O)NCCCCCCNC(=O)c1ccc(-c2c3nc(c(-c4ccc(S(=O)(=O)[O-])cc4)c4ccc([nH]4)c(-c4ccc(S(=O)(=O)[O-])cc4)c4nc(c(-c5ccc(S(=O)(=O)[O-])cc5)c5ccc2[nH]5)C=C4)C=C3)cc1
REMARK SMILES IDX 23 1 22 2 21 3 20 4 19 5 17 6 18 7 3 9 4 10 2 11 1 12 5 13
REMARK SMILES IDX 6 14 7 16 8 17 9 18 16 19 10 20 15 21 11 24 14 25 12 26
REMARK SMILES IDX 13 28 24 29 25 30 26 31 27 32 28 34 29 35 30 36 88 37 31 38
REMARK SMILES IDX 87 39 32 40 33 41 34 42 81 43 35 44 86 45 80 46 82 47 36 48
REMARK SMILES IDX 85 49 79 50 78 51 37 53 67 54 48 55 66 56 49 57 52 58 65 59
REMARK SMILES IDX 83 60 50 61 51 62 64 64 84 65 53 66 38 67 39 68 47 69 40 70
REMARK SMILES IDX 46 71 41 72 42 73 43 74 44 75 45 76 68 77 69 78 77 79 70 80
REMARK SMILES IDX 76 81 71 82 72 83 73 84 74 85 75 86 54 87 55 88 63 89 56 90
REMARK SMILES IDX 62 91 57 92 58 93 59 94 60 95 61 96
REMARK H PARENT 19 8 5 15 16 22 16 23 11 27 26 33 82 52 52 63
REMARK Flexibility Score: inf
ROOT
ATOM      1  C   UNL A   1      38.333  21.135  25.564  1.00  0.00     0.002 C 
ENDROOT
BRANCH   1   2
ATOM      2  C   UNL A   1      37.060  21.150  24.715  1.00  0.00     0.002 C 
BRANCH   2   3
ATOM      3  C   UNL A   1      36.937  22.340  23.759  1.00  0.00     0.021 C 
BRANCH   3   4
ATOM      4  C   UNL A   1      35.577  23.029  23.734  1.00  0.00     0.116 C 
BRANCH   4   5
ATOM      5  N   UNL A   1      34.434  22.147  23.900  1.00  0.00    -0.354 N 
ATOM      6  C   UNL A   1      33.090  22.347  23.764  1.00  0.00     0.245 C 
ATOM      7  O   UNL A   1      32.391  21.329  23.739  1.00  0.00    -0.272 OA
ATOM      8  H   UNL A   1      34.675  21.228  24.160  1.00  0.00     0.163 HD
BRANCH   6   9
ATOM      9  C   UNL A   1      32.470  23.767  23.615  1.00  0.00     0.116 C 
ATOM     10  C   UNL A   1      30.961  23.594  23.306  1.00  0.00     0.045 C 
BRANCH   9  11
ATOM     11  C   UNL A   1      32.575  24.629  24.910  1.00  0.00     0.035 C 
ATOM     12  C   UNL A   1      31.266  25.003  25.606  1.00  0.00     0.007 C 
ENDBRANCH   9  11
BRANCH   9  13
ATOM     13  N   UNL A   1      33.125  24.526  22.510  1.00  0.00    -0.337 N 
ATOM     14  C   UNL A   1      32.875  25.777  21.991  1.00  0.00     0.279 C 
ATOM     15  H   UNL A   1      33.867  24.047  22.075  1.00  0.00     0.164 HD
ATOM     16  O   UNL A   1      33.234  25.960  20.826  1.00  0.00    -0.268 OA
BRANCH  14  17
ATOM     17  C   UNL A   1      32.302  26.918  22.854  1.00  0.00     0.278 C 
ATOM     18  C   UNL A   1      33.471  27.859  23.272  1.00  0.00     0.131 C 
ATOM     19  N   UNL A   1      31.269  27.743  22.155  1.00  0.00    -0.331 N 
ATOM     20  C   UNL A   1      32.887  28.884  24.163  1.00  0.00     0.050 A 
ATOM     21  C   UNL A   1      30.598  28.698  23.094  1.00  0.00     0.320 C 
ATOM     22  H   UNL A   1      30.566  27.123  21.754  1.00  0.00     0.347 HD
ATOM     23  H   UNL A   1      31.734  28.285  21.426  1.00  0.00     0.347 HD
ATOM     24  N   UNL A   1      33.424  29.535  25.226  1.00  0.00    -0.348 N 
ATOM     25  C   UNL A   1      31.569  29.266  24.091  1.00  0.00     0.116 A 
ATOM     26  C   UNL A   1      32.395  30.229  25.810  1.00  0.00     0.197 A 
ATOM     27  H   UNL A   1      34.364  29.513  25.520  1.00  0.00     0.167 HD
ATOM     28  N   UNL A   1      31.264  30.088  25.147  1.00  0.00    -0.236 NA
ENDBRANCH  14  17
ENDBRANCH   9  13
ENDBRANCH   6   9
ENDBRANCH   4   5
ENDBRANCH   3   4
ENDBRANCH   2   3
ENDBRANCH   1   2
BRANCH   1  29
ATOM     29  C   UNL A   1      38.779  22.499  26.107  1.00  0.00     0.021 C 
BRANCH  29  30
ATOM     30  C   UNL A   1      39.987  22.441  27.033  1.00  0.00     0.116 C 
BRANCH  30  31
ATOM     31  N   UNL A   1      41.222  22.142  26.318  1.00  0.00    -0.352 N 
ATOM     32  C   UNL A   1      42.113  23.053  25.777  1.00  0.00     0.251 C 
ATOM     33  H   UNL A   1      41.447  21.190  26.207  1.00  0.00     0.163 HD
ATOM     34  O   UNL A   1      42.889  22.734  24.898  1.00  0.00    -0.269 OA
BRANCH  32  35
ATOM     35  C   UNL A   1      42.098  24.422  26.323  1.00  0.00     0.039 A 
ATOM     36  C   UNL A   1      41.363  25.438  25.709  1.00  0.00     0.014 A 
ATOM     37  C   UNL A   1      42.806  24.651  27.502  1.00  0.00     0.014 A 
ATOM     38  C   UNL A   1      41.290  26.681  26.334  1.00  0.00     0.010 A 
ATOM     39  C   UNL A   1      42.641  25.838  28.172  1.00  0.00     0.010 A 
ATOM     40  C   UNL A   1      41.923  26.872  27.573  1.00  0.00    -0.014 A 
BRANCH  40  41
ATOM     41  C   UNL A   1      41.774  28.129  28.297  1.00  0.00     0.031 A 
ATOM     42  C   UNL A   1      42.840  29.144  28.066  1.00  0.00     0.074 A 
ATOM     43  C   UNL A   1      40.637  28.466  28.941  1.00  0.00     0.049 A 
ATOM     44  N   UNL A   1      43.721  29.583  28.903  1.00  0.00    -0.248 NA
ATOM     45  C   UNL A   1      43.013  29.663  26.699  1.00  0.00     0.031 C 
ATOM     46  C   UNL A   1      39.357  27.745  28.972  1.00  0.00     0.029 A 
ATOM     47  N   UNL A   1      40.348  29.614  29.606  1.00  0.00    -0.354 N 
ATOM     48  C   UNL A   1      44.431  30.581  28.237  1.00  0.00     0.074 A 
ATOM     49  C   UNL A   1      44.069  30.465  26.847  1.00  0.00     0.031 C 
ATOM     50  C   UNL A   1      38.380  28.579  29.395  1.00  0.00     0.029 A 
ATOM     51  C   UNL A   1      38.995  29.813  29.845  1.00  0.00     0.049 A 
ATOM     52  H   UNL A   1      41.040  30.253  29.894  1.00  0.00     0.167 HD
ATOM     53  C   UNL A   1      45.093  31.569  28.906  1.00  0.00     0.031 A 
ATOM     54  C   UNL A   1      38.415  30.928  30.353  1.00  0.00     0.031 A 
ATOM     55  C   UNL A   1      45.206  31.278  30.312  1.00  0.00     0.049 A 
ATOM     56  C   UNL A   1      39.479  31.686  31.056  1.00  0.00     0.074 A 
ATOM     57  C   UNL A   1      45.784  30.271  31.058  1.00  0.00     0.029 A 
ATOM     58  N   UNL A   1      44.312  31.903  31.150  1.00  0.00    -0.354 N 
ATOM     59  N   UNL A   1      40.101  31.239  32.113  1.00  0.00    -0.248 NA
ATOM     60  C   UNL A   1      40.168  32.740  30.330  1.00  0.00     0.031 C 
ATOM     61  C   UNL A   1      44.863  30.031  32.120  1.00  0.00     0.029 A 
ATOM     62  C   UNL A   1      43.816  30.949  32.001  1.00  0.00     0.049 A 
ATOM     63  H   UNL A   1      44.073  32.858  31.142  1.00  0.00     0.167 HD
ATOM     64  C   UNL A   1      41.420  31.638  31.949  1.00  0.00     0.074 A 
ATOM     65  C   UNL A   1      41.378  32.643  30.889  1.00  0.00     0.031 C 
ATOM     66  C   UNL A   1      42.452  30.924  32.493  1.00  0.00     0.031 A 
BRANCH  53  67
ATOM     67  C   UNL A   1      45.306  32.968  28.373  1.00  0.00    -0.014 A 
ATOM     68  C   UNL A   1      46.595  33.539  28.446  1.00  0.00     0.010 A 
ATOM     69  C   UNL A   1      44.243  33.839  28.058  1.00  0.00     0.010 A 
ATOM     70  C   UNL A   1      46.794  34.918  28.288  1.00  0.00     0.020 A 
ATOM     71  C   UNL A   1      44.437  35.208  27.855  1.00  0.00     0.020 A 
ATOM     72  C   UNL A   1      45.707  35.745  28.010  1.00  0.00     0.054 A 
BRANCH  72  73
ATOM     73  S   UNL A   1      45.949  37.538  27.928  1.00  0.00     0.124 S 
ATOM     74  O   UNL A   1      44.700  38.034  28.494  1.00  0.00    -0.237 OA
ATOM     75  O   UNL A   1      47.140  37.727  28.751  1.00  0.00    -0.237 OA
ATOM     76  O   UNL A   1      46.138  37.791  26.502  1.00  0.00    -0.744 OA
ENDBRANCH  72  73
ENDBRANCH  53  67
BRANCH  54  77
ATOM     77  C   UNL A   1      37.098  31.507  30.001  1.00  0.00    -0.014 A 
ATOM     78  C   UNL A   1      36.272  32.081  30.982  1.00  0.00     0.010 A 
ATOM     79  C   UNL A   1      36.775  31.745  28.648  1.00  0.00     0.010 A 
ATOM     80  C   UNL A   1      35.196  32.912  30.624  1.00  0.00     0.020 A 
ATOM     81  C   UNL A   1      35.703  32.569  28.283  1.00  0.00     0.020 A 
ATOM     82  C   UNL A   1      34.932  33.168  29.275  1.00  0.00     0.054 A 
BRANCH  82  83
ATOM     83  S   UNL A   1      33.657  34.388  28.834  1.00  0.00     0.124 S 
ATOM     84  O   UNL A   1      32.838  33.650  27.878  1.00  0.00    -0.237 OA
ATOM     85  O   UNL A   1      33.026  34.667  30.121  1.00  0.00    -0.237 OA
ATOM     86  O   UNL A   1      34.422  35.499  28.271  1.00  0.00    -0.744 OA
ENDBRANCH  82  83
ENDBRANCH  54  77
BRANCH  66  87
ATOM     87  C   UNL A   1      42.133  29.855  33.515  1.00  0.00    -0.014 A 
ATOM     88  C   UNL A   1      41.679  28.562  33.187  1.00  0.00     0.010 A 
ATOM     89  C   UNL A   1      42.461  30.125  34.856  1.00  0.00     0.010 A 
ATOM     90  C   UNL A   1      41.538  27.576  34.177  1.00  0.00     0.020 A 
ATOM     91  C   UNL A   1      42.339  29.144  35.843  1.00  0.00     0.020 A 
ATOM     92  C   UNL A   1      41.871  27.875  35.501  1.00  0.00     0.054 A 
BRANCH  92  93
ATOM     93  S   UNL A   1      41.735  26.586  36.773  1.00  0.00     0.124 S 
ATOM     94  O   UNL A   1      40.473  26.916  37.427  1.00  0.00    -0.237 OA
ATOM     95  O   UNL A   1      41.734  25.353  35.988  1.00  0.00    -0.237 OA
ATOM     96  O   UNL A   1      42.928  26.782  37.597  1.00  0.00    -0.744 OA
ENDBRANCH  92  93
ENDBRANCH  66  87
ENDBRANCH  40  41
ENDBRANCH  32  35
ENDBRANCH  30  31
ENDBRANCH  29  30
ENDBRANCH   1  29
TORSDOF 19
ENDMDL
MODEL 2
REMARK VINA RESULT:     -11.7      1.332      1.989
REMARK SMILES CC[C@@](C)(NC(=O)[C@H]1Cc2[nH]cnc2C[NH2+]1)C(=O)NCCCCCCNC(=O)c1ccc(-c2c3nc(c(-c4ccc(S(=O)(=O)[O-])cc4)c4ccc([nH]4)c(-c4ccc(S(=O)(=O)[O-])cc4)c4nc(c(-c5ccc(S(=O)(=O)[O-])cc5)c5ccc2[nH]5)C=C4)C=C3)cc1
REMARK SMILES IDX 23 1 22 2 21 3 20 4 19 5 17 6 18 7 3 9 4 10 2 11 1 12 5 13
REMARK SMILES IDX 6 14 7 16 8 17 9 18 16 19 10 20 15 21 11 24 14 25 12 26
REMARK SMILES IDX 13 28 24 29 25 30 26 31 27 32 28 34 29 35 30 36 88 37 31 38
REMARK SMILES IDX 87 39 32 40 33 41 34 42 81 43 35 44 86 45 80 46 82 47 36 48
REMARK SMILES IDX 85 49 79 50 78 51 37 53 67 54 48 55 66 56 49 57 52 58 65 59
REMARK SMILES IDX 83 60 50 61 51 62 64 64 84 65 53 66 38 67 39 68 47 69 40 70
REMARK SMILES IDX 46 71 41 72 42 73 43 74 44 75 45 76 68 77 69 78 77 79 70 80
REMARK SMILES IDX 76 81 71 82 72 83 73 84 74 85 75 86 54 87 55 88 63 89 56 90
REMARK SMILES IDX 62 91 57 92 58 93 59 94 60 95 61 96
REMARK H PARENT 19 8 5 15 16 22 16 23 11 27 26 33 82 52 52 63
REMARK Flexibility Score: inf
ROOT
ATOM      1  C   UNL A   1      38.738  23.568  26.527  1.00  0.00     0.002 C 
ENDROOT
BRANCH   1   2
ATOM      2  C   UNL A   1      37.576  23.479  25.537  1.00  0.00     0.002 C 
BRANCH   2   3
ATOM      3  C   UNL A   1      37.412  22.117  24.855  1.00  0.00     0.021 C 
BRANCH   3   4
ATOM      4  C   UNL A   1      36.019  21.812  24.315  1.00  0.00     0.116 C 
BRANCH   4   5
ATOM      5  N   UNL A   1      35.114  21.180  25.260  1.00  0.00    -0.354 N 
ATOM      6  C   UNL A   1      33.853  21.494  25.678  1.00  0.00     0.245 C 
ATOM      7  O   UNL A   1      33.258  20.616  26.312  1.00  0.00    -0.272 OA
ATOM      8  H   UNL A   1      35.481  20.367  25.679  1.00  0.00     0.163 HD
BRANCH   6   9
ATOM      9  C   UNL A   1      33.183  22.860  25.349  1.00  0.00     0.116 C 
ATOM     10  C   UNL A   1      34.072  23.979  25.951  1.00  0.00     0.045 C 
BRANCH   9  11
ATOM     11  C   UNL A   1      33.067  23.142  23.820  1.00  0.00     0.035 C 
ATOM     12  C   UNL A   1      32.299  22.120  22.980  1.00  0.00     0.007 C 
ENDBRANCH   9  11
BRANCH   9  13
ATOM     13  N   UNL A   1      31.813  22.941  25.932  1.00  0.00    -0.337 N 
ATOM     14  C   UNL A   1      31.078  24.013  26.387  1.00  0.00     0.279 C 
ATOM     15  H   UNL A   1      31.352  22.074  26.003  1.00  0.00     0.164 HD
ATOM     16  O   UNL A   1      30.203  23.755  27.218  1.00  0.00    -0.268 OA
BRANCH  14  17
ATOM     17  C   UNL A   1      31.249  25.428  25.800  1.00  0.00     0.278 C 
ATOM     18  C   UNL A   1      30.204  25.621  24.661  1.00  0.00     0.131 C 
ATOM     19  N   UNL A   1      31.055  26.523  26.799  1.00  0.00    -0.331 N 
ATOM     20  C   UNL A   1      30.462  26.954  24.076  1.00  0.00     0.050 A 
ATOM     21  C   UNL A   1      31.434  27.858  26.233  1.00  0.00     0.320 C 
ATOM     22  H   UNL A   1      31.635  26.333  27.616  1.00  0.00     0.347 HD
ATOM     23  H   UNL A   1      30.068  26.552  27.052  1.00  0.00     0.347 HD
ATOM     24  N   UNL A   1      30.323  27.397  22.800  1.00  0.00    -0.348 N 
ATOM     25  C   UNL A   1      31.034  27.980  24.789  1.00  0.00     0.116 A 
ATOM     26  C   UNL A   1      30.884  28.648  22.765  1.00  0.00     0.197 A 
ATOM     27  H   UNL A   1      29.901  26.916  22.050  1.00  0.00     0.167 HD
ATOM     28  N   UNL A   1      31.321  29.027  23.951  1.00  0.00    -0.236 NA
ENDBRANCH  14  17
ENDBRANCH   9  13
ENDBRANCH   6   9
ENDBRANCH   4   5
ENDBRANCH   3   4
ENDBRANCH   2   3
ENDBRANCH   1   2
BRANCH   1  29
ATOM     29  C   UNL A   1      39.589  22.298  26.661  1.00  0.00     0.021 C 
BRANCH  29  30
ATOM     30  C   UNL A   1      40.960  22.524  27.283  1.00  0.00     0.116 C 
BRANCH  30  31
ATOM     31  N   UNL A   1      42.038  22.428  26.306  1.00  0.00    -0.352 N 
ATOM     32  C   UNL A   1      42.618  23.469  25.602  1.00  0.00     0.251 C 
ATOM     33  H   UNL A   1      42.391  21.527  26.128  1.00  0.00     0.163 HD
ATOM     34  O   UNL A   1      43.223  23.273  24.565  1.00  0.00    -0.269 OA
BRANCH  32  35
ATOM     35  C   UNL A   1      42.492  24.824  26.168  1.00  0.00     0.039 A 
ATOM     36  C   UNL A   1      41.544  25.726  25.681  1.00  0.00     0.014 A 
ATOM     37  C   UNL A   1      43.323  25.153  27.238  1.00  0.00     0.014 A 
ATOM     38  C   UNL A   1      41.389  26.949  26.331  1.00  0.00     0.010 A 
ATOM     39  C   UNL A   1      43.092  26.308  27.944  1.00  0.00     0.010 A 
ATOM     40  C   UNL A   1      42.160  27.230  27.470  1.00  0.00    -0.014 A 
BRANCH  40  41
ATOM     41  C   UNL A   1      41.943  28.456  28.230  1.00  0.00     0.031 A 
ATOM     42  C   UNL A   1      42.977  29.516  28.063  1.00  0.00     0.074 A 
ATOM     43  C   UNL A   1      40.776  28.729  28.850  1.00  0.00     0.049 A 
ATOM     44  N   UNL A   1      43.817  29.959  28.940  1.00  0.00    -0.248 NA
ATOM     45  C   UNL A   1      43.170  30.086  26.719  1.00  0.00     0.031 C 
ATOM     46  C   UNL A   1      39.524  27.962  28.819  1.00  0.00     0.029 A 
ATOM     47  N   UNL A   1      40.425  29.844  29.542  1.00  0.00    -0.354 N 
ATOM     48  C   UNL A   1      44.507  31.003  28.327  1.00  0.00     0.074 A 
ATOM     49  C   UNL A   1      44.190  30.920  26.924  1.00  0.00     0.031 C 
ATOM     50  C   UNL A   1      38.505  28.745  29.239  1.00  0.00     0.029 A 
ATOM     51  C   UNL A   1      39.060  29.986  29.747  1.00  0.00     0.049 A 
ATOM     52  H   UNL A   1      41.085  30.498  29.871  1.00  0.00     0.167 HD
ATOM     53  C   UNL A   1      45.113  31.992  29.047  1.00  0.00     0.031 A 
ATOM     54  C   UNL A   1      38.425  31.061  30.273  1.00  0.00     0.031 A 
ATOM     55  C   UNL A   1      45.196  31.660  30.446  1.00  0.00     0.049 A 
ATOM     56  C   UNL A   1      39.439  31.834  31.031  1.00  0.00     0.074 A 
ATOM     57  C   UNL A   1      45.790  30.650  31.176  1.00  0.00     0.029 A 
ATOM     58  N   UNL A   1      44.255  32.223  31.277  1.00  0.00    -0.354 N 
ATOM     59  N   UNL A   1      40.047  31.376  32.091  1.00  0.00    -0.248 NA
ATOM     60  C   UNL A   1      40.109  32.935  30.359  1.00  0.00     0.031 C 
ATOM     61  C   UNL A   1      44.848  30.342  32.202  1.00  0.00     0.029 A 
ATOM     62  C   UNL A   1      43.771  31.224  32.081  1.00  0.00     0.049 A 
ATOM     63  H   UNL A   1      43.982  33.169  31.291  1.00  0.00     0.167 HD
ATOM     64  C   UNL A   1      41.354  31.827  31.979  1.00  0.00     0.074 A 
ATOM     65  C   UNL A   1      41.305  32.865  30.951  1.00  0.00     0.031 C 
ATOM     66  C   UNL A   1      42.396  31.133  32.531  1.00  0.00     0.031 A 
BRANCH  53  67
ATOM     67  C   UNL A   1      45.288  33.415  28.566  1.00  0.00    -0.014 A 
ATOM     68  C   UNL A   1      46.568  34.007  28.634  1.00  0.00     0.010 A 
ATOM     69  C   UNL A   1      44.203  34.277  28.308  1.00  0.00     0.010 A 
ATOM     70  C   UNL A   1      46.738  35.396  28.527  1.00  0.00     0.020 A 
ATOM     71  C   UNL A   1      44.367  35.656  28.155  1.00  0.00     0.020 A 
ATOM     72  C   UNL A   1      45.630  36.211  28.304  1.00  0.00     0.054 A 
BRANCH  72  73
ATOM     73  S   UNL A   1      45.838  38.010  28.288  1.00  0.00     0.124 S 
ATOM     74  O   UNL A   1      45.703  38.314  26.867  1.00  0.00    -0.237 OA
ATOM     75  O   UNL A   1      44.740  38.456  29.141  1.00  0.00    -0.237 OA
ATOM     76  O   UNL A   1      47.173  38.204  28.848  1.00  0.00    -0.744 OA
ENDBRANCH  72  73
ENDBRANCH  53  67
BRANCH  54  77
ATOM     77  C   UNL A   1      37.098  31.604  29.900  1.00  0.00    -0.014 A 
ATOM     78  C   UNL A   1      36.187  32.031  30.881  1.00  0.00     0.010 A 
ATOM     79  C   UNL A   1      36.836  31.959  28.560  1.00  0.00     0.010 A 
ATOM     80  C   UNL A   1      35.086  32.837  30.541  1.00  0.00     0.020 A 
ATOM     81  C   UNL A   1      35.740  32.758  28.212  1.00  0.00     0.020 A 
ATOM     82  C   UNL A   1      34.882  33.213  29.210  1.00  0.00     0.054 A 
BRANCH  82  83
ATOM     83  S   UNL A   1      33.565  34.403  28.814  1.00  0.00     0.124 S 
ATOM     84  O   UNL A   1      32.991  34.680  30.127  1.00  0.00    -0.237 OA
ATOM     85  O   UNL A   1      34.305  35.505  28.204  1.00  0.00    -0.237 OA
ATOM     86  O   UNL A   1      32.696  33.666  27.898  1.00  0.00    -0.744 OA
ENDBRANCH  82  83
ENDBRANCH  54  77
BRANCH  66  87
ATOM     87  C   UNL A   1      42.088  30.021  33.509  1.00  0.00    -0.014 A 
ATOM     88  C   UNL A   1      41.767  28.703  33.126  1.00  0.00     0.010 A 
ATOM     89  C   UNL A   1      42.290  30.286  34.875  1.00  0.00     0.010 A 
ATOM     90  C   UNL A   1      41.631  27.688  34.086  1.00  0.00     0.020 A 
ATOM     91  C   UNL A   1      42.174  29.278  35.834  1.00  0.00     0.020 A 
ATOM     92  C   UNL A   1      41.838  27.983  35.437  1.00  0.00     0.054 A 
BRANCH  92  93
ATOM     93  S   UNL A   1      41.710  26.660  36.674  1.00  0.00     0.124 S 
ATOM     94  O   UNL A   1      42.943  26.819  37.439  1.00  0.00    -0.237 OA
ATOM     95  O   UNL A   1      40.479  26.997  37.386  1.00  0.00    -0.237 OA
ATOM     96  O   UNL A   1      41.634  25.439  35.871  1.00  0.00    -0.744 OA
ENDBRANCH  92  93
ENDBRANCH  66  87
ENDBRANCH  40  41
ENDBRANCH  32  35
ENDBRANCH  30  31
ENDBRANCH  29  30
ENDBRANCH   1  29
TORSDOF 19
ENDMDL
MODEL 3
REMARK VINA RESULT:     -11.5      2.334      3.272
REMARK SMILES CC[C@@](C)(NC(=O)[C@H]1Cc2[nH]cnc2C[NH2+]1)C(=O)NCCCCCCNC(=O)c1ccc(-c2c3nc(c(-c4ccc(S(=O)(=O)[O-])cc4)c4ccc([nH]4)c(-c4ccc(S(=O)(=O)[O-])cc4)c4nc(c(-c5ccc(S(=O)(=O)[O-])cc5)c5ccc2[nH]5)C=C4)C=C3)cc1
REMARK SMILES IDX 23 1 22 2 21 3 20 4 19 5 17 6 18 7 3 9 4 10 2 11 1 12 5 13
REMARK SMILES IDX 6 14 7 16 8 17 9 18 16 19 10 20 15 21 11 24 14 25 12 26
REMARK SMILES IDX 13 28 24 29 25 30 26 31 27 32 28 34 29 35 30 36 88 37 31 38
REMARK SMILES IDX 87 39 32 40 33 41 34 42 81 43 35 44 86 45 80 46 82 47 36 48
REMARK SMILES IDX 85 49 79 50 78 51 37 53 67 54 48 55 66 56 49 57 52 58 65 59
REMARK SMILES IDX 83 60 50 61 51 62 64 64 84 65 53 66 38 67 39 68 47 69 40 70
REMARK SMILES IDX 46 71 41 72 42 73 43 74 44 75 45 76 68 77 69 78 77 79 70 80
REMARK SMILES IDX 76 81 71 82 72 83 73 84 74 85 75 86 54 87 55 88 63 89 56 90
REMARK SMILES IDX 62 91 57 92 58 93 59 94 60 95 61 96
REMARK H PARENT 19 8 5 15 16 22 16 23 11 27 26 33 82 52 52 63
REMARK Flexibility Score: inf
ROOT
ATOM      1  C   UNL A   1      40.330  21.641  27.050  1.00  0.00     0.002 C 
ENDROOT
BRANCH   1   2
ATOM      2  C   UNL A   1      39.211  22.320  26.258  1.00  0.00     0.002 C 
BRANCH   2   3
ATOM      3  C   UNL A   1      38.299  21.365  25.483  1.00  0.00     0.021 C 
BRANCH   3   4
ATOM      4  C   UNL A   1      36.875  21.857  25.246  1.00  0.00     0.116 C 
BRANCH   4   5
ATOM      5  N   UNL A   1      35.839  20.851  25.402  1.00  0.00    -0.354 N 
ATOM      6  C   UNL A   1      34.485  20.889  25.225  1.00  0.00     0.245 C 
ATOM      7  O   UNL A   1      33.911  19.795  25.205  1.00  0.00    -0.272 OA
ATOM      8  H   UNL A   1      36.178  19.972  25.690  1.00  0.00     0.163 HD
BRANCH   6   9
ATOM      9  C   UNL A   1      33.709  22.223  25.026  1.00  0.00     0.116 C 
ATOM     10  C   UNL A   1      34.285  23.259  26.025  1.00  0.00     0.045 C 
BRANCH   9  11
ATOM     11  C   UNL A   1      33.870  22.827  23.598  1.00  0.00     0.035 C 
ATOM     12  C   UNL A   1      32.861  22.385  22.536  1.00  0.00     0.007 C 
ENDBRANCH   9  11
BRANCH   9  13
ATOM     13  N   UNL A   1      32.251  22.040  25.280  1.00  0.00    -0.337 N 
ATOM     14  C   UNL A   1      31.283  22.918  25.714  1.00  0.00     0.279 C 
ATOM     15  H   UNL A   1      31.921  21.128  25.105  1.00  0.00     0.164 HD
ATOM     16  O   UNL A   1      30.304  22.414  26.268  1.00  0.00    -0.268 OA
BRANCH  14  17
ATOM     17  C   UNL A   1      31.358  24.428  25.411  1.00  0.00     0.278 C 
ATOM     18  C   UNL A   1      30.564  24.711  24.101  1.00  0.00     0.131 C 
ATOM     19  N   UNL A   1      30.790  25.289  26.494  1.00  0.00    -0.331 N 
ATOM     20  C   UNL A   1      30.735  26.149  23.809  1.00  0.00     0.050 A 
ATOM     21  C   UNL A   1      31.072  26.740  26.249  1.00  0.00     0.320 C 
ATOM     22  H   UNL A   1      31.203  25.017  27.386  1.00  0.00     0.347 HD
ATOM     23  H   UNL A   1      29.778  25.158  26.507  1.00  0.00     0.347 HD
ATOM     24  N   UNL A   1      30.806  26.804  22.621  1.00  0.00    -0.348 N 
ATOM     25  C   UNL A   1      30.977  27.082  24.788  1.00  0.00     0.116 A 
ATOM     26  C   UNL A   1      31.164  28.094  22.915  1.00  0.00     0.197 A 
ATOM     27  H   UNL A   1      30.633  26.427  21.727  1.00  0.00     0.167 HD
ATOM     28  N   UNL A   1      31.273  28.294  24.215  1.00  0.00    -0.236 NA
ENDBRANCH  14  17
ENDBRANCH   9  13
ENDBRANCH   6   9
ENDBRANCH   4   5
ENDBRANCH   3   4
ENDBRANCH   2   3
ENDBRANCH   1   2
BRANCH   1  29
ATOM     29  C   UNL A   1      40.791  20.282  26.507  1.00  0.00     0.021 C 
BRANCH  29  30
ATOM     30  C   UNL A   1      42.096  19.776  27.107  1.00  0.00     0.116 C 
BRANCH  30  31
ATOM     31  N   UNL A   1      43.120  19.541  26.096  1.00  0.00    -0.352 N 
ATOM     32  C   UNL A   1      43.734  20.489  25.296  1.00  0.00     0.251 C 
ATOM     33  H   UNL A   1      43.405  18.608  25.968  1.00  0.00     0.163 HD
ATOM     34  O   UNL A   1      44.276  20.182  24.252  1.00  0.00    -0.269 OA
BRANCH  32  35
ATOM     35  C   UNL A   1      43.722  21.885  25.769  1.00  0.00     0.039 A 
ATOM     36  C   UNL A   1      43.037  22.881  25.068  1.00  0.00     0.014 A 
ATOM     37  C   UNL A   1      44.379  22.164  26.966  1.00  0.00     0.014 A 
ATOM     38  C   UNL A   1      42.961  24.157  25.623  1.00  0.00     0.010 A 
ATOM     39  C   UNL A   1      44.208  23.388  27.564  1.00  0.00     0.010 A 
ATOM     40  C   UNL A   1      43.540  24.401  26.878  1.00  0.00    -0.014 A 
BRANCH  40  41
ATOM     41  C   UNL A   1      43.383  25.698  27.528  1.00  0.00     0.031 A 
ATOM     42  C   UNL A   1      44.395  26.732  27.170  1.00  0.00     0.074 A 
ATOM     43  C   UNL A   1      42.272  26.036  28.215  1.00  0.00     0.049 A 
ATOM     44  N   UNL A   1      45.304  27.256  27.924  1.00  0.00    -0.248 NA
ATOM     45  C   UNL A   1      44.470  27.165  25.765  1.00  0.00     0.031 C 
ATOM     46  C   UNL A   1      41.025  25.275  28.368  1.00  0.00     0.029 A 
ATOM     47  N   UNL A   1      41.977  27.216  28.821  1.00  0.00    -0.354 N 
ATOM     48  C   UNL A   1      45.936  28.231  27.154  1.00  0.00     0.074 A 
ATOM     49  C   UNL A   1      45.500  28.011  25.798  1.00  0.00     0.031 C 
ATOM     50  C   UNL A   1      40.043  26.100  28.794  1.00  0.00     0.029 A 
ATOM     51  C   UNL A   1      40.633  27.383  29.127  1.00  0.00     0.049 A 
ATOM     52  H   UNL A   1      42.660  27.896  29.026  1.00  0.00     0.167 HD
ATOM     53  C   UNL A   1      46.596  29.284  27.718  1.00  0.00     0.031 A 
ATOM     54  C   UNL A   1      40.041  28.507  29.595  1.00  0.00     0.031 A 
ATOM     55  C   UNL A   1      46.800  29.092  29.130  1.00  0.00     0.049 A 
ATOM     56  C   UNL A   1      41.113  29.348  30.184  1.00  0.00     0.074 A 
ATOM     57  C   UNL A   1      47.458  28.157  29.904  1.00  0.00     0.029 A 
ATOM     58  N   UNL A   1      45.931  29.739  29.978  1.00  0.00    -0.354 N 
ATOM     59  N   UNL A   1      41.811  28.994  31.228  1.00  0.00    -0.248 NA
ATOM     60  C   UNL A   1      41.718  30.374  29.352  1.00  0.00     0.031 C 
ATOM     61  C   UNL A   1      46.608  27.956  31.032  1.00  0.00     0.029 A 
ATOM     62  C   UNL A   1      45.521  28.827  30.916  1.00  0.00     0.049 A 
ATOM     63  H   UNL A   1      45.655  30.683  29.922  1.00  0.00     0.167 HD
ATOM     64  C   UNL A   1      43.102  29.426  30.961  1.00  0.00     0.074 A 
ATOM     65  C   UNL A   1      42.961  30.357  29.843  1.00  0.00     0.031 C 
ATOM     66  C   UNL A   1      44.190  28.787  31.488  1.00  0.00     0.031 A 
BRANCH  53  67
ATOM     67  C   UNL A   1      46.723  30.652  27.084  1.00  0.00    -0.014 A 
ATOM     68  C   UNL A   1      47.986  31.284  27.071  1.00  0.00     0.010 A 
ATOM     69  C   UNL A   1      45.611  31.450  26.750  1.00  0.00     0.010 A 
ATOM     70  C   UNL A   1      48.113  32.657  26.814  1.00  0.00     0.020 A 
ATOM     71  C   UNL A   1      45.732  32.809  26.449  1.00  0.00     0.020 A 
ATOM     72  C   UNL A   1      46.979  33.412  26.520  1.00  0.00     0.054 A 
BRANCH  72  73
ATOM     73  S   UNL A   1      47.133  35.204  26.309  1.00  0.00     0.124 S 
ATOM     74  O   UNL A   1      45.805  35.562  25.820  1.00  0.00    -0.237 OA
ATOM     75  O   UNL A   1      47.453  35.649  27.663  1.00  0.00    -0.237 OA
ATOM     76  O   UNL A   1      48.218  35.342  25.341  1.00  0.00    -0.744 OA
ENDBRANCH  72  73
ENDBRANCH  53  67
BRANCH  54  77
ATOM     77  C   UNL A   1      38.685  29.016  29.285  1.00  0.00    -0.014 A 
ATOM     78  C   UNL A   1      37.831  29.476  30.303  1.00  0.00     0.010 A 
ATOM     79  C   UNL A   1      38.333  29.308  27.950  1.00  0.00     0.010 A 
ATOM     80  C   UNL A   1      36.699  30.251  29.999  1.00  0.00     0.020 A 
ATOM     81  C   UNL A   1      37.204  30.077  27.639  1.00  0.00     0.020 A 
ATOM     82  C   UNL A   1      36.405  30.565  28.668  1.00  0.00     0.054 A 
BRANCH  82  83
ATOM     83  S   UNL A   1      35.047  31.719  28.306  1.00  0.00     0.124 S 
ATOM     84  O   UNL A   1      34.126  30.886  27.540  1.00  0.00    -0.237 OA
ATOM     85  O   UNL A   1      34.591  32.101  29.640  1.00  0.00    -0.237 OA
ATOM     86  O   UNL A   1      35.694  32.789  27.548  1.00  0.00    -0.744 OA
ENDBRANCH  82  83
ENDBRANCH  54  77
BRANCH  66  87
ATOM     87  C   UNL A   1      43.970  27.778  32.594  1.00  0.00    -0.014 A 
ATOM     88  C   UNL A   1      43.494  28.110  33.879  1.00  0.00     0.010 A 
ATOM     89  C   UNL A   1      44.101  26.417  32.264  1.00  0.00     0.010 A 
ATOM     90  C   UNL A   1      43.180  27.108  34.811  1.00  0.00     0.020 A 
ATOM     91  C   UNL A   1      43.774  25.414  33.180  1.00  0.00     0.020 A 
ATOM     92  C   UNL A   1      43.321  25.763  34.453  1.00  0.00     0.054 A 
BRANCH  92  93
ATOM     93  S   UNL A   1      42.868  24.467  35.641  1.00  0.00     0.124 S 
ATOM     94  O   UNL A   1      43.451  23.269  35.044  1.00  0.00    -0.237 OA
ATOM     95  O   UNL A   1      43.497  24.925  36.878  1.00  0.00    -0.237 OA
ATOM     96  O   UNL A   1      41.406  24.501  35.653  1.00  0.00    -0.744 OA
ENDBRANCH  92  93
ENDBRANCH  66  87
ENDBRANCH  40  41
ENDBRANCH  32  35
ENDBRANCH  30  31
ENDBRANCH  29  30
ENDBRANCH   1  29
TORSDOF 19
ENDMDL
