MODEL 1
REMARK VINA RESULT:     -10.6      0.000      0.000
REMARK SMILES C[C@H](CC(=O)NCCCCCCNC(=O)c1ccc(-c2c3nc(c(-c4ccc(S(=O)(=O)[O-])cc4)c4ccc([nH]4)c(-c4ccc(S(=O)(=O)[O-])cc4)c4nc(c(-c5ccc(S(=O)(=O)[O-])cc5)c5ccc2[nH]5)C=C4)C=C3)cc1)NC(=O)Cn1nc2ccccn2c1=O
REMARK SMILES IDX 9 1 8 2 7 3 6 4 4 5 5 6 3 8 2 9 1 10 76 11 77 12 78 14 79 15
REMARK SMILES IDX 80 16 81 17 88 18 82 19 87 20 89 21 83 22 86 23 84 24 85 25
REMARK SMILES IDX 10 26 11 27 12 28 13 29 14 30 15 32 16 33 17 34 75 35 18 36
REMARK SMILES IDX 74 37 19 38 20 39 21 40 68 41 22 42 73 43 67 44 69 45 23 46
REMARK SMILES IDX 72 47 66 48 65 49 24 51 54 52 35 53 53 54 36 55 39 56 52 57
REMARK SMILES IDX 70 58 37 59 38 60 51 62 71 63 40 64 25 65 26 66 34 67 27 68
REMARK SMILES IDX 33 69 28 70 29 71 30 72 31 73 32 74 55 75 56 76 64 77 57 78
REMARK SMILES IDX 63 79 58 80 59 81 60 82 61 83 62 84 41 85 42 86 50 87 43 88
REMARK SMILES IDX 49 89 44 90 45 91 46 92 47 93 48 94
REMARK H PARENT 6 7 76 13 13 31 69 50 39 61
REMARK Flexibility Score: inf
ROOT
ATOM      1  C   UNL A   1      39.720  22.762  26.531  1.00  0.00     0.002 C 
ENDROOT
BRANCH   1   2
ATOM      2  C   UNL A   1      38.654  21.815  25.965  1.00  0.00     0.021 C 
BRANCH   2   3
ATOM      3  C   UNL A   1      37.295  22.472  25.708  1.00  0.00     0.116 C 
BRANCH   3   4
ATOM      4  N   UNL A   1      36.224  21.840  26.458  1.00  0.00    -0.356 N 
ATOM      5  C   UNL A   1      34.898  22.134  26.520  1.00  0.00     0.222 C 
ATOM      6  O   UNL A   1      34.175  21.466  27.260  1.00  0.00    -0.275 OA
ATOM      7  H   UNL A   1      36.504  21.075  27.012  1.00  0.00     0.163 HD
BRANCH   5   8
ATOM      8  C   UNL A   1      34.332  23.266  25.701  1.00  0.00     0.124 C 
BRANCH   8   9
ATOM      9  C   UNL A   1      32.949  23.008  25.079  1.00  0.00     0.088 C 
ATOM     10  C   UNL A   1      32.825  21.786  24.173  1.00  0.00     0.031 C 
BRANCH   9  11
ATOM     11  N   UNL A   1      31.923  22.968  26.122  1.00  0.00    -0.352 N 
ATOM     12  C   UNL A   1      30.831  23.760  26.328  1.00  0.00     0.242 C 
ATOM     13  H   UNL A   1      32.040  22.249  26.785  1.00  0.00     0.163 HD
ATOM     14  O   UNL A   1      30.065  23.429  27.239  1.00  0.00    -0.273 OA
BRANCH  12  15
ATOM     15  C   UNL A   1      30.440  24.886  25.369  1.00  0.00     0.249 C 
BRANCH  15  16
ATOM     16  N   UNL A   1      31.037  26.177  25.606  1.00  0.00    -0.203 N 
ATOM     17  N   UNL A   1      32.115  26.335  26.464  1.00  0.00    -0.149 NA
ATOM     18  C   UNL A   1      30.775  27.376  24.925  1.00  0.00     0.350 A 
ATOM     19  C   UNL A   1      32.385  27.600  26.373  1.00  0.00     0.161 A 
ATOM     20  N   UNL A   1      31.601  28.297  25.517  1.00  0.00    -0.250 N 
ATOM     21  O   UNL A   1      29.940  27.576  24.055  1.00  0.00    -0.246 OA
ATOM     22  C   UNL A   1      33.441  28.346  27.114  1.00  0.00     0.050 A 
ATOM     23  C   UNL A   1      31.603  29.659  25.403  1.00  0.00     0.098 A 
ATOM     24  C   UNL A   1      33.208  29.671  27.213  1.00  0.00     0.005 A 
ATOM     25  C   UNL A   1      32.369  30.365  26.246  1.00  0.00     0.019 A 
ENDBRANCH  15  16
ENDBRANCH  12  15
ENDBRANCH   9  11
ENDBRANCH   8   9
ENDBRANCH   5   8
ENDBRANCH   3   4
ENDBRANCH   2   3
ENDBRANCH   1   2
BRANCH   1  26
ATOM     26  C   UNL A   1      40.585  22.158  27.641  1.00  0.00     0.002 C 
BRANCH  26  27
ATOM     27  C   UNL A   1      42.074  22.055  27.309  1.00  0.00     0.021 C 
BRANCH  27  28
ATOM     28  C   UNL A   1      42.849  23.361  27.461  1.00  0.00     0.116 C 
BRANCH  28  29
ATOM     29  N   UNL A   1      42.896  24.111  26.217  1.00  0.00    -0.352 N 
ATOM     30  C   UNL A   1      42.485  25.398  25.969  1.00  0.00     0.251 C 
ATOM     31  H   UNL A   1      43.272  23.630  25.446  1.00  0.00     0.163 HD
ATOM     32  O   UNL A   1      42.391  25.797  24.812  1.00  0.00    -0.269 OA
BRANCH  30  33
ATOM     33  C   UNL A   1      42.143  26.293  27.096  1.00  0.00     0.039 A 
ATOM     34  C   UNL A   1      41.074  25.950  27.926  1.00  0.00     0.014 A 
ATOM     35  C   UNL A   1      42.865  27.469  27.330  1.00  0.00     0.014 A 
ATOM     36  C   UNL A   1      40.759  26.763  29.016  1.00  0.00     0.010 A 
ATOM     37  C   UNL A   1      42.599  28.235  28.462  1.00  0.00     0.010 A 
ATOM     38  C   UNL A   1      41.537  27.896  29.314  1.00  0.00    -0.014 A 
BRANCH  38  39
ATOM     39  C   UNL A   1      41.248  28.714  30.521  1.00  0.00     0.031 A 
ATOM     40  C   UNL A   1      42.062  28.549  31.776  1.00  0.00     0.074 A 
ATOM     41  C   UNL A   1      40.225  29.592  30.492  1.00  0.00     0.049 A 
ATOM     42  N   UNL A   1      41.977  29.209  32.903  1.00  0.00    -0.248 NA
ATOM     43  C   UNL A   1      43.089  27.495  31.776  1.00  0.00     0.031 C 
ATOM     44  C   UNL A   1      39.324  29.802  29.355  1.00  0.00     0.029 A 
ATOM     45  N   UNL A   1      39.777  30.478  31.438  1.00  0.00    -0.354 N 
ATOM     46  C   UNL A   1      42.929  28.648  33.747  1.00  0.00     0.074 A 
ATOM     47  C   UNL A   1      43.541  27.557  33.020  1.00  0.00     0.031 C 
ATOM     48  C   UNL A   1      38.459  30.783  29.656  1.00  0.00     0.029 A 
ATOM     49  C   UNL A   1      38.716  31.246  31.015  1.00  0.00     0.049 A 
ATOM     50  H   UNL A   1      40.175  30.557  32.334  1.00  0.00     0.167 HD
ATOM     51  C   UNL A   1      43.276  29.016  35.004  1.00  0.00     0.031 A 
ATOM     52  C   UNL A   1      38.028  32.216  31.647  1.00  0.00     0.031 A 
ATOM     53  C   UNL A   1      42.661  30.102  35.723  1.00  0.00     0.049 A 
ATOM     54  C   UNL A   1      38.435  32.612  33.038  1.00  0.00     0.074 A 
ATOM     55  C   UNL A   1      42.984  30.597  36.975  1.00  0.00     0.029 A 
ATOM     56  N   UNL A   1      41.590  30.855  35.262  1.00  0.00    -0.354 N 
ATOM     57  N   UNL A   1      39.399  32.129  33.785  1.00  0.00    -0.248 NA
ATOM     58  C   UNL A   1      37.671  33.699  33.666  1.00  0.00     0.031 C 
ATOM     59  C   UNL A   1      42.067  31.603  37.298  1.00  0.00     0.029 A 
ATOM     60  C   UNL A   1      41.219  31.786  36.218  1.00  0.00     0.049 A 
ATOM     61  H   UNL A   1      41.158  30.743  34.385  1.00  0.00     0.167 HD
ATOM     62  C   UNL A   1      39.370  32.864  34.964  1.00  0.00     0.074 A 
ATOM     63  C   UNL A   1      38.312  33.844  34.817  1.00  0.00     0.031 C 
ATOM     64  C   UNL A   1      40.147  32.741  36.070  1.00  0.00     0.031 A 
BRANCH  51  65
ATOM     65  C   UNL A   1      44.364  28.228  35.688  1.00  0.00    -0.014 A 
ATOM     66  C   UNL A   1      44.063  27.115  36.497  1.00  0.00     0.010 A 
ATOM     67  C   UNL A   1      45.712  28.579  35.489  1.00  0.00     0.010 A 
ATOM     68  C   UNL A   1      45.085  26.399  37.129  1.00  0.00     0.020 A 
ATOM     69  C   UNL A   1      46.739  27.846  36.093  1.00  0.00     0.020 A 
ATOM     70  C   UNL A   1      46.417  26.772  36.924  1.00  0.00     0.054 A 
BRANCH  70  71
ATOM     71  S   UNL A   1      47.723  25.813  37.740  1.00  0.00     0.124 S 
ATOM     72  O   UNL A   1      48.307  26.805  38.640  1.00  0.00    -0.237 OA
ATOM     73  O   UNL A   1      46.972  24.742  38.390  1.00  0.00    -0.237 OA
ATOM     74  O   UNL A   1      48.584  25.388  36.639  1.00  0.00    -0.744 OA
ENDBRANCH  70  71
ENDBRANCH  51  65
BRANCH  52  75
ATOM     75  C   UNL A   1      36.894  32.889  30.955  1.00  0.00    -0.014 A 
ATOM     76  C   UNL A   1      37.118  33.707  29.833  1.00  0.00     0.010 A 
ATOM     77  C   UNL A   1      35.574  32.691  31.403  1.00  0.00     0.010 A 
ATOM     78  C   UNL A   1      36.046  34.326  29.182  1.00  0.00     0.020 A 
ATOM     79  C   UNL A   1      34.498  33.283  30.736  1.00  0.00     0.020 A 
ATOM     80  C   UNL A   1      34.743  34.105  29.635  1.00  0.00     0.054 A 
BRANCH  80  81
ATOM     81  S   UNL A   1      33.363  34.866  28.736  1.00  0.00     0.124 S 
ATOM     82  O   UNL A   1      32.374  35.051  29.793  1.00  0.00    -0.237 OA
ATOM     83  O   UNL A   1      33.966  36.090  28.212  1.00  0.00    -0.237 OA
ATOM     84  O   UNL A   1      33.021  33.868  27.725  1.00  0.00    -0.744 OA
ENDBRANCH  80  81
ENDBRANCH  52  75
BRANCH  64  85
ATOM     85  C   UNL A   1      39.890  33.703  37.201  1.00  0.00    -0.014 A 
ATOM     86  C   UNL A   1      39.021  33.374  38.257  1.00  0.00     0.010 A 
ATOM     87  C   UNL A   1      40.541  34.950  37.216  1.00  0.00     0.010 A 
ATOM     88  C   UNL A   1      38.764  34.296  39.276  1.00  0.00     0.020 A 
ATOM     89  C   UNL A   1      40.314  35.861  38.251  1.00  0.00     0.020 A 
ATOM     90  C   UNL A   1      39.409  35.536  39.263  1.00  0.00     0.054 A 
BRANCH  90  91
ATOM     91  S   UNL A   1      39.063  36.713  40.598  1.00  0.00     0.124 S 
ATOM     92  O   UNL A   1      40.382  36.886  41.200  1.00  0.00    -0.237 OA
ATOM     93  O   UNL A   1      38.545  37.873  39.877  1.00  0.00    -0.237 OA
ATOM     94  O   UNL A   1      38.085  36.016  41.431  1.00  0.00    -0.744 OA
ENDBRANCH  90  91
ENDBRANCH  64  85
ENDBRANCH  38  39
ENDBRANCH  30  33
ENDBRANCH  28  29
ENDBRANCH  27  28
ENDBRANCH  26  27
ENDBRANCH   1  26
TORSDOF 20
ENDMDL
MODEL 2
REMARK VINA RESULT:     -10.3      4.518     12.308
REMARK SMILES C[C@H](CC(=O)NCCCCCCNC(=O)c1ccc(-c2c3nc(c(-c4ccc(S(=O)(=O)[O-])cc4)c4ccc([nH]4)c(-c4ccc(S(=O)(=O)[O-])cc4)c4nc(c(-c5ccc(S(=O)(=O)[O-])cc5)c5ccc2[nH]5)C=C4)C=C3)cc1)NC(=O)Cn1nc2ccccn2c1=O
REMARK SMILES IDX 9 1 8 2 7 3 6 4 4 5 5 6 3 8 2 9 1 10 76 11 77 12 78 14 79 15
REMARK SMILES IDX 80 16 81 17 88 18 82 19 87 20 89 21 83 22 86 23 84 24 85 25
REMARK SMILES IDX 10 26 11 27 12 28 13 29 14 30 15 32 16 33 17 34 75 35 18 36
REMARK SMILES IDX 74 37 19 38 20 39 21 40 68 41 22 42 73 43 67 44 69 45 23 46
REMARK SMILES IDX 72 47 66 48 65 49 24 51 54 52 35 53 53 54 36 55 39 56 52 57
REMARK SMILES IDX 70 58 37 59 38 60 51 62 71 63 40 64 25 65 26 66 34 67 27 68
REMARK SMILES IDX 33 69 28 70 29 71 30 72 31 73 32 74 55 75 56 76 64 77 57 78
REMARK SMILES IDX 63 79 58 80 59 81 60 82 61 83 62 84 41 85 42 86 50 87 43 88
REMARK SMILES IDX 49 89 44 90 45 91 46 92 47 93 48 94
REMARK H PARENT 6 7 76 13 13 31 69 50 39 61
REMARK Flexibility Score: inf
ROOT
ATOM      1  C   UNL A   1      37.211  33.094  31.708  1.00  0.00     0.002 C 
ENDROOT
BRANCH   1   2
ATOM      2  C   UNL A   1      36.774  31.929  32.603  1.00  0.00     0.021 C 
BRANCH   2   3
ATOM      3  C   UNL A   1      37.917  31.028  33.078  1.00  0.00     0.116 C 
BRANCH   3   4
ATOM      4  N   UNL A   1      37.769  30.630  34.466  1.00  0.00    -0.356 N 
ATOM      5  C   UNL A   1      38.666  30.639  35.487  1.00  0.00     0.222 C 
ATOM      6  O   UNL A   1      38.315  30.220  36.591  1.00  0.00    -0.275 OA
ATOM      7  H   UNL A   1      36.873  30.299  34.707  1.00  0.00     0.163 HD
BRANCH   5   8
ATOM      8  C   UNL A   1      40.068  31.147  35.262  1.00  0.00     0.124 C 
BRANCH   8   9
ATOM      9  C   UNL A   1      41.167  30.071  35.237  1.00  0.00     0.088 C 
ATOM     10  C   UNL A   1      42.569  30.518  35.642  1.00  0.00     0.031 C 
BRANCH   9  11
ATOM     11  N   UNL A   1      40.760  28.910  36.030  1.00  0.00    -0.352 N 
ATOM     12  C   UNL A   1      41.473  27.824  36.449  1.00  0.00     0.242 C 
ATOM     13  H   UNL A   1      39.815  28.915  36.308  1.00  0.00     0.163 HD
ATOM     14  O   UNL A   1      40.896  27.036  37.206  1.00  0.00    -0.273 OA
BRANCH  12  15
ATOM     15  C   UNL A   1      42.970  27.670  36.178  1.00  0.00     0.249 C 
BRANCH  15  16
ATOM     16  N   UNL A   1      43.408  26.397  35.660  1.00  0.00    -0.203 N 
ATOM     17  N   UNL A   1      43.574  26.180  34.301  1.00  0.00    -0.149 NA
ATOM     18  C   UNL A   1      43.885  25.297  36.391  1.00  0.00     0.350 A 
ATOM     19  C   UNL A   1      44.012  24.962  34.243  1.00  0.00     0.161 A 
ATOM     20  N   UNL A   1      44.175  24.351  35.442  1.00  0.00    -0.250 N 
ATOM     21  O   UNL A   1      43.948  25.177  37.606  1.00  0.00    -0.246 OA
ATOM     22  C   UNL A   1      44.332  24.181  33.015  1.00  0.00     0.050 A 
ATOM     23  C   UNL A   1      44.458  23.024  35.599  1.00  0.00     0.098 A 
ATOM     24  C   UNL A   1      44.296  22.844  33.192  1.00  0.00     0.005 A 
ATOM     25  C   UNL A   1      44.500  22.250  34.506  1.00  0.00     0.019 A 
ENDBRANCH  15  16
ENDBRANCH  12  15
ENDBRANCH   9  11
ENDBRANCH   8   9
ENDBRANCH   5   8
ENDBRANCH   3   4
ENDBRANCH   2   3
ENDBRANCH   1   2
BRANCH   1  26
ATOM     26  C   UNL A   1      36.813  32.953  30.236  1.00  0.00     0.002 C 
BRANCH  26  27
ATOM     27  C   UNL A   1      35.306  32.866  29.987  1.00  0.00     0.021 C 
BRANCH  27  28
ATOM     28  C   UNL A   1      34.909  32.803  28.515  1.00  0.00     0.116 C 
BRANCH  28  29
ATOM     29  N   UNL A   1      34.080  31.645  28.227  1.00  0.00    -0.352 N 
ATOM     30  C   UNL A   1      34.456  30.340  28.028  1.00  0.00     0.251 C 
ATOM     31  H   UNL A   1      33.113  31.821  28.165  1.00  0.00     0.163 HD
ATOM     32  O   UNL A   1      33.651  29.533  27.575  1.00  0.00    -0.269 OA
BRANCH  30  33
ATOM     33  C   UNL A   1      35.838  29.915  28.345  1.00  0.00     0.039 A 
ATOM     34  C   UNL A   1      36.820  30.030  27.359  1.00  0.00     0.014 A 
ATOM     35  C   UNL A   1      36.164  29.398  29.603  1.00  0.00     0.014 A 
ATOM     36  C   UNL A   1      38.136  29.670  27.651  1.00  0.00     0.010 A 
ATOM     37  C   UNL A   1      37.492  29.113  29.916  1.00  0.00     0.010 A 
ATOM     38  C   UNL A   1      38.491  29.237  28.941  1.00  0.00    -0.014 A 
BRANCH  38  39
ATOM     39  C   UNL A   1      39.908  28.930  29.270  1.00  0.00     0.031 A 
ATOM     40  C   UNL A   1      40.772  29.941  29.975  1.00  0.00     0.074 A 
ATOM     41  C   UNL A   1      40.426  27.740  28.905  1.00  0.00     0.049 A 
ATOM     42  N   UNL A   1      42.011  29.824  30.378  1.00  0.00    -0.248 NA
ATOM     43  C   UNL A   1      40.177  31.260  30.243  1.00  0.00     0.031 C 
ATOM     44  C   UNL A   1      39.709  26.698  28.163  1.00  0.00     0.029 A 
ATOM     45  N   UNL A   1      41.669  27.200  29.114  1.00  0.00    -0.354 N 
ATOM     46  C   UNL A   1      42.348  31.051  30.938  1.00  0.00     0.074 A 
ATOM     47  C   UNL A   1      41.200  31.916  30.773  1.00  0.00     0.031 C 
ATOM     48  C   UNL A   1      40.511  25.632  28.018  1.00  0.00     0.029 A 
ATOM     49  C   UNL A   1      41.807  25.924  28.619  1.00  0.00     0.049 A 
ATOM     50  H   UNL A   1      42.395  27.680  29.575  1.00  0.00     0.167 HD
ATOM     51  C   UNL A   1      43.499  31.421  31.551  1.00  0.00     0.031 A 
ATOM     52  C   UNL A   1      42.857  25.081  28.646  1.00  0.00     0.031 A 
ATOM     53  C   UNL A   1      44.639  30.556  31.711  1.00  0.00     0.049 A 
ATOM     54  C   UNL A   1      44.121  25.510  29.336  1.00  0.00     0.074 A 
ATOM     55  C   UNL A   1      45.828  30.813  32.373  1.00  0.00     0.029 A 
ATOM     56  N   UNL A   1      44.740  29.272  31.195  1.00  0.00    -0.354 N 
ATOM     57  N   UNL A   1      44.387  26.644  29.941  1.00  0.00    -0.248 NA
ATOM     58  C   UNL A   1      45.222  24.537  29.365  1.00  0.00     0.031 C 
ATOM     59  C   UNL A   1      46.671  29.710  32.201  1.00  0.00     0.029 A 
ATOM     60  C   UNL A   1      45.983  28.737  31.494  1.00  0.00     0.049 A 
ATOM     61  H   UNL A   1      44.034  28.809  30.690  1.00  0.00     0.167 HD
ATOM     62  C   UNL A   1      45.679  26.514  30.437  1.00  0.00     0.074 A 
ATOM     63  C   UNL A   1      46.127  25.181  30.088  1.00  0.00     0.031 C 
ATOM     64  C   UNL A   1      46.428  27.417  31.120  1.00  0.00     0.031 A 
BRANCH  51  65
ATOM     65  C   UNL A   1      43.586  32.829  32.084  1.00  0.00    -0.014 A 
ATOM     66  C   UNL A   1      43.399  33.107  33.451  1.00  0.00     0.010 A 
ATOM     67  C   UNL A   1      43.898  33.888  31.211  1.00  0.00     0.010 A 
ATOM     68  C   UNL A   1      43.477  34.420  33.927  1.00  0.00     0.020 A 
ATOM     69  C   UNL A   1      44.009  35.198  31.688  1.00  0.00     0.020 A 
ATOM     70  C   UNL A   1      43.780  35.458  33.040  1.00  0.00     0.054 A 
BRANCH  70  71
ATOM     71  S   UNL A   1      43.894  37.148  33.688  1.00  0.00     0.124 S 
ATOM     72  O   UNL A   1      44.490  37.863  32.561  1.00  0.00    -0.237 OA
ATOM     73  O   UNL A   1      42.499  37.476  33.971  1.00  0.00    -0.237 OA
ATOM     74  O   UNL A   1      44.751  37.013  34.863  1.00  0.00    -0.744 OA
ENDBRANCH  70  71
ENDBRANCH  51  65
BRANCH  52  75
ATOM     75  C   UNL A   1      42.744  23.739  28.011  1.00  0.00    -0.014 A 
ATOM     76  C   UNL A   1      42.125  22.672  28.687  1.00  0.00     0.010 A 
ATOM     77  C   UNL A   1      43.235  23.528  26.708  1.00  0.00     0.010 A 
ATOM     78  C   UNL A   1      42.013  21.417  28.079  1.00  0.00     0.020 A 
ATOM     79  C   UNL A   1      43.096  22.285  26.086  1.00  0.00     0.020 A 
ATOM     80  C   UNL A   1      42.494  21.235  26.779  1.00  0.00     0.054 A 
BRANCH  80  81
ATOM     81  S   UNL A   1      42.280  19.616  25.987  1.00  0.00     0.124 S 
ATOM     82  O   UNL A   1      40.837  19.569  25.778  1.00  0.00    -0.237 OA
ATOM     83  O   UNL A   1      43.091  19.748  24.779  1.00  0.00    -0.237 OA
ATOM     84  O   UNL A   1      42.801  18.678  26.978  1.00  0.00    -0.744 OA
ENDBRANCH  80  81
ENDBRANCH  52  75
BRANCH  64  85
ATOM     85  C   UNL A   1      47.806  26.982  31.547  1.00  0.00    -0.014 A 
ATOM     86  C   UNL A   1      48.934  27.234  30.746  1.00  0.00     0.010 A 
ATOM     87  C   UNL A   1      47.978  26.324  32.780  1.00  0.00     0.010 A 
ATOM     88  C   UNL A   1      50.198  26.787  31.141  1.00  0.00     0.020 A 
ATOM     89  C   UNL A   1      49.245  25.906  33.195  1.00  0.00     0.020 A 
ATOM     90  C   UNL A   1      50.344  26.121  32.362  1.00  0.00     0.054 A 
BRANCH  90  91
ATOM     91  S   UNL A   1      51.994  25.555  32.855  1.00  0.00     0.124 S 
ATOM     92  O   UNL A   1      52.719  25.589  31.589  1.00  0.00    -0.237 OA
ATOM     93  O   UNL A   1      52.397  26.557  33.838  1.00  0.00    -0.237 OA
ATOM     94  O   UNL A   1      51.754  24.219  33.399  1.00  0.00    -0.744 OA
ENDBRANCH  90  91
ENDBRANCH  64  85
ENDBRANCH  38  39
ENDBRANCH  30  33
ENDBRANCH  28  29
ENDBRANCH  27  28
ENDBRANCH  26  27
ENDBRANCH   1  26
TORSDOF 20
ENDMDL
MODEL 3
REMARK VINA RESULT:     -10.3      5.020      9.516
REMARK SMILES C[C@H](CC(=O)NCCCCCCNC(=O)c1ccc(-c2c3nc(c(-c4ccc(S(=O)(=O)[O-])cc4)c4ccc([nH]4)c(-c4ccc(S(=O)(=O)[O-])cc4)c4nc(c(-c5ccc(S(=O)(=O)[O-])cc5)c5ccc2[nH]5)C=C4)C=C3)cc1)NC(=O)Cn1nc2ccccn2c1=O
REMARK SMILES IDX 9 1 8 2 7 3 6 4 4 5 5 6 3 8 2 9 1 10 76 11 77 12 78 14 79 15
REMARK SMILES IDX 80 16 81 17 88 18 82 19 87 20 89 21 83 22 86 23 84 24 85 25
REMARK SMILES IDX 10 26 11 27 12 28 13 29 14 30 15 32 16 33 17 34 75 35 18 36
REMARK SMILES IDX 74 37 19 38 20 39 21 40 68 41 22 42 73 43 67 44 69 45 23 46
REMARK SMILES IDX 72 47 66 48 65 49 24 51 54 52 35 53 53 54 36 55 39 56 52 57
REMARK SMILES IDX 70 58 37 59 38 60 51 62 71 63 40 64 25 65 26 66 34 67 27 68
REMARK SMILES IDX 33 69 28 70 29 71 30 72 31 73 32 74 55 75 56 76 64 77 57 78
REMARK SMILES IDX 63 79 58 80 59 81 60 82 61 83 62 84 41 85 42 86 50 87 43 88
REMARK SMILES IDX 49 89 44 90 45 91 46 92 47 93 48 94
REMARK H PARENT 6 7 76 13 13 31 69 50 39 61
REMARK Flexibility Score: inf
ROOT
ATOM      1  C   UNL A   1      34.306  21.256  26.409  1.00  0.00     0.002 C 
ENDROOT
BRANCH   1   2
ATOM      2  C   UNL A   1      33.552  21.201  25.074  1.00  0.00     0.021 C 
BRANCH   2   3
ATOM      3  C   UNL A   1      32.033  21.075  25.208  1.00  0.00     0.116 C 
BRANCH   3   4
ATOM      4  N   UNL A   1      31.487  21.979  26.204  1.00  0.00    -0.356 N 
ATOM      5  C   UNL A   1      30.973  23.230  26.071  1.00  0.00     0.222 C 
ATOM      6  O   UNL A   1      30.592  23.826  27.080  1.00  0.00    -0.275 OA
ATOM      7  H   UNL A   1      31.492  21.630  27.125  1.00  0.00     0.163 HD
BRANCH   5   8
ATOM      8  C   UNL A   1      30.883  23.875  24.711  1.00  0.00     0.124 C 
BRANCH   8   9
ATOM      9  C   UNL A   1      30.683  25.400  24.711  1.00  0.00     0.088 C 
ATOM     10  C   UNL A   1      29.256  25.901  24.921  1.00  0.00     0.031 C 
BRANCH   9  11
ATOM     11  N   UNL A   1      31.584  26.030  25.676  1.00  0.00    -0.352 N 
ATOM     12  C   UNL A   1      32.439  27.086  25.538  1.00  0.00     0.242 C 
ATOM     13  H   UNL A   1      31.572  25.626  26.574  1.00  0.00     0.163 HD
ATOM     14  O   UNL A   1      33.009  27.480  26.561  1.00  0.00    -0.273 OA
BRANCH  12  15
ATOM     15  C   UNL A   1      32.549  27.889  24.241  1.00  0.00     0.249 C 
BRANCH  15  16
ATOM     16  N   UNL A   1      31.386  28.645  23.845  1.00  0.00    -0.203 N 
ATOM     17  N   UNL A   1      31.014  29.808  24.502  1.00  0.00    -0.149 NA
ATOM     18  C   UNL A   1      30.595  28.455  22.701  1.00  0.00     0.350 A 
ATOM     19  C   UNL A   1      29.975  30.207  23.837  1.00  0.00     0.161 A 
ATOM     20  N   UNL A   1      29.632  29.429  22.783  1.00  0.00    -0.250 N 
ATOM     21  O   UNL A   1      30.690  27.570  21.863  1.00  0.00    -0.246 OA
ATOM     22  C   UNL A   1      29.132  31.402  24.123  1.00  0.00     0.050 A 
ATOM     23  C   UNL A   1      28.480  29.571  22.062  1.00  0.00     0.098 A 
ATOM     24  C   UNL A   1      27.885  31.327  23.615  1.00  0.00     0.005 A 
ATOM     25  C   UNL A   1      27.587  30.485  22.465  1.00  0.00     0.019 A 
ENDBRANCH  15  16
ENDBRANCH  12  15
ENDBRANCH   9  11
ENDBRANCH   8   9
ENDBRANCH   5   8
ENDBRANCH   3   4
ENDBRANCH   2   3
ENDBRANCH   1   2
BRANCH   1  26
ATOM     26  C   UNL A   1      34.676  22.667  26.875  1.00  0.00     0.002 C 
BRANCH  26  27
ATOM     27  C   UNL A   1      35.213  23.584  25.774  1.00  0.00     0.021 C 
BRANCH  27  28
ATOM     28  C   UNL A   1      36.709  23.874  25.864  1.00  0.00     0.116 C 
BRANCH  28  29
ATOM     29  N   UNL A   1      37.489  22.655  25.998  1.00  0.00    -0.352 N 
ATOM     30  C   UNL A   1      38.829  22.512  26.261  1.00  0.00     0.251 C 
ATOM     31  H   UNL A   1      36.989  21.816  25.883  1.00  0.00     0.163 HD
ATOM     32  O   UNL A   1      39.367  21.418  26.120  1.00  0.00    -0.269 OA
BRANCH  30  33
ATOM     33  C   UNL A   1      39.623  23.681  26.700  1.00  0.00     0.039 A 
ATOM     34  C   UNL A   1      39.830  24.729  25.801  1.00  0.00     0.014 A 
ATOM     35  C   UNL A   1      40.170  23.742  27.986  1.00  0.00     0.014 A 
ATOM     36  C   UNL A   1      40.544  25.857  26.208  1.00  0.00     0.010 A 
ATOM     37  C   UNL A   1      40.815  24.900  28.415  1.00  0.00     0.010 A 
ATOM     38  C   UNL A   1      41.018  25.967  27.528  1.00  0.00    -0.014 A 
BRANCH  38  39
ATOM     39  C   UNL A   1      41.708  27.203  27.980  1.00  0.00     0.031 A 
ATOM     40  C   UNL A   1      40.931  28.348  28.571  1.00  0.00     0.074 A 
ATOM     41  C   UNL A   1      43.045  27.302  27.831  1.00  0.00     0.049 A 
ATOM     42  N   UNL A   1      41.376  29.479  29.058  1.00  0.00    -0.248 NA
ATOM     43  C   UNL A   1      39.465  28.219  28.602  1.00  0.00     0.031 C 
ATOM     44  C   UNL A   1      43.905  26.286  27.217  1.00  0.00     0.029 A 
ATOM     45  N   UNL A   1      43.916  28.298  28.191  1.00  0.00    -0.354 N 
ATOM     46  C   UNL A   1      40.250  30.197  29.444  1.00  0.00     0.074 A 
ATOM     47  C   UNL A   1      39.099  29.398  29.083  1.00  0.00     0.031 C 
ATOM     48  C   UNL A   1      45.181  26.693  27.281  1.00  0.00     0.029 A 
ATOM     49  C   UNL A   1      45.231  28.011  27.904  1.00  0.00     0.049 A 
ATOM     50  H   UNL A   1      43.629  29.139  28.614  1.00  0.00     0.167 HD
ATOM     51  C   UNL A   1      40.178  31.403  30.058  1.00  0.00     0.031 A 
ATOM     52  C   UNL A   1      46.352  28.726  28.118  1.00  0.00     0.031 A 
ATOM     53  C   UNL A   1      41.327  32.195  30.413  1.00  0.00     0.049 A 
ATOM     54  C   UNL A   1      46.249  30.058  28.807  1.00  0.00     0.074 A 
ATOM     55  C   UNL A   1      41.365  33.400  31.095  1.00  0.00     0.029 A 
ATOM     56  N   UNL A   1      42.641  31.871  30.105  1.00  0.00    -0.354 N 
ATOM     57  N   UNL A   1      45.180  30.679  29.246  1.00  0.00    -0.248 NA
ATOM     58  C   UNL A   1      47.507  30.778  29.046  1.00  0.00     0.031 C 
ATOM     59  C   UNL A   1      42.694  33.835  31.142  1.00  0.00     0.029 A 
ATOM     60  C   UNL A   1      43.493  32.868  30.553  1.00  0.00     0.049 A 
ATOM     61  H   UNL A   1      42.926  31.054  29.637  1.00  0.00     0.167 HD
ATOM     62  C   UNL A   1      45.638  31.855  29.830  1.00  0.00     0.074 A 
ATOM     63  C   UNL A   1      47.083  31.841  29.714  1.00  0.00     0.031 C 
ATOM     64  C   UNL A   1      44.929  32.856  30.409  1.00  0.00     0.031 A 
BRANCH  51  65
ATOM     65  C   UNL A   1      38.807  31.946  30.375  1.00  0.00    -0.014 A 
ATOM     66  C   UNL A   1      38.159  31.635  31.585  1.00  0.00     0.010 A 
ATOM     67  C   UNL A   1      38.172  32.813  29.466  1.00  0.00     0.010 A 
ATOM     68  C   UNL A   1      36.885  32.142  31.859  1.00  0.00     0.020 A 
ATOM     69  C   UNL A   1      36.912  33.348  29.750  1.00  0.00     0.020 A 
ATOM     70  C   UNL A   1      36.268  32.995  30.937  1.00  0.00     0.054 A 
BRANCH  70  71
ATOM     71  S   UNL A   1      34.624  33.653  31.328  1.00  0.00     0.124 S 
ATOM     72  O   UNL A   1      34.075  32.604  32.184  1.00  0.00    -0.237 OA
ATOM     73  O   UNL A   1      34.936  34.911  32.001  1.00  0.00    -0.237 OA
ATOM     74  O   UNL A   1      33.984  33.790  30.022  1.00  0.00    -0.744 OA
ENDBRANCH  70  71
ENDBRANCH  51  65
BRANCH  52  75
ATOM     75  C   UNL A   1      47.670  28.181  27.690  1.00  0.00    -0.014 A 
ATOM     76  C   UNL A   1      48.406  27.330  28.534  1.00  0.00     0.010 A 
ATOM     77  C   UNL A   1      48.184  28.491  26.417  1.00  0.00     0.010 A 
ATOM     78  C   UNL A   1      49.638  26.813  28.119  1.00  0.00     0.020 A 
ATOM     79  C   UNL A   1      49.399  27.951  25.986  1.00  0.00     0.020 A 
ATOM     80  C   UNL A   1      50.123  27.123  26.845  1.00  0.00     0.054 A 
BRANCH  80  81
ATOM     81  S   UNL A   1      51.691  26.389  26.303  1.00  0.00     0.124 S 
ATOM     82  O   UNL A   1      51.595  26.501  24.851  1.00  0.00    -0.237 OA
ATOM     83  O   UNL A   1      52.681  27.254  26.942  1.00  0.00    -0.237 OA
ATOM     84  O   UNL A   1      51.633  25.028  26.832  1.00  0.00    -0.744 OA
ENDBRANCH  80  81
ENDBRANCH  52  75
BRANCH  64  85
ATOM     85  C   UNL A   1      45.711  34.013  30.976  1.00  0.00    -0.014 A 
ATOM     86  C   UNL A   1      46.178  34.000  32.303  1.00  0.00     0.010 A 
ATOM     87  C   UNL A   1      45.997  35.125  30.163  1.00  0.00     0.010 A 
ATOM     88  C   UNL A   1      46.866  35.100  32.822  1.00  0.00     0.020 A 
ATOM     89  C   UNL A   1      46.715  36.212  30.668  1.00  0.00     0.020 A 
ATOM     90  C   UNL A   1      47.126  36.201  32.002  1.00  0.00     0.054 A 
BRANCH  90  91
ATOM     91  S   UNL A   1      48.024  37.614  32.697  1.00  0.00     0.124 S 
ATOM     92  O   UNL A   1      48.128  38.505  31.545  1.00  0.00    -0.237 OA
ATOM     93  O   UNL A   1      47.135  38.067  33.763  1.00  0.00    -0.237 OA
ATOM     94  O   UNL A   1      49.286  37.034  33.151  1.00  0.00    -0.744 OA
ENDBRANCH  90  91
ENDBRANCH  64  85
ENDBRANCH  38  39
ENDBRANCH  30  33
ENDBRANCH  28  29
ENDBRANCH  27  28
ENDBRANCH  26  27
ENDBRANCH   1  26
TORSDOF 20
ENDMDL
