MODEL 1
REMARK VINA RESULT:     -11.4      0.000      0.000
REMARK SMILES Cc1n[nH]c(C(=O)N[C@H]2CC[C@@H](C(=O)NCCCCCCNC(=O)c3ccc(-c4c5nc(c(-c6ccc(S(=O)(=O)[O-])cc6)c6ccc([nH]6)c(-c6ccc(S(=O)(=O)[O-])cc6)c6nc(c(-c7ccc(S(=O)(=O)[O-])cc7)c7ccc4[nH]7)C=C6)C=C5)cc3)C2)n1
REMARK SMILES IDX 19 1 18 2 17 3 16 4 15 5 13 6 14 7 12 9 9 10 10 11 85 12
REMARK SMILES IDX 11 13 8 14 6 15 7 16 5 18 1 19 2 20 3 21 86 22 4 23 20 25
REMARK SMILES IDX 21 26 22 27 23 28 24 30 25 31 26 32 84 33 27 34 83 35 28 36
REMARK SMILES IDX 29 37 30 38 77 39 31 40 82 41 76 42 78 43 32 44 81 45 75 46
REMARK SMILES IDX 74 47 33 49 63 50 44 51 62 52 45 53 48 54 61 55 79 56 46 57
REMARK SMILES IDX 47 58 60 60 80 61 49 62 34 63 35 64 43 65 36 66 42 67 37 68
REMARK SMILES IDX 38 69 39 70 40 71 41 72 64 73 65 74 73 75 66 76 72 77 67 78
REMARK SMILES IDX 68 79 69 80 70 81 71 82 50 83 51 84 59 85 52 86 58 87 53 88
REMARK SMILES IDX 54 89 55 90 56 91 57 92
REMARK H PARENT 15 8 8 17 4 24 22 29 78 48 48 59
REMARK Flexibility Score: inf
ROOT
ATOM      1  C   UNL A   1      38.093  23.619  26.219  1.00  0.00     0.002 C 
ENDROOT
BRANCH   1   2
ATOM      2  C   UNL A   1      36.838  23.854  25.367  1.00  0.00     0.002 C 
BRANCH   2   3
ATOM      3  C   UNL A   1      35.474  23.742  26.057  1.00  0.00     0.021 C 
BRANCH   3   4
ATOM      4  C   UNL A   1      34.258  24.217  25.269  1.00  0.00     0.116 C 
BRANCH   4   5
ATOM      5  N   UNL A   1      33.254  24.893  26.060  1.00  0.00    -0.356 N 
ATOM      6  C   UNL A   1      32.959  26.210  26.209  1.00  0.00     0.223 C 
ATOM      7  O   UNL A   1      31.929  26.461  26.844  1.00  0.00    -0.275 OA
ATOM      8  H   UNL A   1      32.680  24.288  26.585  1.00  0.00     0.163 HD
BRANCH   6   9
ATOM      9  C   UNL A   1      33.888  27.341  25.736  1.00  0.00     0.080 C 
ATOM     10  C   UNL A   1      32.591  28.806  24.318  1.00  0.00     0.083 C 
ATOM     11  C   UNL A   1      32.816  29.571  25.623  1.00  0.00     0.026 C 
ATOM     12  C   UNL A   1      33.770  27.843  24.299  1.00  0.00     0.038 C 
ATOM     13  C   UNL A   1      33.620  28.636  26.540  1.00  0.00     0.015 C 
BRANCH  10  14
ATOM     14  N   UNL A   1      31.308  28.119  24.307  1.00  0.00    -0.347 N 
ATOM     15  C   UNL A   1      30.823  27.033  23.610  1.00  0.00     0.288 C 
ATOM     16  O   UNL A   1      29.653  26.737  23.865  1.00  0.00    -0.266 OA
ATOM     17  H   UNL A   1      30.650  28.511  24.925  1.00  0.00     0.164 HD
BRANCH  15  18
ATOM     18  C   UNL A   1      31.641  26.263  22.688  1.00  0.00     0.214 A 
ATOM     19  C   UNL A   1      33.492  23.377  21.759  1.00  0.00     0.092 C 
ATOM     20  C   UNL A   1      32.825  24.690  21.877  1.00  0.00     0.148 A 
ATOM     21  N   UNL A   1      33.001  25.678  20.997  1.00  0.00    -0.159 NA
ATOM     22  N   UNL A   1      31.987  25.002  22.912  1.00  0.00    -0.207 NA
ATOM     23  N   UNL A   1      32.226  26.641  21.515  1.00  0.00    -0.255 N 
ATOM     24  H   UNL A   1      32.095  27.523  21.097  1.00  0.00     0.192 HD
ENDBRANCH  15  18
ENDBRANCH  10  14
ENDBRANCH   6   9
ENDBRANCH   4   5
ENDBRANCH   3   4
ENDBRANCH   2   3
ENDBRANCH   1   2
BRANCH   1  25
ATOM     25  C   UNL A   1      38.807  22.270  26.079  1.00  0.00     0.021 C 
BRANCH  25  26
ATOM     26  C   UNL A   1      40.032  22.084  26.959  1.00  0.00     0.116 C 
BRANCH  26  27
ATOM     27  N   UNL A   1      41.273  21.852  26.214  1.00  0.00    -0.352 N 
ATOM     28  C   UNL A   1      42.155  22.796  25.718  1.00  0.00     0.251 C 
ATOM     29  H   UNL A   1      41.506  20.911  26.045  1.00  0.00     0.163 HD
ATOM     30  O   UNL A   1      42.933  22.515  24.803  1.00  0.00    -0.269 OA
BRANCH  28  31
ATOM     31  C   UNL A   1      42.164  24.144  26.313  1.00  0.00     0.039 A 
ATOM     32  C   UNL A   1      41.465  25.224  25.761  1.00  0.00     0.014 A 
ATOM     33  C   UNL A   1      42.891  24.304  27.485  1.00  0.00     0.014 A 
ATOM     34  C   UNL A   1      41.452  26.441  26.448  1.00  0.00     0.010 A 
ATOM     35  C   UNL A   1      42.695  25.412  28.259  1.00  0.00     0.010 A 
ATOM     36  C   UNL A   1      42.065  26.518  27.707  1.00  0.00    -0.014 A 
BRANCH  36  37
ATOM     37  C   UNL A   1      41.981  27.701  28.557  1.00  0.00     0.031 A 
ATOM     38  C   UNL A   1      43.113  28.650  28.374  1.00  0.00     0.074 A 
ATOM     39  C   UNL A   1      40.828  28.027  29.190  1.00  0.00     0.049 A 
ATOM     40  N   UNL A   1      44.015  28.987  29.234  1.00  0.00    -0.248 NA
ATOM     41  C   UNL A   1      43.374  29.160  27.013  1.00  0.00     0.031 C 
ATOM     42  C   UNL A   1      39.545  27.305  29.149  1.00  0.00     0.029 A 
ATOM     43  N   UNL A   1      40.498  29.150  29.882  1.00  0.00    -0.354 N 
ATOM     44  C   UNL A   1      44.799  29.946  28.598  1.00  0.00     0.074 A 
ATOM     45  C   UNL A   1      44.513  29.829  27.192  1.00  0.00     0.031 C 
ATOM     46  C   UNL A   1      38.546  28.123  29.546  1.00  0.00     0.029 A 
ATOM     47  C   UNL A   1      39.126  29.360  30.031  1.00  0.00     0.049 A 
ATOM     48  H   UNL A   1      41.173  29.766  30.247  1.00  0.00     0.167 HD
ATOM     49  C   UNL A   1      45.373  30.967  29.296  1.00  0.00     0.031 A 
ATOM     50  C   UNL A   1      38.509  30.484  30.485  1.00  0.00     0.031 A 
ATOM     51  C   UNL A   1      45.357  30.706  30.715  1.00  0.00     0.049 A 
ATOM     52  C   UNL A   1      39.536  31.261  31.218  1.00  0.00     0.074 A 
ATOM     53  C   UNL A   1      45.863  29.713  31.528  1.00  0.00     0.029 A 
ATOM     54  N   UNL A   1      44.376  31.335  31.445  1.00  0.00    -0.354 N 
ATOM     55  N   UNL A   1      40.114  30.834  32.306  1.00  0.00    -0.248 NA
ATOM     56  C   UNL A   1      40.270  32.276  30.477  1.00  0.00     0.031 C 
ATOM     57  C   UNL A   1      44.851  29.493  32.509  1.00  0.00     0.029 A 
ATOM     58  C   UNL A   1      43.824  30.415  32.298  1.00  0.00     0.049 A 
ATOM     59  H   UNL A   1      44.115  32.282  31.369  1.00  0.00     0.167 HD
ATOM     60  C   UNL A   1      41.450  31.178  32.154  1.00  0.00     0.074 A 
ATOM     61  C   UNL A   1      41.467  32.146  31.055  1.00  0.00     0.031 C 
ATOM     62  C   UNL A   1      42.441  30.433  32.729  1.00  0.00     0.031 A 
BRANCH  49  63
ATOM     63  C   UNL A   1      45.517  32.372  28.750  1.00  0.00    -0.014 A 
ATOM     64  C   UNL A   1      46.740  33.048  28.944  1.00  0.00     0.010 A 
ATOM     65  C   UNL A   1      44.425  33.150  28.314  1.00  0.00     0.010 A 
ATOM     66  C   UNL A   1      46.835  34.439  28.795  1.00  0.00     0.020 A 
ATOM     67  C   UNL A   1      44.520  34.529  28.118  1.00  0.00     0.020 A 
ATOM     68  C   UNL A   1      45.718  35.171  28.396  1.00  0.00     0.054 A 
BRANCH  68  69
ATOM     69  S   UNL A   1      45.819  36.974  28.308  1.00  0.00     0.124 S 
ATOM     70  O   UNL A   1      45.711  37.210  26.872  1.00  0.00    -0.237 OA
ATOM     71  O   UNL A   1      44.671  37.385  29.110  1.00  0.00    -0.237 OA
ATOM     72  O   UNL A   1      47.123  37.272  28.896  1.00  0.00    -0.744 OA
ENDBRANCH  68  69
ENDBRANCH  49  63
BRANCH  50  73
ATOM     73  C   UNL A   1      37.209  31.073  30.051  1.00  0.00    -0.014 A 
ATOM     74  C   UNL A   1      36.302  31.624  30.981  1.00  0.00     0.010 A 
ATOM     75  C   UNL A   1      36.984  31.354  28.687  1.00  0.00     0.010 A 
ATOM     76  C   UNL A   1      35.252  32.470  30.566  1.00  0.00     0.020 A 
ATOM     77  C   UNL A   1      35.940  32.190  28.267  1.00  0.00     0.020 A 
ATOM     78  C   UNL A   1      35.092  32.765  29.209  1.00  0.00     0.054 A 
BRANCH  78  79
ATOM     79  S   UNL A   1      33.854  33.995  28.688  1.00  0.00     0.124 S 
ATOM     80  O   UNL A   1      33.292  34.434  29.963  1.00  0.00    -0.237 OA
ATOM     81  O   UNL A   1      34.664  34.983  27.980  1.00  0.00    -0.237 OA
ATOM     82  O   UNL A   1      32.941  33.228  27.842  1.00  0.00    -0.744 OA
ENDBRANCH  78  79
ENDBRANCH  50  73
BRANCH  62  83
ATOM     83  C   UNL A   1      42.055  29.382  33.750  1.00  0.00    -0.014 A 
ATOM     84  C   UNL A   1      41.663  28.068  33.419  1.00  0.00     0.010 A 
ATOM     85  C   UNL A   1      42.284  29.690  35.101  1.00  0.00     0.010 A 
ATOM     86  C   UNL A   1      41.502  27.094  34.420  1.00  0.00     0.020 A 
ATOM     87  C   UNL A   1      42.142  28.723  36.098  1.00  0.00     0.020 A 
ATOM     88  C   UNL A   1      41.748  27.429  35.755  1.00  0.00     0.054 A 
BRANCH  88  89
ATOM     89  S   UNL A   1      41.614  26.155  37.042  1.00  0.00     0.124 S 
ATOM     90  O   UNL A   1      41.723  24.917  36.277  1.00  0.00    -0.237 OA
ATOM     91  O   UNL A   1      42.746  26.455  37.917  1.00  0.00    -0.237 OA
ATOM     92  O   UNL A   1      40.302  26.399  37.640  1.00  0.00    -0.744 OA
ENDBRANCH  88  89
ENDBRANCH  62  83
ENDBRANCH  36  37
ENDBRANCH  28  31
ENDBRANCH  26  27
ENDBRANCH  25  26
ENDBRANCH   1  25
TORSDOF 18
ENDMDL
MODEL 2
REMARK VINA RESULT:     -11.4      1.224      1.983
REMARK SMILES Cc1n[nH]c(C(=O)N[C@H]2CC[C@@H](C(=O)NCCCCCCNC(=O)c3ccc(-c4c5nc(c(-c6ccc(S(=O)(=O)[O-])cc6)c6ccc([nH]6)c(-c6ccc(S(=O)(=O)[O-])cc6)c6nc(c(-c7ccc(S(=O)(=O)[O-])cc7)c7ccc4[nH]7)C=C6)C=C5)cc3)C2)n1
REMARK SMILES IDX 19 1 18 2 17 3 16 4 15 5 13 6 14 7 12 9 9 10 10 11 85 12
REMARK SMILES IDX 11 13 8 14 6 15 7 16 5 18 1 19 2 20 3 21 86 22 4 23 20 25
REMARK SMILES IDX 21 26 22 27 23 28 24 30 25 31 26 32 84 33 27 34 83 35 28 36
REMARK SMILES IDX 29 37 30 38 77 39 31 40 82 41 76 42 78 43 32 44 81 45 75 46
REMARK SMILES IDX 74 47 33 49 63 50 44 51 62 52 45 53 48 54 61 55 79 56 46 57
REMARK SMILES IDX 47 58 60 60 80 61 49 62 34 63 35 64 43 65 36 66 42 67 37 68
REMARK SMILES IDX 38 69 39 70 40 71 41 72 64 73 65 74 73 75 66 76 72 77 67 78
REMARK SMILES IDX 68 79 69 80 70 81 71 82 50 83 51 84 59 85 52 86 58 87 53 88
REMARK SMILES IDX 54 89 55 90 56 91 57 92
REMARK H PARENT 15 8 8 17 4 24 22 29 78 48 48 59
REMARK Flexibility Score: inf
ROOT
ATOM      1  C   UNL A   1      38.318  23.156  26.119  1.00  0.00     0.002 C 
ENDROOT
BRANCH   1   2
ATOM      2  C   UNL A   1      37.070  23.206  25.227  1.00  0.00     0.002 C 
BRANCH   2   3
ATOM      3  C   UNL A   1      35.764  23.711  25.852  1.00  0.00     0.021 C 
BRANCH   3   4
ATOM      4  C   UNL A   1      34.967  24.738  25.055  1.00  0.00     0.116 C 
BRANCH   4   5
ATOM      5  N   UNL A   1      33.724  25.146  25.672  1.00  0.00    -0.356 N 
ATOM      6  C   UNL A   1      33.113  26.357  25.754  1.00  0.00     0.223 C 
ATOM      7  O   UNL A   1      31.968  26.350  26.218  1.00  0.00    -0.275 OA
ATOM      8  H   UNL A   1      33.232  24.415  26.111  1.00  0.00     0.163 HD
BRANCH   6   9
ATOM      9  C   UNL A   1      33.817  27.682  25.413  1.00  0.00     0.080 C 
ATOM     10  C   UNL A   1      32.350  28.934  23.957  1.00  0.00     0.083 C 
ATOM     11  C   UNL A   1      32.313  29.647  25.311  1.00  0.00     0.026 C 
ATOM     12  C   UNL A   1      33.702  28.236  23.996  1.00  0.00     0.038 C 
ATOM     13  C   UNL A   1      33.226  28.842  26.249  1.00  0.00     0.015 C 
BRANCH  10  14
ATOM     14  N   UNL A   1      31.244  28.000  23.807  1.00  0.00    -0.347 N 
ATOM     15  C   UNL A   1      29.927  28.148  23.426  1.00  0.00     0.288 C 
ATOM     16  O   UNL A   1      29.271  27.104  23.425  1.00  0.00    -0.266 OA
ATOM     17  H   UNL A   1      31.486  27.071  24.022  1.00  0.00     0.164 HD
BRANCH  15  18
ATOM     18  C   UNL A   1      29.370  29.424  23.006  1.00  0.00     0.214 A 
ATOM     19  C   UNL A   1      28.184  31.698  20.550  1.00  0.00     0.092 C 
ATOM     20  C   UNL A   1      28.630  30.987  21.765  1.00  0.00     0.148 A 
ATOM     21  N   UNL A   1      28.736  31.579  22.957  1.00  0.00    -0.159 NA
ATOM     22  N   UNL A   1      28.989  29.668  21.760  1.00  0.00    -0.207 NA
ATOM     23  N   UNL A   1      29.176  30.569  23.721  1.00  0.00    -0.255 N 
ATOM     24  H   UNL A   1      29.340  30.645  24.689  1.00  0.00     0.192 HD
ENDBRANCH  15  18
ENDBRANCH  10  14
ENDBRANCH   6   9
ENDBRANCH   4   5
ENDBRANCH   3   4
ENDBRANCH   2   3
ENDBRANCH   1   2
BRANCH   1  25
ATOM     25  C   UNL A   1      39.146  21.866  26.113  1.00  0.00     0.021 C 
BRANCH  25  26
ATOM     26  C   UNL A   1      40.449  21.922  26.892  1.00  0.00     0.116 C 
BRANCH  26  27
ATOM     27  N   UNL A   1      41.649  21.796  26.060  1.00  0.00    -0.352 N 
ATOM     28  C   UNL A   1      42.409  22.811  25.506  1.00  0.00     0.251 C 
ATOM     29  H   UNL A   1      41.950  20.878  25.872  1.00  0.00     0.163 HD
ATOM     30  O   UNL A   1      43.141  22.595  24.536  1.00  0.00    -0.269 OA
BRANCH  28  31
ATOM     31  C   UNL A   1      42.345  24.157  26.103  1.00  0.00     0.039 A 
ATOM     32  C   UNL A   1      41.510  25.168  25.613  1.00  0.00     0.014 A 
ATOM     33  C   UNL A   1      43.146  24.385  27.214  1.00  0.00     0.014 A 
ATOM     34  C   UNL A   1      41.444  26.381  26.304  1.00  0.00     0.010 A 
ATOM     35  C   UNL A   1      42.915  25.473  28.006  1.00  0.00     0.010 A 
ATOM     36  C   UNL A   1      42.146  26.516  27.510  1.00  0.00    -0.014 A 
BRANCH  36  37
ATOM     37  C   UNL A   1      42.024  27.690  28.369  1.00  0.00     0.031 A 
ATOM     38  C   UNL A   1      43.130  28.671  28.200  1.00  0.00     0.074 A 
ATOM     39  C   UNL A   1      40.859  27.978  28.998  1.00  0.00     0.049 A 
ATOM     40  N   UNL A   1      44.018  29.027  29.067  1.00  0.00    -0.248 NA
ATOM     41  C   UNL A   1      43.384  29.200  26.844  1.00  0.00     0.031 C 
ATOM     42  C   UNL A   1      39.597  27.221  28.946  1.00  0.00     0.029 A 
ATOM     43  N   UNL A   1      40.495  29.086  29.697  1.00  0.00    -0.354 N 
ATOM     44  C   UNL A   1      44.778  30.013  28.443  1.00  0.00     0.074 A 
ATOM     45  C   UNL A   1      44.503  29.899  27.034  1.00  0.00     0.031 C 
ATOM     46  C   UNL A   1      38.574  28.007  29.344  1.00  0.00     0.029 A 
ATOM     47  C   UNL A   1      39.117  29.257  29.841  1.00  0.00     0.049 A 
ATOM     48  H   UNL A   1      41.151  29.718  30.071  1.00  0.00     0.167 HD
ATOM     49  C   UNL A   1      45.320  31.044  29.151  1.00  0.00     0.031 A 
ATOM     50  C   UNL A   1      38.466  30.359  30.301  1.00  0.00     0.031 A 
ATOM     51  C   UNL A   1      45.304  30.770  30.568  1.00  0.00     0.049 A 
ATOM     52  C   UNL A   1      39.468  31.159  31.045  1.00  0.00     0.074 A 
ATOM     53  C   UNL A   1      45.834  29.786  31.376  1.00  0.00     0.029 A 
ATOM     54  N   UNL A   1      44.302  31.367  31.298  1.00  0.00    -0.354 N 
ATOM     55  N   UNL A   1      40.052  30.740  32.133  1.00  0.00    -0.248 NA
ATOM     56  C   UNL A   1      40.176  32.199  30.316  1.00  0.00     0.031 C 
ATOM     57  C   UNL A   1      44.824  29.530  32.350  1.00  0.00     0.029 A 
ATOM     58  C   UNL A   1      43.773  30.425  32.140  1.00  0.00     0.049 A 
ATOM     59  H   UNL A   1      44.015  32.306  31.228  1.00  0.00     0.167 HD
ATOM     60  C   UNL A   1      41.379  31.122  31.990  1.00  0.00     0.074 A 
ATOM     61  C   UNL A   1      41.374  32.099  30.899  1.00  0.00     0.031 C 
ATOM     62  C   UNL A   1      42.387  30.400  32.565  1.00  0.00     0.031 A 
BRANCH  49  63
ATOM     63  C   UNL A   1      45.428  32.456  28.617  1.00  0.00    -0.014 A 
ATOM     64  C   UNL A   1      46.570  33.216  28.946  1.00  0.00     0.010 A 
ATOM     65  C   UNL A   1      44.341  33.157  28.054  1.00  0.00     0.010 A 
ATOM     66  C   UNL A   1      46.584  34.610  28.800  1.00  0.00     0.020 A 
ATOM     67  C   UNL A   1      44.362  34.539  27.862  1.00  0.00     0.020 A 
ATOM     68  C   UNL A   1      45.472  35.263  28.271  1.00  0.00     0.054 A 
BRANCH  68  69
ATOM     69  S   UNL A   1      45.456  37.069  28.185  1.00  0.00     0.124 S 
ATOM     70  O   UNL A   1      45.501  37.300  26.744  1.00  0.00    -0.237 OA
ATOM     71  O   UNL A   1      44.196  37.397  28.843  1.00  0.00    -0.237 OA
ATOM     72  O   UNL A   1      46.658  37.456  28.920  1.00  0.00    -0.744 OA
ENDBRANCH  68  69
ENDBRANCH  49  63
BRANCH  50  73
ATOM     73  C   UNL A   1      37.152  30.915  29.865  1.00  0.00    -0.014 A 
ATOM     74  C   UNL A   1      36.303  31.592  30.765  1.00  0.00     0.010 A 
ATOM     75  C   UNL A   1      36.859  31.032  28.490  1.00  0.00     0.010 A 
ATOM     76  C   UNL A   1      35.243  32.401  30.303  1.00  0.00     0.020 A 
ATOM     77  C   UNL A   1      35.805  31.830  28.024  1.00  0.00     0.020 A 
ATOM     78  C   UNL A   1      35.014  32.531  28.931  1.00  0.00     0.054 A 
BRANCH  78  79
ATOM     79  S   UNL A   1      33.766  33.712  28.328  1.00  0.00     0.124 S 
ATOM     80  O   UNL A   1      34.559  34.604  27.486  1.00  0.00    -0.237 OA
ATOM     81  O   UNL A   1      32.824  32.848  27.621  1.00  0.00    -0.237 OA
ATOM     82  O   UNL A   1      33.245  34.318  29.552  1.00  0.00    -0.744 OA
ENDBRANCH  78  79
ENDBRANCH  50  73
BRANCH  62  83
ATOM     83  C   UNL A   1      42.026  29.331  33.575  1.00  0.00    -0.014 A 
ATOM     84  C   UNL A   1      42.043  27.948  33.299  1.00  0.00     0.010 A 
ATOM     85  C   UNL A   1      41.847  29.744  34.905  1.00  0.00     0.010 A 
ATOM     86  C   UNL A   1      41.880  27.008  34.333  1.00  0.00     0.020 A 
ATOM     87  C   UNL A   1      41.701  28.816  35.939  1.00  0.00     0.020 A 
ATOM     88  C   UNL A   1      41.715  27.451  35.648  1.00  0.00     0.054 A 
BRANCH  88  89
ATOM     89  S   UNL A   1      41.580  26.241  36.996  1.00  0.00     0.124 S 
ATOM     90  O   UNL A   1      42.861  26.383  37.680  1.00  0.00    -0.237 OA
ATOM     91  O   UNL A   1      40.413  26.711  37.740  1.00  0.00    -0.237 OA
ATOM     92  O   UNL A   1      41.387  24.967  36.303  1.00  0.00    -0.744 OA
ENDBRANCH  88  89
ENDBRANCH  62  83
ENDBRANCH  36  37
ENDBRANCH  28  31
ENDBRANCH  26  27
ENDBRANCH  25  26
ENDBRANCH   1  25
TORSDOF 18
ENDMDL
MODEL 3
REMARK VINA RESULT:     -11.3      2.005      2.917
REMARK SMILES Cc1n[nH]c(C(=O)N[C@H]2CC[C@@H](C(=O)NCCCCCCNC(=O)c3ccc(-c4c5nc(c(-c6ccc(S(=O)(=O)[O-])cc6)c6ccc([nH]6)c(-c6ccc(S(=O)(=O)[O-])cc6)c6nc(c(-c7ccc(S(=O)(=O)[O-])cc7)c7ccc4[nH]7)C=C6)C=C5)cc3)C2)n1
REMARK SMILES IDX 19 1 18 2 17 3 16 4 15 5 13 6 14 7 12 9 9 10 10 11 85 12
REMARK SMILES IDX 11 13 8 14 6 15 7 16 5 18 1 19 2 20 3 21 86 22 4 23 20 25
REMARK SMILES IDX 21 26 22 27 23 28 24 30 25 31 26 32 84 33 27 34 83 35 28 36
REMARK SMILES IDX 29 37 30 38 77 39 31 40 82 41 76 42 78 43 32 44 81 45 75 46
REMARK SMILES IDX 74 47 33 49 63 50 44 51 62 52 45 53 48 54 61 55 79 56 46 57
REMARK SMILES IDX 47 58 60 60 80 61 49 62 34 63 35 64 43 65 36 66 42 67 37 68
REMARK SMILES IDX 38 69 39 70 40 71 41 72 64 73 65 74 73 75 66 76 72 77 67 78
REMARK SMILES IDX 68 79 69 80 70 81 71 82 50 83 51 84 59 85 52 86 58 87 53 88
REMARK SMILES IDX 54 89 55 90 56 91 57 92
REMARK H PARENT 15 8 8 17 4 24 22 29 78 48 48 59
REMARK Flexibility Score: inf
ROOT
ATOM      1  C   UNL A   1      37.034  22.961  24.787  1.00  0.00     0.002 C 
ENDROOT
BRANCH   1   2
ATOM      2  C   UNL A   1      36.674  22.821  23.301  1.00  0.00     0.002 C 
BRANCH   2   3
ATOM      3  C   UNL A   1      35.319  23.369  22.839  1.00  0.00     0.021 C 
BRANCH   3   4
ATOM      4  C   UNL A   1      34.160  23.270  23.824  1.00  0.00     0.116 C 
BRANCH   4   5
ATOM      5  N   UNL A   1      33.962  24.447  24.641  1.00  0.00    -0.356 N 
ATOM      6  C   UNL A   1      32.853  24.951  25.242  1.00  0.00     0.223 C 
ATOM      7  O   UNL A   1      33.043  25.899  26.011  1.00  0.00    -0.275 OA
ATOM      8  H   UNL A   1      34.778  24.977  24.789  1.00  0.00     0.163 HD
BRANCH   6   9
ATOM      9  C   UNL A   1      31.426  24.475  24.917  1.00  0.00     0.080 C 
ATOM     10  C   UNL A   1      31.091  22.358  26.033  1.00  0.00     0.083 C 
ATOM     11  C   UNL A   1      30.253  23.381  26.804  1.00  0.00     0.026 C 
ATOM     12  C   UNL A   1      31.184  22.991  24.652  1.00  0.00     0.038 C 
ATOM     13  C   UNL A   1      30.481  24.735  26.114  1.00  0.00     0.015 C 
BRANCH  10  14
ATOM     14  N   UNL A   1      32.395  22.156  26.645  1.00  0.00    -0.347 N 
ATOM     15  C   UNL A   1      33.280  21.099  26.656  1.00  0.00     0.288 C 
ATOM     16  O   UNL A   1      34.310  21.296  27.307  1.00  0.00    -0.266 OA
ATOM     17  H   UNL A   1      32.712  22.935  27.156  1.00  0.00     0.164 HD
BRANCH  15  18
ATOM     18  C   UNL A   1      33.044  19.869  25.917  1.00  0.00     0.214 A 
ATOM     19  C   UNL A   1      32.572  18.028  22.917  1.00  0.00     0.092 C 
ATOM     20  C   UNL A   1      32.712  18.523  24.302  1.00  0.00     0.148 A 
ATOM     21  N   UNL A   1      32.466  17.767  25.374  1.00  0.00    -0.159 NA
ATOM     22  N   UNL A   1      33.085  19.806  24.593  1.00  0.00    -0.207 NA
ATOM     23  N   UNL A   1      32.710  18.628  26.372  1.00  0.00    -0.255 N 
ATOM     24  H   UNL A   1      32.652  18.391  27.326  1.00  0.00     0.192 HD
ENDBRANCH  15  18
ENDBRANCH  10  14
ENDBRANCH   6   9
ENDBRANCH   4   5
ENDBRANCH   3   4
ENDBRANCH   2   3
ENDBRANCH   1   2
BRANCH   1  25
ATOM     25  C   UNL A   1      37.966  21.907  25.396  1.00  0.00     0.021 C 
BRANCH  25  26
ATOM     26  C   UNL A   1      39.051  22.446  26.313  1.00  0.00     0.116 C 
BRANCH  26  27
ATOM     27  N   UNL A   1      40.384  21.897  26.047  1.00  0.00    -0.352 N 
ATOM     28  C   UNL A   1      41.569  22.591  25.876  1.00  0.00     0.251 C 
ATOM     29  H   UNL A   1      40.443  20.917  25.981  1.00  0.00     0.163 HD
ATOM     30  O   UNL A   1      42.525  22.075  25.291  1.00  0.00    -0.269 OA
BRANCH  28  31
ATOM     31  C   UNL A   1      41.681  23.956  26.421  1.00  0.00     0.039 A 
ATOM     32  C   UNL A   1      41.080  25.067  25.819  1.00  0.00     0.014 A 
ATOM     33  C   UNL A   1      42.404  24.100  27.598  1.00  0.00     0.014 A 
ATOM     34  C   UNL A   1      41.158  26.306  26.460  1.00  0.00     0.010 A 
ATOM     35  C   UNL A   1      42.290  25.249  28.327  1.00  0.00     0.010 A 
ATOM     36  C   UNL A   1      41.759  26.381  27.725  1.00  0.00    -0.014 A 
BRANCH  36  37
ATOM     37  C   UNL A   1      41.762  27.599  28.529  1.00  0.00     0.031 A 
ATOM     38  C   UNL A   1      42.921  28.492  28.258  1.00  0.00     0.074 A 
ATOM     39  C   UNL A   1      40.653  27.995  29.200  1.00  0.00     0.049 A 
ATOM     40  N   UNL A   1      43.874  28.824  29.062  1.00  0.00    -0.248 NA
ATOM     41  C   UNL A   1      43.138  28.938  26.867  1.00  0.00     0.031 C 
ATOM     42  C   UNL A   1      39.342  27.326  29.246  1.00  0.00     0.029 A 
ATOM     43  N   UNL A   1      40.400  29.157  29.860  1.00  0.00    -0.354 N 
ATOM     44  C   UNL A   1      44.665  29.725  28.353  1.00  0.00     0.074 A 
ATOM     45  C   UNL A   1      44.309  29.566  26.968  1.00  0.00     0.031 C 
ATOM     46  C   UNL A   1      38.396  28.199  29.655  1.00  0.00     0.029 A 
ATOM     47  C   UNL A   1      39.047  29.429  30.062  1.00  0.00     0.049 A 
ATOM     48  H   UNL A   1      41.115  29.758  30.169  1.00  0.00     0.167 HD
ATOM     49  C   UNL A   1      45.310  30.748  28.983  1.00  0.00     0.031 A 
ATOM     50  C   UNL A   1      38.495  30.594  30.498  1.00  0.00     0.031 A 
ATOM     51  C   UNL A   1      45.350  30.542  30.410  1.00  0.00     0.049 A 
ATOM     52  C   UNL A   1      39.586  31.356  31.152  1.00  0.00     0.074 A 
ATOM     53  C   UNL A   1      45.855  29.562  31.240  1.00  0.00     0.029 A 
ATOM     54  N   UNL A   1      44.430  31.239  31.158  1.00  0.00    -0.354 N 
ATOM     55  N   UNL A   1      40.197  30.948  32.230  1.00  0.00    -0.248 NA
ATOM     56  C   UNL A   1      40.323  32.310  30.339  1.00  0.00     0.031 C 
ATOM     57  C   UNL A   1      44.882  29.421  32.273  1.00  0.00     0.029 A 
ATOM     58  C   UNL A   1      43.883  30.376  32.071  1.00  0.00     0.049 A 
ATOM     59  H   UNL A   1      44.203  32.192  31.056  1.00  0.00     0.167 HD
ATOM     60  C   UNL A   1      41.537  31.230  32.003  1.00  0.00     0.074 A 
ATOM     61  C   UNL A   1      41.541  32.154  30.866  1.00  0.00     0.031 C 
ATOM     62  C   UNL A   1      42.523  30.467  32.563  1.00  0.00     0.031 A 
BRANCH  49  63
ATOM     63  C   UNL A   1      45.485  32.123  28.375  1.00  0.00    -0.014 A 
ATOM     64  C   UNL A   1      46.788  32.652  28.267  1.00  0.00     0.010 A 
ATOM     65  C   UNL A   1      44.417  33.022  28.173  1.00  0.00     0.010 A 
ATOM     66  C   UNL A   1      47.003  34.022  28.056  1.00  0.00     0.020 A 
ATOM     67  C   UNL A   1      44.621  34.379  27.917  1.00  0.00     0.020 A 
ATOM     68  C   UNL A   1      45.915  34.878  27.897  1.00  0.00     0.054 A 
BRANCH  68  69
ATOM     69  S   UNL A   1      46.197  36.656  27.733  1.00  0.00     0.124 S 
ATOM     70  O   UNL A   1      47.382  36.849  28.561  1.00  0.00    -0.237 OA
ATOM     71  O   UNL A   1      46.394  36.803  26.294  1.00  0.00    -0.237 OA
ATOM     72  O   UNL A   1      44.965  37.246  28.253  1.00  0.00    -0.744 OA
ENDBRANCH  68  69
ENDBRANCH  49  63
BRANCH  50  73
ATOM     73  C   UNL A   1      37.201  31.219  30.100  1.00  0.00    -0.014 A 
ATOM     74  C   UNL A   1      36.255  31.632  31.061  1.00  0.00     0.010 A 
ATOM     75  C   UNL A   1      37.017  31.674  28.777  1.00  0.00     0.010 A 
ATOM     76  C   UNL A   1      35.205  32.513  30.724  1.00  0.00     0.020 A 
ATOM     77  C   UNL A   1      35.973  32.546  28.434  1.00  0.00     0.020 A 
ATOM     78  C   UNL A   1      35.085  32.981  29.413  1.00  0.00     0.054 A 
BRANCH  78  79
ATOM     79  S   UNL A   1      33.845  34.254  29.015  1.00  0.00     0.124 S 
ATOM     80  O   UNL A   1      32.973  33.559  28.071  1.00  0.00    -0.237 OA
ATOM     81  O   UNL A   1      33.258  34.548  30.319  1.00  0.00    -0.237 OA
ATOM     82  O   UNL A   1      34.638  35.339  28.439  1.00  0.00    -0.744 OA
ENDBRANCH  78  79
ENDBRANCH  50  73
BRANCH  62  83
ATOM     83  C   UNL A   1      42.144  29.474  33.641  1.00  0.00    -0.014 A 
ATOM     84  C   UNL A   1      41.580  28.207  33.383  1.00  0.00     0.010 A 
ATOM     85  C   UNL A   1      42.554  29.767  34.952  1.00  0.00     0.010 A 
ATOM     86  C   UNL A   1      41.429  27.265  34.416  1.00  0.00     0.020 A 
ATOM     87  C   UNL A   1      42.422  28.829  35.979  1.00  0.00     0.020 A 
ATOM     88  C   UNL A   1      41.857  27.583  35.708  1.00  0.00     0.054 A 
BRANCH  88  89
ATOM     89  S   UNL A   1      41.733  26.342  37.029  1.00  0.00     0.124 S 
ATOM     90  O   UNL A   1      41.847  25.085  36.296  1.00  0.00    -0.237 OA
ATOM     91  O   UNL A   1      42.864  26.672  37.893  1.00  0.00    -0.237 OA
ATOM     92  O   UNL A   1      40.420  26.594  37.623  1.00  0.00    -0.744 OA
ENDBRANCH  88  89
ENDBRANCH  62  83
ENDBRANCH  36  37
ENDBRANCH  28  31
ENDBRANCH  26  27
ENDBRANCH  25  26
ENDBRANCH   1  25
TORSDOF 18
ENDMDL
