MODEL 1
REMARK VINA RESULT:      -9.8      0.000      0.000
REMARK SMILES Cc1oc2cc3c(cc2c1C)[C@H](C)[C@@H](CC(=O)N[C@H](CC1=c2ccccc2=NC1)C(=O)NCCCCCCNC(=O)c1ccc(-c2c4nc(c(-c5ccc(S(=O)(=O)[O-])cc5)c5ccc([nH]5)c(-c5ccc(S(=O)(=O)[O-])cc5)c5nc(c(-c6ccc(S(=O)(=O)[O-])cc6)c6ccc2[nH]6)C=C5)C=C4)cc1)C(=O)O3
REMARK SMILES IDX 35 1 34 2 33 3 32 4 30 5 31 6 19 8 18 9 16 10 17 11 15 13
REMARK SMILES IDX 14 14 1 15 2 16 3 17 10 18 4 19 9 20 11 21 5 22 8 23 6 24
REMARK SMILES IDX 7 25 104 26 12 27 102 28 13 29 103 30 20 31 21 32 22 33
REMARK SMILES IDX 29 34 23 35 27 36 28 37 24 38 26 39 25 40 36 41 37 42 38 43
REMARK SMILES IDX 39 44 40 45 41 47 42 48 43 49 101 50 44 51 100 52 45 53
REMARK SMILES IDX 46 54 47 55 94 56 48 57 99 58 93 59 95 60 49 61 98 62 92 63
REMARK SMILES IDX 91 64 50 66 80 67 61 68 79 69 62 70 65 71 78 72 96 73 63 74
REMARK SMILES IDX 64 75 77 77 97 78 66 79 51 80 52 81 60 82 53 83 59 84 54 85
REMARK SMILES IDX 55 86 56 87 57 88 58 89 81 90 82 91 90 92 83 93 89 94 84 95
REMARK SMILES IDX 85 96 86 97 87 98 88 99 67 100 68 101 76 102 69 103 75 104
REMARK SMILES IDX 70 105 71 106 72 107 73 108 74 109
REMARK H PARENT 32 7 18 12 39 46 95 65 65 76
REMARK Flexibility Score: inf
ROOT
ATOM      1  C   UNL A   1      46.916  29.368  28.791  1.00  0.00     0.002 C 
ENDROOT
BRANCH   1   2
ATOM      2  C   UNL A   1      45.731  28.399  28.798  1.00  0.00     0.021 C 
BRANCH   2   3
ATOM      3  C   UNL A   1      45.754  27.508  27.575  1.00  0.00     0.116 C 
BRANCH   3   4
ATOM      4  N   UNL A   1      44.481  27.605  26.860  1.00  0.00    -0.354 N 
ATOM      5  C   UNL A   1      43.503  26.656  26.694  1.00  0.00     0.242 C 
ATOM      6  O   UNL A   1      42.431  26.872  26.134  1.00  0.00    -0.273 OA
ATOM      7  H   UNL A   1      44.300  28.474  26.437  1.00  0.00     0.163 HD
BRANCH   5   8
ATOM      8  C   UNL A   1      43.761  25.283  27.134  1.00  0.00     0.175 C 
BRANCH   8   9
ATOM      9  N   UNL A   1      43.855  24.537  25.855  1.00  0.00    -0.344 N 
ATOM     10  C   UNL A   1      43.288  23.342  25.434  1.00  0.00     0.221 C 
ATOM     11  O   UNL A   1      43.544  23.028  24.265  1.00  0.00    -0.275 OA
ATOM     12  H   UNL A   1      44.426  24.971  25.180  1.00  0.00     0.164 HD
BRANCH  10  13
ATOM     13  C   UNL A   1      42.384  22.364  26.278  1.00  0.00     0.116 C 
BRANCH  13  14
ATOM     14  C   UNL A   1      40.842  22.331  26.033  1.00  0.00     0.116 C 
ATOM     15  C   UNL A   1      32.654  21.748  24.194  1.00  0.00     0.088 C 
ATOM     16  C   UNL A   1      34.016  22.088  24.658  1.00  0.00     0.105 A 
ATOM     17  O   UNL A   1      34.981  21.226  24.246  1.00  0.00    -0.461 OA
ATOM     18  C   UNL A   1      34.562  23.051  25.497  1.00  0.00    -0.002 A 
ATOM     19  C   UNL A   1      36.138  21.627  24.820  1.00  0.00     0.138 A 
ATOM     20  C   UNL A   1      35.983  22.828  25.500  1.00  0.00     0.024 A 
ATOM     21  C   UNL A   1      33.823  24.037  26.320  1.00  0.00     0.049 C 
ATOM     22  C   UNL A   1      37.295  20.882  24.820  1.00  0.00     0.095 A 
ATOM     23  C   UNL A   1      37.140  23.447  26.068  1.00  0.00     0.020 A 
ATOM     24  C   UNL A   1      38.334  21.441  25.561  1.00  0.00     0.138 A 
ATOM     25  C   UNL A   1      38.369  22.764  26.043  1.00  0.00    -0.001 A 
ATOM     26  O   UNL A   1      39.305  20.513  25.940  1.00  0.00    -0.426 OA
ATOM     27  C   UNL A   1      39.744  23.314  26.563  1.00  0.00     0.035 C 
ATOM     28  C   UNL A   1      40.295  21.089  26.709  1.00  0.00     0.315 C 
ATOM     29  C   UNL A   1      39.985  24.763  26.153  1.00  0.00     0.014 C 
ATOM     30  O   UNL A   1      40.616  20.679  27.817  1.00  0.00    -0.251 OA
ENDBRANCH  13  14
ENDBRANCH  10  13
ENDBRANCH   8   9
BRANCH   8  31
ATOM     31  C   UNL A   1      42.600  25.035  28.190  1.00  0.00     0.068 C 
BRANCH  31  32
ATOM     32  C   UNL A   1      42.009  26.214  29.030  1.00  0.00    -0.037 C 
ATOM     33  C   UNL A   1      40.877  26.944  29.069  1.00  0.00     0.001 A 
ATOM     34  C   UNL A   1      42.936  26.933  29.981  1.00  0.00     0.174 C 
ATOM     35  C   UNL A   1      39.474  26.909  28.763  1.00  0.00     0.010 A 
ATOM     36  C   UNL A   1      41.527  28.282  29.129  1.00  0.00     0.065 A 
ATOM     37  N   UNL A   1      42.702  28.357  29.679  1.00  0.00    -0.280 NA
ATOM     38  C   UNL A   1      38.851  27.985  28.256  1.00  0.00     0.001 A 
ATOM     39  C   UNL A   1      40.847  29.374  28.384  1.00  0.00     0.028 A 
ATOM     40  C   UNL A   1      39.597  29.182  27.935  1.00  0.00     0.002 A 
ENDBRANCH  31  32
ENDBRANCH   8  31
ENDBRANCH   5   8
ENDBRANCH   3   4
ENDBRANCH   2   3
ENDBRANCH   1   2
BRANCH   1  41
ATOM     41  C   UNL A   1      47.758  29.339  27.513  1.00  0.00     0.002 C 
BRANCH  41  42
ATOM     42  C   UNL A   1      48.204  30.710  27.004  1.00  0.00     0.021 C 
BRANCH  42  43
ATOM     43  C   UNL A   1      47.187  31.824  27.257  1.00  0.00     0.116 C 
BRANCH  43  44
ATOM     44  N   UNL A   1      46.243  32.005  26.171  1.00  0.00    -0.352 N 
ATOM     45  C   UNL A   1      44.910  32.367  26.248  1.00  0.00     0.251 C 
ATOM     46  H   UNL A   1      46.596  31.852  25.264  1.00  0.00     0.163 HD
ATOM     47  O   UNL A   1      44.215  32.446  25.264  1.00  0.00    -0.269 OA
BRANCH  45  48
ATOM     48  C   UNL A   1      44.357  32.589  27.602  1.00  0.00     0.039 A 
ATOM     49  C   UNL A   1      44.501  33.837  28.214  1.00  0.00     0.014 A 
ATOM     50  C   UNL A   1      43.852  31.491  28.300  1.00  0.00     0.014 A 
ATOM     51  C   UNL A   1      44.306  33.944  29.581  1.00  0.00     0.010 A 
ATOM     52  C   UNL A   1      43.596  31.618  29.661  1.00  0.00     0.010 A 
ATOM     53  C   UNL A   1      43.880  32.827  30.309  1.00  0.00    -0.014 A 
BRANCH  53  54
ATOM     54  C   UNL A   1      43.679  33.024  31.746  1.00  0.00     0.031 A 
ATOM     55  C   UNL A   1      42.263  33.302  32.110  1.00  0.00     0.074 A 
ATOM     56  C   UNL A   1      44.495  32.480  32.673  1.00  0.00     0.049 A 
ATOM     57  N   UNL A   1      41.380  32.354  32.215  1.00  0.00    -0.248 NA
ATOM     58  C   UNL A   1      41.697  34.650  32.087  1.00  0.00     0.031 C 
ATOM     59  C   UNL A   1      45.237  31.224  32.494  1.00  0.00     0.029 A 
ATOM     60  N   UNL A   1      44.654  32.778  34.001  1.00  0.00    -0.354 N 
ATOM     61  C   UNL A   1      40.140  32.958  32.225  1.00  0.00     0.074 A 
ATOM     62  C   UNL A   1      40.384  34.383  32.151  1.00  0.00     0.031 C 
ATOM     63  C   UNL A   1      45.584  30.754  33.711  1.00  0.00     0.029 A 
ATOM     64  C   UNL A   1      45.257  31.751  34.721  1.00  0.00     0.049 A 
ATOM     65  H   UNL A   1      44.371  33.631  34.405  1.00  0.00     0.167 HD
ATOM     66  C   UNL A   1      38.975  32.261  32.286  1.00  0.00     0.031 A 
ATOM     67  C   UNL A   1      45.041  31.505  36.043  1.00  0.00     0.031 A 
ATOM     68  C   UNL A   1      39.107  30.840  32.398  1.00  0.00     0.049 A 
ATOM     69  C   UNL A   1      43.624  30.976  35.995  1.00  0.00     0.074 A 
ATOM     70  C   UNL A   1      39.061  29.744  31.563  1.00  0.00     0.029 A 
ATOM     71  N   UNL A   1      39.424  30.318  33.630  1.00  0.00    -0.354 N 
ATOM     72  N   UNL A   1      43.259  29.767  35.658  1.00  0.00    -0.248 NA
ATOM     73  C   UNL A   1      42.539  31.960  35.984  1.00  0.00     0.031 C 
ATOM     74  C   UNL A   1      39.779  28.711  32.244  1.00  0.00     0.029 A 
ATOM     75  C   UNL A   1      40.275  29.262  33.426  1.00  0.00     0.049 A 
ATOM     76  H   UNL A   1      39.101  30.645  34.501  1.00  0.00     0.167 HD
ATOM     77  C   UNL A   1      41.984  29.901  35.102  1.00  0.00     0.074 A 
ATOM     78  C   UNL A   1      41.597  31.275  35.351  1.00  0.00     0.031 C 
ATOM     79  C   UNL A   1      41.385  28.960  34.312  1.00  0.00     0.031 A 
BRANCH  66  80
ATOM     80  C   UNL A   1      37.655  32.910  32.408  1.00  0.00    -0.014 A 
ATOM     81  C   UNL A   1      37.263  33.608  33.560  1.00  0.00     0.010 A 
ATOM     82  C   UNL A   1      36.825  32.920  31.274  1.00  0.00     0.010 A 
ATOM     83  C   UNL A   1      36.064  34.329  33.562  1.00  0.00     0.020 A 
ATOM     84  C   UNL A   1      35.633  33.641  31.271  1.00  0.00     0.020 A 
ATOM     85  C   UNL A   1      35.263  34.349  32.412  1.00  0.00     0.054 A 
BRANCH  85  86
ATOM     86  S   UNL A   1      33.756  35.357  32.403  1.00  0.00     0.124 S 
ATOM     87  O   UNL A   1      33.678  35.775  31.006  1.00  0.00    -0.237 OA
ATOM     88  O   UNL A   1      32.737  34.404  32.833  1.00  0.00    -0.237 OA
ATOM     89  O   UNL A   1      34.047  36.424  33.356  1.00  0.00    -0.744 OA
ENDBRANCH  85  86
ENDBRANCH  66  80
BRANCH  67  90
ATOM     90  C   UNL A   1      45.476  32.637  36.932  1.00  0.00    -0.014 A 
ATOM     91  C   UNL A   1      44.652  33.317  37.842  1.00  0.00     0.010 A 
ATOM     92  C   UNL A   1      46.806  33.098  36.788  1.00  0.00     0.010 A 
ATOM     93  C   UNL A   1      45.064  34.531  38.409  1.00  0.00     0.020 A 
ATOM     94  C   UNL A   1      47.235  34.291  37.372  1.00  0.00     0.020 A 
ATOM     95  C   UNL A   1      46.336  35.034  38.130  1.00  0.00     0.054 A 
BRANCH  95  96
ATOM     96  S   UNL A   1      46.774  36.696  38.704  1.00  0.00     0.124 S 
ATOM     97  O   UNL A   1      45.711  37.503  38.111  1.00  0.00    -0.237 OA
ATOM     98  O   UNL A   1      46.727  36.554  40.156  1.00  0.00    -0.237 OA
ATOM     99  O   UNL A   1      48.105  36.915  38.144  1.00  0.00    -0.744 OA
ENDBRANCH  95  96
ENDBRANCH  67  90
BRANCH  79 100
ATOM    100  C   UNL A   1      42.047  27.618  34.222  1.00  0.00    -0.014 A 
ATOM    101  C   UNL A   1      41.659  26.562  35.067  1.00  0.00     0.010 A 
ATOM    102  C   UNL A   1      43.157  27.438  33.381  1.00  0.00     0.010 A 
ATOM    103  C   UNL A   1      42.424  25.396  35.150  1.00  0.00     0.020 A 
ATOM    104  C   UNL A   1      43.914  26.264  33.441  1.00  0.00     0.020 A 
ATOM    105  C   UNL A   1      43.565  25.268  34.355  1.00  0.00     0.054 A 
BRANCH 105 106
ATOM    106  S   UNL A   1      44.614  23.805  34.572  1.00  0.00     0.124 S 
ATOM    107  O   UNL A   1      45.945  24.336  34.287  1.00  0.00    -0.237 OA
ATOM    108  O   UNL A   1      44.372  23.440  35.966  1.00  0.00    -0.237 OA
ATOM    109  O   UNL A   1      44.102  22.857  33.587  1.00  0.00    -0.744 OA
ENDBRANCH 105 106
ENDBRANCH  79 100
ENDBRANCH  53  54
ENDBRANCH  45  48
ENDBRANCH  43  44
ENDBRANCH  42  43
ENDBRANCH  41  42
ENDBRANCH   1  41
TORSDOF 21
ENDMDL
MODEL 2
REMARK VINA RESULT:      -9.8      4.348     10.399
REMARK SMILES Cc1oc2cc3c(cc2c1C)[C@H](C)[C@@H](CC(=O)N[C@H](CC1=c2ccccc2=NC1)C(=O)NCCCCCCNC(=O)c1ccc(-c2c4nc(c(-c5ccc(S(=O)(=O)[O-])cc5)c5ccc([nH]5)c(-c5ccc(S(=O)(=O)[O-])cc5)c5nc(c(-c6ccc(S(=O)(=O)[O-])cc6)c6ccc2[nH]6)C=C5)C=C4)cc1)C(=O)O3
REMARK SMILES IDX 35 1 34 2 33 3 32 4 30 5 31 6 19 8 18 9 16 10 17 11 15 13
REMARK SMILES IDX 14 14 1 15 2 16 3 17 10 18 4 19 9 20 11 21 5 22 8 23 6 24
REMARK SMILES IDX 7 25 104 26 12 27 102 28 13 29 103 30 20 31 21 32 22 33
REMARK SMILES IDX 29 34 23 35 27 36 28 37 24 38 26 39 25 40 36 41 37 42 38 43
REMARK SMILES IDX 39 44 40 45 41 47 42 48 43 49 101 50 44 51 100 52 45 53
REMARK SMILES IDX 46 54 47 55 94 56 48 57 99 58 93 59 95 60 49 61 98 62 92 63
REMARK SMILES IDX 91 64 50 66 80 67 61 68 79 69 62 70 65 71 78 72 96 73 63 74
REMARK SMILES IDX 64 75 77 77 97 78 66 79 51 80 52 81 60 82 53 83 59 84 54 85
REMARK SMILES IDX 55 86 56 87 57 88 58 89 81 90 82 91 90 92 83 93 89 94 84 95
REMARK SMILES IDX 85 96 86 97 87 98 88 99 67 100 68 101 76 102 69 103 75 104
REMARK SMILES IDX 70 105 71 106 72 107 73 108 74 109
REMARK H PARENT 32 7 18 12 39 46 95 65 65 76
REMARK Flexibility Score: inf
ROOT
ATOM      1  C   UNL A   1      46.878  29.541  31.259  1.00  0.00     0.002 C 
ENDROOT
BRANCH   1   2
ATOM      2  C   UNL A   1      48.197  29.312  30.517  1.00  0.00     0.021 C 
BRANCH   2   3
ATOM      3  C   UNL A   1      48.127  28.065  29.663  1.00  0.00     0.116 C 
BRANCH   3   4
ATOM      4  N   UNL A   1      49.404  27.352  29.711  1.00  0.00    -0.354 N 
ATOM      5  C   UNL A   1      49.954  26.490  28.795  1.00  0.00     0.242 C 
ATOM      6  O   UNL A   1      51.076  26.003  28.904  1.00  0.00    -0.273 OA
ATOM      7  H   UNL A   1      49.947  27.514  30.515  1.00  0.00     0.163 HD
BRANCH   5   8
ATOM      8  C   UNL A   1      49.145  26.051  27.655  1.00  0.00     0.175 C 
BRANCH   8   9
ATOM      9  N   UNL A   1      48.543  27.317  27.168  1.00  0.00    -0.344 N 
ATOM     10  C   UNL A   1      47.908  27.644  25.978  1.00  0.00     0.221 C 
ATOM     11  O   UNL A   1      47.476  28.802  25.920  1.00  0.00    -0.275 OA
ATOM     12  H   UNL A   1      48.607  28.062  27.808  1.00  0.00     0.164 HD
BRANCH  10  13
ATOM     13  C   UNL A   1      47.697  26.716  24.721  1.00  0.00     0.116 C 
BRANCH  13  14
ATOM     14  C   UNL A   1      48.756  26.717  23.574  1.00  0.00     0.116 C 
ATOM     15  C   UNL A   1      54.133  26.206  17.123  1.00  0.00     0.088 C 
ATOM     16  C   UNL A   1      53.400  26.439  18.387  1.00  0.00     0.105 A 
ATOM     17  O   UNL A   1      52.151  25.909  18.416  1.00  0.00    -0.461 OA
ATOM     18  C   UNL A   1      53.645  27.150  19.554  1.00  0.00    -0.002 A 
ATOM     19  C   UNL A   1      51.593  26.281  19.592  1.00  0.00     0.138 A 
ATOM     20  C   UNL A   1      52.506  26.938  20.406  1.00  0.00     0.024 A 
ATOM     21  C   UNL A   1      54.793  28.047  19.825  1.00  0.00     0.049 C 
ATOM     22  C   UNL A   1      50.260  26.124  19.894  1.00  0.00     0.095 A 
ATOM     23  C   UNL A   1      52.106  27.297  21.731  1.00  0.00     0.020 A 
ATOM     24  C   UNL A   1      49.883  26.674  21.117  1.00  0.00     0.138 A 
ATOM     25  C   UNL A   1      50.770  27.101  22.124  1.00  0.00    -0.001 A 
ATOM     26  O   UNL A   1      48.514  26.925  21.212  1.00  0.00    -0.426 OA
ATOM     27  C   UNL A   1      50.175  27.381  23.549  1.00  0.00     0.035 C 
ATOM     28  C   UNL A   1      48.181  27.510  22.417  1.00  0.00     0.315 C 
ATOM     29  C   UNL A   1      51.087  26.892  24.668  1.00  0.00     0.014 C 
ATOM     30  O   UNL A   1      47.570  28.567  22.509  1.00  0.00    -0.251 OA
ENDBRANCH  13  14
ENDBRANCH  10  13
ENDBRANCH   8   9
BRANCH   8  31
ATOM     31  C   UNL A   1      48.281  24.872  28.278  1.00  0.00     0.068 C 
BRANCH  31  32
ATOM     32  C   UNL A   1      46.719  24.930  28.278  1.00  0.00    -0.037 C 
ATOM     33  C   UNL A   1      45.720  24.973  29.181  1.00  0.00     0.001 A 
ATOM     34  C   UNL A   1      46.008  24.712  26.963  1.00  0.00     0.174 C 
ATOM     35  C   UNL A   1      45.395  25.384  30.519  1.00  0.00     0.010 A 
ATOM     36  C   UNL A   1      44.884  23.900  28.578  1.00  0.00     0.065 A 
ATOM     37  N   UNL A   1      44.970  23.718  27.293  1.00  0.00    -0.280 NA
ATOM     38  C   UNL A   1      44.591  24.638  31.294  1.00  0.00     0.001 A 
ATOM     39  C   UNL A   1      44.170  23.011  29.531  1.00  0.00     0.028 A 
ATOM     40  C   UNL A   1      44.095  23.363  30.825  1.00  0.00     0.002 A 
ENDBRANCH  31  32
ENDBRANCH   8  31
ENDBRANCH   5   8
ENDBRANCH   3   4
ENDBRANCH   2   3
ENDBRANCH   1   2
BRANCH   1  41
ATOM     41  C   UNL A   1      46.317  28.302  31.963  1.00  0.00     0.002 C 
BRANCH  41  42
ATOM     42  C   UNL A   1      47.182  27.761  33.102  1.00  0.00     0.021 C 
BRANCH  42  43
ATOM     43  C   UNL A   1      46.863  28.377  34.465  1.00  0.00     0.116 C 
BRANCH  43  44
ATOM     44  N   UNL A   1      46.569  27.394  35.490  1.00  0.00    -0.352 N 
ATOM     45  C   UNL A   1      45.332  26.937  35.907  1.00  0.00     0.251 C 
ATOM     46  H   UNL A   1      47.349  27.002  35.947  1.00  0.00     0.163 HD
ATOM     47  O   UNL A   1      45.219  26.139  36.806  1.00  0.00    -0.269 OA
BRANCH  45  48
ATOM     48  C   UNL A   1      44.147  27.522  35.242  1.00  0.00     0.039 A 
ATOM     49  C   UNL A   1      43.683  26.975  34.044  1.00  0.00     0.014 A 
ATOM     50  C   UNL A   1      43.626  28.714  35.747  1.00  0.00     0.014 A 
ATOM     51  C   UNL A   1      42.818  27.715  33.255  1.00  0.00     0.010 A 
ATOM     52  C   UNL A   1      42.708  29.427  34.981  1.00  0.00     0.010 A 
ATOM     53  C   UNL A   1      42.352  28.953  33.712  1.00  0.00    -0.014 A 
BRANCH  53  54
ATOM     54  C   UNL A   1      41.427  29.668  32.829  1.00  0.00     0.031 A 
ATOM     55  C   UNL A   1      42.112  30.551  31.847  1.00  0.00     0.074 A 
ATOM     56  C   UNL A   1      40.198  29.197  32.536  1.00  0.00     0.049 A 
ATOM     57  N   UNL A   1      42.640  30.084  30.754  1.00  0.00    -0.248 NA
ATOM     58  C   UNL A   1      42.499  31.924  32.162  1.00  0.00     0.031 C 
ATOM     59  C   UNL A   1      39.839  27.772  32.497  1.00  0.00     0.029 A 
ATOM     60  N   UNL A   1      39.108  29.831  31.998  1.00  0.00    -0.354 N 
ATOM     61  C   UNL A   1      43.465  31.070  30.253  1.00  0.00     0.074 A 
ATOM     62  C   UNL A   1      43.342  32.197  31.154  1.00  0.00     0.031 C 
ATOM     63  C   UNL A   1      38.712  27.632  31.768  1.00  0.00     0.029 A 
ATOM     64  C   UNL A   1      38.179  28.950  31.452  1.00  0.00     0.049 A 
ATOM     65  H   UNL A   1      38.994  30.810  31.998  1.00  0.00     0.167 HD
ATOM     66  C   UNL A   1      44.213  30.912  29.130  1.00  0.00     0.031 A 
ATOM     67  C   UNL A   1      37.352  29.247  30.411  1.00  0.00     0.031 A 
ATOM     68  C   UNL A   1      44.054  29.663  28.449  1.00  0.00     0.049 A 
ATOM     69  C   UNL A   1      38.350  29.293  29.275  1.00  0.00     0.074 A 
ATOM     70  C   UNL A   1      44.711  28.454  28.373  1.00  0.00     0.029 A 
ATOM     71  N   UNL A   1      42.936  29.495  27.666  1.00  0.00    -0.354 N 
ATOM     72  N   UNL A   1      38.856  28.264  28.646  1.00  0.00    -0.248 NA
ATOM     73  C   UNL A   1      39.082  30.546  29.072  1.00  0.00     0.031 C 
ATOM     74  C   UNL A   1      43.733  27.512  27.921  1.00  0.00     0.029 A 
ATOM     75  C   UNL A   1      42.522  28.196  27.810  1.00  0.00     0.049 A 
ATOM     76  H   UNL A   1      42.510  30.183  27.105  1.00  0.00     0.167 HD
ATOM     77  C   UNL A   1      40.126  28.670  28.226  1.00  0.00     0.074 A 
ATOM     78  C   UNL A   1      40.191  30.090  28.507  1.00  0.00     0.031 C 
ATOM     79  C   UNL A   1      41.121  27.813  27.847  1.00  0.00     0.031 A 
BRANCH  66  80
ATOM     80  C   UNL A   1      45.009  32.003  28.533  1.00  0.00    -0.014 A 
ATOM     81  C   UNL A   1      46.327  32.274  28.927  1.00  0.00     0.010 A 
ATOM     82  C   UNL A   1      44.449  32.704  27.451  1.00  0.00     0.010 A 
ATOM     83  C   UNL A   1      47.083  33.220  28.224  1.00  0.00     0.020 A 
ATOM     84  C   UNL A   1      45.200  33.641  26.746  1.00  0.00     0.020 A 
ATOM     85  C   UNL A   1      46.516  33.888  27.131  1.00  0.00     0.054 A 
BRANCH  85  86
ATOM     86  S   UNL A   1      47.535  35.047  26.179  1.00  0.00     0.124 S 
ATOM     87  O   UNL A   1      47.174  34.711  24.804  1.00  0.00    -0.237 OA
ATOM     88  O   UNL A   1      47.065  36.345  26.655  1.00  0.00    -0.237 OA
ATOM     89  O   UNL A   1      48.902  34.704  26.565  1.00  0.00    -0.744 OA
ENDBRANCH  85  86
ENDBRANCH  66  80
BRANCH  67  90
ATOM     90  C   UNL A   1      36.393  30.363  30.721  1.00  0.00    -0.014 A 
ATOM     91  C   UNL A   1      35.687  31.114  29.768  1.00  0.00     0.010 A 
ATOM     92  C   UNL A   1      36.243  30.729  32.079  1.00  0.00     0.010 A 
ATOM     93  C   UNL A   1      35.047  32.307  30.131  1.00  0.00     0.020 A 
ATOM     94  C   UNL A   1      35.582  31.900  32.454  1.00  0.00     0.020 A 
ATOM     95  C   UNL A   1      35.042  32.717  31.466  1.00  0.00     0.054 A 
BRANCH  95  96
ATOM     96  S   UNL A   1      34.391  34.355  31.885  1.00  0.00     0.124 S 
ATOM     97  O   UNL A   1      35.573  35.012  32.434  1.00  0.00    -0.237 OA
ATOM     98  O   UNL A   1      33.931  34.854  30.593  1.00  0.00    -0.237 OA
ATOM     99  O   UNL A   1      33.334  34.070  32.853  1.00  0.00    -0.744 OA
ENDBRANCH  95  96
ENDBRANCH  67  90
BRANCH  79 100
ATOM    100  C   UNL A   1      40.753  26.371  27.663  1.00  0.00    -0.014 A 
ATOM    101  C   UNL A   1      41.251  25.381  28.529  1.00  0.00     0.010 A 
ATOM    102  C   UNL A   1      40.013  25.975  26.537  1.00  0.00     0.010 A 
ATOM    103  C   UNL A   1      41.107  24.026  28.223  1.00  0.00     0.020 A 
ATOM    104  C   UNL A   1      39.843  24.620  26.237  1.00  0.00     0.020 A 
ATOM    105  C   UNL A   1      40.427  23.655  27.061  1.00  0.00     0.054 A 
BRANCH 105 106
ATOM    106  S   UNL A   1      40.363  21.899  26.615  1.00  0.00     0.124 S 
ATOM    107  O   UNL A   1      39.031  21.779  26.026  1.00  0.00    -0.237 OA
ATOM    108  O   UNL A   1      41.475  21.765  25.677  1.00  0.00    -0.237 OA
ATOM    109  O   UNL A   1      40.541  21.207  27.889  1.00  0.00    -0.744 OA
ENDBRANCH 105 106
ENDBRANCH  79 100
ENDBRANCH  53  54
ENDBRANCH  45  48
ENDBRANCH  43  44
ENDBRANCH  42  43
ENDBRANCH  41  42
ENDBRANCH   1  41
TORSDOF 21
ENDMDL
MODEL 3
REMARK VINA RESULT:      -9.6      5.061     12.156
REMARK SMILES Cc1oc2cc3c(cc2c1C)[C@H](C)[C@@H](CC(=O)N[C@H](CC1=c2ccccc2=NC1)C(=O)NCCCCCCNC(=O)c1ccc(-c2c4nc(c(-c5ccc(S(=O)(=O)[O-])cc5)c5ccc([nH]5)c(-c5ccc(S(=O)(=O)[O-])cc5)c5nc(c(-c6ccc(S(=O)(=O)[O-])cc6)c6ccc2[nH]6)C=C5)C=C4)cc1)C(=O)O3
REMARK SMILES IDX 35 1 34 2 33 3 32 4 30 5 31 6 19 8 18 9 16 10 17 11 15 13
REMARK SMILES IDX 14 14 1 15 2 16 3 17 10 18 4 19 9 20 11 21 5 22 8 23 6 24
REMARK SMILES IDX 7 25 104 26 12 27 102 28 13 29 103 30 20 31 21 32 22 33
REMARK SMILES IDX 29 34 23 35 27 36 28 37 24 38 26 39 25 40 36 41 37 42 38 43
REMARK SMILES IDX 39 44 40 45 41 47 42 48 43 49 101 50 44 51 100 52 45 53
REMARK SMILES IDX 46 54 47 55 94 56 48 57 99 58 93 59 95 60 49 61 98 62 92 63
REMARK SMILES IDX 91 64 50 66 80 67 61 68 79 69 62 70 65 71 78 72 96 73 63 74
REMARK SMILES IDX 64 75 77 77 97 78 66 79 51 80 52 81 60 82 53 83 59 84 54 85
REMARK SMILES IDX 55 86 56 87 57 88 58 89 81 90 82 91 90 92 83 93 89 94 84 95
REMARK SMILES IDX 85 96 86 97 87 98 88 99 67 100 68 101 76 102 69 103 75 104
REMARK SMILES IDX 70 105 71 106 72 107 73 108 74 109
REMARK H PARENT 32 7 18 12 39 46 95 65 65 76
REMARK Flexibility Score: inf
ROOT
ATOM      1  C   UNL A   1      47.232  30.117  34.493  1.00  0.00     0.002 C 
ENDROOT
BRANCH   1   2
ATOM      2  C   UNL A   1      48.532  29.702  33.801  1.00  0.00     0.021 C 
BRANCH   2   3
ATOM      3  C   UNL A   1      48.286  29.364  32.347  1.00  0.00     0.116 C 
BRANCH   3   4
ATOM      4  N   UNL A   1      49.188  30.137  31.493  1.00  0.00    -0.354 N 
ATOM      5  C   UNL A   1      49.904  29.734  30.393  1.00  0.00     0.242 C 
ATOM      6  O   UNL A   1      50.577  30.493  29.701  1.00  0.00    -0.273 OA
ATOM      7  H   UNL A   1      49.298  31.083  31.743  1.00  0.00     0.163 HD
BRANCH   5   8
ATOM      8  C   UNL A   1      49.944  28.310  30.053  1.00  0.00     0.175 C 
BRANCH   8   9
ATOM      9  N   UNL A   1      51.397  28.037  29.933  1.00  0.00    -0.344 N 
ATOM     10  C   UNL A   1      52.348  27.648  30.866  1.00  0.00     0.221 C 
ATOM     11  O   UNL A   1      53.482  27.461  30.407  1.00  0.00    -0.275 OA
ATOM     12  H   UNL A   1      51.752  28.154  29.022  1.00  0.00     0.164 HD
BRANCH  10  13
ATOM     13  C   UNL A   1      52.138  27.439  32.415  1.00  0.00     0.116 C 
BRANCH  13  14
ATOM     14  C   UNL A   1      52.109  25.993  33.003  1.00  0.00     0.116 C 
ATOM     15  C   UNL A   1      51.634  18.453  36.704  1.00  0.00     0.088 C 
ATOM     16  C   UNL A   1      51.930  19.659  35.901  1.00  0.00     0.105 A 
ATOM     17  O   UNL A   1      51.163  20.737  36.205  1.00  0.00    -0.461 OA
ATOM     18  C   UNL A   1      52.764  19.953  34.830  1.00  0.00    -0.002 A 
ATOM     19  C   UNL A   1      51.496  21.716  35.333  1.00  0.00     0.138 A 
ATOM     20  C   UNL A   1      52.575  21.349  34.539  1.00  0.00     0.024 A 
ATOM     21  C   UNL A   1      53.595  18.998  34.061  1.00  0.00     0.049 C 
ATOM     22  C   UNL A   1      50.785  22.884  35.180  1.00  0.00     0.095 A 
ATOM     23  C   UNL A   1      53.124  22.317  33.642  1.00  0.00     0.020 A 
ATOM     24  C   UNL A   1      51.246  23.703  34.151  1.00  0.00     0.138 A 
ATOM     25  C   UNL A   1      52.480  23.558  33.488  1.00  0.00    -0.001 A 
ATOM     26  O   UNL A   1      50.293  24.617  33.702  1.00  0.00    -0.426 OA
ATOM     27  C   UNL A   1      52.975  24.752  32.598  1.00  0.00     0.035 C 
ATOM     28  C   UNL A   1      50.766  25.381  32.655  1.00  0.00     0.315 C 
ATOM     29  C   UNL A   1      54.474  24.996  32.729  1.00  0.00     0.014 C 
ATOM     30  O   UNL A   1      50.198  25.473  31.574  1.00  0.00    -0.251 OA
ENDBRANCH  13  14
ENDBRANCH  10  13
ENDBRANCH   8   9
BRANCH   8  31
ATOM     31  C   UNL A   1      48.947  28.221  28.819  1.00  0.00     0.068 C 
BRANCH  31  32
ATOM     32  C   UNL A   1      49.383  27.549  27.477  1.00  0.00    -0.037 C 
ATOM     33  C   UNL A   1      48.907  27.418  26.223  1.00  0.00     0.001 A 
ATOM     34  C   UNL A   1      50.568  26.612  27.514  1.00  0.00     0.174 C 
ATOM     35  C   UNL A   1      48.067  28.044  25.241  1.00  0.00     0.010 A 
ATOM     36  C   UNL A   1      49.119  25.950  26.101  1.00  0.00     0.065 A 
ATOM     37  N   UNL A   1      50.088  25.421  26.789  1.00  0.00    -0.280 NA
ATOM     38  C   UNL A   1      47.270  27.310  24.446  1.00  0.00     0.001 A 
ATOM     39  C   UNL A   1      48.082  25.198  25.348  1.00  0.00     0.028 A 
ATOM     40  C   UNL A   1      47.184  25.877  24.615  1.00  0.00     0.002 A 
ENDBRANCH  31  32
ENDBRANCH   8  31
ENDBRANCH   5   8
ENDBRANCH   3   4
ENDBRANCH   2   3
ENDBRANCH   1   2
BRANCH   1  41
ATOM     41  C   UNL A   1      46.176  29.012  34.586  1.00  0.00     0.002 C 
BRANCH  41  42
ATOM     42  C   UNL A   1      46.162  28.242  35.906  1.00  0.00     0.021 C 
BRANCH  42  43
ATOM     43  C   UNL A   1      44.829  27.557  36.208  1.00  0.00     0.116 C 
BRANCH  43  44
ATOM     44  N   UNL A   1      44.963  26.155  36.556  1.00  0.00    -0.352 N 
ATOM     45  C   UNL A   1      45.196  25.083  35.712  1.00  0.00     0.251 C 
ATOM     46  H   UNL A   1      44.877  25.939  37.513  1.00  0.00     0.163 HD
ATOM     47  O   UNL A   1      45.248  23.950  36.125  1.00  0.00    -0.269 OA
BRANCH  45  48
ATOM     48  C   UNL A   1      45.315  25.385  34.269  1.00  0.00     0.039 A 
ATOM     49  C   UNL A   1      46.578  25.463  33.679  1.00  0.00     0.014 A 
ATOM     50  C   UNL A   1      44.163  25.750  33.572  1.00  0.00     0.014 A 
ATOM     51  C   UNL A   1      46.709  26.078  32.444  1.00  0.00     0.010 A 
ATOM     52  C   UNL A   1      44.291  26.310  32.305  1.00  0.00     0.010 A 
ATOM     53  C   UNL A   1      45.568  26.526  31.770  1.00  0.00    -0.014 A 
BRANCH  53  54
ATOM     54  C   UNL A   1      45.785  27.149  30.462  1.00  0.00     0.031 A 
ATOM     55  C   UNL A   1      45.676  26.191  29.328  1.00  0.00     0.074 A 
ATOM     56  C   UNL A   1      45.549  28.457  30.235  1.00  0.00     0.049 A 
ATOM     57  N   UNL A   1      44.525  25.818  28.850  1.00  0.00    -0.248 NA
ATOM     58  C   UNL A   1      46.806  25.386  28.869  1.00  0.00     0.031 C 
ATOM     59  C   UNL A   1      44.543  29.257  30.948  1.00  0.00     0.029 A 
ATOM     60  N   UNL A   1      45.958  29.269  29.209  1.00  0.00    -0.354 N 
ATOM     61  C   UNL A   1      44.757  24.706  28.066  1.00  0.00     0.074 A 
ATOM     62  C   UNL A   1      46.186  24.478  28.101  1.00  0.00     0.031 C 
ATOM     63  C   UNL A   1      44.263  30.352  30.209  1.00  0.00     0.029 A 
ATOM     64  C   UNL A   1      45.186  30.421  29.085  1.00  0.00     0.049 A 
ATOM     65  H   UNL A   1      46.719  29.059  28.620  1.00  0.00     0.167 HD
ATOM     66  C   UNL A   1      43.765  24.024  27.436  1.00  0.00     0.031 A 
ATOM     67  C   UNL A   1      44.968  31.081  27.915  1.00  0.00     0.031 A 
ATOM     68  C   UNL A   1      42.448  24.564  27.585  1.00  0.00     0.049 A 
ATOM     69  C   UNL A   1      44.061  30.097  27.209  1.00  0.00     0.074 A 
ATOM     70  C   UNL A   1      41.336  24.334  28.365  1.00  0.00     0.029 A 
ATOM     71  N   UNL A   1      42.111  25.658  26.822  1.00  0.00    -0.354 N 
ATOM     72  N   UNL A   1      42.780  29.938  27.417  1.00  0.00    -0.248 NA
ATOM     73  C   UNL A   1      44.698  28.993  26.486  1.00  0.00     0.031 C 
ATOM     74  C   UNL A   1      40.588  25.554  28.339  1.00  0.00     0.029 A 
ATOM     75  C   UNL A   1      41.326  26.475  27.595  1.00  0.00     0.049 A 
ATOM     76  H   UNL A   1      42.385  25.824  25.891  1.00  0.00     0.167 HD
ATOM     77  C   UNL A   1      42.518  28.596  27.128  1.00  0.00     0.074 A 
ATOM     78  C   UNL A   1      43.740  28.080  26.545  1.00  0.00     0.031 C 
ATOM     79  C   UNL A   1      41.401  27.924  27.540  1.00  0.00     0.031 A 
BRANCH  66  80
ATOM     80  C   UNL A   1      44.024  22.904  26.510  1.00  0.00    -0.014 A 
ATOM     81  C   UNL A   1      45.204  22.804  25.760  1.00  0.00     0.010 A 
ATOM     82  C   UNL A   1      43.095  21.850  26.485  1.00  0.00     0.010 A 
ATOM     83  C   UNL A   1      45.461  21.646  25.016  1.00  0.00     0.020 A 
ATOM     84  C   UNL A   1      43.349  20.694  25.750  1.00  0.00     0.020 A 
ATOM     85  C   UNL A   1      44.535  20.595  25.026  1.00  0.00     0.054 A 
BRANCH  85  86
ATOM     86  S   UNL A   1      44.920  19.070  24.125  1.00  0.00     0.124 S 
ATOM     87  O   UNL A   1      46.358  18.942  24.344  1.00  0.00    -0.237 OA
ATOM     88  O   UNL A   1      44.089  18.082  24.808  1.00  0.00    -0.237 OA
ATOM     89  O   UNL A   1      44.524  19.369  22.752  1.00  0.00    -0.744 OA
ENDBRANCH  85  86
ENDBRANCH  66  80
BRANCH  67  90
ATOM     90  C   UNL A   1      46.228  31.634  27.307  1.00  0.00    -0.014 A 
ATOM     91  C   UNL A   1      47.503  31.058  27.418  1.00  0.00     0.010 A 
ATOM     92  C   UNL A   1      46.129  32.870  26.626  1.00  0.00     0.010 A 
ATOM     93  C   UNL A   1      48.649  31.787  27.068  1.00  0.00     0.020 A 
ATOM     94  C   UNL A   1      47.263  33.591  26.247  1.00  0.00     0.020 A 
ATOM     95  C   UNL A   1      48.521  33.069  26.531  1.00  0.00     0.054 A 
BRANCH  95  96
ATOM     96  S   UNL A   1      50.009  34.072  26.276  1.00  0.00     0.124 S 
ATOM     97  O   UNL A   1      50.483  33.575  24.987  1.00  0.00    -0.237 OA
ATOM     98  O   UNL A   1      49.480  35.432  26.276  1.00  0.00    -0.237 OA
ATOM     99  O   UNL A   1      50.853  33.733  27.419  1.00  0.00    -0.744 OA
ENDBRANCH  95  96
ENDBRANCH  67  90
BRANCH  79 100
ATOM    100  C   UNL A   1      40.296  28.735  28.146  1.00  0.00    -0.014 A 
ATOM    101  C   UNL A   1      40.217  28.927  29.537  1.00  0.00     0.010 A 
ATOM    102  C   UNL A   1      39.246  29.203  27.338  1.00  0.00     0.010 A 
ATOM    103  C   UNL A   1      39.072  29.473  30.120  1.00  0.00     0.020 A 
ATOM    104  C   UNL A   1      38.106  29.774  27.913  1.00  0.00     0.020 A 
ATOM    105  C   UNL A   1      38.010  29.867  29.303  1.00  0.00     0.054 A 
BRANCH 105 106
ATOM    106  S   UNL A   1      36.483  30.453  30.086  1.00  0.00     0.124 S 
ATOM    107  O   UNL A   1      35.525  30.381  28.985  1.00  0.00    -0.237 OA
ATOM    108  O   UNL A   1      36.278  29.482  31.157  1.00  0.00    -0.237 OA
ATOM    109  O   UNL A   1      36.813  31.804  30.531  1.00  0.00    -0.744 OA
ENDBRANCH 105 106
ENDBRANCH  79 100
ENDBRANCH  53  54
ENDBRANCH  45  48
ENDBRANCH  43  44
ENDBRANCH  42  43
ENDBRANCH  41  42
ENDBRANCH   1  41
TORSDOF 21
ENDMDL
