MODEL 1
REMARK VINA RESULT:     -11.1      0.000      0.000
REMARK SMILES O=C(NCCCCCCNC(=O)[C@H]1C[C@@H](O)CN1C(=O)c1cc(F)c(F)cc1Cl)c1ccc(-c2c3nc(c(-c4ccc(S(=O)(=O)[O-])cc4)c4ccc([nH]4)c(-c4ccc(S(=O)(=O)[O-])cc4)c4nc(c(-c5ccc(S(=O)(=O)[O-])cc5)c5ccc2[nH]5)C=C4)C=C3)cc1
REMARK SMILES IDX 6 1 5 2 4 3 3 4 1 5 2 6 30 8 31 9 89 10 32 11 88 12 33 13
REMARK SMILES IDX 34 14 35 15 82 16 36 17 87 18 81 19 83 20 37 21 86 22 80 23
REMARK SMILES IDX 79 24 38 26 68 27 49 28 67 29 50 30 53 31 66 32 84 33 51 34
REMARK SMILES IDX 52 35 65 37 85 38 54 39 39 40 40 41 48 42 41 43 47 44 42 45
REMARK SMILES IDX 43 46 44 47 45 48 46 49 69 50 70 51 78 52 71 53 77 54 72 55
REMARK SMILES IDX 73 56 74 57 75 58 76 59 55 60 56 61 64 62 57 63 63 64 58 65
REMARK SMILES IDX 59 66 60 67 61 68 62 69 7 70 8 71 9 72 10 73 11 74 12 76
REMARK SMILES IDX 13 77 14 78 18 79 15 80 17 81 19 82 20 83 21 84 22 85 28 86
REMARK SMILES IDX 23 87 27 88 29 89 24 90 25 91 26 92 16 93
REMARK H PARENT 3 7 83 25 53 36 10 75 16 94
REMARK Flexibility Score: inf
ROOT
ATOM      1  C   UNL A   1      35.337  21.186  24.993  1.00  0.00     0.002 C 
ENDROOT
BRANCH   1   2
ATOM      2  C   UNL A   1      35.389  22.344  25.995  1.00  0.00     0.021 C 
BRANCH   2   3
ATOM      3  C   UNL A   1      36.654  23.194  25.900  1.00  0.00     0.116 C 
BRANCH   3   4
ATOM      4  N   UNL A   1      37.837  22.384  26.127  1.00  0.00    -0.352 N 
ATOM      5  O   UNL A   1      40.047  22.005  26.225  1.00  0.00    -0.269 OA
ATOM      6  C   UNL A   1      39.119  22.782  26.409  1.00  0.00     0.251 C 
ATOM      7  H   UNL A   1      37.700  21.412  26.070  1.00  0.00     0.163 HD
BRANCH   6   8
ATOM      8  C   UNL A   1      39.378  24.129  26.965  1.00  0.00     0.039 A 
ATOM      9  C   UNL A   1      40.051  25.067  26.175  1.00  0.00     0.014 A 
ATOM     10  C   UNL A   1      39.067  24.426  28.295  1.00  0.00     0.014 A 
ATOM     11  C   UNL A   1      40.422  26.296  26.722  1.00  0.00     0.010 A 
ATOM     12  C   UNL A   1      39.387  25.674  28.823  1.00  0.00     0.010 A 
ATOM     13  C   UNL A   1      40.103  26.603  28.053  1.00  0.00    -0.014 A 
BRANCH  13  14
ATOM     14  C   UNL A   1      40.605  27.840  28.700  1.00  0.00     0.031 A 
ATOM     15  C   UNL A   1      39.670  29.008  28.871  1.00  0.00     0.074 A 
ATOM     16  C   UNL A   1      41.887  27.930  29.101  1.00  0.00     0.049 A 
ATOM     17  N   UNL A   1      39.931  30.213  29.307  1.00  0.00    -0.248 NA
ATOM     18  C   UNL A   1      38.263  28.803  28.481  1.00  0.00     0.031 C 
ATOM     19  C   UNL A   1      42.881  26.861  28.991  1.00  0.00     0.029 A 
ATOM     20  N   UNL A   1      42.575  28.970  29.673  1.00  0.00    -0.354 N 
ATOM     21  C   UNL A   1      38.730  30.909  29.229  1.00  0.00     0.074 A 
ATOM     22  C   UNL A   1      37.749  30.011  28.664  1.00  0.00     0.031 C 
ATOM     23  C   UNL A   1      44.048  27.299  29.490  1.00  0.00     0.029 A 
ATOM     24  C   UNL A   1      43.899  28.690  29.914  1.00  0.00     0.049 A 
ATOM     25  H   UNL A   1      42.160  29.836  29.890  1.00  0.00     0.167 HD
ATOM     26  C   UNL A   1      38.467  32.177  29.616  1.00  0.00     0.031 A 
ATOM     27  C   UNL A   1      44.887  29.467  30.404  1.00  0.00     0.031 A 
ATOM     28  C   UNL A   1      39.440  33.049  30.217  1.00  0.00     0.049 A 
ATOM     29  C   UNL A   1      44.575  30.881  30.813  1.00  0.00     0.074 A 
ATOM     30  C   UNL A   1      39.254  34.337  30.686  1.00  0.00     0.029 A 
ATOM     31  N   UNL A   1      40.767  32.723  30.446  1.00  0.00    -0.354 N 
ATOM     32  N   UNL A   1      43.429  31.515  30.756  1.00  0.00    -0.248 NA
ATOM     33  C   UNL A   1      45.679  31.684  31.359  1.00  0.00     0.031 C 
ATOM     34  C   UNL A   1      40.482  34.812  31.145  1.00  0.00     0.029 A 
ATOM     35  C   UNL A   1      41.418  33.796  31.028  1.00  0.00     0.049 A 
ATOM     36  H   UNL A   1      41.184  31.859  30.227  1.00  0.00     0.167 HD
ATOM     37  C   UNL A   1      43.669  32.784  31.272  1.00  0.00     0.074 A 
ATOM     38  C   UNL A   1      45.065  32.825  31.652  1.00  0.00     0.031 C 
ATOM     39  C   UNL A   1      42.807  33.820  31.412  1.00  0.00     0.031 A 
BRANCH  26  40
ATOM     40  C   UNL A   1      37.071  32.711  29.440  1.00  0.00    -0.014 A 
ATOM     41  C   UNL A   1      36.694  33.284  28.211  1.00  0.00     0.010 A 
ATOM     42  C   UNL A   1      36.186  32.785  30.531  1.00  0.00     0.010 A 
ATOM     43  C   UNL A   1      35.478  33.963  28.088  1.00  0.00     0.020 A 
ATOM     44  C   UNL A   1      34.958  33.438  30.404  1.00  0.00     0.020 A 
ATOM     45  C   UNL A   1      34.626  34.049  29.192  1.00  0.00     0.054 A 
BRANCH  45  46
ATOM     46  S   UNL A   1      33.083  34.989  29.033  1.00  0.00     0.124 S 
ATOM     47  O   UNL A   1      33.563  36.300  28.609  1.00  0.00    -0.237 OA
ATOM     48  O   UNL A   1      32.348  34.229  28.024  1.00  0.00    -0.237 OA
ATOM     49  O   UNL A   1      32.510  34.936  30.377  1.00  0.00    -0.744 OA
ENDBRANCH  45  46
ENDBRANCH  26  40
BRANCH  27  50
ATOM     50  C   UNL A   1      46.257  28.898  30.540  1.00  0.00    -0.014 A 
ATOM     51  C   UNL A   1      46.604  28.146  31.679  1.00  0.00     0.010 A 
ATOM     52  C   UNL A   1      47.246  29.177  29.580  1.00  0.00     0.010 A 
ATOM     53  C   UNL A   1      47.922  27.733  31.884  1.00  0.00     0.020 A 
ATOM     54  C   UNL A   1      48.561  28.738  29.768  1.00  0.00     0.020 A 
ATOM     55  C   UNL A   1      48.897  28.047  30.933  1.00  0.00     0.054 A 
BRANCH  55  56
ATOM     56  S   UNL A   1      50.614  27.551  31.247  1.00  0.00     0.124 S 
ATOM     57  O   UNL A   1      50.910  28.270  32.483  1.00  0.00    -0.237 OA
ATOM     58  O   UNL A   1      50.510  26.100  31.374  1.00  0.00    -0.237 OA
ATOM     59  O   UNL A   1      51.327  28.021  30.063  1.00  0.00    -0.744 OA
ENDBRANCH  55  56
ENDBRANCH  27  50
BRANCH  39  60
ATOM     60  C   UNL A   1      43.316  35.109  32.002  1.00  0.00    -0.014 A 
ATOM     61  C   UNL A   1      43.014  35.427  33.340  1.00  0.00     0.010 A 
ATOM     62  C   UNL A   1      43.917  36.081  31.183  1.00  0.00     0.010 A 
ATOM     63  C   UNL A   1      43.252  36.712  33.833  1.00  0.00     0.020 A 
ATOM     64  C   UNL A   1      44.183  37.359  31.682  1.00  0.00     0.020 A 
ATOM     65  C   UNL A   1      43.818  37.675  32.993  1.00  0.00     0.054 A 
BRANCH  65  66
ATOM     66  S   UNL A   1      44.047  39.359  33.627  1.00  0.00     0.124 S 
ATOM     67  O   UNL A   1      44.904  39.958  32.609  1.00  0.00    -0.237 OA
ATOM     68  O   UNL A   1      42.680  39.871  33.680  1.00  0.00    -0.237 OA
ATOM     69  O   UNL A   1      44.676  39.152  34.931  1.00  0.00    -0.744 OA
ENDBRANCH  65  66
ENDBRANCH  39  60
ENDBRANCH  13  14
ENDBRANCH   6   8
ENDBRANCH   3   4
ENDBRANCH   2   3
ENDBRANCH   1   2
BRANCH   1  70
ATOM     70  C   UNL A   1      34.089  20.302  25.097  1.00  0.00     0.002 C 
BRANCH  70  71
ATOM     71  C   UNL A   1      32.923  20.748  24.206  1.00  0.00     0.021 C 
BRANCH  71  72
ATOM     72  C   UNL A   1      33.169  22.106  23.545  1.00  0.00     0.116 C 
BRANCH  72  73
ATOM     73  N   UNL A   1      31.919  22.644  23.059  1.00  0.00    -0.354 N 
ATOM     74  C   UNL A   1      31.439  23.909  23.180  1.00  0.00     0.242 C 
ATOM     75  H   UNL A   1      31.339  22.011  22.578  1.00  0.00     0.163 HD
ATOM     76  O   UNL A   1      30.236  24.068  22.936  1.00  0.00    -0.273 OA
BRANCH  74  77
ATOM     77  C   UNL A   1      32.344  25.101  23.610  1.00  0.00     0.177 C 
ATOM     78  C   UNL A   1      33.263  25.484  22.433  1.00  0.00     0.069 C 
ATOM     79  N   UNL A   1      31.634  26.361  23.890  1.00  0.00    -0.324 N 
ATOM     80  C   UNL A   1      32.438  26.500  21.643  1.00  0.00     0.136 C 
ATOM     81  C   UNL A   1      31.664  27.251  22.726  1.00  0.00     0.152 C 
BRANCH  79  82
ATOM     82  C   UNL A   1      31.399  26.785  25.193  1.00  0.00     0.256 C 
ATOM     83  O   UNL A   1      30.494  26.328  25.883  1.00  0.00    -0.269 OA
BRANCH  82  84
ATOM     84  C   UNL A   1      32.240  27.861  25.780  1.00  0.00     0.061 A 
ATOM     85  C   UNL A   1      31.663  29.120  26.002  1.00  0.00     0.057 A 
ATOM     86  C   UNL A   1      33.558  27.621  26.213  1.00  0.00     0.056 A 
ATOM     87  C   UNL A   1      32.415  30.133  26.586  1.00  0.00     0.159 A 
ATOM     88  C   UNL A   1      34.293  28.642  26.829  1.00  0.00     0.063 A 
ATOM     89  Cl  UNL A   1      34.373  26.114  25.983  1.00  0.00    -0.083 Cl
ATOM     90  F   UNL A   1      31.864  31.342  26.748  1.00  0.00    -0.204 F 
ATOM     91  C   UNL A   1      33.719  29.896  26.997  1.00  0.00     0.160 A 
ATOM     92  F   UNL A   1      34.438  30.878  27.557  1.00  0.00    -0.204 F 
ENDBRANCH  82  84
ENDBRANCH  79  82
BRANCH  80  93
ATOM     93  O   UNL A   1      31.545  25.898  20.710  1.00  0.00    -0.391 OA
ATOM     94  H   UNL A   1      31.222  26.573  20.093  1.00  0.00     0.211 HD
ENDBRANCH  80  93
ENDBRANCH  74  77
ENDBRANCH  72  73
ENDBRANCH  71  72
ENDBRANCH  70  71
ENDBRANCH   1  70
TORSDOF 19
ENDMDL
MODEL 2
REMARK VINA RESULT:     -10.9      3.200      9.442
REMARK SMILES O=C(NCCCCCCNC(=O)[C@H]1C[C@@H](O)CN1C(=O)c1cc(F)c(F)cc1Cl)c1ccc(-c2c3nc(c(-c4ccc(S(=O)(=O)[O-])cc4)c4ccc([nH]4)c(-c4ccc(S(=O)(=O)[O-])cc4)c4nc(c(-c5ccc(S(=O)(=O)[O-])cc5)c5ccc2[nH]5)C=C4)C=C3)cc1
REMARK SMILES IDX 6 1 5 2 4 3 3 4 1 5 2 6 30 8 31 9 89 10 32 11 88 12 33 13
REMARK SMILES IDX 34 14 35 15 82 16 36 17 87 18 81 19 83 20 37 21 86 22 80 23
REMARK SMILES IDX 79 24 38 26 68 27 49 28 67 29 50 30 53 31 66 32 84 33 51 34
REMARK SMILES IDX 52 35 65 37 85 38 54 39 39 40 40 41 48 42 41 43 47 44 42 45
REMARK SMILES IDX 43 46 44 47 45 48 46 49 69 50 70 51 78 52 71 53 77 54 72 55
REMARK SMILES IDX 73 56 74 57 75 58 76 59 55 60 56 61 64 62 57 63 63 64 58 65
REMARK SMILES IDX 59 66 60 67 61 68 62 69 7 70 8 71 9 72 10 73 11 74 12 76
REMARK SMILES IDX 13 77 14 78 18 79 15 80 17 81 19 82 20 83 21 84 22 85 28 86
REMARK SMILES IDX 23 87 27 88 29 89 24 90 25 91 26 92 16 93
REMARK H PARENT 3 7 83 25 53 36 10 75 16 94
REMARK Flexibility Score: inf
ROOT
ATOM      1  C   UNL A   1      31.898  28.331  25.085  1.00  0.00     0.002 C 
ENDROOT
BRANCH   1   2
ATOM      2  C   UNL A   1      32.107  28.209  26.598  1.00  0.00     0.021 C 
BRANCH   2   3
ATOM      3  C   UNL A   1      33.510  28.587  27.067  1.00  0.00     0.116 C 
BRANCH   3   4
ATOM      4  N   UNL A   1      33.600  30.013  27.326  1.00  0.00    -0.352 N 
ATOM      5  O   UNL A   1      34.268  31.829  28.461  1.00  0.00    -0.269 OA
ATOM      6  C   UNL A   1      34.531  30.703  28.059  1.00  0.00     0.251 C 
ATOM      7  H   UNL A   1      32.892  30.561  26.918  1.00  0.00     0.163 HD
BRANCH   6   8
ATOM      8  C   UNL A   1      35.858  30.109  28.332  1.00  0.00     0.039 A 
ATOM      9  C   UNL A   1      36.102  29.555  29.593  1.00  0.00     0.014 A 
ATOM     10  C   UNL A   1      36.891  30.202  27.395  1.00  0.00     0.014 A 
ATOM     11  C   UNL A   1      37.384  29.107  29.918  1.00  0.00     0.010 A 
ATOM     12  C   UNL A   1      38.155  29.703  27.700  1.00  0.00     0.010 A 
ATOM     13  C   UNL A   1      38.421  29.189  28.978  1.00  0.00    -0.014 A 
BRANCH  13  14
ATOM     14  C   UNL A   1      39.819  28.852  29.341  1.00  0.00     0.031 A 
ATOM     15  C   UNL A   1      40.381  27.517  28.928  1.00  0.00     0.074 A 
ATOM     16  C   UNL A   1      40.566  29.712  30.058  1.00  0.00     0.049 A 
ATOM     17  N   UNL A   1      41.533  26.979  29.234  1.00  0.00    -0.248 NA
ATOM     18  C   UNL A   1      39.530  26.666  28.076  1.00  0.00     0.031 C 
ATOM     19  C   UNL A   1      40.129  31.034  30.509  1.00  0.00     0.029 A 
ATOM     20  N   UNL A   1      41.846  29.599  30.540  1.00  0.00    -0.354 N 
ATOM     21  C   UNL A   1      41.536  25.728  28.628  1.00  0.00     0.074 A 
ATOM     22  C   UNL A   1      40.259  25.564  27.974  1.00  0.00     0.031 C 
ATOM     23  C   UNL A   1      41.128  31.613  31.193  1.00  0.00     0.029 A 
ATOM     24  C   UNL A   1      42.259  30.690  31.268  1.00  0.00     0.049 A 
ATOM     25  H   UNL A   1      42.414  28.812  30.380  1.00  0.00     0.167 HD
ATOM     26  C   UNL A   1      42.528  24.810  28.604  1.00  0.00     0.031 A 
ATOM     27  C   UNL A   1      43.410  30.918  31.935  1.00  0.00     0.031 A 
ATOM     28  C   UNL A   1      43.812  25.000  29.222  1.00  0.00     0.049 A 
ATOM     29  C   UNL A   1      44.493  29.874  31.908  1.00  0.00     0.074 A 
ATOM     30  C   UNL A   1      44.898  24.144  29.210  1.00  0.00     0.029 A 
ATOM     31  N   UNL A   1      44.189  26.120  29.945  1.00  0.00    -0.354 N 
ATOM     32  N   UNL A   1      44.490  28.707  31.310  1.00  0.00    -0.248 NA
ATOM     33  C   UNL A   1      45.736  30.173  32.633  1.00  0.00     0.031 C 
ATOM     34  C   UNL A   1      45.912  24.720  29.974  1.00  0.00     0.029 A 
ATOM     35  C   UNL A   1      45.484  25.966  30.404  1.00  0.00     0.049 A 
ATOM     36  H   UNL A   1      43.621  26.907  30.108  1.00  0.00     0.167 HD
ATOM     37  C   UNL A   1      45.732  28.140  31.573  1.00  0.00     0.074 A 
ATOM     38  C   UNL A   1      46.469  29.097  32.370  1.00  0.00     0.031 C 
ATOM     39  C   UNL A   1      46.212  26.932  31.189  1.00  0.00     0.031 A 
BRANCH  26  40
ATOM     40  C   UNL A   1      42.298  23.518  27.865  1.00  0.00    -0.014 A 
ATOM     41  C   UNL A   1      41.677  22.440  28.522  1.00  0.00     0.010 A 
ATOM     42  C   UNL A   1      42.831  23.321  26.578  1.00  0.00     0.010 A 
ATOM     43  C   UNL A   1      41.633  21.176  27.927  1.00  0.00     0.020 A 
ATOM     44  C   UNL A   1      42.764  22.066  25.968  1.00  0.00     0.020 A 
ATOM     45  C   UNL A   1      42.193  20.995  26.660  1.00  0.00     0.054 A 
BRANCH  45  46
ATOM     46  S   UNL A   1      42.187  19.334  25.931  1.00  0.00     0.124 S 
ATOM     47  O   UNL A   1      42.768  18.527  26.998  1.00  0.00    -0.237 OA
ATOM     48  O   UNL A   1      40.768  19.107  25.667  1.00  0.00    -0.237 OA
ATOM     49  O   UNL A   1      43.015  19.482  24.736  1.00  0.00    -0.744 OA
ENDBRANCH  45  46
ENDBRANCH  26  40
BRANCH  27  50
ATOM     50  C   UNL A   1      43.581  32.203  32.668  1.00  0.00    -0.014 A 
ATOM     51  C   UNL A   1      43.251  32.290  34.034  1.00  0.00     0.010 A 
ATOM     52  C   UNL A   1      43.987  33.365  31.990  1.00  0.00     0.010 A 
ATOM     53  C   UNL A   1      43.268  33.521  34.693  1.00  0.00     0.020 A 
ATOM     54  C   UNL A   1      44.036  34.595  32.655  1.00  0.00     0.020 A 
ATOM     55  C   UNL A   1      43.646  34.670  33.994  1.00  0.00     0.054 A 
BRANCH  55  56
ATOM     56  S   UNL A   1      43.607  36.267  34.853  1.00  0.00     0.124 S 
ATOM     57  O   UNL A   1      45.030  36.576  34.972  1.00  0.00    -0.237 OA
ATOM     58  O   UNL A   1      42.857  37.112  33.928  1.00  0.00    -0.237 OA
ATOM     59  O   UNL A   1      42.926  35.963  36.108  1.00  0.00    -0.744 OA
ENDBRANCH  55  56
ENDBRANCH  27  50
BRANCH  39  60
ATOM     60  C   UNL A   1      47.605  26.541  31.609  1.00  0.00    -0.014 A 
ATOM     61  C   UNL A   1      48.660  26.628  30.680  1.00  0.00     0.010 A 
ATOM     62  C   UNL A   1      47.827  25.911  32.845  1.00  0.00     0.010 A 
ATOM     63  C   UNL A   1      49.897  26.041  30.958  1.00  0.00     0.020 A 
ATOM     64  C   UNL A   1      49.073  25.348  33.137  1.00  0.00     0.020 A 
ATOM     65  C   UNL A   1      50.088  25.389  32.178  1.00  0.00     0.054 A 
BRANCH  65  66
ATOM     66  S   UNL A   1      51.674  24.566  32.488  1.00  0.00     0.124 S 
ATOM     67  O   UNL A   1      51.381  23.183  32.122  1.00  0.00    -0.237 OA
ATOM     68  O   UNL A   1      52.585  25.275  31.592  1.00  0.00    -0.237 OA
ATOM     69  O   UNL A   1      51.909  24.799  33.912  1.00  0.00    -0.744 OA
ENDBRANCH  65  66
ENDBRANCH  39  60
ENDBRANCH  13  14
ENDBRANCH   6   8
ENDBRANCH   3   4
ENDBRANCH   2   3
ENDBRANCH   1   2
BRANCH   1  70
ATOM     70  C   UNL A   1      33.131  27.995  24.237  1.00  0.00     0.002 C 
BRANCH  70  71
ATOM     71  C   UNL A   1      32.807  27.480  22.829  1.00  0.00     0.021 C 
BRANCH  71  72
ATOM     72  C   UNL A   1      32.181  26.084  22.839  1.00  0.00     0.116 C 
BRANCH  72  73
ATOM     73  N   UNL A   1      33.099  25.135  22.251  1.00  0.00    -0.354 N 
ATOM     74  C   UNL A   1      33.427  23.892  22.689  1.00  0.00     0.242 C 
ATOM     75  H   UNL A   1      33.545  25.429  21.424  1.00  0.00     0.163 HD
ATOM     76  O   UNL A   1      34.434  23.378  22.187  1.00  0.00    -0.273 OA
BRANCH  74  77
ATOM     77  C   UNL A   1      32.590  23.149  23.771  1.00  0.00     0.177 C 
ATOM     78  C   UNL A   1      31.234  22.738  23.165  1.00  0.00     0.069 C 
ATOM     79  N   UNL A   1      33.147  21.861  24.221  1.00  0.00    -0.324 N 
ATOM     80  C   UNL A   1      31.510  21.366  22.551  1.00  0.00     0.136 C 
ATOM     81  C   UNL A   1      32.521  20.741  23.512  1.00  0.00     0.152 C 
BRANCH  79  82
ATOM     82  C   UNL A   1      33.808  21.744  25.439  1.00  0.00     0.256 C 
ATOM     83  O   UNL A   1      33.214  21.578  26.499  1.00  0.00    -0.269 OA
BRANCH  82  84
ATOM     84  C   UNL A   1      35.288  21.863  25.487  1.00  0.00     0.061 A 
ATOM     85  C   UNL A   1      36.064  20.722  25.235  1.00  0.00     0.057 A 
ATOM     86  C   UNL A   1      35.929  23.104  25.673  1.00  0.00     0.056 A 
ATOM     87  C   UNL A   1      37.452  20.813  25.234  1.00  0.00     0.159 A 
ATOM     88  C   UNL A   1      37.326  23.186  25.638  1.00  0.00     0.063 A 
ATOM     89  Cl  UNL A   1      35.076  24.571  26.001  1.00  0.00    -0.083 Cl
ATOM     90  F   UNL A   1      38.177  19.706  25.037  1.00  0.00    -0.204 F 
ATOM     91  C   UNL A   1      38.077  22.036  25.433  1.00  0.00     0.160 A 
ATOM     92  F   UNL A   1      39.415  22.115  25.433  1.00  0.00    -0.204 F 
ENDBRANCH  82  84
ENDBRANCH  79  82
BRANCH  80  93
ATOM     93  O   UNL A   1      32.044  21.436  21.232  1.00  0.00    -0.391 OA
ATOM     94  H   UNL A   1      31.516  20.878  20.640  1.00  0.00     0.211 HD
ENDBRANCH  80  93
ENDBRANCH  74  77
ENDBRANCH  72  73
ENDBRANCH  71  72
ENDBRANCH  70  71
ENDBRANCH   1  70
TORSDOF 19
ENDMDL
MODEL 3
REMARK VINA RESULT:     -10.9      4.244      9.938
REMARK SMILES O=C(NCCCCCCNC(=O)[C@H]1C[C@@H](O)CN1C(=O)c1cc(F)c(F)cc1Cl)c1ccc(-c2c3nc(c(-c4ccc(S(=O)(=O)[O-])cc4)c4ccc([nH]4)c(-c4ccc(S(=O)(=O)[O-])cc4)c4nc(c(-c5ccc(S(=O)(=O)[O-])cc5)c5ccc2[nH]5)C=C4)C=C3)cc1
REMARK SMILES IDX 6 1 5 2 4 3 3 4 1 5 2 6 30 8 31 9 89 10 32 11 88 12 33 13
REMARK SMILES IDX 34 14 35 15 82 16 36 17 87 18 81 19 83 20 37 21 86 22 80 23
REMARK SMILES IDX 79 24 38 26 68 27 49 28 67 29 50 30 53 31 66 32 84 33 51 34
REMARK SMILES IDX 52 35 65 37 85 38 54 39 39 40 40 41 48 42 41 43 47 44 42 45
REMARK SMILES IDX 43 46 44 47 45 48 46 49 69 50 70 51 78 52 71 53 77 54 72 55
REMARK SMILES IDX 73 56 74 57 75 58 76 59 55 60 56 61 64 62 57 63 63 64 58 65
REMARK SMILES IDX 59 66 60 67 61 68 62 69 7 70 8 71 9 72 10 73 11 74 12 76
REMARK SMILES IDX 13 77 14 78 18 79 15 80 17 81 19 82 20 83 21 84 22 85 28 86
REMARK SMILES IDX 23 87 27 88 29 89 24 90 25 91 26 92 16 93
REMARK H PARENT 3 7 83 25 53 36 10 75 16 94
REMARK Flexibility Score: inf
ROOT
ATOM      1  C   UNL A   1      34.177  32.003  28.128  1.00  0.00     0.002 C 
ENDROOT
BRANCH   1   2
ATOM      2  C   UNL A   1      35.684  32.253  28.000  1.00  0.00     0.021 C 
BRANCH   2   3
ATOM      3  C   UNL A   1      36.384  32.535  29.327  1.00  0.00     0.116 C 
BRANCH   3   4
ATOM      4  N   UNL A   1      36.153  31.456  30.271  1.00  0.00    -0.352 N 
ATOM      5  O   UNL A   1      36.298  29.341  31.008  1.00  0.00    -0.269 OA
ATOM      6  C   UNL A   1      36.829  30.271  30.414  1.00  0.00     0.251 C 
ATOM      7  H   UNL A   1      35.406  31.595  30.895  1.00  0.00     0.163 HD
BRANCH   6   8
ATOM      8  C   UNL A   1      38.204  30.126  29.887  1.00  0.00     0.039 A 
ATOM      9  C   UNL A   1      38.380  29.892  28.519  1.00  0.00     0.014 A 
ATOM     10  C   UNL A   1      39.303  30.102  30.750  1.00  0.00     0.014 A 
ATOM     11  C   UNL A   1      39.656  29.621  28.020  1.00  0.00     0.010 A 
ATOM     12  C   UNL A   1      40.582  29.889  30.243  1.00  0.00     0.010 A 
ATOM     13  C   UNL A   1      40.763  29.607  28.881  1.00  0.00    -0.014 A 
BRANCH  13  14
ATOM     14  C   UNL A   1      42.104  29.187  28.405  1.00  0.00     0.031 A 
ATOM     15  C   UNL A   1      42.325  27.750  28.013  1.00  0.00     0.074 A 
ATOM     16  C   UNL A   1      43.118  30.070  28.354  1.00  0.00     0.049 A 
ATOM     17  N   UNL A   1      43.437  27.151  27.677  1.00  0.00    -0.248 NA
ATOM     18  C   UNL A   1      41.146  26.864  28.018  1.00  0.00     0.031 C 
ATOM     19  C   UNL A   1      43.020  31.487  28.705  1.00  0.00     0.029 A 
ATOM     20  N   UNL A   1      44.433  29.903  27.997  1.00  0.00    -0.354 N 
ATOM     21  C   UNL A   1      43.095  25.823  27.448  1.00  0.00     0.074 A 
ATOM     22  C   UNL A   1      41.684  25.689  27.724  1.00  0.00     0.031 C 
ATOM     23  C   UNL A   1      44.221  32.063  28.534  1.00  0.00     0.029 A 
ATOM     24  C   UNL A   1      45.184  31.050  28.106  1.00  0.00     0.049 A 
ATOM     25  H   UNL A   1      44.803  29.044  27.691  1.00  0.00     0.167 HD
ATOM     26  C   UNL A   1      43.887  24.813  27.024  1.00  0.00     0.031 A 
ATOM     27  C   UNL A   1      46.501  31.261  27.902  1.00  0.00     0.031 A 
ATOM     28  C   UNL A   1      45.282  24.966  26.710  1.00  0.00     0.049 A 
ATOM     29  C   UNL A   1      47.366  30.117  27.446  1.00  0.00     0.074 A 
ATOM     30  C   UNL A   1      46.156  24.008  26.227  1.00  0.00     0.029 A 
ATOM     31  N   UNL A   1      46.001  26.143  26.831  1.00  0.00    -0.354 N 
ATOM     32  N   UNL A   1      47.022  28.874  27.210  1.00  0.00    -0.248 NA
ATOM     33  C   UNL A   1      48.791  30.399  27.219  1.00  0.00     0.031 C 
ATOM     34  C   UNL A   1      47.417  24.592  26.112  1.00  0.00     0.029 A 
ATOM     35  C   UNL A   1      47.314  25.931  26.455  1.00  0.00     0.049 A 
ATOM     36  H   UNL A   1      45.633  27.003  27.139  1.00  0.00     0.167 HD
ATOM     37  C   UNL A   1      48.181  28.230  26.793  1.00  0.00     0.074 A 
ATOM     38  C   UNL A   1      49.235  29.223  26.792  1.00  0.00     0.031 C 
ATOM     39  C   UNL A   1      48.353  26.931  26.448  1.00  0.00     0.031 A 
BRANCH  26  40
ATOM     40  C   UNL A   1      43.279  23.449  26.837  1.00  0.00    -0.014 A 
ATOM     41  C   UNL A   1      43.127  22.595  27.945  1.00  0.00     0.010 A 
ATOM     42  C   UNL A   1      43.001  22.955  25.549  1.00  0.00     0.010 A 
ATOM     43  C   UNL A   1      42.754  21.260  27.767  1.00  0.00     0.020 A 
ATOM     44  C   UNL A   1      42.601  21.629  25.369  1.00  0.00     0.020 A 
ATOM     45  C   UNL A   1      42.510  20.782  26.477  1.00  0.00     0.054 A 
BRANCH  45  46
ATOM     46  S   UNL A   1      42.091  19.031  26.258  1.00  0.00     0.124 S 
ATOM     47  O   UNL A   1      43.065  18.604  25.260  1.00  0.00    -0.237 OA
ATOM     48  O   UNL A   1      42.282  18.487  27.601  1.00  0.00    -0.237 OA
ATOM     49  O   UNL A   1      40.702  19.066  25.804  1.00  0.00    -0.744 OA
ENDBRANCH  45  46
ENDBRANCH  26  40
BRANCH  27  50
ATOM     50  C   UNL A   1      47.059  32.625  28.121  1.00  0.00    -0.014 A 
ATOM     51  C   UNL A   1      47.498  33.015  29.400  1.00  0.00     0.010 A 
ATOM     52  C   UNL A   1      47.071  33.568  27.078  1.00  0.00     0.010 A 
ATOM     53  C   UNL A   1      47.886  34.333  29.648  1.00  0.00     0.020 A 
ATOM     54  C   UNL A   1      47.488  34.883  27.316  1.00  0.00     0.020 A 
ATOM     55  C   UNL A   1      47.863  35.264  28.605  1.00  0.00     0.054 A 
BRANCH  55  56
ATOM     56  S   UNL A   1      48.315  36.985  28.962  1.00  0.00     0.124 S 
ATOM     57  O   UNL A   1      49.628  37.085  28.329  1.00  0.00    -0.237 OA
ATOM     58  O   UNL A   1      47.246  37.739  28.313  1.00  0.00    -0.237 OA
ATOM     59  O   UNL A   1      48.318  37.042  30.421  1.00  0.00    -0.744 OA
ENDBRANCH  55  56
ENDBRANCH  27  50
BRANCH  39  60
ATOM     60  C   UNL A   1      49.724  26.469  26.029  1.00  0.00    -0.014 A 
ATOM     61  C   UNL A   1      50.624  25.994  27.002  1.00  0.00     0.010 A 
ATOM     62  C   UNL A   1      50.181  26.688  24.718  1.00  0.00     0.010 A 
ATOM     63  C   UNL A   1      51.970  25.799  26.686  1.00  0.00     0.020 A 
ATOM     64  C   UNL A   1      51.523  26.467  24.392  1.00  0.00     0.020 A 
ATOM     65  C   UNL A   1      52.414  26.056  25.386  1.00  0.00     0.054 A 
BRANCH  65  66
ATOM     66  S   UNL A   1      54.180  25.873  25.015  1.00  0.00     0.124 S 
ATOM     67  O   UNL A   1      54.351  24.423  25.037  1.00  0.00    -0.237 OA
ATOM     68  O   UNL A   1      54.299  26.502  23.702  1.00  0.00    -0.237 OA
ATOM     69  O   UNL A   1      54.835  26.596  26.104  1.00  0.00    -0.744 OA
ENDBRANCH  65  66
ENDBRANCH  39  60
ENDBRANCH  13  14
ENDBRANCH   6   8
ENDBRANCH   3   4
ENDBRANCH   2   3
ENDBRANCH   1   2
BRANCH   1  70
ATOM     70  C   UNL A   1      33.670  30.751  27.404  1.00  0.00     0.002 C 
BRANCH  70  71
ATOM     71  C   UNL A   1      34.691  29.609  27.327  1.00  0.00     0.021 C 
BRANCH  71  72
ATOM     72  C   UNL A   1      34.191  28.422  26.500  1.00  0.00     0.116 C 
BRANCH  72  73
ATOM     73  N   UNL A   1      32.933  27.954  27.033  1.00  0.00    -0.354 N 
ATOM     74  C   UNL A   1      32.064  27.061  26.490  1.00  0.00     0.242 C 
ATOM     75  H   UNL A   1      32.670  28.332  27.902  1.00  0.00     0.163 HD
ATOM     76  O   UNL A   1      30.930  27.026  26.984  1.00  0.00    -0.273 OA
BRANCH  74  77
ATOM     77  C   UNL A   1      32.464  26.133  25.306  1.00  0.00     0.177 C 
ATOM     78  C   UNL A   1      33.131  24.861  25.865  1.00  0.00     0.069 C 
ATOM     79  N   UNL A   1      31.338  25.591  24.525  1.00  0.00    -0.324 N 
ATOM     80  C   UNL A   1      31.958  23.912  26.109  1.00  0.00     0.136 C 
ATOM     81  C   UNL A   1      30.992  24.239  24.970  1.00  0.00     0.152 C 
BRANCH  79  82
ATOM     82  C   UNL A   1      31.001  26.115  23.281  1.00  0.00     0.256 C 
ATOM     83  O   UNL A   1      31.392  25.621  22.230  1.00  0.00    -0.269 OA
BRANCH  82  84
ATOM     84  C   UNL A   1      30.171  27.345  23.202  1.00  0.00     0.061 A 
ATOM     85  C   UNL A   1      28.786  27.236  23.395  1.00  0.00     0.057 A 
ATOM     86  C   UNL A   1      30.746  28.621  23.045  1.00  0.00     0.056 A 
ATOM     87  C   UNL A   1      27.990  28.376  23.366  1.00  0.00     0.159 A 
ATOM     88  C   UNL A   1      29.936  29.763  23.048  1.00  0.00     0.063 A 
ATOM     89  Cl  UNL A   1      32.437  28.874  22.789  1.00  0.00    -0.083 Cl
ATOM     90  F   UNL A   1      26.665  28.249  23.506  1.00  0.00    -0.204 F 
ATOM     91  C   UNL A   1      28.561  29.630  23.194  1.00  0.00     0.160 A 
ATOM     92  F   UNL A   1      27.787  30.723  23.165  1.00  0.00    -0.204 F 
ENDBRANCH  82  84
ENDBRANCH  79  82
BRANCH  80  93
ATOM     93  O   UNL A   1      31.331  24.103  27.374  1.00  0.00    -0.391 OA
ATOM     94  H   UNL A   1      31.200  25.051  27.529  1.00  0.00     0.211 HD
ENDBRANCH  80  93
ENDBRANCH  74  77
ENDBRANCH  72  73
ENDBRANCH  71  72
ENDBRANCH  70  71
ENDBRANCH   1  70
TORSDOF 19
ENDMDL
