MODEL 1
REMARK VINA RESULT:      -9.8      0.000      0.000
REMARK SMILES O=C(NCCCCCCNC(=O)c1ccn(-c2cc(-c3ccncc3)nc(-c3ccccc3F)n2)n1)c1ccc(-c2c3nc(c(-c4ccc(S(=O)(=O)[O-])cc4)c4ccc([nH]4)c(-c4ccc(S(=O)(=O)[O-])cc4)c4nc(c(-c5ccc(S(=O)(=O)[O-])cc5)c5ccc2[nH]5)C=C4)C=C3)cc1
REMARK SMILES IDX 6 1 5 2 4 3 3 4 1 5 2 6 37 8 38 9 96 10 39 11 95 12 40 13
REMARK SMILES IDX 41 14 42 15 89 16 43 17 94 18 88 19 90 20 44 21 93 22 87 23
REMARK SMILES IDX 86 24 45 26 75 27 56 28 74 29 57 30 60 31 73 32 91 33 58 34
REMARK SMILES IDX 59 35 72 37 92 38 61 39 46 40 47 41 55 42 48 43 54 44 49 45
REMARK SMILES IDX 50 46 51 47 52 48 53 49 76 50 77 51 85 52 78 53 84 54 79 55
REMARK SMILES IDX 80 56 81 57 82 58 83 59 62 60 63 61 71 62 64 63 70 64 65 65
REMARK SMILES IDX 66 66 67 67 68 68 69 69 7 70 8 71 9 72 10 73 11 74 12 76
REMARK SMILES IDX 13 77 14 78 36 79 15 80 16 81 17 82 18 83 35 84 19 85 27 86
REMARK SMILES IDX 26 87 20 88 21 89 25 90 22 91 24 92 23 93 28 94 29 95 33 96
REMARK SMILES IDX 30 97 32 98 34 99 31 100
REMARK H PARENT 3 7 90 25 60 36 10 75
REMARK Flexibility Score: inf
ROOT
ATOM      1  C   UNL A   1      35.693  32.928  33.674  1.00  0.00     0.002 C 
ENDROOT
BRANCH   1   2
ATOM      2  C   UNL A   1      37.152  32.503  33.457  1.00  0.00     0.021 C 
BRANCH   2   3
ATOM      3  C   UNL A   1      37.390  30.999  33.559  1.00  0.00     0.116 C 
BRANCH   3   4
ATOM      4  N   UNL A   1      37.989  30.585  34.810  1.00  0.00    -0.352 N 
ATOM      5  O   UNL A   1      39.395  29.987  36.401  1.00  0.00    -0.269 OA
ATOM      6  C   UNL A   1      39.235  30.174  35.191  1.00  0.00     0.251 C 
ATOM      7  H   UNL A   1      37.351  30.602  35.559  1.00  0.00     0.163 HD
BRANCH   6   8
ATOM      8  C   UNL A   1      40.365  29.880  34.266  1.00  0.00     0.039 A 
ATOM      9  C   UNL A   1      41.641  30.443  34.321  1.00  0.00     0.014 A 
ATOM     10  C   UNL A   1      40.091  28.940  33.254  1.00  0.00     0.014 A 
ATOM     11  C   UNL A   1      42.588  30.139  33.343  1.00  0.00     0.010 A 
ATOM     12  C   UNL A   1      41.036  28.623  32.285  1.00  0.00     0.010 A 
ATOM     13  C   UNL A   1      42.278  29.249  32.311  1.00  0.00    -0.014 A 
BRANCH  13  14
ATOM     14  C   UNL A   1      43.335  28.864  31.376  1.00  0.00     0.031 A 
ATOM     15  C   UNL A   1      43.586  29.850  30.281  1.00  0.00     0.074 A 
ATOM     16  C   UNL A   1      44.145  27.799  31.550  1.00  0.00     0.049 A 
ATOM     17  N   UNL A   1      43.489  29.673  29.004  1.00  0.00    -0.248 NA
ATOM     18  C   UNL A   1      43.884  31.240  30.668  1.00  0.00     0.031 C 
ATOM     19  C   UNL A   1      44.233  26.906  32.710  1.00  0.00     0.029 A 
ATOM     20  N   UNL A   1      45.155  27.352  30.750  1.00  0.00    -0.354 N 
ATOM     21  C   UNL A   1      43.878  30.875  28.413  1.00  0.00     0.074 A 
ATOM     22  C   UNL A   1      43.987  31.836  29.481  1.00  0.00     0.031 C 
ATOM     23  C   UNL A   1      45.379  26.187  32.637  1.00  0.00     0.029 A 
ATOM     24  C   UNL A   1      46.027  26.459  31.365  1.00  0.00     0.049 A 
ATOM     25  H   UNL A   1      45.259  27.639  29.814  1.00  0.00     0.167 HD
ATOM     26  C   UNL A   1      44.257  30.963  27.106  1.00  0.00     0.031 A 
ATOM     27  C   UNL A   1      47.220  26.018  30.883  1.00  0.00     0.031 A 
ATOM     28  C   UNL A   1      43.844  29.817  26.345  1.00  0.00     0.049 A 
ATOM     29  C   UNL A   1      47.214  26.244  29.419  1.00  0.00     0.074 A 
ATOM     30  C   UNL A   1      42.622  29.268  26.010  1.00  0.00     0.029 A 
ATOM     31  N   UNL A   1      44.772  28.827  26.131  1.00  0.00    -0.354 N 
ATOM     32  N   UNL A   1      46.415  25.619  28.601  1.00  0.00    -0.248 NA
ATOM     33  C   UNL A   1      47.775  27.487  28.917  1.00  0.00     0.031 C 
ATOM     34  C   UNL A   1      42.819  27.859  26.107  1.00  0.00     0.029 A 
ATOM     35  C   UNL A   1      44.160  27.633  26.420  1.00  0.00     0.049 A 
ATOM     36  H   UNL A   1      45.701  28.951  25.827  1.00  0.00     0.167 HD
ATOM     37  C   UNL A   1      46.030  26.581  27.678  1.00  0.00     0.074 A 
ATOM     38  C   UNL A   1      46.967  27.686  27.872  1.00  0.00     0.031 C 
ATOM     39  C   UNL A   1      44.830  26.504  27.032  1.00  0.00     0.031 A 
BRANCH  26  40
ATOM     40  C   UNL A   1      45.286  31.942  26.599  1.00  0.00    -0.014 A 
ATOM     41  C   UNL A   1      46.656  31.691  26.817  1.00  0.00     0.010 A 
ATOM     42  C   UNL A   1      44.938  33.231  26.141  1.00  0.00     0.010 A 
ATOM     43  C   UNL A   1      47.620  32.692  26.628  1.00  0.00     0.020 A 
ATOM     44  C   UNL A   1      45.894  34.222  25.910  1.00  0.00     0.020 A 
ATOM     45  C   UNL A   1      47.228  33.956  26.182  1.00  0.00     0.054 A 
BRANCH  45  46
ATOM     46  S   UNL A   1      48.467  35.267  26.022  1.00  0.00     0.124 S 
ATOM     47  O   UNL A   1      47.658  36.397  25.577  1.00  0.00    -0.237 OA
ATOM     48  O   UNL A   1      48.994  35.362  27.381  1.00  0.00    -0.237 OA
ATOM     49  O   UNL A   1      49.402  34.736  25.032  1.00  0.00    -0.744 OA
ENDBRANCH  45  46
ENDBRANCH  26  40
BRANCH  27  50
ATOM     50  C   UNL A   1      48.475  25.744  31.633  1.00  0.00    -0.014 A 
ATOM     51  C   UNL A   1      48.470  25.553  33.030  1.00  0.00     0.010 A 
ATOM     52  C   UNL A   1      49.639  25.372  30.929  1.00  0.00     0.010 A 
ATOM     53  C   UNL A   1      49.565  24.958  33.685  1.00  0.00     0.020 A 
ATOM     54  C   UNL A   1      50.732  24.782  31.575  1.00  0.00     0.020 A 
ATOM     55  C   UNL A   1      50.681  24.555  32.949  1.00  0.00     0.054 A 
BRANCH  55  56
ATOM     56  S   UNL A   1      52.011  23.620  33.768  1.00  0.00     0.124 S 
ATOM     57  O   UNL A   1      52.382  22.645  32.747  1.00  0.00    -0.237 OA
ATOM     58  O   UNL A   1      53.004  24.655  34.044  1.00  0.00    -0.237 OA
ATOM     59  O   UNL A   1      51.361  23.060  34.951  1.00  0.00    -0.744 OA
ENDBRANCH  55  56
ENDBRANCH  27  50
BRANCH  39  60
ATOM     60  C   UNL A   1      44.026  25.226  27.154  1.00  0.00    -0.014 A 
ATOM     61  C   UNL A   1      43.004  25.028  28.106  1.00  0.00     0.010 A 
ATOM     62  C   UNL A   1      44.214  24.243  26.167  1.00  0.00     0.010 A 
ATOM     63  C   UNL A   1      42.213  23.867  28.082  1.00  0.00     0.020 A 
ATOM     64  C   UNL A   1      43.420  23.096  26.126  1.00  0.00     0.020 A 
ATOM     65  C   UNL A   1      42.428  22.907  27.089  1.00  0.00     0.054 A 
BRANCH  65  66
ATOM     66  S   UNL A   1      41.377  21.428  27.031  1.00  0.00     0.124 S 
ATOM     67  O   UNL A   1      40.188  21.853  27.766  1.00  0.00    -0.237 OA
ATOM     68  O   UNL A   1      41.189  21.217  25.597  1.00  0.00    -0.237 OA
ATOM     69  O   UNL A   1      42.181  20.403  27.697  1.00  0.00    -0.744 OA
ENDBRANCH  65  66
ENDBRANCH  39  60
ENDBRANCH  13  14
ENDBRANCH   6   8
ENDBRANCH   3   4
ENDBRANCH   2   3
ENDBRANCH   1   2
BRANCH   1  70
ATOM     70  C   UNL A   1      35.494  34.220  34.477  1.00  0.00     0.002 C 
BRANCH  70  71
ATOM     71  C   UNL A   1      34.668  35.307  33.778  1.00  0.00     0.021 C 
BRANCH  71  72
ATOM     72  C   UNL A   1      34.991  35.490  32.296  1.00  0.00     0.116 C 
BRANCH  72  73
ATOM     73  N   UNL A   1      33.777  35.664  31.521  1.00  0.00    -0.351 N 
ATOM     74  C   UNL A   1      33.562  35.326  30.212  1.00  0.00     0.271 C 
ATOM     75  H   UNL A   1      33.016  36.073  31.993  1.00  0.00     0.163 HD
ATOM     76  O   UNL A   1      32.564  35.770  29.631  1.00  0.00    -0.267 OA
BRANCH  74  77
ATOM     77  C   UNL A   1      34.498  34.406  29.566  1.00  0.00     0.150 A 
ATOM     78  C   UNL A   1      34.595  34.137  28.175  1.00  0.00     0.056 A 
ATOM     79  N   UNL A   1      35.417  33.709  30.259  1.00  0.00    -0.161 NA
ATOM     80  C   UNL A   1      35.719  33.362  28.041  1.00  0.00     0.118 A 
ATOM     81  N   UNL A   1      36.215  33.165  29.306  1.00  0.00    -0.222 N 
BRANCH  81  82
ATOM     82  C   UNL A   1      37.428  32.506  29.633  1.00  0.00     0.158 A 
ATOM     83  C   UNL A   1      37.509  31.142  29.458  1.00  0.00     0.078 A 
ATOM     84  N   UNL A   1      38.450  33.254  30.102  1.00  0.00    -0.209 NA
ATOM     85  C   UNL A   1      38.730  30.569  29.744  1.00  0.00     0.077 A 
ATOM     86  C   UNL A   1      39.564  32.588  30.445  1.00  0.00     0.165 A 
ATOM     87  N   UNL A   1      39.755  31.266  30.281  1.00  0.00    -0.228 NA
BRANCH  85  88
ATOM     88  C   UNL A   1      39.001  29.167  29.423  1.00  0.00     0.003 A 
ATOM     89  C   UNL A   1      38.427  28.140  30.184  1.00  0.00     0.030 A 
ATOM     90  C   UNL A   1      39.842  28.810  28.366  1.00  0.00     0.030 A 
ATOM     91  C   UNL A   1      38.727  26.824  29.872  1.00  0.00     0.111 A 
ATOM     92  C   UNL A   1      40.087  27.465  28.138  1.00  0.00     0.111 A 
ATOM     93  N   UNL A   1      39.553  26.464  28.869  1.00  0.00    -0.265 NA
ENDBRANCH  85  88
BRANCH  86  94
ATOM     94  C   UNL A   1      40.577  33.349  31.163  1.00  0.00     0.055 A 
ATOM     95  C   UNL A   1      40.664  33.284  32.567  1.00  0.00     0.015 A 
ATOM     96  C   UNL A   1      41.470  34.186  30.492  1.00  0.00     0.134 A 
ATOM     97  C   UNL A   1      41.618  34.028  33.267  1.00  0.00     0.001 A 
ATOM     98  C   UNL A   1      42.419  34.941  31.185  1.00  0.00     0.040 A 
ATOM     99  F   UNL A   1      41.414  34.310  29.157  1.00  0.00    -0.206 F 
ATOM    100  C   UNL A   1      42.494  34.859  32.574  1.00  0.00     0.003 A 
ENDBRANCH  86  94
ENDBRANCH  81  82
ENDBRANCH  74  77
ENDBRANCH  72  73
ENDBRANCH  71  72
ENDBRANCH  70  71
ENDBRANCH   1  70
TORSDOF 19
ENDMDL
MODEL 2
REMARK VINA RESULT:      -9.8      4.559     10.756
REMARK SMILES O=C(NCCCCCCNC(=O)c1ccn(-c2cc(-c3ccncc3)nc(-c3ccccc3F)n2)n1)c1ccc(-c2c3nc(c(-c4ccc(S(=O)(=O)[O-])cc4)c4ccc([nH]4)c(-c4ccc(S(=O)(=O)[O-])cc4)c4nc(c(-c5ccc(S(=O)(=O)[O-])cc5)c5ccc2[nH]5)C=C4)C=C3)cc1
REMARK SMILES IDX 6 1 5 2 4 3 3 4 1 5 2 6 37 8 38 9 96 10 39 11 95 12 40 13
REMARK SMILES IDX 41 14 42 15 89 16 43 17 94 18 88 19 90 20 44 21 93 22 87 23
REMARK SMILES IDX 86 24 45 26 75 27 56 28 74 29 57 30 60 31 73 32 91 33 58 34
REMARK SMILES IDX 59 35 72 37 92 38 61 39 46 40 47 41 55 42 48 43 54 44 49 45
REMARK SMILES IDX 50 46 51 47 52 48 53 49 76 50 77 51 85 52 78 53 84 54 79 55
REMARK SMILES IDX 80 56 81 57 82 58 83 59 62 60 63 61 71 62 64 63 70 64 65 65
REMARK SMILES IDX 66 66 67 67 68 68 69 69 7 70 8 71 9 72 10 73 11 74 12 76
REMARK SMILES IDX 13 77 14 78 36 79 15 80 16 81 17 82 18 83 35 84 19 85 27 86
REMARK SMILES IDX 26 87 20 88 21 89 25 90 22 91 24 92 23 93 28 94 29 95 33 96
REMARK SMILES IDX 30 97 32 98 34 99 31 100
REMARK H PARENT 3 7 90 25 60 36 10 75
REMARK Flexibility Score: inf
ROOT
ATOM      1  C   UNL A   1      34.373  35.849  33.212  1.00  0.00     0.002 C 
ENDROOT
BRANCH   1   2
ATOM      2  C   UNL A   1      33.177  35.615  32.280  1.00  0.00     0.021 C 
BRANCH   2   3
ATOM      3  C   UNL A   1      33.194  36.462  31.010  1.00  0.00     0.116 C 
BRANCH   3   4
ATOM      4  N   UNL A   1      32.745  35.756  29.829  1.00  0.00    -0.352 N 
ATOM      5  O   UNL A   1      32.469  34.296  28.199  1.00  0.00    -0.269 OA
ATOM      6  C   UNL A   1      33.189  34.669  29.130  1.00  0.00     0.251 C 
ATOM      7  H   UNL A   1      31.932  36.151  29.439  1.00  0.00     0.163 HD
BRANCH   6   8
ATOM      8  C   UNL A   1      34.479  33.963  29.364  1.00  0.00     0.039 A 
ATOM      9  C   UNL A   1      34.682  32.884  30.226  1.00  0.00     0.014 A 
ATOM     10  C   UNL A   1      35.579  34.451  28.632  1.00  0.00     0.014 A 
ATOM     11  C   UNL A   1      35.962  32.363  30.414  1.00  0.00     0.010 A 
ATOM     12  C   UNL A   1      36.854  33.925  28.804  1.00  0.00     0.010 A 
ATOM     13  C   UNL A   1      37.052  32.899  29.723  1.00  0.00    -0.014 A 
BRANCH  13  14
ATOM     14  C   UNL A   1      38.355  32.247  29.854  1.00  0.00     0.031 A 
ATOM     15  C   UNL A   1      38.356  30.789  29.524  1.00  0.00     0.074 A 
ATOM     16  C   UNL A   1      39.509  32.906  30.090  1.00  0.00     0.049 A 
ATOM     17  N   UNL A   1      38.670  29.794  30.286  1.00  0.00    -0.248 NA
ATOM     18  C   UNL A   1      37.840  30.388  28.203  1.00  0.00     0.031 C 
ATOM     19  C   UNL A   1      39.732  34.354  30.143  1.00  0.00     0.029 A 
ATOM     20  N   UNL A   1      40.769  32.402  30.228  1.00  0.00    -0.354 N 
ATOM     21  C   UNL A   1      38.560  28.648  29.498  1.00  0.00     0.074 A 
ATOM     22  C   UNL A   1      37.928  29.059  28.270  1.00  0.00     0.031 C 
ATOM     23  C   UNL A   1      41.062  34.606  30.067  1.00  0.00     0.029 A 
ATOM     24  C   UNL A   1      41.784  33.346  30.108  1.00  0.00     0.049 A 
ATOM     25  H   UNL A   1      40.945  31.448  30.399  1.00  0.00     0.167 HD
ATOM     26  C   UNL A   1      39.154  27.467  29.830  1.00  0.00     0.031 A 
ATOM     27  C   UNL A   1      43.117  33.103  29.998  1.00  0.00     0.031 A 
ATOM     28  C   UNL A   1      39.545  27.429  31.212  1.00  0.00     0.049 A 
ATOM     29  C   UNL A   1      43.359  31.735  30.512  1.00  0.00     0.074 A 
ATOM     30  C   UNL A   1      38.866  27.487  32.412  1.00  0.00     0.029 A 
ATOM     31  N   UNL A   1      40.857  27.711  31.509  1.00  0.00    -0.354 N 
ATOM     32  N   UNL A   1      43.189  31.397  31.759  1.00  0.00    -0.248 NA
ATOM     33  C   UNL A   1      43.353  30.636  29.562  1.00  0.00     0.031 C 
ATOM     34  C   UNL A   1      39.688  28.288  33.258  1.00  0.00     0.029 A 
ATOM     35  C   UNL A   1      40.850  28.605  32.551  1.00  0.00     0.049 A 
ATOM     36  H   UNL A   1      41.652  27.341  31.061  1.00  0.00     0.167 HD
ATOM     37  C   UNL A   1      42.625  30.131  31.710  1.00  0.00     0.074 A 
ATOM     38  C   UNL A   1      42.831  29.680  30.334  1.00  0.00     0.031 C 
ATOM     39  C   UNL A   1      41.809  29.678  32.707  1.00  0.00     0.031 A 
BRANCH  26  40
ATOM     40  C   UNL A   1      39.669  26.477  28.817  1.00  0.00    -0.014 A 
ATOM     41  C   UNL A   1      38.842  25.417  28.394  1.00  0.00     0.010 A 
ATOM     42  C   UNL A   1      41.032  26.403  28.460  1.00  0.00     0.010 A 
ATOM     43  C   UNL A   1      39.363  24.321  27.688  1.00  0.00     0.020 A 
ATOM     44  C   UNL A   1      41.554  25.338  27.722  1.00  0.00     0.020 A 
ATOM     45  C   UNL A   1      40.721  24.288  27.364  1.00  0.00     0.054 A 
BRANCH  45  46
ATOM     46  S   UNL A   1      41.401  22.833  26.529  1.00  0.00     0.124 S 
ATOM     47  O   UNL A   1      40.201  22.207  25.983  1.00  0.00    -0.237 OA
ATOM     48  O   UNL A   1      42.304  23.432  25.550  1.00  0.00    -0.237 OA
ATOM     49  O   UNL A   1      42.059  22.095  27.605  1.00  0.00    -0.744 OA
ENDBRANCH  45  46
ENDBRANCH  26  40
BRANCH  27  50
ATOM     50  C   UNL A   1      44.123  33.823  29.171  1.00  0.00    -0.014 A 
ATOM     51  C   UNL A   1      45.480  33.881  29.549  1.00  0.00     0.010 A 
ATOM     52  C   UNL A   1      43.798  34.198  27.851  1.00  0.00     0.010 A 
ATOM     53  C   UNL A   1      46.477  34.242  28.623  1.00  0.00     0.020 A 
ATOM     54  C   UNL A   1      44.784  34.561  26.926  1.00  0.00     0.020 A 
ATOM     55  C   UNL A   1      46.124  34.558  27.309  1.00  0.00     0.054 A 
BRANCH  55  56
ATOM     56  S   UNL A   1      47.426  34.843  26.070  1.00  0.00     0.124 S 
ATOM     57  O   UNL A   1      46.717  34.615  24.814  1.00  0.00    -0.237 OA
ATOM     58  O   UNL A   1      47.818  36.225  26.332  1.00  0.00    -0.237 OA
ATOM     59  O   UNL A   1      48.440  33.843  26.399  1.00  0.00    -0.744 OA
ENDBRANCH  55  56
ENDBRANCH  27  50
BRANCH  39  60
ATOM     60  C   UNL A   1      41.721  30.483  33.988  1.00  0.00    -0.014 A 
ATOM     61  C   UNL A   1      42.134  30.002  35.248  1.00  0.00     0.010 A 
ATOM     62  C   UNL A   1      41.346  31.834  33.882  1.00  0.00     0.010 A 
ATOM     63  C   UNL A   1      42.142  30.844  36.372  1.00  0.00     0.020 A 
ATOM     64  C   UNL A   1      41.370  32.681  34.991  1.00  0.00     0.020 A 
ATOM     65  C   UNL A   1      41.759  32.182  36.234  1.00  0.00     0.054 A 
BRANCH  65  66
ATOM     66  S   UNL A   1      41.814  33.282  37.678  1.00  0.00     0.124 S 
ATOM     67  O   UNL A   1      41.222  34.514  37.163  1.00  0.00    -0.237 OA
ATOM     68  O   UNL A   1      41.012  32.562  38.666  1.00  0.00    -0.237 OA
ATOM     69  O   UNL A   1      43.239  33.367  37.996  1.00  0.00    -0.744 OA
ENDBRANCH  65  66
ENDBRANCH  39  60
ENDBRANCH  13  14
ENDBRANCH   6   8
ENDBRANCH   3   4
ENDBRANCH   2   3
ENDBRANCH   1   2
BRANCH   1  70
ATOM     70  C   UNL A   1      35.638  35.048  32.878  1.00  0.00     0.002 C 
BRANCH  70  71
ATOM     71  C   UNL A   1      35.887  33.817  33.758  1.00  0.00     0.021 C 
BRANCH  71  72
ATOM     72  C   UNL A   1      37.362  33.475  33.964  1.00  0.00     0.116 C 
BRANCH  72  73
ATOM     73  N   UNL A   1      37.534  32.051  34.188  1.00  0.00    -0.351 N 
ATOM     74  C   UNL A   1      37.957  31.428  35.330  1.00  0.00     0.271 C 
ATOM     75  H   UNL A   1      37.320  31.464  33.427  1.00  0.00     0.163 HD
ATOM     76  O   UNL A   1      38.294  30.238  35.278  1.00  0.00    -0.267 OA
BRANCH  74  77
ATOM     77  C   UNL A   1      37.944  32.183  36.583  1.00  0.00     0.150 A 
ATOM     78  C   UNL A   1      38.109  33.586  36.725  1.00  0.00     0.056 A 
ATOM     79  N   UNL A   1      37.745  31.596  37.777  1.00  0.00    -0.161 NA
ATOM     80  C   UNL A   1      37.844  33.843  38.046  1.00  0.00     0.118 A 
ATOM     81  N   UNL A   1      37.581  32.631  38.637  1.00  0.00    -0.222 N 
BRANCH  81  82
ATOM     82  C   UNL A   1      37.156  32.432  39.976  1.00  0.00     0.158 A 
ATOM     83  C   UNL A   1      35.968  32.995  40.385  1.00  0.00     0.078 A 
ATOM     84  N   UNL A   1      37.943  31.692  40.788  1.00  0.00    -0.209 NA
ATOM     85  C   UNL A   1      35.586  32.720  41.682  1.00  0.00     0.077 A 
ATOM     86  C   UNL A   1      37.531  31.566  42.059  1.00  0.00     0.165 A 
ATOM     87  N   UNL A   1      36.373  32.047  42.547  1.00  0.00    -0.228 NA
BRANCH  85  88
ATOM     88  C   UNL A   1      34.261  33.102  42.176  1.00  0.00     0.003 A 
ATOM     89  C   UNL A   1      33.824  32.679  43.438  1.00  0.00     0.030 A 
ATOM     90  C   UNL A   1      33.395  33.883  41.408  1.00  0.00     0.030 A 
ATOM     91  C   UNL A   1      32.555  33.033  43.863  1.00  0.00     0.111 A 
ATOM     92  C   UNL A   1      32.140  34.178  41.917  1.00  0.00     0.111 A 
ATOM     93  N   UNL A   1      31.698  33.768  43.125  1.00  0.00    -0.265 NA
ENDBRANCH  85  88
BRANCH  86  94
ATOM     94  C   UNL A   1      38.482  30.973  42.990  1.00  0.00     0.055 A 
ATOM     95  C   UNL A   1      39.868  31.090  42.773  1.00  0.00     0.015 A 
ATOM     96  C   UNL A   1      38.055  30.249  44.104  1.00  0.00     0.134 A 
ATOM     97  C   UNL A   1      40.788  30.506  43.648  1.00  0.00     0.001 A 
ATOM     98  C   UNL A   1      38.967  29.654  44.978  1.00  0.00     0.040 A 
ATOM     99  F   UNL A   1      36.745  30.080  44.345  1.00  0.00    -0.206 F 
ATOM    100  C   UNL A   1      40.336  29.784  44.750  1.00  0.00     0.003 A 
ENDBRANCH  86  94
ENDBRANCH  81  82
ENDBRANCH  74  77
ENDBRANCH  72  73
ENDBRANCH  71  72
ENDBRANCH  70  71
ENDBRANCH   1  70
TORSDOF 19
ENDMDL
MODEL 3
REMARK VINA RESULT:      -9.8      4.437     12.041
REMARK SMILES O=C(NCCCCCCNC(=O)c1ccn(-c2cc(-c3ccncc3)nc(-c3ccccc3F)n2)n1)c1ccc(-c2c3nc(c(-c4ccc(S(=O)(=O)[O-])cc4)c4ccc([nH]4)c(-c4ccc(S(=O)(=O)[O-])cc4)c4nc(c(-c5ccc(S(=O)(=O)[O-])cc5)c5ccc2[nH]5)C=C4)C=C3)cc1
REMARK SMILES IDX 6 1 5 2 4 3 3 4 1 5 2 6 37 8 38 9 96 10 39 11 95 12 40 13
REMARK SMILES IDX 41 14 42 15 89 16 43 17 94 18 88 19 90 20 44 21 93 22 87 23
REMARK SMILES IDX 86 24 45 26 75 27 56 28 74 29 57 30 60 31 73 32 91 33 58 34
REMARK SMILES IDX 59 35 72 37 92 38 61 39 46 40 47 41 55 42 48 43 54 44 49 45
REMARK SMILES IDX 50 46 51 47 52 48 53 49 76 50 77 51 85 52 78 53 84 54 79 55
REMARK SMILES IDX 80 56 81 57 82 58 83 59 62 60 63 61 71 62 64 63 70 64 65 65
REMARK SMILES IDX 66 66 67 67 68 68 69 69 7 70 8 71 9 72 10 73 11 74 12 76
REMARK SMILES IDX 13 77 14 78 36 79 15 80 16 81 17 82 18 83 35 84 19 85 27 86
REMARK SMILES IDX 26 87 20 88 21 89 25 90 22 91 24 92 23 93 28 94 29 95 33 96
REMARK SMILES IDX 30 97 32 98 34 99 31 100
REMARK H PARENT 3 7 90 25 60 36 10 75
REMARK Flexibility Score: inf
ROOT
ATOM      1  C   UNL A   1      44.314  24.200  25.327  1.00  0.00     0.002 C 
ENDROOT
BRANCH   1   2
ATOM      2  C   UNL A   1      44.472  25.724  25.245  1.00  0.00     0.021 C 
BRANCH   2   3
ATOM      3  C   UNL A   1      45.880  26.229  25.549  1.00  0.00     0.116 C 
BRANCH   3   4
ATOM      4  N   UNL A   1      46.182  27.514  24.959  1.00  0.00    -0.352 N 
ATOM      5  O   UNL A   1      46.502  29.666  24.594  1.00  0.00    -0.269 OA
ATOM      6  C   UNL A   1      46.024  28.814  25.349  1.00  0.00     0.251 C 
ATOM      7  H   UNL A   1      46.598  27.434  24.070  1.00  0.00     0.163 HD
BRANCH   6   8
ATOM      8  C   UNL A   1      45.276  29.266  26.555  1.00  0.00     0.039 A 
ATOM      9  C   UNL A   1      43.900  29.155  26.760  1.00  0.00     0.014 A 
ATOM     10  C   UNL A   1      46.058  29.855  27.568  1.00  0.00     0.014 A 
ATOM     11  C   UNL A   1      43.312  29.691  27.905  1.00  0.00     0.010 A 
ATOM     12  C   UNL A   1      45.479  30.378  28.718  1.00  0.00     0.010 A 
ATOM     13  C   UNL A   1      44.098  30.326  28.872  1.00  0.00    -0.014 A 
BRANCH  13  14
ATOM     14  C   UNL A   1      43.461  30.766  30.113  1.00  0.00     0.031 A 
ATOM     15  C   UNL A   1      43.332  29.703  31.156  1.00  0.00     0.074 A 
ATOM     16  C   UNL A   1      43.155  32.051  30.390  1.00  0.00     0.049 A 
ATOM     17  N   UNL A   1      42.255  29.241  31.702  1.00  0.00    -0.248 NA
ATOM     18  C   UNL A   1      44.558  28.996  31.566  1.00  0.00     0.031 C 
ATOM     19  C   UNL A   1      43.482  33.249  29.612  1.00  0.00     0.029 A 
ATOM     20  N   UNL A   1      42.567  32.569  31.506  1.00  0.00    -0.354 N 
ATOM     21  C   UNL A   1      42.669  28.304  32.649  1.00  0.00     0.074 A 
ATOM     22  C   UNL A   1      44.079  28.104  32.434  1.00  0.00     0.031 C 
ATOM     23  C   UNL A   1      43.299  34.349  30.382  1.00  0.00     0.029 A 
ATOM     24  C   UNL A   1      42.708  33.946  31.647  1.00  0.00     0.049 A 
ATOM     25  H   UNL A   1      42.082  32.013  32.159  1.00  0.00     0.167 HD
ATOM     26  C   UNL A   1      41.864  27.882  33.666  1.00  0.00     0.031 A 
ATOM     27  C   UNL A   1      42.408  34.691  32.744  1.00  0.00     0.031 A 
ATOM     28  C   UNL A   1      40.482  28.191  33.425  1.00  0.00     0.049 A 
ATOM     29  C   UNL A   1      41.467  33.899  33.570  1.00  0.00     0.074 A 
ATOM     30  C   UNL A   1      39.560  27.817  32.468  1.00  0.00     0.029 A 
ATOM     31  N   UNL A   1      39.968  29.316  34.021  1.00  0.00    -0.354 N 
ATOM     32  N   UNL A   1      40.259  33.596  33.188  1.00  0.00    -0.248 NA
ATOM     33  C   UNL A   1      42.019  33.060  34.621  1.00  0.00     0.031 C 
ATOM     34  C   UNL A   1      38.815  29.002  32.197  1.00  0.00     0.029 A 
ATOM     35  C   UNL A   1      39.275  30.003  33.055  1.00  0.00     0.049 A 
ATOM     36  H   UNL A   1      40.075  29.581  34.964  1.00  0.00     0.167 HD
ATOM     37  C   UNL A   1      40.066  32.292  33.621  1.00  0.00     0.074 A 
ATOM     38  C   UNL A   1      41.150  32.046  34.572  1.00  0.00     0.031 C 
ATOM     39  C   UNL A   1      39.213  31.447  32.970  1.00  0.00     0.031 A 
BRANCH  26  40
ATOM     40  C   UNL A   1      42.377  27.480  35.026  1.00  0.00    -0.014 A 
ATOM     41  C   UNL A   1      42.969  28.449  35.862  1.00  0.00     0.010 A 
ATOM     42  C   UNL A   1      42.532  26.130  35.404  1.00  0.00     0.010 A 
ATOM     43  C   UNL A   1      43.711  28.079  36.994  1.00  0.00     0.020 A 
ATOM     44  C   UNL A   1      43.234  25.753  36.550  1.00  0.00     0.020 A 
ATOM     45  C   UNL A   1      43.845  26.729  37.325  1.00  0.00     0.054 A 
BRANCH  45  46
ATOM     46  S   UNL A   1      44.874  26.256  38.737  1.00  0.00     0.124 S 
ATOM     47  O   UNL A   1      46.217  26.549  38.245  1.00  0.00    -0.237 OA
ATOM     48  O   UNL A   1      44.379  27.138  39.790  1.00  0.00    -0.237 OA
ATOM     49  O   UNL A   1      44.570  24.839  38.924  1.00  0.00    -0.744 OA
ENDBRANCH  45  46
ENDBRANCH  26  40
BRANCH  27  50
ATOM     50  C   UNL A   1      43.137  35.867  33.290  1.00  0.00    -0.014 A 
ATOM     51  C   UNL A   1      44.320  36.343  32.689  1.00  0.00     0.010 A 
ATOM     52  C   UNL A   1      42.500  36.707  34.227  1.00  0.00     0.010 A 
ATOM     53  C   UNL A   1      44.811  37.632  32.971  1.00  0.00     0.020 A 
ATOM     54  C   UNL A   1      42.984  37.989  34.515  1.00  0.00     0.020 A 
ATOM     55  C   UNL A   1      44.126  38.456  33.867  1.00  0.00     0.054 A 
BRANCH  55  56
ATOM     56  S   UNL A   1      44.656  40.183  34.088  1.00  0.00     0.124 S 
ATOM     57  O   UNL A   1      45.638  40.072  35.162  1.00  0.00    -0.237 OA
ATOM     58  O   UNL A   1      45.193  40.523  32.774  1.00  0.00    -0.237 OA
ATOM     59  O   UNL A   1      43.422  40.879  34.448  1.00  0.00    -0.744 OA
ENDBRANCH  55  56
ENDBRANCH  27  50
BRANCH  39  60
ATOM     60  C   UNL A   1      38.293  32.024  31.915  1.00  0.00    -0.014 A 
ATOM     61  C   UNL A   1      38.629  32.122  30.548  1.00  0.00     0.010 A 
ATOM     62  C   UNL A   1      36.979  32.341  32.301  1.00  0.00     0.010 A 
ATOM     63  C   UNL A   1      37.682  32.550  29.603  1.00  0.00     0.020 A 
ATOM     64  C   UNL A   1      36.028  32.749  31.364  1.00  0.00     0.020 A 
ATOM     65  C   UNL A   1      36.384  32.862  30.021  1.00  0.00     0.054 A 
BRANCH  65  66
ATOM     66  S   UNL A   1      35.148  33.372  28.793  1.00  0.00     0.124 S 
ATOM     67  O   UNL A   1      35.315  34.822  28.754  1.00  0.00    -0.237 OA
ATOM     68  O   UNL A   1      35.570  32.657  27.589  1.00  0.00    -0.237 OA
ATOM     69  O   UNL A   1      33.881  32.910  29.362  1.00  0.00    -0.744 OA
ENDBRANCH  65  66
ENDBRANCH  39  60
ENDBRANCH  13  14
ENDBRANCH   6   8
ENDBRANCH   3   4
ENDBRANCH   2   3
ENDBRANCH   1   2
BRANCH   1  70
ATOM     70  C   UNL A   1      45.515  23.441  25.902  1.00  0.00     0.002 C 
BRANCH  70  71
ATOM     71  C   UNL A   1      45.394  21.912  25.886  1.00  0.00     0.021 C 
BRANCH  71  72
ATOM     72  C   UNL A   1      44.664  21.349  24.668  1.00  0.00     0.116 C 
BRANCH  72  73
ATOM     73  N   UNL A   1      44.821  19.908  24.594  1.00  0.00    -0.351 N 
ATOM     74  C   UNL A   1      44.166  18.955  25.328  1.00  0.00     0.271 C 
ATOM     75  H   UNL A   1      45.476  19.576  23.939  1.00  0.00     0.163 HD
ATOM     76  O   UNL A   1      44.595  17.794  25.327  1.00  0.00    -0.267 OA
BRANCH  74  77
ATOM     77  C   UNL A   1      42.950  19.340  26.043  1.00  0.00     0.150 A 
ATOM     78  C   UNL A   1      42.500  18.818  27.285  1.00  0.00     0.056 A 
ATOM     79  N   UNL A   1      42.110  20.284  25.582  1.00  0.00    -0.161 NA
ATOM     80  C   UNL A   1      41.429  19.604  27.633  1.00  0.00     0.118 A 
ATOM     81  N   UNL A   1      41.254  20.504  26.611  1.00  0.00    -0.222 N 
BRANCH  81  82
ATOM     82  C   UNL A   1      40.324  21.576  26.595  1.00  0.00     0.158 A 
ATOM     83  C   UNL A   1      39.200  21.465  25.808  1.00  0.00     0.078 A 
ATOM     84  N   UNL A   1      40.590  22.658  27.358  1.00  0.00    -0.209 NA
ATOM     85  C   UNL A   1      38.310  22.517  25.877  1.00  0.00     0.077 A 
ATOM     86  C   UNL A   1      39.712  23.670  27.278  1.00  0.00     0.165 A 
ATOM     87  N   UNL A   1      38.569  23.647  26.569  1.00  0.00    -0.228 NA
BRANCH  85  88
ATOM     88  C   UNL A   1      36.996  22.438  25.237  1.00  0.00     0.003 A 
ATOM     89  C   UNL A   1      36.669  23.291  24.175  1.00  0.00     0.030 A 
ATOM     90  C   UNL A   1      36.029  21.527  25.669  1.00  0.00     0.030 A 
ATOM     91  C   UNL A   1      35.407  23.210  23.612  1.00  0.00     0.111 A 
ATOM     92  C   UNL A   1      34.790  21.528  25.047  1.00  0.00     0.111 A 
ATOM     93  N   UNL A   1      34.455  22.351  24.031  1.00  0.00    -0.265 NA
ENDBRANCH  85  88
BRANCH  86  94
ATOM     94  C   UNL A   1      40.108  24.921  27.911  1.00  0.00     0.055 A 
ATOM     95  C   UNL A   1      39.155  25.919  28.188  1.00  0.00     0.015 A 
ATOM     96  C   UNL A   1      41.440  25.183  28.236  1.00  0.00     0.134 A 
ATOM     97  C   UNL A   1      39.528  27.132  28.775  1.00  0.00     0.001 A 
ATOM     98  C   UNL A   1      41.823  26.396  28.812  1.00  0.00     0.040 A 
ATOM     99  F   UNL A   1      42.396  24.280  27.967  1.00  0.00    -0.206 F 
ATOM    100  C   UNL A   1      40.865  27.370  29.084  1.00  0.00     0.003 A 
ENDBRANCH  86  94
ENDBRANCH  81  82
ENDBRANCH  74  77
ENDBRANCH  72  73
ENDBRANCH  71  72
ENDBRANCH  70  71
ENDBRANCH   1  70
TORSDOF 19
ENDMDL
