MODEL 1
REMARK VINA RESULT:      -9.4      0.000      0.000
REMARK SMILES O=C(NCCCCCCNC(=O)c1ccc2c(=O)n3cc(C(=O)c4cc(F)ccc4O)cc(Cl)c3nc2c1)c1ccc(-c2c3nc(c(-c4ccc(S(=O)(=O)[O-])cc4)c4ccc([nH]4)c(-c4ccc(S(=O)(=O)[O-])cc4)c4nc(c(-c5ccc(S(=O)(=O)[O-])cc5)c5ccc2[nH]5)C=C4)C=C3)cc1
REMARK SMILES IDX 6 1 5 2 4 3 3 4 1 5 2 6 39 8 40 9 98 10 41 11 97 12 42 13
REMARK SMILES IDX 43 14 44 15 91 16 45 17 96 18 90 19 92 20 46 21 95 22 89 23
REMARK SMILES IDX 88 24 47 26 77 27 58 28 76 29 59 30 62 31 75 32 93 33 60 34
REMARK SMILES IDX 61 35 74 37 94 38 63 39 48 40 49 41 57 42 50 43 56 44 51 45
REMARK SMILES IDX 52 46 53 47 54 48 55 49 78 50 79 51 87 52 80 53 86 54 81 55
REMARK SMILES IDX 82 56 83 57 84 58 85 59 64 60 65 61 73 62 66 63 72 64 67 65
REMARK SMILES IDX 68 66 69 67 70 68 71 69 7 70 8 71 9 72 10 73 11 74 12 76
REMARK SMILES IDX 13 77 14 78 38 79 15 80 37 81 16 82 36 83 17 84 35 85 18 86
REMARK SMILES IDX 19 87 33 88 20 89 32 90 34 91 21 92 22 93 23 94 24 95 25 96
REMARK SMILES IDX 30 97 26 98 29 99 27 100 28 101 31 102
REMARK H PARENT 3 7 92 25 62 36 10 75 31 103
REMARK Flexibility Score: inf
ROOT
ATOM      1  C   UNL A   1      34.603  33.421  31.677  1.00  0.00     0.002 C 
ENDROOT
BRANCH   1   2
ATOM      2  C   UNL A   1      35.056  32.310  30.729  1.00  0.00     0.021 C 
BRANCH   2   3
ATOM      3  C   UNL A   1      34.906  32.631  29.247  1.00  0.00     0.116 C 
BRANCH   3   4
ATOM      4  N   UNL A   1      34.158  31.610  28.539  1.00  0.00    -0.352 N 
ATOM      5  O   UNL A   1      33.829  29.817  27.229  1.00  0.00    -0.269 OA
ATOM      6  C   UNL A   1      34.592  30.445  27.960  1.00  0.00     0.251 C 
ATOM      7  H   UNL A   1      33.192  31.779  28.460  1.00  0.00     0.163 HD
BRANCH   6   8
ATOM      8  C   UNL A   1      35.964  29.943  28.203  1.00  0.00     0.039 A 
ATOM      9  C   UNL A   1      36.245  29.330  29.428  1.00  0.00     0.014 A 
ATOM     10  C   UNL A   1      36.989  30.131  27.273  1.00  0.00     0.014 A 
ATOM     11  C   UNL A   1      37.547  28.913  29.715  1.00  0.00     0.010 A 
ATOM     12  C   UNL A   1      38.263  29.623  27.517  1.00  0.00     0.010 A 
ATOM     13  C   UNL A   1      38.568  29.056  28.762  1.00  0.00    -0.014 A 
BRANCH  13  14
ATOM     14  C   UNL A   1      39.979  28.729  29.098  1.00  0.00     0.031 A 
ATOM     15  C   UNL A   1      40.551  27.396  28.681  1.00  0.00     0.074 A 
ATOM     16  C   UNL A   1      40.747  29.619  29.757  1.00  0.00     0.049 A 
ATOM     17  N   UNL A   1      41.759  26.929  28.858  1.00  0.00    -0.248 NA
ATOM     18  C   UNL A   1      39.647  26.456  27.992  1.00  0.00     0.031 C 
ATOM     19  C   UNL A   1      40.305  30.935  30.223  1.00  0.00     0.029 A 
ATOM     20  N   UNL A   1      42.069  29.564  30.128  1.00  0.00    -0.354 N 
ATOM     21  C   UNL A   1      41.753  25.647  28.317  1.00  0.00     0.074 A 
ATOM     22  C   UNL A   1      40.408  25.380  27.867  1.00  0.00     0.031 C 
ATOM     23  C   UNL A   1      41.350  31.584  30.759  1.00  0.00     0.029 A 
ATOM     24  C   UNL A   1      42.528  30.721  30.717  1.00  0.00     0.049 A 
ATOM     25  H   UNL A   1      42.636  28.772  29.986  1.00  0.00     0.167 HD
ATOM     26  C   UNL A   1      42.784  24.785  28.169  1.00  0.00     0.031 A 
ATOM     27  C   UNL A   1      43.759  31.057  31.156  1.00  0.00     0.031 A 
ATOM     28  C   UNL A   1      44.134  25.079  28.569  1.00  0.00     0.049 A 
ATOM     29  C   UNL A   1      44.890  30.076  30.985  1.00  0.00     0.074 A 
ATOM     30  C   UNL A   1      45.259  24.287  28.416  1.00  0.00     0.029 A 
ATOM     31  N   UNL A   1      44.546  26.253  29.177  1.00  0.00    -0.354 N 
ATOM     32  N   UNL A   1      44.870  28.885  30.432  1.00  0.00    -0.248 NA
ATOM     33  C   UNL A   1      46.213  30.488  31.474  1.00  0.00     0.031 C 
ATOM     34  C   UNL A   1      46.339  24.954  28.993  1.00  0.00     0.029 A 
ATOM     35  C   UNL A   1      45.907  26.198  29.424  1.00  0.00     0.049 A 
ATOM     36  H   UNL A   1      43.961  27.012  29.400  1.00  0.00     0.167 HD
ATOM     37  C   UNL A   1      46.185  28.430  30.465  1.00  0.00     0.074 A 
ATOM     38  C   UNL A   1      46.973  29.472  31.087  1.00  0.00     0.031 C 
ATOM     39  C   UNL A   1      46.690  27.255  30.016  1.00  0.00     0.031 A 
BRANCH  26  40
ATOM     40  C   UNL A   1      42.524  23.453  27.514  1.00  0.00    -0.014 A 
ATOM     41  C   UNL A   1      41.808  22.462  28.211  1.00  0.00     0.010 A 
ATOM     42  C   UNL A   1      43.113  23.129  26.279  1.00  0.00     0.010 A 
ATOM     43  C   UNL A   1      41.730  21.160  27.713  1.00  0.00     0.020 A 
ATOM     44  C   UNL A   1      43.008  21.836  25.759  1.00  0.00     0.020 A 
ATOM     45  C   UNL A   1      42.345  20.852  26.496  1.00  0.00     0.054 A 
BRANCH  45  46
ATOM     46  S   UNL A   1      42.295  19.139  25.903  1.00  0.00     0.124 S 
ATOM     47  O   UNL A   1      42.946  18.417  26.991  1.00  0.00    -0.237 OA
ATOM     48  O   UNL A   1      40.862  18.897  25.751  1.00  0.00    -0.237 OA
ATOM     49  O   UNL A   1      43.045  19.189  24.649  1.00  0.00    -0.744 OA
ENDBRANCH  45  46
ENDBRANCH  26  40
BRANCH  27  50
ATOM     50  C   UNL A   1      43.995  32.417  31.719  1.00  0.00    -0.014 A 
ATOM     51  C   UNL A   1      43.833  32.665  33.095  1.00  0.00     0.010 A 
ATOM     52  C   UNL A   1      44.330  33.489  30.872  1.00  0.00     0.010 A 
ATOM     53  C   UNL A   1      43.954  33.962  33.602  1.00  0.00     0.020 A 
ATOM     54  C   UNL A   1      44.487  34.781  31.381  1.00  0.00     0.020 A 
ATOM     55  C   UNL A   1      44.269  35.015  32.740  1.00  0.00     0.054 A 
BRANCH  55  56
ATOM     56  S   UNL A   1      44.383  36.694  33.418  1.00  0.00     0.124 S 
ATOM     57  O   UNL A   1      43.333  36.677  34.433  1.00  0.00    -0.237 OA
ATOM     58  O   UNL A   1      45.751  36.738  33.929  1.00  0.00    -0.237 OA
ATOM     59  O   UNL A   1      44.124  37.549  32.263  1.00  0.00    -0.744 OA
ENDBRANCH  55  56
ENDBRANCH  27  50
BRANCH  39  60
ATOM     60  C   UNL A   1      48.175  27.016  30.122  1.00  0.00    -0.014 A 
ATOM     61  C   UNL A   1      48.719  26.603  31.354  1.00  0.00     0.010 A 
ATOM     62  C   UNL A   1      49.043  27.341  29.066  1.00  0.00     0.010 A 
ATOM     63  C   UNL A   1      50.102  26.558  31.542  1.00  0.00     0.020 A 
ATOM     64  C   UNL A   1      50.429  27.262  29.239  1.00  0.00     0.020 A 
ATOM     65  C   UNL A   1      50.949  26.898  30.485  1.00  0.00     0.054 A 
BRANCH  65  66
ATOM     66  S   UNL A   1      52.741  26.866  30.759  1.00  0.00     0.124 S 
ATOM     67  O   UNL A   1      52.910  25.650  31.546  1.00  0.00    -0.237 OA
ATOM     68  O   UNL A   1      53.273  26.818  29.400  1.00  0.00    -0.237 OA
ATOM     69  O   UNL A   1      52.999  28.115  31.475  1.00  0.00    -0.744 OA
ENDBRANCH  65  66
ENDBRANCH  39  60
ENDBRANCH  13  14
ENDBRANCH   6   8
ENDBRANCH   3   4
ENDBRANCH   2   3
ENDBRANCH   1   2
BRANCH   1  70
ATOM     70  C   UNL A   1      35.586  34.583  31.844  1.00  0.00     0.002 C 
BRANCH  70  71
ATOM     71  C   UNL A   1      37.060  34.232  31.625  1.00  0.00     0.021 C 
BRANCH  71  72
ATOM     72  C   UNL A   1      37.966  34.514  32.817  1.00  0.00     0.116 C 
BRANCH  72  73
ATOM     73  N   UNL A   1      37.328  34.182  34.082  1.00  0.00    -0.352 N 
ATOM     74  C   UNL A   1      37.377  33.005  34.784  1.00  0.00     0.251 C 
ATOM     75  H   UNL A   1      36.788  34.898  34.488  1.00  0.00     0.163 HD
ATOM     76  O   UNL A   1      36.653  32.814  35.756  1.00  0.00    -0.269 OA
BRANCH  74  77
ATOM     77  C   UNL A   1      38.314  31.954  34.348  1.00  0.00     0.041 A 
ATOM     78  C   UNL A   1      37.905  30.998  33.413  1.00  0.00     0.015 A 
ATOM     79  C   UNL A   1      39.604  31.925  34.889  1.00  0.00     0.043 A 
ATOM     80  C   UNL A   1      38.754  29.946  33.098  1.00  0.00     0.017 A 
ATOM     81  C   UNL A   1      40.475  30.889  34.552  1.00  0.00     0.079 A 
ATOM     82  C   UNL A   1      40.023  29.895  33.686  1.00  0.00     0.066 A 
ATOM     83  N   UNL A   1      41.772  30.888  35.078  1.00  0.00    -0.228 NA
ATOM     84  C   UNL A   1      40.919  28.771  33.405  1.00  0.00     0.265 A 
ATOM     85  C   UNL A   1      42.573  29.911  34.779  1.00  0.00     0.159 A 
ATOM     86  O   UNL A   1      40.523  27.860  32.679  1.00  0.00    -0.268 OA
ATOM     87  N   UNL A   1      42.188  28.830  33.980  1.00  0.00    -0.266 N 
ATOM     88  C   UNL A   1      43.994  29.878  35.274  1.00  0.00     0.085 A 
ATOM     89  C   UNL A   1      43.058  27.780  33.712  1.00  0.00     0.109 A 
ATOM     90  C   UNL A   1      44.807  28.870  34.931  1.00  0.00     0.038 A 
ATOM     91  Cl  UNL A   1      44.553  31.169  36.266  1.00  0.00    -0.080 Cl
ATOM     92  C   UNL A   1      44.337  27.770  34.114  1.00  0.00     0.041 A 
BRANCH  92  93
ATOM     93  C   UNL A   1      45.251  26.618  33.808  1.00  0.00     0.198 C 
ATOM     94  O   UNL A   1      46.474  26.754  33.802  1.00  0.00    -0.288 OA
BRANCH  93  95
ATOM     95  C   UNL A   1      44.704  25.254  33.640  1.00  0.00     0.067 A 
ATOM     96  C   UNL A   1      44.517  24.690  32.373  1.00  0.00     0.055 A 
ATOM     97  C   UNL A   1      44.315  24.543  34.783  1.00  0.00     0.126 A 
ATOM     98  C   UNL A   1      43.860  23.469  32.269  1.00  0.00     0.124 A 
ATOM     99  C   UNL A   1      43.649  23.326  34.663  1.00  0.00     0.050 A 
ATOM    100  F   UNL A   1      43.640  22.947  31.054  1.00  0.00    -0.207 F 
ATOM    101  C   UNL A   1      43.408  22.793  33.398  1.00  0.00     0.043 A 
BRANCH  97 102
ATOM    102  O   UNL A   1      44.545  25.004  36.050  1.00  0.00    -0.507 OA
ATOM    103  H   UNL A   1      43.889  24.905  36.711  1.00  0.00     0.293 HD
ENDBRANCH  97 102
ENDBRANCH  93  95
ENDBRANCH  92  93
ENDBRANCH  74  77
ENDBRANCH  72  73
ENDBRANCH  71  72
ENDBRANCH  70  71
ENDBRANCH   1  70
TORSDOF 19
ENDMDL
MODEL 2
REMARK VINA RESULT:      -8.2      4.287     10.393
REMARK SMILES O=C(NCCCCCCNC(=O)c1ccc2c(=O)n3cc(C(=O)c4cc(F)ccc4O)cc(Cl)c3nc2c1)c1ccc(-c2c3nc(c(-c4ccc(S(=O)(=O)[O-])cc4)c4ccc([nH]4)c(-c4ccc(S(=O)(=O)[O-])cc4)c4nc(c(-c5ccc(S(=O)(=O)[O-])cc5)c5ccc2[nH]5)C=C4)C=C3)cc1
REMARK SMILES IDX 6 1 5 2 4 3 3 4 1 5 2 6 39 8 40 9 98 10 41 11 97 12 42 13
REMARK SMILES IDX 43 14 44 15 91 16 45 17 96 18 90 19 92 20 46 21 95 22 89 23
REMARK SMILES IDX 88 24 47 26 77 27 58 28 76 29 59 30 62 31 75 32 93 33 60 34
REMARK SMILES IDX 61 35 74 37 94 38 63 39 48 40 49 41 57 42 50 43 56 44 51 45
REMARK SMILES IDX 52 46 53 47 54 48 55 49 78 50 79 51 87 52 80 53 86 54 81 55
REMARK SMILES IDX 82 56 83 57 84 58 85 59 64 60 65 61 73 62 66 63 72 64 67 65
REMARK SMILES IDX 68 66 69 67 70 68 71 69 7 70 8 71 9 72 10 73 11 74 12 76
REMARK SMILES IDX 13 77 14 78 38 79 15 80 37 81 16 82 36 83 17 84 35 85 18 86
REMARK SMILES IDX 19 87 33 88 20 89 32 90 34 91 21 92 22 93 23 94 24 95 25 96
REMARK SMILES IDX 30 97 26 98 29 99 27 100 28 101 31 102
REMARK H PARENT 3 7 92 25 62 36 10 75 31 103
REMARK Flexibility Score: inf
ROOT
ATOM      1  C   UNL A   1      38.240  23.736  25.896  1.00  0.00     0.002 C 
ENDROOT
BRANCH   1   2
ATOM      2  C   UNL A   1      38.621  22.256  25.847  1.00  0.00     0.021 C 
BRANCH   2   3
ATOM      3  C   UNL A   1      39.649  21.824  26.886  1.00  0.00     0.116 C 
BRANCH   3   4
ATOM      4  N   UNL A   1      40.611  20.883  26.347  1.00  0.00    -0.352 N 
ATOM      5  O   UNL A   1      42.507  20.192  25.365  1.00  0.00    -0.269 OA
ATOM      6  C   UNL A   1      41.923  21.070  25.996  1.00  0.00     0.251 C 
ATOM      7  H   UNL A   1      40.270  19.969  26.211  1.00  0.00     0.163 HD
BRANCH   6   8
ATOM      8  C   UNL A   1      42.636  22.315  26.364  1.00  0.00     0.039 A 
ATOM      9  C   UNL A   1      43.280  22.376  27.603  1.00  0.00     0.014 A 
ATOM     10  C   UNL A   1      42.617  23.442  25.538  1.00  0.00     0.014 A 
ATOM     11  C   UNL A   1      43.898  23.561  28.009  1.00  0.00     0.010 A 
ATOM     12  C   UNL A   1      43.321  24.589  25.898  1.00  0.00     0.010 A 
ATOM     13  C   UNL A   1      43.923  24.680  27.160  1.00  0.00    -0.014 A 
BRANCH  13  14
ATOM     14  C   UNL A   1      44.469  25.982  27.626  1.00  0.00     0.031 A 
ATOM     15  C   UNL A   1      45.879  26.370  27.254  1.00  0.00     0.074 A 
ATOM     16  C   UNL A   1      43.708  26.815  28.362  1.00  0.00     0.049 A 
ATOM     17  N   UNL A   1      46.532  27.467  27.542  1.00  0.00    -0.248 NA
ATOM     18  C   UNL A   1      46.668  25.398  26.475  1.00  0.00     0.031 C 
ATOM     19  C   UNL A   1      42.335  26.546  28.794  1.00  0.00     0.029 A 
ATOM     20  N   UNL A   1      43.971  28.070  28.857  1.00  0.00    -0.354 N 
ATOM     21  C   UNL A   1      47.800  27.307  26.991  1.00  0.00     0.074 A 
ATOM     22  C   UNL A   1      47.852  25.986  26.414  1.00  0.00     0.031 C 
ATOM     23  C   UNL A   1      41.857  27.625  29.433  1.00  0.00     0.029 A 
ATOM     24  C   UNL A   1      42.898  28.649  29.497  1.00  0.00     0.049 A 
ATOM     25  H   UNL A   1      44.844  28.514  28.763  1.00  0.00     0.167 HD
ATOM     26  C   UNL A   1      48.816  28.197  26.936  1.00  0.00     0.031 A 
ATOM     27  C   UNL A   1      42.760  29.871  30.053  1.00  0.00     0.031 A 
ATOM     28  C   UNL A   1      48.739  29.532  27.465  1.00  0.00     0.049 A 
ATOM     29  C   UNL A   1      43.910  30.842  29.983  1.00  0.00     0.074 A 
ATOM     30  C   UNL A   1      49.701  30.526  27.413  1.00  0.00     0.029 A 
ATOM     31  N   UNL A   1      47.641  30.067  28.118  1.00  0.00    -0.354 N 
ATOM     32  N   UNL A   1      45.085  30.686  29.421  1.00  0.00    -0.248 NA
ATOM     33  C   UNL A   1      43.710  32.161  30.599  1.00  0.00     0.031 C 
ATOM     34  C   UNL A   1      49.211  31.639  28.096  1.00  0.00     0.029 A 
ATOM     35  C   UNL A   1      47.910  31.372  28.494  1.00  0.00     0.049 A 
ATOM     36  H   UNL A   1      46.797  29.591  28.291  1.00  0.00     0.167 HD
ATOM     37  C   UNL A   1      45.745  31.902  29.575  1.00  0.00     0.074 A 
ATOM     38  C   UNL A   1      44.837  32.783  30.277  1.00  0.00     0.031 C 
ATOM     39  C   UNL A   1      46.988  32.253  29.167  1.00  0.00     0.031 A 
BRANCH  26  40
ATOM     40  C   UNL A   1      50.095  27.792  26.248  1.00  0.00    -0.014 A 
ATOM     41  C   UNL A   1      50.190  27.881  24.846  1.00  0.00     0.010 A 
ATOM     42  C   UNL A   1      51.141  27.186  26.967  1.00  0.00     0.010 A 
ATOM     43  C   UNL A   1      51.279  27.325  24.173  1.00  0.00     0.020 A 
ATOM     44  C   UNL A   1      52.250  26.660  26.299  1.00  0.00     0.020 A 
ATOM     45  C   UNL A   1      52.295  26.703  24.904  1.00  0.00     0.054 A 
BRANCH  45  46
ATOM     46  S   UNL A   1      53.664  25.924  24.006  1.00  0.00     0.124 S 
ATOM     47  O   UNL A   1      53.705  24.593  24.604  1.00  0.00    -0.237 OA
ATOM     48  O   UNL A   1      53.208  25.980  22.619  1.00  0.00    -0.237 OA
ATOM     49  O   UNL A   1      54.807  26.782  24.311  1.00  0.00    -0.744 OA
ENDBRANCH  45  46
ENDBRANCH  26  40
BRANCH  27  50
ATOM     50  C   UNL A   1      41.450  30.266  30.648  1.00  0.00    -0.014 A 
ATOM     51  C   UNL A   1      40.463  30.893  29.865  1.00  0.00     0.010 A 
ATOM     52  C   UNL A   1      41.205  30.070  32.019  1.00  0.00     0.010 A 
ATOM     53  C   UNL A   1      39.280  31.355  30.448  1.00  0.00     0.020 A 
ATOM     54  C   UNL A   1      40.007  30.499  32.600  1.00  0.00     0.020 A 
ATOM     55  C   UNL A   1      39.064  31.165  31.816  1.00  0.00     0.054 A 
BRANCH  55  56
ATOM     56  S   UNL A   1      37.537  31.808  32.555  1.00  0.00     0.124 S 
ATOM     57  O   UNL A   1      37.744  33.251  32.457  1.00  0.00    -0.237 OA
ATOM     58  O   UNL A   1      36.505  31.260  31.679  1.00  0.00    -0.237 OA
ATOM     59  O   UNL A   1      37.556  31.264  33.909  1.00  0.00    -0.744 OA
ENDBRANCH  55  56
ENDBRANCH  27  50
BRANCH  39  60
ATOM     60  C   UNL A   1      47.460  33.664  29.411  1.00  0.00    -0.014 A 
ATOM     61  C   UNL A   1      48.138  33.964  30.609  1.00  0.00     0.010 A 
ATOM     62  C   UNL A   1      47.108  34.712  28.543  1.00  0.00     0.010 A 
ATOM     63  C   UNL A   1      48.417  35.288  30.955  1.00  0.00     0.020 A 
ATOM     64  C   UNL A   1      47.419  36.036  28.869  1.00  0.00     0.020 A 
ATOM     65  C   UNL A   1      48.047  36.317  30.086  1.00  0.00     0.054 A 
BRANCH  65  66
ATOM     66  S   UNL A   1      48.389  38.031  30.570  1.00  0.00     0.124 S 
ATOM     67  O   UNL A   1      47.051  38.609  30.619  1.00  0.00    -0.237 OA
ATOM     68  O   UNL A   1      49.058  37.875  31.859  1.00  0.00    -0.237 OA
ATOM     69  O   UNL A   1      49.243  38.526  29.491  1.00  0.00    -0.744 OA
ENDBRANCH  65  66
ENDBRANCH  39  60
ENDBRANCH  13  14
ENDBRANCH   6   8
ENDBRANCH   3   4
ENDBRANCH   2   3
ENDBRANCH   1   2
BRANCH   1  70
ATOM     70  C   UNL A   1      36.764  24.024  26.180  1.00  0.00     0.002 C 
BRANCH  70  71
ATOM     71  C   UNL A   1      35.792  23.633  25.064  1.00  0.00     0.021 C 
BRANCH  71  72
ATOM     72  C   UNL A   1      34.722  24.674  24.757  1.00  0.00     0.116 C 
BRANCH  72  73
ATOM     73  N   UNL A   1      33.391  24.090  24.699  1.00  0.00    -0.352 N 
ATOM     74  C   UNL A   1      32.199  24.627  25.115  1.00  0.00     0.251 C 
ATOM     75  H   UNL A   1      33.338  23.187  24.309  1.00  0.00     0.163 HD
ATOM     76  O   UNL A   1      31.177  23.952  25.155  1.00  0.00    -0.269 OA
BRANCH  74  77
ATOM     77  C   UNL A   1      32.162  26.041  25.528  1.00  0.00     0.041 A 
ATOM     78  C   UNL A   1      31.012  26.805  25.301  1.00  0.00     0.015 A 
ATOM     79  C   UNL A   1      33.291  26.604  26.136  1.00  0.00     0.043 A 
ATOM     80  C   UNL A   1      31.030  28.163  25.586  1.00  0.00     0.017 A 
ATOM     81  C   UNL A   1      33.303  27.961  26.455  1.00  0.00     0.079 A 
ATOM     82  C   UNL A   1      32.182  28.729  26.143  1.00  0.00     0.066 A 
ATOM     83  N   UNL A   1      34.427  28.503  27.089  1.00  0.00    -0.228 NA
ATOM     84  C   UNL A   1      32.241  30.167  26.410  1.00  0.00     0.265 A 
ATOM     85  C   UNL A   1      34.444  29.772  27.366  1.00  0.00     0.159 A 
ATOM     86  O   UNL A   1      31.280  30.871  26.100  1.00  0.00    -0.268 OA
ATOM     87  N   UNL A   1      33.400  30.638  27.026  1.00  0.00    -0.266 N 
ATOM     88  C   UNL A   1      35.602  30.405  28.089  1.00  0.00     0.085 A 
ATOM     89  C   UNL A   1      33.468  31.999  27.300  1.00  0.00     0.109 A 
ATOM     90  C   UNL A   1      35.583  31.712  28.384  1.00  0.00     0.038 A 
ATOM     91  Cl  UNL A   1      36.932  29.412  28.546  1.00  0.00    -0.080 Cl
ATOM     92  C   UNL A   1      34.477  32.557  27.984  1.00  0.00     0.041 A 
BRANCH  92  93
ATOM     93  C   UNL A   1      34.520  34.032  28.264  1.00  0.00     0.198 C 
ATOM     94  O   UNL A   1      34.753  34.848  27.373  1.00  0.00    -0.288 OA
BRANCH  93  95
ATOM     95  C   UNL A   1      34.147  34.550  29.599  1.00  0.00     0.067 A 
ATOM     96  C   UNL A   1      34.768  34.087  30.765  1.00  0.00     0.055 A 
ATOM     97  C   UNL A   1      33.107  35.485  29.687  1.00  0.00     0.126 A 
ATOM     98  C   UNL A   1      34.274  34.495  31.999  1.00  0.00     0.124 A 
ATOM     99  C   UNL A   1      32.616  35.877  30.931  1.00  0.00     0.050 A 
ATOM    100  F   UNL A   1      34.838  34.019  33.118  1.00  0.00    -0.207 F 
ATOM    101  C   UNL A   1      33.195  35.368  32.093  1.00  0.00     0.043 A 
BRANCH  97 102
ATOM    102  O   UNL A   1      32.517  36.035  28.584  1.00  0.00    -0.507 OA
ATOM    103  H   UNL A   1      32.936  36.740  28.131  1.00  0.00     0.293 HD
ENDBRANCH  97 102
ENDBRANCH  93  95
ENDBRANCH  92  93
ENDBRANCH  74  77
ENDBRANCH  72  73
ENDBRANCH  71  72
ENDBRANCH  70  71
ENDBRANCH   1  70
TORSDOF 19
ENDMDL
MODEL 3
REMARK VINA RESULT:      -8.1      5.766     12.054
REMARK SMILES O=C(NCCCCCCNC(=O)c1ccc2c(=O)n3cc(C(=O)c4cc(F)ccc4O)cc(Cl)c3nc2c1)c1ccc(-c2c3nc(c(-c4ccc(S(=O)(=O)[O-])cc4)c4ccc([nH]4)c(-c4ccc(S(=O)(=O)[O-])cc4)c4nc(c(-c5ccc(S(=O)(=O)[O-])cc5)c5ccc2[nH]5)C=C4)C=C3)cc1
REMARK SMILES IDX 6 1 5 2 4 3 3 4 1 5 2 6 39 8 40 9 98 10 41 11 97 12 42 13
REMARK SMILES IDX 43 14 44 15 91 16 45 17 96 18 90 19 92 20 46 21 95 22 89 23
REMARK SMILES IDX 88 24 47 26 77 27 58 28 76 29 59 30 62 31 75 32 93 33 60 34
REMARK SMILES IDX 61 35 74 37 94 38 63 39 48 40 49 41 57 42 50 43 56 44 51 45
REMARK SMILES IDX 52 46 53 47 54 48 55 49 78 50 79 51 87 52 80 53 86 54 81 55
REMARK SMILES IDX 82 56 83 57 84 58 85 59 64 60 65 61 73 62 66 63 72 64 67 65
REMARK SMILES IDX 68 66 69 67 70 68 71 69 7 70 8 71 9 72 10 73 11 74 12 76
REMARK SMILES IDX 13 77 14 78 38 79 15 80 37 81 16 82 36 83 17 84 35 85 18 86
REMARK SMILES IDX 19 87 33 88 20 89 32 90 34 91 21 92 22 93 23 94 24 95 25 96
REMARK SMILES IDX 30 97 26 98 29 99 27 100 28 101 31 102
REMARK H PARENT 3 7 92 25 62 36 10 75 31 103
REMARK Flexibility Score: inf
ROOT
ATOM      1  C   UNL A   1      48.806  24.221  35.982  1.00  0.00     0.002 C 
ENDROOT
BRANCH   1   2
ATOM      2  C   UNL A   1      47.292  24.351  35.813  1.00  0.00     0.021 C 
BRANCH   2   3
ATOM      3  C   UNL A   1      46.494  24.275  37.109  1.00  0.00     0.116 C 
BRANCH   3   4
ATOM      4  N   UNL A   1      46.945  25.244  38.088  1.00  0.00    -0.352 N 
ATOM      5  O   UNL A   1      47.363  27.271  38.958  1.00  0.00    -0.269 OA
ATOM      6  C   UNL A   1      46.719  26.595  38.158  1.00  0.00     0.251 C 
ATOM      7  H   UNL A   1      47.500  24.877  38.814  1.00  0.00     0.163 HD
BRANCH   6   8
ATOM      8  C   UNL A   1      45.716  27.242  37.281  1.00  0.00     0.039 A 
ATOM      9  C   UNL A   1      46.145  28.224  36.384  1.00  0.00     0.014 A 
ATOM     10  C   UNL A   1      44.354  26.944  37.382  1.00  0.00     0.014 A 
ATOM     11  C   UNL A   1      45.212  28.903  35.597  1.00  0.00     0.010 A 
ATOM     12  C   UNL A   1      43.437  27.548  36.525  1.00  0.00     0.010 A 
ATOM     13  C   UNL A   1      43.848  28.571  35.661  1.00  0.00    -0.014 A 
BRANCH  13  14
ATOM     14  C   UNL A   1      42.833  29.366  34.921  1.00  0.00     0.031 A 
ATOM     15  C   UNL A   1      42.471  28.976  33.509  1.00  0.00     0.074 A 
ATOM     16  C   UNL A   1      42.228  30.417  35.510  1.00  0.00     0.049 A 
ATOM     17  N   UNL A   1      41.599  29.524  32.703  1.00  0.00    -0.248 NA
ATOM     18  C   UNL A   1      43.195  27.837  32.913  1.00  0.00     0.031 C 
ATOM     19  C   UNL A   1      42.500  30.897  36.866  1.00  0.00     0.029 A 
ATOM     20  N   UNL A   1      41.241  31.256  35.054  1.00  0.00    -0.354 N 
ATOM     21  C   UNL A   1      41.679  28.807  31.513  1.00  0.00     0.074 A 
ATOM     22  C   UNL A   1      42.730  27.831  31.673  1.00  0.00     0.031 C 
ATOM     23  C   UNL A   1      41.658  31.902  37.152  1.00  0.00     0.029 A 
ATOM     24  C   UNL A   1      40.814  32.171  35.990  1.00  0.00     0.049 A 
ATOM     25  H   UNL A   1      40.872  31.209  34.142  1.00  0.00     0.167 HD
ATOM     26  C   UNL A   1      40.918  28.923  30.402  1.00  0.00     0.031 A 
ATOM     27  C   UNL A   1      39.842  33.104  35.930  1.00  0.00     0.031 A 
ATOM     28  C   UNL A   1      39.836  29.860  30.269  1.00  0.00     0.049 A 
ATOM     29  C   UNL A   1      39.011  33.217  34.677  1.00  0.00     0.074 A 
ATOM     30  C   UNL A   1      38.974  30.019  29.198  1.00  0.00     0.029 A 
ATOM     31  N   UNL A   1      39.454  30.776  31.235  1.00  0.00    -0.354 N 
ATOM     32  N   UNL A   1      39.077  32.500  33.579  1.00  0.00    -0.248 NA
ATOM     33  C   UNL A   1      37.962  34.245  34.660  1.00  0.00     0.031 C 
ATOM     34  C   UNL A   1      38.114  31.078  29.488  1.00  0.00     0.029 A 
ATOM     35  C   UNL A   1      38.380  31.519  30.776  1.00  0.00     0.049 A 
ATOM     36  H   UNL A   1      39.881  30.884  32.115  1.00  0.00     0.167 HD
ATOM     37  C   UNL A   1      38.048  32.960  32.763  1.00  0.00     0.074 A 
ATOM     38  C   UNL A   1      37.373  34.012  33.494  1.00  0.00     0.031 C 
ATOM     39  C   UNL A   1      37.695  32.544  31.523  1.00  0.00     0.031 A 
BRANCH  26  40
ATOM     40  C   UNL A   1      41.184  27.995  29.244  1.00  0.00    -0.014 A 
ATOM     41  C   UNL A   1      40.471  26.786  29.142  1.00  0.00     0.010 A 
ATOM     42  C   UNL A   1      42.237  28.245  28.346  1.00  0.00     0.010 A 
ATOM     43  C   UNL A   1      40.839  25.823  28.201  1.00  0.00     0.020 A 
ATOM     44  C   UNL A   1      42.587  27.298  27.379  1.00  0.00     0.020 A 
ATOM     45  C   UNL A   1      41.906  26.079  27.336  1.00  0.00     0.054 A 
BRANCH  45  46
ATOM     46  S   UNL A   1      42.415  24.786  26.170  1.00  0.00     0.124 S 
ATOM     47  O   UNL A   1      42.351  25.484  24.890  1.00  0.00    -0.237 OA
ATOM     48  O   UNL A   1      43.757  24.446  26.639  1.00  0.00    -0.237 OA
ATOM     49  O   UNL A   1      41.414  23.739  26.363  1.00  0.00    -0.744 OA
ENDBRANCH  45  46
ENDBRANCH  26  40
BRANCH  27  50
ATOM     50  C   UNL A   1      39.551  33.945  37.127  1.00  0.00    -0.014 A 
ATOM     51  C   UNL A   1      40.064  35.251  37.232  1.00  0.00     0.010 A 
ATOM     52  C   UNL A   1      38.803  33.422  38.197  1.00  0.00     0.010 A 
ATOM     53  C   UNL A   1      39.876  35.997  38.400  1.00  0.00     0.020 A 
ATOM     54  C   UNL A   1      38.583  34.178  39.353  1.00  0.00     0.020 A 
ATOM     55  C   UNL A   1      39.145  35.450  39.458  1.00  0.00     0.054 A 
BRANCH  55  56
ATOM     56  S   UNL A   1      38.949  36.424  40.976  1.00  0.00     0.124 S 
ATOM     57  O   UNL A   1      37.833  35.742  41.626  1.00  0.00    -0.237 OA
ATOM     58  O   UNL A   1      40.247  36.266  41.626  1.00  0.00    -0.237 OA
ATOM     59  O   UNL A   1      38.660  37.769  40.486  1.00  0.00    -0.744 OA
ENDBRANCH  55  56
ENDBRANCH  27  50
BRANCH  39  60
ATOM     60  C   UNL A   1      36.496  33.175  30.861  1.00  0.00    -0.014 A 
ATOM     61  C   UNL A   1      36.658  33.829  29.624  1.00  0.00     0.010 A 
ATOM     62  C   UNL A   1      35.256  33.254  31.519  1.00  0.00     0.010 A 
ATOM     63  C   UNL A   1      35.619  34.585  29.077  1.00  0.00     0.020 A 
ATOM     64  C   UNL A   1      34.202  33.981  30.956  1.00  0.00     0.020 A 
ATOM     65  C   UNL A   1      34.400  34.664  29.753  1.00  0.00     0.054 A 
BRANCH  65  66
ATOM     66  S   UNL A   1      33.074  35.678  29.043  1.00  0.00     0.124 S 
ATOM     67  O   UNL A   1      32.339  36.098  30.231  1.00  0.00    -0.237 OA
ATOM     68  O   UNL A   1      33.811  36.732  28.351  1.00  0.00    -0.237 OA
ATOM     69  O   UNL A   1      32.364  34.748  28.166  1.00  0.00    -0.744 OA
ENDBRANCH  65  66
ENDBRANCH  39  60
ENDBRANCH  13  14
ENDBRANCH   6   8
ENDBRANCH   3   4
ENDBRANCH   2   3
ENDBRANCH   1   2
BRANCH   1  70
ATOM     70  C   UNL A   1      49.632  25.373  35.404  1.00  0.00     0.002 C 
BRANCH  70  71
ATOM     71  C   UNL A   1      50.723  24.965  34.411  1.00  0.00     0.021 C 
BRANCH  71  72
ATOM     72  C   UNL A   1      51.546  23.752  34.830  1.00  0.00     0.116 C 
BRANCH  72  73
ATOM     73  N   UNL A   1      51.796  22.849  33.717  1.00  0.00    -0.352 N 
ATOM     74  C   UNL A   1      51.286  21.595  33.498  1.00  0.00     0.251 C 
ATOM     75  H   UNL A   1      52.416  23.182  33.029  1.00  0.00     0.163 HD
ATOM     76  O   UNL A   1      51.715  20.882  32.598  1.00  0.00    -0.269 OA
BRANCH  74  77
ATOM     77  C   UNL A   1      50.207  21.103  34.374  1.00  0.00     0.041 A 
ATOM     78  C   UNL A   1      48.875  21.177  33.951  1.00  0.00     0.015 A 
ATOM     79  C   UNL A   1      50.535  20.576  35.629  1.00  0.00     0.043 A 
ATOM     80  C   UNL A   1      47.861  20.820  34.828  1.00  0.00     0.017 A 
ATOM     81  C   UNL A   1      49.521  20.185  36.503  1.00  0.00     0.079 A 
ATOM     82  C   UNL A   1      48.196  20.345  36.101  1.00  0.00     0.066 A 
ATOM     83  N   UNL A   1      49.864  19.632  37.742  1.00  0.00    -0.228 NA
ATOM     84  C   UNL A   1      47.143  20.006  37.061  1.00  0.00     0.265 A 
ATOM     85  C   UNL A   1      48.919  19.289  38.563  1.00  0.00     0.159 A 
ATOM     86  O   UNL A   1      45.967  20.183  36.744  1.00  0.00    -0.268 OA
ATOM     87  N   UNL A   1      47.562  19.479  38.282  1.00  0.00    -0.266 N 
ATOM     88  C   UNL A   1      49.222  18.646  39.890  1.00  0.00     0.085 A 
ATOM     89  C   UNL A   1      46.576  19.138  39.200  1.00  0.00     0.109 A 
ATOM     90  C   UNL A   1      48.226  18.279  40.708  1.00  0.00     0.038 A 
ATOM     91  Cl  UNL A   1      50.867  18.374  40.319  1.00  0.00    -0.080 Cl
ATOM     92  C   UNL A   1      46.840  18.524  40.363  1.00  0.00     0.041 A 
BRANCH  92  93
ATOM     93  C   UNL A   1      45.751  18.168  41.333  1.00  0.00     0.198 C 
ATOM     94  O   UNL A   1      45.577  18.812  42.367  1.00  0.00    -0.288 OA
BRANCH  93  95
ATOM     95  C   UNL A   1      44.769  17.113  41.000  1.00  0.00     0.067 A 
ATOM     96  C   UNL A   1      44.551  16.705  39.679  1.00  0.00     0.055 A 
ATOM     97  C   UNL A   1      44.005  16.559  42.036  1.00  0.00     0.126 A 
ATOM     98  C   UNL A   1      43.511  15.822  39.409  1.00  0.00     0.124 A 
ATOM     99  C   UNL A   1      42.961  15.682  41.749  1.00  0.00     0.050 A 
ATOM    100  F   UNL A   1      43.272  15.464  38.140  1.00  0.00    -0.207 F 
ATOM    101  C   UNL A   1      42.705  15.323  40.427  1.00  0.00     0.043 A 
BRANCH  97 102
ATOM    102  O   UNL A   1      44.225  16.855  43.352  1.00  0.00    -0.507 OA
ATOM    103  H   UNL A   1      43.710  16.443  44.018  1.00  0.00     0.293 HD
ENDBRANCH  97 102
ENDBRANCH  93  95
ENDBRANCH  92  93
ENDBRANCH  74  77
ENDBRANCH  72  73
ENDBRANCH  71  72
ENDBRANCH  70  71
ENDBRANCH   1  70
TORSDOF 19
ENDMDL
