MODEL 1
REMARK VINA RESULT:     -11.2      0.000      0.000
REMARK SMILES CCCOC(=O)c1c(NC(=O)[C@@H]2CC=CC[C@H]2C(=O)NCCCCCCNC(=O)c2ccc(-c3c4nc(c(-c5ccc(S(=O)(=O)[O-])cc5)c5ccc([nH]5)c(-c5ccc(S(=O)(=O)[O-])cc5)c5nc(c(-c6ccc(S(=O)(=O)[O-])cc6)c6ccc3[nH]6)C=C5)C=C4)cc2)sc2c1CCCC2
REMARK SMILES IDX 22 1 21 2 20 3 18 4 19 5 17 7 12 8 13 9 14 10 16 11 15 12
REMARK SMILES IDX 10 13 9 14 11 16 8 17 7 18 92 19 90 20 91 21 93 22 96 23
REMARK SMILES IDX 94 24 95 25 5 26 6 27 4 28 3 29 2 30 1 31 23 32 24 33 25 34
REMARK SMILES IDX 26 35 27 36 28 37 29 39 30 40 31 41 89 42 32 43 88 44 33 45
REMARK SMILES IDX 34 46 35 47 82 48 36 49 87 50 81 51 83 52 37 53 86 54 80 55
REMARK SMILES IDX 79 56 38 58 68 59 49 60 67 61 50 62 53 63 66 64 84 65 51 66
REMARK SMILES IDX 52 67 65 69 85 70 54 71 39 72 40 73 48 74 41 75 47 76 42 77
REMARK SMILES IDX 43 78 44 79 45 80 46 81 69 82 70 83 78 84 71 85 77 86 72 87
REMARK SMILES IDX 73 88 74 89 75 90 76 91 55 92 56 93 64 94 57 95 63 96 58 97
REMARK SMILES IDX 59 98 60 99 61 100 62 101
REMARK H PARENT 20 6 9 15 27 38 83 57 53 68
REMARK Flexibility Score: inf
ROOT
ATOM      1  C   UNL A   1      38.466  23.794  26.515  1.00  0.00     0.021 C 
ENDROOT
BRANCH   1   2
ATOM      2  C   UNL A   1      37.097  23.638  25.840  1.00  0.00     0.116 C 
BRANCH   2   3
ATOM      3  N   UNL A   1      36.384  22.419  26.181  1.00  0.00    -0.356 N 
ATOM      4  C   UNL A   1      35.166  21.987  25.741  1.00  0.00     0.224 C 
ATOM      5  O   UNL A   1      35.133  20.806  25.365  1.00  0.00    -0.275 OA
ATOM      6  H   UNL A   1      36.842  21.823  26.816  1.00  0.00     0.163 HD
BRANCH   4   7
ATOM      7  C   UNL A   1      33.846  22.795  25.760  1.00  0.00     0.095 C 
ATOM      8  C   UNL A   1      32.967  22.844  24.496  1.00  0.00     0.095 C 
ATOM      9  C   UNL A   1      31.630  23.572  24.728  1.00  0.00     0.041 C 
ATOM     10  C   UNL A   1      30.919  23.101  25.953  1.00  0.00    -0.030 C 
ATOM     11  C   UNL A   1      33.072  22.478  27.066  1.00  0.00     0.041 C 
ATOM     12  C   UNL A   1      31.576  22.611  27.009  1.00  0.00    -0.030 C 
BRANCH   8  13
ATOM     13  C   UNL A   1      33.658  23.603  23.399  1.00  0.00     0.229 C 
ATOM     14  N   UNL A   1      33.704  24.950  23.339  1.00  0.00    -0.317 N 
ATOM     15  H   UNL A   1      34.353  25.256  22.665  1.00  0.00     0.170 HD
ATOM     16  O   UNL A   1      34.301  23.000  22.528  1.00  0.00    -0.274 OA
BRANCH  14  17
ATOM     17  C   UNL A   1      33.093  26.013  23.960  1.00  0.00     0.110 A 
ATOM     18  C   UNL A   1      32.032  26.902  23.852  1.00  0.00     0.098 A 
ATOM     19  C   UNL A   1      32.164  27.963  24.842  1.00  0.00    -0.017 A 
ATOM     20  S   UNL A   1      34.071  26.353  25.341  1.00  0.00    -0.122 S 
ATOM     21  C   UNL A   1      33.190  27.732  25.730  1.00  0.00     0.011 A 
ATOM     22  C   UNL A   1      31.263  29.162  24.986  1.00  0.00     0.038 C 
ATOM     23  C   UNL A   1      33.543  28.591  26.905  1.00  0.00     0.047 C 
ATOM     24  C   UNL A   1      31.862  30.213  25.929  1.00  0.00     0.005 C 
ATOM     25  C   UNL A   1      32.400  29.569  27.211  1.00  0.00     0.006 C 
BRANCH  18  26
ATOM     26  C   UNL A   1      30.896  26.911  22.934  1.00  0.00     0.341 C 
ATOM     27  O   UNL A   1      30.919  27.446  21.839  1.00  0.00    -0.246 OA
BRANCH  26  28
ATOM     28  O   UNL A   1      29.872  26.143  23.415  1.00  0.00    -0.462 OA
BRANCH  28  29
ATOM     29  C   UNL A   1      28.644  26.779  23.829  1.00  0.00     0.233 C 
BRANCH  29  30
ATOM     30  C   UNL A   1      28.399  28.080  23.072  1.00  0.00     0.038 C 
ATOM     31  C   UNL A   1      27.051  28.687  23.386  1.00  0.00     0.007 C 
ENDBRANCH  29  30
ENDBRANCH  28  29
ENDBRANCH  26  28
ENDBRANCH  18  26
ENDBRANCH  14  17
ENDBRANCH   8  13
ENDBRANCH   4   7
ENDBRANCH   2   3
ENDBRANCH   1   2
BRANCH   1  32
ATOM     32  C   UNL A   1      39.381  22.563  26.475  1.00  0.00     0.002 C 
BRANCH  32  33
ATOM     33  C   UNL A   1      40.350  22.387  27.654  1.00  0.00     0.002 C 
BRANCH  33  34
ATOM     34  C   UNL A   1      41.813  22.074  27.321  1.00  0.00     0.021 C 
BRANCH  34  35
ATOM     35  C   UNL A   1      42.788  23.250  27.334  1.00  0.00     0.116 C 
BRANCH  35  36
ATOM     36  N   UNL A   1      42.755  24.037  26.113  1.00  0.00    -0.352 N 
ATOM     37  C   UNL A   1      42.407  25.351  25.899  1.00  0.00     0.251 C 
ATOM     38  H   UNL A   1      43.024  23.548  25.303  1.00  0.00     0.163 HD
ATOM     39  O   UNL A   1      42.324  25.767  24.746  1.00  0.00    -0.269 OA
BRANCH  37  40
ATOM     40  C   UNL A   1      42.115  26.264  27.029  1.00  0.00     0.039 A 
ATOM     41  C   UNL A   1      41.072  25.941  27.904  1.00  0.00     0.014 A 
ATOM     42  C   UNL A   1      42.820  27.456  27.209  1.00  0.00     0.014 A 
ATOM     43  C   UNL A   1      40.781  26.777  28.987  1.00  0.00     0.010 A 
ATOM     44  C   UNL A   1      42.580  28.249  28.332  1.00  0.00     0.010 A 
ATOM     45  C   UNL A   1      41.554  27.923  29.231  1.00  0.00    -0.014 A 
BRANCH  45  46
ATOM     46  C   UNL A   1      41.297  28.786  30.417  1.00  0.00     0.031 A 
ATOM     47  C   UNL A   1      42.139  28.648  31.659  1.00  0.00     0.074 A 
ATOM     48  C   UNL A   1      40.273  29.662  30.398  1.00  0.00     0.049 A 
ATOM     49  N   UNL A   1      42.038  29.283  32.800  1.00  0.00    -0.248 NA
ATOM     50  C   UNL A   1      43.218  27.648  31.626  1.00  0.00     0.031 C 
ATOM     51  C   UNL A   1      39.359  29.872  29.271  1.00  0.00     0.029 A 
ATOM     52  N   UNL A   1      39.823  30.539  31.354  1.00  0.00    -0.354 N 
ATOM     53  C   UNL A   1      43.026  28.752  33.621  1.00  0.00     0.074 A 
ATOM     54  C   UNL A   1      43.677  27.703  32.867  1.00  0.00     0.031 C 
ATOM     55  C   UNL A   1      38.482  30.835  29.590  1.00  0.00     0.029 A 
ATOM     56  C   UNL A   1      38.734  31.281  30.956  1.00  0.00     0.049 A 
ATOM     57  H   UNL A   1      40.240  30.629  32.242  1.00  0.00     0.167 HD
ATOM     58  C   UNL A   1      43.375  29.115  34.880  1.00  0.00     0.031 A 
ATOM     59  C   UNL A   1      38.013  32.210  31.615  1.00  0.00     0.031 A 
ATOM     60  C   UNL A   1      42.725  30.161  35.627  1.00  0.00     0.049 A 
ATOM     61  C   UNL A   1      38.403  32.582  33.020  1.00  0.00     0.074 A 
ATOM     62  C   UNL A   1      43.037  30.638  36.888  1.00  0.00     0.029 A 
ATOM     63  N   UNL A   1      41.626  30.884  35.188  1.00  0.00    -0.354 N 
ATOM     64  N   UNL A   1      39.383  32.113  33.754  1.00  0.00    -0.248 NA
ATOM     65  C   UNL A   1      37.598  33.620  33.678  1.00  0.00     0.031 C 
ATOM     66  C   UNL A   1      42.085  31.602  37.239  1.00  0.00     0.029 A 
ATOM     67  C   UNL A   1      41.228  31.782  36.165  1.00  0.00     0.049 A 
ATOM     68  H   UNL A   1      41.193  30.777  34.311  1.00  0.00     0.167 HD
ATOM     69  C   UNL A   1      39.333  32.821  34.950  1.00  0.00     0.074 A 
ATOM     70  C   UNL A   1      38.234  33.759  34.833  1.00  0.00     0.031 C 
ATOM     71  C   UNL A   1      40.128  32.707  36.044  1.00  0.00     0.031 A 
BRANCH  58  72
ATOM     72  C   UNL A   1      44.501  28.356  35.538  1.00  0.00    -0.014 A 
ATOM     73  C   UNL A   1      45.838  28.784  35.425  1.00  0.00     0.010 A 
ATOM     74  C   UNL A   1      44.217  27.212  36.305  1.00  0.00     0.010 A 
ATOM     75  C   UNL A   1      46.870  28.050  36.015  1.00  0.00     0.020 A 
ATOM     76  C   UNL A   1      45.243  26.495  36.928  1.00  0.00     0.020 A 
ATOM     77  C   UNL A   1      46.566  26.907  36.760  1.00  0.00     0.054 A 
BRANCH  77  78
ATOM     78  S   UNL A   1      47.927  25.975  37.517  1.00  0.00     0.124 S 
ATOM     79  O   UNL A   1      49.091  26.751  37.096  1.00  0.00    -0.237 OA
ATOM     80  O   UNL A   1      47.606  26.043  38.940  1.00  0.00    -0.237 OA
ATOM     81  O   UNL A   1      47.815  24.649  36.917  1.00  0.00    -0.744 OA
ENDBRANCH  77  78
ENDBRANCH  58  72
BRANCH  59  82
ATOM     82  C   UNL A   1      36.855  32.862  30.941  1.00  0.00    -0.014 A 
ATOM     83  C   UNL A   1      35.537  32.507  31.275  1.00  0.00     0.010 A 
ATOM     84  C   UNL A   1      37.069  33.867  29.978  1.00  0.00     0.010 A 
ATOM     85  C   UNL A   1      34.454  33.134  30.652  1.00  0.00     0.020 A 
ATOM     86  C   UNL A   1      35.989  34.519  29.377  1.00  0.00     0.020 A 
ATOM     87  C   UNL A   1      34.687  34.143  29.712  1.00  0.00     0.054 A 
BRANCH  87  88
ATOM     88  S   UNL A   1      33.265  34.992  28.970  1.00  0.00     0.124 S 
ATOM     89  O   UNL A   1      32.424  35.250  30.133  1.00  0.00    -0.237 OA
ATOM     90  O   UNL A   1      33.885  36.166  28.361  1.00  0.00    -0.237 OA
ATOM     91  O   UNL A   1      32.740  34.011  28.021  1.00  0.00    -0.744 OA
ENDBRANCH  87  88
ENDBRANCH  59  82
BRANCH  71  92
ATOM     92  C   UNL A   1      39.870  33.648  37.193  1.00  0.00    -0.014 A 
ATOM     93  C   UNL A   1      40.354  34.969  37.187  1.00  0.00     0.010 A 
ATOM     94  C   UNL A   1      39.081  33.214  38.276  1.00  0.00     0.010 A 
ATOM     95  C   UNL A   1      40.086  35.824  38.260  1.00  0.00     0.020 A 
ATOM     96  C   UNL A   1      38.783  34.076  39.333  1.00  0.00     0.020 A 
ATOM     97  C   UNL A   1      39.301  35.373  39.326  1.00  0.00     0.054 A 
BRANCH  97  98
ATOM     98  S   UNL A   1      38.937  36.515  40.687  1.00  0.00     0.124 S 
ATOM     99  O   UNL A   1      38.587  37.739  39.971  1.00  0.00    -0.237 OA
ATOM    100  O   UNL A   1      37.832  35.850  41.373  1.00  0.00    -0.237 OA
ATOM    101  O   UNL A   1      40.188  36.570  41.438  1.00  0.00    -0.744 OA
ENDBRANCH  97  98
ENDBRANCH  71  92
ENDBRANCH  45  46
ENDBRANCH  37  40
ENDBRANCH  35  36
ENDBRANCH  34  35
ENDBRANCH  33  34
ENDBRANCH  32  33
ENDBRANCH   1  32
TORSDOF 22
ENDMDL
MODEL 2
REMARK VINA RESULT:     -10.7      5.936     11.305
REMARK SMILES CCCOC(=O)c1c(NC(=O)[C@@H]2CC=CC[C@H]2C(=O)NCCCCCCNC(=O)c2ccc(-c3c4nc(c(-c5ccc(S(=O)(=O)[O-])cc5)c5ccc([nH]5)c(-c5ccc(S(=O)(=O)[O-])cc5)c5nc(c(-c6ccc(S(=O)(=O)[O-])cc6)c6ccc3[nH]6)C=C5)C=C4)cc2)sc2c1CCCC2
REMARK SMILES IDX 22 1 21 2 20 3 18 4 19 5 17 7 12 8 13 9 14 10 16 11 15 12
REMARK SMILES IDX 10 13 9 14 11 16 8 17 7 18 92 19 90 20 91 21 93 22 96 23
REMARK SMILES IDX 94 24 95 25 5 26 6 27 4 28 3 29 2 30 1 31 23 32 24 33 25 34
REMARK SMILES IDX 26 35 27 36 28 37 29 39 30 40 31 41 89 42 32 43 88 44 33 45
REMARK SMILES IDX 34 46 35 47 82 48 36 49 87 50 81 51 83 52 37 53 86 54 80 55
REMARK SMILES IDX 79 56 38 58 68 59 49 60 67 61 50 62 53 63 66 64 84 65 51 66
REMARK SMILES IDX 52 67 65 69 85 70 54 71 39 72 40 73 48 74 41 75 47 76 42 77
REMARK SMILES IDX 43 78 44 79 45 80 46 81 69 82 70 83 78 84 71 85 77 86 72 87
REMARK SMILES IDX 73 88 74 89 75 90 76 91 55 92 56 93 64 94 57 95 63 96 58 97
REMARK SMILES IDX 59 98 60 99 61 100 62 101
REMARK H PARENT 20 6 9 15 27 38 83 57 53 68
REMARK Flexibility Score: inf
ROOT
ATOM      1  C   UNL A   1      34.275  29.106  26.888  1.00  0.00     0.021 C 
ENDROOT
BRANCH   1   2
ATOM      2  C   UNL A   1      33.795  27.919  26.042  1.00  0.00     0.116 C 
BRANCH   2   3
ATOM      3  N   UNL A   1      34.226  27.944  24.655  1.00  0.00    -0.356 N 
ATOM      4  C   UNL A   1      33.495  28.216  23.534  1.00  0.00     0.224 C 
ATOM      5  O   UNL A   1      34.018  29.020  22.750  1.00  0.00    -0.275 OA
ATOM      6  H   UNL A   1      35.176  27.737  24.503  1.00  0.00     0.163 HD
BRANCH   4   7
ATOM      7  C   UNL A   1      32.155  27.553  23.133  1.00  0.00     0.095 C 
ATOM      8  C   UNL A   1      32.020  26.020  23.189  1.00  0.00     0.095 C 
ATOM      9  C   UNL A   1      30.588  25.537  22.892  1.00  0.00     0.041 C 
ATOM     10  C   UNL A   1      29.554  26.275  23.677  1.00  0.00    -0.030 C 
ATOM     11  C   UNL A   1      30.986  28.324  23.797  1.00  0.00     0.041 C 
ATOM     12  C   UNL A   1      29.737  27.537  24.080  1.00  0.00    -0.030 C 
BRANCH   8  13
ATOM     13  C   UNL A   1      32.890  25.372  22.149  1.00  0.00     0.229 C 
ATOM     14  N   UNL A   1      33.222  24.064  22.165  1.00  0.00    -0.317 N 
ATOM     15  H   UNL A   1      33.633  23.790  21.313  1.00  0.00     0.170 HD
ATOM     16  O   UNL A   1      33.279  26.018  21.166  1.00  0.00    -0.274 OA
BRANCH  14  17
ATOM     17  C   UNL A   1      33.145  23.010  23.042  1.00  0.00     0.110 A 
ATOM     18  C   UNL A   1      33.469  22.613  24.333  1.00  0.00     0.098 A 
ATOM     19  C   UNL A   1      33.255  21.179  24.486  1.00  0.00    -0.017 A 
ATOM     20  S   UNL A   1      32.418  21.727  22.145  1.00  0.00    -0.122 S 
ATOM     21  C   UNL A   1      32.637  20.618  23.391  1.00  0.00     0.011 A 
ATOM     22  C   UNL A   1      33.575  20.357  25.707  1.00  0.00     0.038 C 
ATOM     23  C   UNL A   1      32.214  19.188  23.260  1.00  0.00     0.047 C 
ATOM     24  C   UNL A   1      33.498  18.854  25.416  1.00  0.00     0.005 C 
ATOM     25  C   UNL A   1      32.229  18.502  24.633  1.00  0.00     0.006 C 
BRANCH  18  26
ATOM     26  C   UNL A   1      33.969  23.390  25.464  1.00  0.00     0.341 C 
ATOM     27  O   UNL A   1      35.067  23.221  25.965  1.00  0.00    -0.246 OA
BRANCH  26  28
ATOM     28  O   UNL A   1      33.101  24.397  25.788  1.00  0.00    -0.462 OA
BRANCH  28  29
ATOM     29  C   UNL A   1      32.079  24.157  26.779  1.00  0.00     0.233 C 
BRANCH  29  30
ATOM     30  C   UNL A   1      30.747  23.784  26.139  1.00  0.00     0.038 C 
ATOM     31  C   UNL A   1      30.096  22.596  26.808  1.00  0.00     0.007 C 
ENDBRANCH  29  30
ENDBRANCH  28  29
ENDBRANCH  26  28
ENDBRANCH  18  26
ENDBRANCH  14  17
ENDBRANCH   8  13
ENDBRANCH   4   7
ENDBRANCH   2   3
ENDBRANCH   1   2
BRANCH   1  32
ATOM     32  C   UNL A   1      33.257  30.234  27.105  1.00  0.00     0.002 C 
BRANCH  32  33
ATOM     33  C   UNL A   1      33.696  31.390  28.016  1.00  0.00     0.002 C 
BRANCH  33  34
ATOM     34  C   UNL A   1      35.027  32.077  27.687  1.00  0.00     0.021 C 
BRANCH  34  35
ATOM     35  C   UNL A   1      36.003  32.276  28.846  1.00  0.00     0.116 C 
BRANCH  35  36
ATOM     36  N   UNL A   1      35.749  31.387  29.968  1.00  0.00    -0.352 N 
ATOM     37  C   UNL A   1      36.500  30.361  30.491  1.00  0.00     0.251 C 
ATOM     38  H   UNL A   1      34.894  31.545  30.431  1.00  0.00     0.163 HD
ATOM     39  O   UNL A   1      36.015  29.652  31.370  1.00  0.00    -0.269 OA
BRANCH  37  40
ATOM     40  C   UNL A   1      37.872  30.085  30.003  1.00  0.00     0.039 A 
ATOM     41  C   UNL A   1      38.916  30.016  30.931  1.00  0.00     0.014 A 
ATOM     42  C   UNL A   1      38.151  29.944  28.641  1.00  0.00     0.014 A 
ATOM     43  C   UNL A   1      40.220  29.745  30.502  1.00  0.00     0.010 A 
ATOM     44  C   UNL A   1      39.436  29.597  28.222  1.00  0.00     0.010 A 
ATOM     45  C   UNL A   1      40.487  29.499  29.146  1.00  0.00    -0.014 A 
BRANCH  45  46
ATOM     46  C   UNL A   1      41.858  29.145  28.683  1.00  0.00     0.031 A 
ATOM     47  C   UNL A   1      42.177  27.738  28.247  1.00  0.00     0.074 A 
ATOM     48  C   UNL A   1      42.832  30.076  28.703  1.00  0.00     0.049 A 
ATOM     49  N   UNL A   1      43.320  27.235  27.852  1.00  0.00    -0.248 NA
ATOM     50  C   UNL A   1      41.076  26.762  28.284  1.00  0.00     0.031 C 
ATOM     51  C   UNL A   1      42.666  31.466  29.134  1.00  0.00     0.029 A 
ATOM     52  N   UNL A   1      44.158  29.996  28.354  1.00  0.00    -0.354 N 
ATOM     53  C   UNL A   1      43.080  25.888  27.609  1.00  0.00     0.074 A 
ATOM     54  C   UNL A   1      41.697  25.640  27.955  1.00  0.00     0.031 C 
ATOM     55  C   UNL A   1      43.833  32.113  28.995  1.00  0.00     0.029 A 
ATOM     56  C   UNL A   1      44.844  31.178  28.512  1.00  0.00     0.049 A 
ATOM     57  H   UNL A   1      44.579  29.170  28.023  1.00  0.00     0.167 HD
ATOM     58  C   UNL A   1      43.924  24.945  27.123  1.00  0.00     0.031 A 
ATOM     59  C   UNL A   1      46.141  31.479  28.300  1.00  0.00     0.031 A 
ATOM     60  C   UNL A   1      45.300  25.197  26.777  1.00  0.00     0.049 A 
ATOM     61  C   UNL A   1      47.067  30.412  27.782  1.00  0.00     0.074 A 
ATOM     62  C   UNL A   1      46.223  24.322  26.230  1.00  0.00     0.029 A 
ATOM     63  N   UNL A   1      45.955  26.406  26.955  1.00  0.00    -0.354 N 
ATOM     64  N   UNL A   1      46.803  29.160  27.496  1.00  0.00    -0.248 NA
ATOM     65  C   UNL A   1      48.463  30.805  27.543  1.00  0.00     0.031 C 
ATOM     66  C   UNL A   1      47.452  24.983  26.140  1.00  0.00     0.029 A 
ATOM     67  C   UNL A   1      47.276  26.293  26.557  1.00  0.00     0.049 A 
ATOM     68  H   UNL A   1      45.541  27.226  27.310  1.00  0.00     0.167 HD
ATOM     69  C   UNL A   1      47.992  28.623  27.014  1.00  0.00     0.074 A 
ATOM     70  C   UNL A   1      48.971  29.691  27.035  1.00  0.00     0.031 C 
ATOM     71  C   UNL A   1      48.247  27.360  26.588  1.00  0.00     0.031 A 
BRANCH  58  72
ATOM     72  C   UNL A   1      43.386  23.545  26.956  1.00  0.00    -0.014 A 
ATOM     73  C   UNL A   1      43.388  22.628  28.024  1.00  0.00     0.010 A 
ATOM     74  C   UNL A   1      42.845  23.148  25.720  1.00  0.00     0.010 A 
ATOM     75  C   UNL A   1      42.914  21.326  27.842  1.00  0.00     0.020 A 
ATOM     76  C   UNL A   1      42.337  21.857  25.543  1.00  0.00     0.020 A 
ATOM     77  C   UNL A   1      42.396  20.948  26.600  1.00  0.00     0.054 A 
BRANCH  77  78
ATOM     78  S   UNL A   1      41.786  19.251  26.394  1.00  0.00     0.124 S 
ATOM     79  O   UNL A   1      41.840  18.745  27.763  1.00  0.00    -0.237 OA
ATOM     80  O   UNL A   1      40.445  19.458  25.852  1.00  0.00    -0.237 OA
ATOM     81  O   UNL A   1      42.744  18.648  25.471  1.00  0.00    -0.744 OA
ENDBRANCH  77  78
ENDBRANCH  58  72
BRANCH  59  82
ATOM     82  C   UNL A   1      46.633  32.860  28.567  1.00  0.00    -0.014 A 
ATOM     83  C   UNL A   1      47.149  33.207  29.828  1.00  0.00     0.010 A 
ATOM     84  C   UNL A   1      46.613  33.830  27.547  1.00  0.00     0.010 A 
ATOM     85  C   UNL A   1      47.625  34.500  30.067  1.00  0.00     0.020 A 
ATOM     86  C   UNL A   1      47.119  35.112  27.773  1.00  0.00     0.020 A 
ATOM     87  C   UNL A   1      47.614  35.443  29.035  1.00  0.00     0.054 A 
BRANCH  87  88
ATOM     88  S   UNL A   1      48.304  37.092  29.349  1.00  0.00     0.124 S 
ATOM     89  O   UNL A   1      47.396  37.949  28.594  1.00  0.00    -0.237 OA
ATOM     90  O   UNL A   1      48.214  37.196  30.803  1.00  0.00    -0.237 OA
ATOM     91  O   UNL A   1      49.664  36.998  28.821  1.00  0.00    -0.744 OA
ENDBRANCH  87  88
ENDBRANCH  59  82
BRANCH  71  92
ATOM     92  C   UNL A   1      49.631  27.067  26.068  1.00  0.00    -0.014 A 
ATOM     93  C   UNL A   1      50.670  26.661  26.926  1.00  0.00     0.010 A 
ATOM     94  C   UNL A   1      49.880  27.150  24.685  1.00  0.00     0.010 A 
ATOM     95  C   UNL A   1      51.940  26.381  26.413  1.00  0.00     0.020 A 
ATOM     96  C   UNL A   1      51.139  26.839  24.165  1.00  0.00     0.020 A 
ATOM     97  C   UNL A   1      52.167  26.471  25.036  1.00  0.00     0.054 A 
BRANCH  97  98
ATOM     98  S   UNL A   1      53.814  26.065  24.394  1.00  0.00     0.124 S 
ATOM     99  O   UNL A   1      53.833  24.610  24.506  1.00  0.00    -0.237 OA
ATOM    100  O   UNL A   1      53.762  26.590  23.032  1.00  0.00    -0.237 OA
ATOM    101  O   UNL A   1      54.721  26.772  25.295  1.00  0.00    -0.744 OA
ENDBRANCH  97  98
ENDBRANCH  71  92
ENDBRANCH  45  46
ENDBRANCH  37  40
ENDBRANCH  35  36
ENDBRANCH  34  35
ENDBRANCH  33  34
ENDBRANCH  32  33
ENDBRANCH   1  32
TORSDOF 22
ENDMDL
MODEL 3
REMARK VINA RESULT:     -10.2      5.878      9.990
REMARK SMILES CCCOC(=O)c1c(NC(=O)[C@@H]2CC=CC[C@H]2C(=O)NCCCCCCNC(=O)c2ccc(-c3c4nc(c(-c5ccc(S(=O)(=O)[O-])cc5)c5ccc([nH]5)c(-c5ccc(S(=O)(=O)[O-])cc5)c5nc(c(-c6ccc(S(=O)(=O)[O-])cc6)c6ccc3[nH]6)C=C5)C=C4)cc2)sc2c1CCCC2
REMARK SMILES IDX 22 1 21 2 20 3 18 4 19 5 17 7 12 8 13 9 14 10 16 11 15 12
REMARK SMILES IDX 10 13 9 14 11 16 8 17 7 18 92 19 90 20 91 21 93 22 96 23
REMARK SMILES IDX 94 24 95 25 5 26 6 27 4 28 3 29 2 30 1 31 23 32 24 33 25 34
REMARK SMILES IDX 26 35 27 36 28 37 29 39 30 40 31 41 89 42 32 43 88 44 33 45
REMARK SMILES IDX 34 46 35 47 82 48 36 49 87 50 81 51 83 52 37 53 86 54 80 55
REMARK SMILES IDX 79 56 38 58 68 59 49 60 67 61 50 62 53 63 66 64 84 65 51 66
REMARK SMILES IDX 52 67 65 69 85 70 54 71 39 72 40 73 48 74 41 75 47 76 42 77
REMARK SMILES IDX 43 78 44 79 45 80 46 81 69 82 70 83 78 84 71 85 77 86 72 87
REMARK SMILES IDX 73 88 74 89 75 90 76 91 55 92 56 93 64 94 57 95 63 96 58 97
REMARK SMILES IDX 59 98 60 99 61 100 62 101
REMARK H PARENT 20 6 9 15 27 38 83 57 53 68
REMARK Flexibility Score: inf
ROOT
ATOM      1  C   UNL A   1      38.232  23.423  26.122  1.00  0.00     0.021 C 
ENDROOT
BRANCH   1   2
ATOM      2  C   UNL A   1      36.714  23.638  26.044  1.00  0.00     0.116 C 
BRANCH   2   3
ATOM      3  N   UNL A   1      35.926  22.418  26.015  1.00  0.00    -0.356 N 
ATOM      4  C   UNL A   1      34.748  22.173  25.369  1.00  0.00     0.224 C 
ATOM      5  O   UNL A   1      34.716  21.117  24.720  1.00  0.00    -0.275 OA
ATOM      6  H   UNL A   1      36.292  21.664  26.531  1.00  0.00     0.163 HD
BRANCH   4   7
ATOM      7  C   UNL A   1      33.463  23.032  25.452  1.00  0.00     0.095 C 
ATOM      8  C   UNL A   1      32.557  23.163  24.213  1.00  0.00     0.095 C 
ATOM      9  C   UNL A   1      31.257  23.934  24.507  1.00  0.00     0.041 C 
ATOM     10  C   UNL A   1      30.557  23.446  25.731  1.00  0.00    -0.030 C 
ATOM     11  C   UNL A   1      32.709  22.696  26.764  1.00  0.00     0.041 C 
ATOM     12  C   UNL A   1      31.219  22.890  26.751  1.00  0.00    -0.030 C 
BRANCH   8  13
ATOM     13  C   UNL A   1      33.252  23.936  23.128  1.00  0.00     0.229 C 
ATOM     14  N   UNL A   1      33.392  25.278  23.142  1.00  0.00    -0.317 N 
ATOM     15  H   UNL A   1      34.031  25.577  22.455  1.00  0.00     0.170 HD
ATOM     16  O   UNL A   1      33.809  23.343  22.194  1.00  0.00    -0.274 OA
BRANCH  14  17
ATOM     17  C   UNL A   1      32.890  26.342  23.851  1.00  0.00     0.110 A 
ATOM     18  C   UNL A   1      31.894  27.310  23.845  1.00  0.00     0.098 A 
ATOM     19  C   UNL A   1      32.146  28.297  24.886  1.00  0.00    -0.017 A 
ATOM     20  S   UNL A   1      33.949  26.528  25.201  1.00  0.00    -0.122 S 
ATOM     21  C   UNL A   1      33.190  27.940  25.710  1.00  0.00     0.011 A 
ATOM     22  C   UNL A   1      31.344  29.546  25.141  1.00  0.00     0.038 C 
ATOM     23  C   UNL A   1      33.656  28.698  26.914  1.00  0.00     0.047 C 
ATOM     24  C   UNL A   1      32.059  30.493  26.113  1.00  0.00     0.005 C 
ATOM     25  C   UNL A   1      32.603  29.735  27.329  1.00  0.00     0.006 C 
BRANCH  18  26
ATOM     26  C   UNL A   1      30.723  27.455  22.983  1.00  0.00     0.341 C 
ATOM     27  O   UNL A   1      30.767  27.378  21.768  1.00  0.00    -0.246 OA
BRANCH  26  28
ATOM     28  O   UNL A   1      29.579  27.560  23.726  1.00  0.00    -0.462 OA
BRANCH  28  29
ATOM     29  C   UNL A   1      28.327  27.832  23.061  1.00  0.00     0.233 C 
BRANCH  29  30
ATOM     30  C   UNL A   1      27.991  29.319  23.076  1.00  0.00     0.038 C 
ATOM     31  C   UNL A   1      28.527  30.047  21.866  1.00  0.00     0.007 C 
ENDBRANCH  29  30
ENDBRANCH  28  29
ENDBRANCH  26  28
ENDBRANCH  18  26
ENDBRANCH  14  17
ENDBRANCH   8  13
ENDBRANCH   4   7
ENDBRANCH   2   3
ENDBRANCH   1   2
BRANCH   1  32
ATOM     32  C   UNL A   1      38.719  21.982  25.923  1.00  0.00     0.002 C 
BRANCH  32  33
ATOM     33  C   UNL A   1      40.196  21.706  26.243  1.00  0.00     0.002 C 
BRANCH  33  34
ATOM     34  C   UNL A   1      40.609  20.242  26.444  1.00  0.00     0.021 C 
BRANCH  34  35
ATOM     35  C   UNL A   1      42.077  19.983  26.777  1.00  0.00     0.116 C 
BRANCH  35  36
ATOM     36  N   UNL A   1      42.868  19.597  25.620  1.00  0.00    -0.352 N 
ATOM     37  C   UNL A   1      43.802  20.300  24.895  1.00  0.00     0.251 C 
ATOM     38  H   UNL A   1      42.708  18.680  25.301  1.00  0.00     0.163 HD
ATOM     39  O   UNL A   1      44.248  19.809  23.860  1.00  0.00    -0.269 OA
BRANCH  37  40
ATOM     40  C   UNL A   1      44.262  21.641  25.326  1.00  0.00     0.039 A 
ATOM     41  C   UNL A   1      43.805  22.766  24.632  1.00  0.00     0.014 A 
ATOM     42  C   UNL A   1      45.176  21.801  26.371  1.00  0.00     0.014 A 
ATOM     43  C   UNL A   1      44.213  24.046  25.023  1.00  0.00     0.010 A 
ATOM     44  C   UNL A   1      45.521  23.080  26.810  1.00  0.00     0.010 A 
ATOM     45  C   UNL A   1      45.049  24.218  26.138  1.00  0.00    -0.014 A 
BRANCH  45  46
ATOM     46  C   UNL A   1      45.438  25.577  26.606  1.00  0.00     0.031 A 
ATOM     47  C   UNL A   1      44.439  26.457  27.312  1.00  0.00     0.074 A 
ATOM     48  C   UNL A   1      46.677  26.042  26.353  1.00  0.00     0.049 A 
ATOM     49  N   UNL A   1      44.583  27.680  27.755  1.00  0.00    -0.248 NA
ATOM     50  C   UNL A   1      43.093  25.900  27.525  1.00  0.00     0.031 C 
ATOM     51  C   UNL A   1      47.730  25.306  25.648  1.00  0.00     0.029 A 
ATOM     52  N   UNL A   1      47.263  27.248  26.654  1.00  0.00    -0.354 N 
ATOM     53  C   UNL A   1      43.350  28.044  28.283  1.00  0.00     0.074 A 
ATOM     54  C   UNL A   1      42.453  26.932  28.054  1.00  0.00     0.031 C 
ATOM     55  C   UNL A   1      48.838  26.062  25.601  1.00  0.00     0.029 A 
ATOM     56  C   UNL A   1      48.565  27.352  26.225  1.00  0.00     0.049 A 
ATOM     57  H   UNL A   1      46.794  27.970  27.132  1.00  0.00     0.167 HD
ATOM     58  C   UNL A   1      42.998  29.188  28.919  1.00  0.00     0.031 A 
ATOM     59  C   UNL A   1      49.444  28.371  26.315  1.00  0.00     0.031 A 
ATOM     60  C   UNL A   1      43.895  30.292  29.146  1.00  0.00     0.049 A 
ATOM     61  C   UNL A   1      49.026  29.642  27.005  1.00  0.00     0.074 A 
ATOM     62  C   UNL A   1      43.649  31.474  29.825  1.00  0.00     0.029 A 
ATOM     63  N   UNL A   1      45.204  30.358  28.693  1.00  0.00    -0.354 N 
ATOM     64  N   UNL A   1      47.873  29.938  27.556  1.00  0.00    -0.248 NA
ATOM     65  C   UNL A   1      50.033  30.707  27.098  1.00  0.00     0.031 C 
ATOM     66  C   UNL A   1      44.787  32.281  29.723  1.00  0.00     0.029 A 
ATOM     67  C   UNL A   1      45.769  31.571  29.050  1.00  0.00     0.049 A 
ATOM     68  H   UNL A   1      45.665  29.646  28.193  1.00  0.00     0.167 HD
ATOM     69  C   UNL A   1      48.027  31.215  28.089  1.00  0.00     0.074 A 
ATOM     70  C   UNL A   1      49.387  31.624  27.805  1.00  0.00     0.031 C 
ATOM     71  C   UNL A   1      47.123  31.975  28.757  1.00  0.00     0.031 A 
BRANCH  58  72
ATOM     72  C   UNL A   1      41.571  29.311  29.395  1.00  0.00    -0.014 A 
ATOM     73  C   UNL A   1      41.223  29.064  30.736  1.00  0.00     0.010 A 
ATOM     74  C   UNL A   1      40.567  29.708  28.494  1.00  0.00     0.010 A 
ATOM     75  C   UNL A   1      39.891  29.153  31.151  1.00  0.00     0.020 A 
ATOM     76  C   UNL A   1      39.239  29.834  28.912  1.00  0.00     0.020 A 
ATOM     77  C   UNL A   1      38.907  29.533  30.234  1.00  0.00     0.054 A 
BRANCH  77  78
ATOM     78  S   UNL A   1      37.186  29.642  30.802  1.00  0.00     0.124 S 
ATOM     79  O   UNL A   1      36.449  29.269  29.597  1.00  0.00    -0.237 OA
ATOM     80  O   UNL A   1      37.148  28.668  31.890  1.00  0.00    -0.237 OA
ATOM     81  O   UNL A   1      37.044  31.037  31.210  1.00  0.00    -0.744 OA
ENDBRANCH  77  78
ENDBRANCH  58  72
BRANCH  59  82
ATOM     82  C   UNL A   1      50.813  28.221  25.746  1.00  0.00    -0.014 A 
ATOM     83  C   UNL A   1      51.889  27.825  26.560  1.00  0.00     0.010 A 
ATOM     84  C   UNL A   1      51.040  28.447  24.376  1.00  0.00     0.010 A 
ATOM     85  C   UNL A   1      53.168  27.669  26.017  1.00  0.00     0.020 A 
ATOM     86  C   UNL A   1      52.309  28.260  23.824  1.00  0.00     0.020 A 
ATOM     87  C   UNL A   1      53.368  27.880  24.649  1.00  0.00     0.054 A 
BRANCH  87  88
ATOM     88  S   UNL A   1      55.022  27.601  23.955  1.00  0.00     0.124 S 
ATOM     89  O   UNL A   1      54.947  28.328  22.692  1.00  0.00    -0.237 OA
ATOM     90  O   UNL A   1      55.891  28.185  24.973  1.00  0.00    -0.237 OA
ATOM     91  O   UNL A   1      55.101  26.146  23.837  1.00  0.00    -0.744 OA
ENDBRANCH  87  88
ENDBRANCH  59  82
BRANCH  71  92
ATOM     92  C   UNL A   1      47.584  33.316  29.268  1.00  0.00    -0.014 A 
ATOM     93  C   UNL A   1      47.430  34.487  28.505  1.00  0.00     0.010 A 
ATOM     94  C   UNL A   1      48.133  33.409  30.562  1.00  0.00     0.010 A 
ATOM     95  C   UNL A   1      47.852  35.720  29.011  1.00  0.00     0.020 A 
ATOM     96  C   UNL A   1      48.525  34.644  31.083  1.00  0.00     0.020 A 
ATOM     97  C   UNL A   1      48.397  35.791  30.298  1.00  0.00     0.054 A 
BRANCH  97  98
ATOM     98  S   UNL A   1      48.902  37.409  30.944  1.00  0.00     0.124 S 
ATOM     99  O   UNL A   1      49.980  37.777  30.032  1.00  0.00    -0.237 OA
ATOM    100  O   UNL A   1      47.678  38.196  30.822  1.00  0.00    -0.237 OA
ATOM    101  O   UNL A   1      49.317  37.120  32.315  1.00  0.00    -0.744 OA
ENDBRANCH  97  98
ENDBRANCH  71  92
ENDBRANCH  45  46
ENDBRANCH  37  40
ENDBRANCH  35  36
ENDBRANCH  34  35
ENDBRANCH  33  34
ENDBRANCH  32  33
ENDBRANCH   1  32
TORSDOF 22
ENDMDL
