MODEL 1
REMARK VINA RESULT:     -11.1      0.000      0.000
REMARK SMILES O=C(NCCCCCCNC(=O)C1(Cc2ccncc2)Cc2ccccc2C1)c1ccc(-c2c3nc(c(-c4ccc(S(=O)(=O)[O-])cc4)c4ccc([nH]4)c(-c4ccc(S(=O)(=O)[O-])cc4)c4nc(c(-c5ccc(S(=O)(=O)[O-])cc5)c5ccc2[nH]5)C=C4)C=C3)cc1
REMARK SMILES IDX 6 1 5 2 4 3 3 4 1 5 2 6 29 8 30 9 88 10 31 11 87 12 32 13
REMARK SMILES IDX 33 14 34 15 81 16 35 17 86 18 80 19 82 20 36 21 85 22 79 23
REMARK SMILES IDX 78 24 37 26 67 27 48 28 66 29 49 30 52 31 65 32 83 33 50 34
REMARK SMILES IDX 51 35 64 37 84 38 53 39 38 40 39 41 47 42 40 43 46 44 41 45
REMARK SMILES IDX 42 46 43 47 44 48 45 49 68 50 69 51 77 52 70 53 76 54 71 55
REMARK SMILES IDX 72 56 73 57 74 58 75 59 54 60 55 61 63 62 56 63 62 64 57 65
REMARK SMILES IDX 58 66 59 67 60 68 61 69 7 70 8 71 9 72 10 73 11 74 12 76
REMARK SMILES IDX 13 77 21 78 28 79 22 80 27 81 23 82 26 83 24 84 25 85 14 86
REMARK SMILES IDX 15 87 16 88 20 89 17 90 19 91 18 92
REMARK H PARENT 3 7 82 25 52 36 10 75
REMARK Flexibility Score: inf
ROOT
ATOM      1  C   UNL A   1      33.954  24.026  25.143  1.00  0.00     0.002 C 
ENDROOT
BRANCH   1   2
ATOM      2  C   UNL A   1      35.001  23.408  26.069  1.00  0.00     0.021 C 
BRANCH   2   3
ATOM      3  C   UNL A   1      36.414  23.934  25.862  1.00  0.00     0.116 C 
BRANCH   3   4
ATOM      4  N   UNL A   1      37.405  22.871  25.875  1.00  0.00    -0.352 N 
ATOM      5  O   UNL A   1      39.478  21.999  26.042  1.00  0.00    -0.269 OA
ATOM      6  C   UNL A   1      38.723  22.935  26.260  1.00  0.00     0.251 C 
ATOM      7  H   UNL A   1      37.090  21.990  25.568  1.00  0.00     0.163 HD
BRANCH   6   8
ATOM      8  C   UNL A   1      39.219  24.163  26.920  1.00  0.00     0.039 A 
ATOM      9  C   UNL A   1      38.914  24.416  28.260  1.00  0.00     0.014 A 
ATOM     10  C   UNL A   1      39.988  25.071  26.188  1.00  0.00     0.014 A 
ATOM     11  C   UNL A   1      39.270  25.633  28.830  1.00  0.00     0.010 A 
ATOM     12  C   UNL A   1      40.415  26.258  26.789  1.00  0.00     0.010 A 
ATOM     13  C   UNL A   1      40.039  26.559  28.107  1.00  0.00    -0.014 A 
BRANCH  13  14
ATOM     14  C   UNL A   1      40.507  27.796  28.782  1.00  0.00     0.031 A 
ATOM     15  C   UNL A   1      41.910  27.921  29.306  1.00  0.00     0.074 A 
ATOM     16  C   UNL A   1      39.645  28.826  28.896  1.00  0.00     0.049 A 
ATOM     17  N   UNL A   1      42.476  28.944  29.896  1.00  0.00    -0.248 NA
ATOM     18  C   UNL A   1      42.790  26.751  29.159  1.00  0.00     0.031 C 
ATOM     19  C   UNL A   1      38.253  28.815  28.433  1.00  0.00     0.029 A 
ATOM     20  N   UNL A   1      39.810  30.085  29.413  1.00  0.00    -0.354 N 
ATOM     21  C   UNL A   1      43.768  28.539  30.208  1.00  0.00     0.074 A 
ATOM     22  C   UNL A   1      43.897  27.169  29.759  1.00  0.00     0.031 C 
ATOM     23  C   UNL A   1      37.710  30.022  28.642  1.00  0.00     0.029 A 
ATOM     24  C   UNL A   1      38.688  30.872  29.309  1.00  0.00     0.049 A 
ATOM     25  H   UNL A   1      40.652  30.395  29.819  1.00  0.00     0.167 HD
ATOM     26  C   UNL A   1      44.754  29.246  30.811  1.00  0.00     0.031 A 
ATOM     27  C   UNL A   1      38.461  32.133  29.718  1.00  0.00     0.031 A 
ATOM     28  C   UNL A   1      44.617  30.610  31.255  1.00  0.00     0.049 A 
ATOM     29  C   UNL A   1      39.566  32.888  30.398  1.00  0.00     0.074 A 
ATOM     30  C   UNL A   1      45.567  31.421  31.851  1.00  0.00     0.029 A 
ATOM     31  N   UNL A   1      43.456  31.363  31.158  1.00  0.00    -0.354 N 
ATOM     32  N   UNL A   1      40.790  32.495  30.655  1.00  0.00    -0.248 NA
ATOM     33  C   UNL A   1      39.259  34.254  30.838  1.00  0.00     0.031 C 
ATOM     34  C   UNL A   1      44.968  32.648  32.156  1.00  0.00     0.029 A 
ATOM     35  C   UNL A   1      43.659  32.621  31.701  1.00  0.00     0.049 A 
ATOM     36  H   UNL A   1      42.611  31.050  30.761  1.00  0.00     0.167 HD
ATOM     37  C   UNL A   1      41.406  33.572  31.280  1.00  0.00     0.074 A 
ATOM     38  C   UNL A   1      40.426  34.637  31.340  1.00  0.00     0.031 C 
ATOM     39  C   UNL A   1      42.669  33.666  31.763  1.00  0.00     0.031 A 
BRANCH  26  40
ATOM     40  C   UNL A   1      46.068  28.550  31.053  1.00  0.00    -0.014 A 
ATOM     41  C   UNL A   1      46.292  27.801  32.222  1.00  0.00     0.010 A 
ATOM     42  C   UNL A   1      47.076  28.603  30.072  1.00  0.00     0.010 A 
ATOM     43  C   UNL A   1      47.512  27.146  32.420  1.00  0.00     0.020 A 
ATOM     44  C   UNL A   1      48.289  27.931  30.257  1.00  0.00     0.020 A 
ATOM     45  C   UNL A   1      48.504  27.219  31.438  1.00  0.00     0.054 A 
BRANCH  45  46
ATOM     46  S   UNL A   1      50.069  26.342  31.713  1.00  0.00     0.124 S 
ATOM     47  O   UNL A   1      50.018  26.081  33.150  1.00  0.00    -0.237 OA
ATOM     48  O   UNL A   1      49.933  25.166  30.858  1.00  0.00    -0.237 OA
ATOM     49  O   UNL A   1      51.084  27.304  31.290  1.00  0.00    -0.744 OA
ENDBRANCH  45  46
ENDBRANCH  26  40
BRANCH  27  50
ATOM     50  C   UNL A   1      37.124  32.745  29.501  1.00  0.00    -0.014 A 
ATOM     51  C   UNL A   1      36.147  32.708  30.511  1.00  0.00     0.010 A 
ATOM     52  C   UNL A   1      36.838  33.408  28.293  1.00  0.00     0.010 A 
ATOM     53  C   UNL A   1      34.905  33.316  30.312  1.00  0.00     0.020 A 
ATOM     54  C   UNL A   1      35.608  34.041  28.102  1.00  0.00     0.020 A 
ATOM     55  C   UNL A   1      34.645  33.982  29.110  1.00  0.00     0.054 A 
BRANCH  55  56
ATOM     56  S   UNL A   1      33.050  34.822  28.899  1.00  0.00     0.124 S 
ATOM     57  O   UNL A   1      32.366  33.939  27.959  1.00  0.00    -0.237 OA
ATOM     58  O   UNL A   1      32.517  34.836  30.259  1.00  0.00    -0.237 OA
ATOM     59  O   UNL A   1      33.424  36.133  28.371  1.00  0.00    -0.744 OA
ENDBRANCH  55  56
ENDBRANCH  27  50
BRANCH  39  60
ATOM     60  C   UNL A   1      43.066  34.979  32.381  1.00  0.00    -0.014 A 
ATOM     61  C   UNL A   1      43.712  35.972  31.624  1.00  0.00     0.010 A 
ATOM     62  C   UNL A   1      42.759  35.233  33.730  1.00  0.00     0.010 A 
ATOM     63  C   UNL A   1      44.076  37.184  32.215  1.00  0.00     0.020 A 
ATOM     64  C   UNL A   1      43.099  36.453  34.318  1.00  0.00     0.020 A 
ATOM     65  C   UNL A   1      43.770  37.415  33.561  1.00  0.00     0.054 A 
BRANCH  65  66
ATOM     66  S   UNL A   1      44.224  39.008  34.300  1.00  0.00     0.124 S 
ATOM     67  O   UNL A   1      43.155  39.880  33.824  1.00  0.00    -0.237 OA
ATOM     68  O   UNL A   1      44.209  38.716  35.731  1.00  0.00    -0.237 OA
ATOM     69  O   UNL A   1      45.547  39.282  33.741  1.00  0.00    -0.744 OA
ENDBRANCH  65  66
ENDBRANCH  39  60
ENDBRANCH  13  14
ENDBRANCH   6   8
ENDBRANCH   3   4
ENDBRANCH   2   3
ENDBRANCH   1   2
BRANCH   1  70
ATOM     70  C   UNL A   1      34.307  23.982  23.654  1.00  0.00     0.002 C 
BRANCH  70  71
ATOM     71  C   UNL A   1      33.140  23.644  22.713  1.00  0.00     0.021 C 
BRANCH  71  72
ATOM     72  C   UNL A   1      32.428  24.867  22.128  1.00  0.00     0.116 C 
BRANCH  72  73
ATOM     73  N   UNL A   1      33.267  26.041  22.281  1.00  0.00    -0.356 N 
ATOM     74  C   UNL A   1      32.928  27.325  22.563  1.00  0.00     0.227 C 
ATOM     75  H   UNL A   1      34.231  25.880  22.165  1.00  0.00     0.163 HD
ATOM     76  O   UNL A   1      33.628  28.182  22.015  1.00  0.00    -0.274 OA
BRANCH  74  77
ATOM     77  C   UNL A   1      31.733  27.696  23.453  1.00  0.00     0.061 C 
ATOM     78  C   UNL A   1      31.531  29.244  23.396  1.00  0.00     0.053 C 
ATOM     79  C   UNL A   1      30.392  27.053  22.986  1.00  0.00     0.053 C 
ATOM     80  C   UNL A   1      30.043  29.396  23.337  1.00  0.00    -0.044 A 
ATOM     81  C   UNL A   1      29.409  28.175  23.115  1.00  0.00    -0.044 A 
ATOM     82  C   UNL A   1      29.313  30.570  23.436  1.00  0.00     0.004 A 
ATOM     83  C   UNL A   1      28.029  28.098  22.996  1.00  0.00     0.004 A 
ATOM     84  C   UNL A   1      27.922  30.503  23.322  1.00  0.00     0.000 A 
ATOM     85  C   UNL A   1      27.284  29.273  23.106  1.00  0.00     0.000 A 
BRANCH  77  86
ATOM     86  C   UNL A   1      32.044  27.306  24.940  1.00  0.00     0.053 C 
BRANCH  86  87
ATOM     87  C   UNL A   1      32.685  28.354  25.833  1.00  0.00    -0.044 A 
ATOM     88  C   UNL A   1      31.943  29.351  26.472  1.00  0.00     0.024 A 
ATOM     89  C   UNL A   1      34.064  28.323  26.071  1.00  0.00     0.024 A 
ATOM     90  C   UNL A   1      32.596  30.271  27.278  1.00  0.00     0.111 A 
ATOM     91  C   UNL A   1      34.626  29.281  26.904  1.00  0.00     0.111 A 
ATOM     92  N   UNL A   1      33.924  30.260  27.510  1.00  0.00    -0.265 NA
ENDBRANCH  86  87
ENDBRANCH  77  86
ENDBRANCH  74  77
ENDBRANCH  72  73
ENDBRANCH  71  72
ENDBRANCH  70  71
ENDBRANCH   1  70
TORSDOF 18
ENDMDL
MODEL 2
REMARK VINA RESULT:     -11.0      2.581      9.490
REMARK SMILES O=C(NCCCCCCNC(=O)C1(Cc2ccncc2)Cc2ccccc2C1)c1ccc(-c2c3nc(c(-c4ccc(S(=O)(=O)[O-])cc4)c4ccc([nH]4)c(-c4ccc(S(=O)(=O)[O-])cc4)c4nc(c(-c5ccc(S(=O)(=O)[O-])cc5)c5ccc2[nH]5)C=C4)C=C3)cc1
REMARK SMILES IDX 6 1 5 2 4 3 3 4 1 5 2 6 29 8 30 9 88 10 31 11 87 12 32 13
REMARK SMILES IDX 33 14 34 15 81 16 35 17 86 18 80 19 82 20 36 21 85 22 79 23
REMARK SMILES IDX 78 24 37 26 67 27 48 28 66 29 49 30 52 31 65 32 83 33 50 34
REMARK SMILES IDX 51 35 64 37 84 38 53 39 38 40 39 41 47 42 40 43 46 44 41 45
REMARK SMILES IDX 42 46 43 47 44 48 45 49 68 50 69 51 77 52 70 53 76 54 71 55
REMARK SMILES IDX 72 56 73 57 74 58 75 59 54 60 55 61 63 62 56 63 62 64 57 65
REMARK SMILES IDX 58 66 59 67 60 68 61 69 7 70 8 71 9 72 10 73 11 74 12 76
REMARK SMILES IDX 13 77 21 78 28 79 22 80 27 81 23 82 26 83 24 84 25 85 14 86
REMARK SMILES IDX 15 87 16 88 20 89 17 90 19 91 18 92
REMARK H PARENT 3 7 82 25 52 36 10 75
REMARK Flexibility Score: inf
ROOT
ATOM      1  C   UNL A   1      32.114  27.647  24.793  1.00  0.00     0.002 C 
ENDROOT
BRANCH   1   2
ATOM      2  C   UNL A   1      32.420  27.255  26.238  1.00  0.00     0.021 C 
BRANCH   2   3
ATOM      3  C   UNL A   1      33.614  27.975  26.847  1.00  0.00     0.116 C 
BRANCH   3   4
ATOM      4  N   UNL A   1      33.344  29.382  27.089  1.00  0.00    -0.352 N 
ATOM      5  O   UNL A   1      33.708  31.417  27.991  1.00  0.00    -0.269 OA
ATOM      6  C   UNL A   1      34.148  30.315  27.699  1.00  0.00     0.251 C 
ATOM      7  H   UNL A   1      32.470  29.709  26.776  1.00  0.00     0.163 HD
BRANCH   6   8
ATOM      8  C   UNL A   1      35.549  29.958  28.016  1.00  0.00     0.039 A 
ATOM      9  C   UNL A   1      35.896  29.536  29.302  1.00  0.00     0.014 A 
ATOM     10  C   UNL A   1      36.522  30.055  27.018  1.00  0.00     0.014 A 
ATOM     11  C   UNL A   1      37.233  29.332  29.623  1.00  0.00     0.010 A 
ATOM     12  C   UNL A   1      37.856  29.771  27.324  1.00  0.00     0.010 A 
ATOM     13  C   UNL A   1      38.225  29.430  28.634  1.00  0.00    -0.014 A 
BRANCH  13  14
ATOM     14  C   UNL A   1      39.629  29.089  28.980  1.00  0.00     0.031 A 
ATOM     15  C   UNL A   1      40.518  30.066  29.696  1.00  0.00     0.074 A 
ATOM     16  C   UNL A   1      40.086  27.864  28.656  1.00  0.00     0.049 A 
ATOM     17  N   UNL A   1      41.757  29.909  30.090  1.00  0.00    -0.248 NA
ATOM     18  C   UNL A   1      39.954  31.389  30.006  1.00  0.00     0.031 C 
ATOM     19  C   UNL A   1      39.315  26.836  27.949  1.00  0.00     0.029 A 
ATOM     20  N   UNL A   1      41.297  27.265  28.892  1.00  0.00    -0.354 N 
ATOM     21  C   UNL A   1      42.128  31.114  30.675  1.00  0.00     0.074 A 
ATOM     22  C   UNL A   1      40.989  32.000  30.568  1.00  0.00     0.031 C 
ATOM     23  C   UNL A   1      40.052  25.721  27.853  1.00  0.00     0.029 A 
ATOM     24  C   UNL A   1      41.366  25.971  28.432  1.00  0.00     0.049 A 
ATOM     25  H   UNL A   1      42.043  27.718  29.347  1.00  0.00     0.167 HD
ATOM     26  C   UNL A   1      43.310  31.447  31.249  1.00  0.00     0.031 A 
ATOM     27  C   UNL A   1      42.378  25.085  28.457  1.00  0.00     0.031 A 
ATOM     28  C   UNL A   1      44.440  30.558  31.351  1.00  0.00     0.049 A 
ATOM     29  C   UNL A   1      43.681  25.486  29.084  1.00  0.00     0.074 A 
ATOM     30  C   UNL A   1      45.670  30.793  31.940  1.00  0.00     0.029 A 
ATOM     31  N   UNL A   1      44.480  29.266  30.848  1.00  0.00    -0.354 N 
ATOM     32  N   UNL A   1      44.000  26.621  29.659  1.00  0.00    -0.248 NA
ATOM     33  C   UNL A   1      44.757  24.487  29.070  1.00  0.00     0.031 C 
ATOM     34  C   UNL A   1      46.470  29.661  31.753  1.00  0.00     0.029 A 
ATOM     35  C   UNL A   1      45.721  28.700  31.095  1.00  0.00     0.049 A 
ATOM     36  H   UNL A   1      43.737  28.816  30.384  1.00  0.00     0.167 HD
ATOM     37  C   UNL A   1      45.314  26.470  30.085  1.00  0.00     0.074 A 
ATOM     38  C   UNL A   1      45.719  25.126  29.722  1.00  0.00     0.031 C 
ATOM     39  C   UNL A   1      46.111  27.365  30.717  1.00  0.00     0.031 A 
BRANCH  26  40
ATOM     40  C   UNL A   1      43.456  32.845  31.791  1.00  0.00    -0.014 A 
ATOM     41  C   UNL A   1      43.148  33.143  33.131  1.00  0.00     0.010 A 
ATOM     42  C   UNL A   1      43.959  33.865  30.963  1.00  0.00     0.010 A 
ATOM     43  C   UNL A   1      43.309  34.442  33.622  1.00  0.00     0.020 A 
ATOM     44  C   UNL A   1      44.143  35.161  31.457  1.00  0.00     0.020 A 
ATOM     45  C   UNL A   1      43.801  35.444  32.780  1.00  0.00     0.054 A 
BRANCH  45  46
ATOM     46  S   UNL A   1      44.019  37.117  33.450  1.00  0.00     0.124 S 
ATOM     47  O   UNL A   1      45.298  36.996  34.147  1.00  0.00    -0.237 OA
ATOM     48  O   UNL A   1      44.038  37.945  32.246  1.00  0.00    -0.237 OA
ATOM     49  O   UNL A   1      42.854  37.300  34.311  1.00  0.00    -0.744 OA
ENDBRANCH  45  46
ENDBRANCH  26  40
BRANCH  27  50
ATOM     50  C   UNL A   1      42.190  23.740  27.854  1.00  0.00    -0.014 A 
ATOM     51  C   UNL A   1      42.595  23.484  26.533  1.00  0.00     0.010 A 
ATOM     52  C   UNL A   1      41.642  22.693  28.619  1.00  0.00     0.010 A 
ATOM     53  C   UNL A   1      42.447  22.207  25.984  1.00  0.00     0.020 A 
ATOM     54  C   UNL A   1      41.519  21.409  28.083  1.00  0.00     0.020 A 
ATOM     55  C   UNL A   1      41.913  21.177  26.765  1.00  0.00     0.054 A 
BRANCH  55  56
ATOM     56  S   UNL A   1      41.792  19.512  26.056  1.00  0.00     0.124 S 
ATOM     57  O   UNL A   1      40.373  19.427  25.725  1.00  0.00    -0.237 OA
ATOM     58  O   UNL A   1      42.705  19.583  24.918  1.00  0.00    -0.237 OA
ATOM     59  O   UNL A   1      42.235  18.645  27.146  1.00  0.00    -0.744 OA
ENDBRANCH  55  56
ENDBRANCH  27  50
BRANCH  39  60
ATOM     60  C   UNL A   1      47.499  26.908  31.074  1.00  0.00    -0.014 A 
ATOM     61  C   UNL A   1      47.754  26.234  32.281  1.00  0.00     0.010 A 
ATOM     62  C   UNL A   1      48.556  27.130  30.173  1.00  0.00     0.010 A 
ATOM     63  C   UNL A   1      49.050  25.820  32.597  1.00  0.00     0.020 A 
ATOM     64  C   UNL A   1      49.849  26.694  30.474  1.00  0.00     0.020 A 
ATOM     65  C   UNL A   1      50.091  26.056  31.692  1.00  0.00     0.054 A 
BRANCH  65  66
ATOM     66  S   UNL A   1      51.759  25.482  32.110  1.00  0.00     0.124 S 
ATOM     67  O   UNL A   1      51.997  26.144  33.388  1.00  0.00    -0.237 OA
ATOM     68  O   UNL A   1      51.596  24.032  32.173  1.00  0.00    -0.237 OA
ATOM     69  O   UNL A   1      52.578  25.963  30.997  1.00  0.00    -0.744 OA
ENDBRANCH  65  66
ENDBRANCH  39  60
ENDBRANCH  13  14
ENDBRANCH   6   8
ENDBRANCH   3   4
ENDBRANCH   2   3
ENDBRANCH   1   2
BRANCH   1  70
ATOM     70  C   UNL A   1      30.631  27.601  24.414  1.00  0.00     0.002 C 
BRANCH  70  71
ATOM     71  C   UNL A   1      30.266  26.585  23.321  1.00  0.00     0.021 C 
BRANCH  71  72
ATOM     72  C   UNL A   1      30.771  25.164  23.587  1.00  0.00     0.116 C 
BRANCH  72  73
ATOM     73  N   UNL A   1      31.624  24.736  22.494  1.00  0.00    -0.356 N 
ATOM     74  C   UNL A   1      32.927  24.356  22.502  1.00  0.00     0.227 C 
ATOM     75  H   UNL A   1      31.189  24.717  21.611  1.00  0.00     0.163 HD
ATOM     76  O   UNL A   1      33.571  24.677  21.498  1.00  0.00    -0.274 OA
BRANCH  74  77
ATOM     77  C   UNL A   1      33.576  23.627  23.688  1.00  0.00     0.061 C 
ATOM     78  C   UNL A   1      34.647  22.633  23.135  1.00  0.00     0.053 C 
ATOM     79  C   UNL A   1      34.318  24.584  24.669  1.00  0.00     0.053 C 
ATOM     80  C   UNL A   1      35.780  22.773  24.104  1.00  0.00    -0.044 A 
ATOM     81  C   UNL A   1      35.593  23.856  24.963  1.00  0.00    -0.044 A 
ATOM     82  C   UNL A   1      36.925  21.996  24.177  1.00  0.00     0.004 A 
ATOM     83  C   UNL A   1      36.542  24.181  25.919  1.00  0.00     0.004 A 
ATOM     84  C   UNL A   1      37.886  22.312  25.141  1.00  0.00     0.000 A 
ATOM     85  C   UNL A   1      37.694  23.397  26.008  1.00  0.00     0.000 A 
BRANCH  77  86
ATOM     86  C   UNL A   1      32.490  22.789  24.448  1.00  0.00     0.053 C 
BRANCH  86  87
ATOM     87  C   UNL A   1      32.549  21.276  24.339  1.00  0.00    -0.044 A 
ATOM     88  C   UNL A   1      32.181  20.593  23.176  1.00  0.00     0.024 A 
ATOM     89  C   UNL A   1      33.020  20.514  25.413  1.00  0.00     0.024 A 
ATOM     90  C   UNL A   1      32.267  19.210  23.146  1.00  0.00     0.111 A 
ATOM     91  C   UNL A   1      33.081  19.133  25.285  1.00  0.00     0.111 A 
ATOM     92  N   UNL A   1      32.709  18.460  24.176  1.00  0.00    -0.265 NA
ENDBRANCH  86  87
ENDBRANCH  77  86
ENDBRANCH  74  77
ENDBRANCH  72  73
ENDBRANCH  71  72
ENDBRANCH  70  71
ENDBRANCH   1  70
TORSDOF 18
ENDMDL
MODEL 3
REMARK VINA RESULT:     -10.9      3.601      4.717
REMARK SMILES O=C(NCCCCCCNC(=O)C1(Cc2ccncc2)Cc2ccccc2C1)c1ccc(-c2c3nc(c(-c4ccc(S(=O)(=O)[O-])cc4)c4ccc([nH]4)c(-c4ccc(S(=O)(=O)[O-])cc4)c4nc(c(-c5ccc(S(=O)(=O)[O-])cc5)c5ccc2[nH]5)C=C4)C=C3)cc1
REMARK SMILES IDX 6 1 5 2 4 3 3 4 1 5 2 6 29 8 30 9 88 10 31 11 87 12 32 13
REMARK SMILES IDX 33 14 34 15 81 16 35 17 86 18 80 19 82 20 36 21 85 22 79 23
REMARK SMILES IDX 78 24 37 26 67 27 48 28 66 29 49 30 52 31 65 32 83 33 50 34
REMARK SMILES IDX 51 35 64 37 84 38 53 39 38 40 39 41 47 42 40 43 46 44 41 45
REMARK SMILES IDX 42 46 43 47 44 48 45 49 68 50 69 51 77 52 70 53 76 54 71 55
REMARK SMILES IDX 72 56 73 57 74 58 75 59 54 60 55 61 63 62 56 63 62 64 57 65
REMARK SMILES IDX 58 66 59 67 60 68 61 69 7 70 8 71 9 72 10 73 11 74 12 76
REMARK SMILES IDX 13 77 21 78 28 79 22 80 27 81 23 82 26 83 24 84 25 85 14 86
REMARK SMILES IDX 15 87 16 88 20 89 17 90 19 91 18 92
REMARK H PARENT 3 7 82 25 52 36 10 75
REMARK Flexibility Score: inf
ROOT
ATOM      1  C   UNL A   1      37.165  22.548  25.342  1.00  0.00     0.002 C 
ENDROOT
BRANCH   1   2
ATOM      2  C   UNL A   1      37.352  23.939  25.946  1.00  0.00     0.021 C 
BRANCH   2   3
ATOM      3  C   UNL A   1      38.609  24.097  26.788  1.00  0.00     0.116 C 
BRANCH   3   4
ATOM      4  N   UNL A   1      39.786  24.362  25.978  1.00  0.00    -0.352 N 
ATOM      5  O   UNL A   1      41.524  25.583  25.220  1.00  0.00    -0.269 OA
ATOM      6  C   UNL A   1      40.688  25.394  26.091  1.00  0.00     0.251 C 
ATOM      7  H   UNL A   1      39.959  23.719  25.253  1.00  0.00     0.163 HD
BRANCH   6   8
ATOM      8  C   UNL A   1      40.615  26.284  27.270  1.00  0.00     0.039 A 
ATOM      9  C   UNL A   1      39.810  25.946  28.362  1.00  0.00     0.014 A 
ATOM     10  C   UNL A   1      41.353  27.471  27.279  1.00  0.00     0.014 A 
ATOM     11  C   UNL A   1      39.646  26.851  29.403  1.00  0.00     0.010 A 
ATOM     12  C   UNL A   1      41.248  28.343  28.366  1.00  0.00     0.010 A 
ATOM     13  C   UNL A   1      40.375  28.051  29.426  1.00  0.00    -0.014 A 
BRANCH  13  14
ATOM     14  C   UNL A   1      40.270  28.942  30.609  1.00  0.00     0.031 A 
ATOM     15  C   UNL A   1      41.191  28.793  31.787  1.00  0.00     0.074 A 
ATOM     16  C   UNL A   1      39.335  29.912  30.596  1.00  0.00     0.049 A 
ATOM     17  N   UNL A   1      41.242  29.507  32.883  1.00  0.00    -0.248 NA
ATOM     18  C   UNL A   1      42.178  27.702  31.736  1.00  0.00     0.031 C 
ATOM     19  C   UNL A   1      38.377  30.145  29.510  1.00  0.00     0.029 A 
ATOM     20  N   UNL A   1      39.047  30.896  31.506  1.00  0.00    -0.354 N 
ATOM     21  C   UNL A   1      42.247  28.945  33.660  1.00  0.00     0.074 A 
ATOM     22  C   UNL A   1      42.769  27.817  32.918  1.00  0.00     0.031 C 
ATOM     23  C   UNL A   1      37.643  31.229  29.795  1.00  0.00     0.029 A 
ATOM     24  C   UNL A   1      38.031  31.731  31.107  1.00  0.00     0.049 A 
ATOM     25  H   UNL A   1      39.523  30.994  32.363  1.00  0.00     0.167 HD
ATOM     26  C   UNL A   1      42.694  29.337  34.878  1.00  0.00     0.031 A 
ATOM     27  C   UNL A   1      37.461  32.778  31.731  1.00  0.00     0.031 A 
ATOM     28  C   UNL A   1      42.168  30.462  35.610  1.00  0.00     0.049 A 
ATOM     29  C   UNL A   1      37.964  33.180  33.086  1.00  0.00     0.074 A 
ATOM     30  C   UNL A   1      42.573  30.955  36.838  1.00  0.00     0.029 A 
ATOM     31  N   UNL A   1      41.121  31.265  35.184  1.00  0.00    -0.354 N 
ATOM     32  N   UNL A   1      38.936  32.653  33.789  1.00  0.00    -0.248 NA
ATOM     33  C   UNL A   1      37.296  34.318  33.729  1.00  0.00     0.031 C 
ATOM     34  C   UNL A   1      41.741  32.028  37.177  1.00  0.00     0.029 A 
ATOM     35  C   UNL A   1      40.852  32.237  36.135  1.00  0.00     0.049 A 
ATOM     36  H   UNL A   1      40.639  31.162  34.332  1.00  0.00     0.167 HD
ATOM     37  C   UNL A   1      39.005  33.402  34.957  1.00  0.00     0.074 A 
ATOM     38  C   UNL A   1      37.991  34.432  34.852  1.00  0.00     0.031 C 
ATOM     39  C   UNL A   1      39.832  33.248  36.020  1.00  0.00     0.031 A 
BRANCH  26  40
ATOM     40  C   UNL A   1      43.792  28.526  35.516  1.00  0.00    -0.014 A 
ATOM     41  C   UNL A   1      43.501  27.416  36.329  1.00  0.00     0.010 A 
ATOM     42  C   UNL A   1      45.137  28.848  35.255  1.00  0.00     0.010 A 
ATOM     43  C   UNL A   1      44.535  26.665  36.897  1.00  0.00     0.020 A 
ATOM     44  C   UNL A   1      46.173  28.085  35.803  1.00  0.00     0.020 A 
ATOM     45  C   UNL A   1      45.864  27.007  36.633  1.00  0.00     0.054 A 
BRANCH  45  46
ATOM     46  S   UNL A   1      47.185  26.001  37.367  1.00  0.00     0.124 S 
ATOM     47  O   UNL A   1      46.839  26.042  38.786  1.00  0.00    -0.237 OA
ATOM     48  O   UNL A   1      47.003  24.707  36.715  1.00  0.00    -0.237 OA
ATOM     49  O   UNL A   1      48.407  26.714  37.002  1.00  0.00    -0.744 OA
ENDBRANCH  45  46
ENDBRANCH  26  40
BRANCH  27  50
ATOM     50  C   UNL A   1      36.341  33.503  31.073  1.00  0.00    -0.014 A 
ATOM     51  C   UNL A   1      35.163  33.792  31.780  1.00  0.00     0.010 A 
ATOM     52  C   UNL A   1      36.471  33.945  29.743  1.00  0.00     0.010 A 
ATOM     53  C   UNL A   1      34.129  34.504  31.166  1.00  0.00     0.020 A 
ATOM     54  C   UNL A   1      35.452  34.682  29.136  1.00  0.00     0.020 A 
ATOM     55  C   UNL A   1      34.282  34.947  29.849  1.00  0.00     0.054 A 
BRANCH  55  56
ATOM     56  S   UNL A   1      32.955  35.928  29.093  1.00  0.00     0.124 S 
ATOM     57  O   UNL A   1      32.355  34.965  28.175  1.00  0.00    -0.237 OA
ATOM     58  O   UNL A   1      32.139  36.300  30.246  1.00  0.00    -0.237 OA
ATOM     59  O   UNL A   1      33.669  37.036  28.462  1.00  0.00    -0.744 OA
ENDBRANCH  55  56
ENDBRANCH  27  50
BRANCH  39  60
ATOM     60  C   UNL A   1      39.684  34.234  37.147  1.00  0.00    -0.014 A 
ATOM     61  C   UNL A   1      38.956  33.909  38.305  1.00  0.00     0.010 A 
ATOM     62  C   UNL A   1      40.309  35.490  37.056  1.00  0.00     0.010 A 
ATOM     63  C   UNL A   1      38.827  34.839  39.340  1.00  0.00     0.020 A 
ATOM     64  C   UNL A   1      40.204  36.413  38.100  1.00  0.00     0.020 A 
ATOM     65  C   UNL A   1      39.450  36.087  39.228  1.00  0.00     0.054 A 
BRANCH  65  66
ATOM     66  S   UNL A   1      39.294  37.266  40.597  1.00  0.00     0.124 S 
ATOM     67  O   UNL A   1      38.292  38.195  40.086  1.00  0.00    -0.237 OA
ATOM     68  O   UNL A   1      38.860  36.419  41.705  1.00  0.00    -0.237 OA
ATOM     69  O   UNL A   1      40.642  37.815  40.734  1.00  0.00    -0.744 OA
ENDBRANCH  65  66
ENDBRANCH  39  60
ENDBRANCH  13  14
ENDBRANCH   6   8
ENDBRANCH   3   4
ENDBRANCH   2   3
ENDBRANCH   1   2
BRANCH   1  70
ATOM     70  C   UNL A   1      36.026  22.437  24.324  1.00  0.00     0.002 C 
BRANCH  70  71
ATOM     71  C   UNL A   1      34.774  21.699  24.821  1.00  0.00     0.021 C 
BRANCH  71  72
ATOM     72  C   UNL A   1      33.455  22.260  24.281  1.00  0.00     0.116 C 
BRANCH  72  73
ATOM     73  N   UNL A   1      32.483  22.342  25.356  1.00  0.00    -0.356 N 
ATOM     74  C   UNL A   1      32.111  23.404  26.116  1.00  0.00     0.227 C 
ATOM     75  H   UNL A   1      32.023  21.499  25.564  1.00  0.00     0.163 HD
ATOM     76  O   UNL A   1      31.831  23.134  27.289  1.00  0.00    -0.274 OA
BRANCH  74  77
ATOM     77  C   UNL A   1      32.086  24.844  25.583  1.00  0.00     0.061 C 
ATOM     78  C   UNL A   1      31.178  25.706  26.517  1.00  0.00     0.053 C 
ATOM     79  C   UNL A   1      33.489  25.522  25.573  1.00  0.00     0.053 C 
ATOM     80  C   UNL A   1      31.925  26.997  26.630  1.00  0.00    -0.044 A 
ATOM     81  C   UNL A   1      33.210  26.897  26.098  1.00  0.00    -0.044 A 
ATOM     82  C   UNL A   1      31.486  28.175  27.213  1.00  0.00     0.004 A 
ATOM     83  C   UNL A   1      34.082  27.975  26.129  1.00  0.00     0.004 A 
ATOM     84  C   UNL A   1      32.355  29.269  27.245  1.00  0.00     0.000 A 
ATOM     85  C   UNL A   1      33.644  29.169  26.704  1.00  0.00     0.000 A 
BRANCH  77  86
ATOM     86  C   UNL A   1      31.454  24.862  24.147  1.00  0.00     0.053 C 
BRANCH  86  87
ATOM     87  C   UNL A   1      30.700  26.107  23.715  1.00  0.00    -0.044 A 
ATOM     88  C   UNL A   1      31.316  27.156  23.027  1.00  0.00     0.024 A 
ATOM     89  C   UNL A   1      29.329  26.221  23.972  1.00  0.00     0.024 A 
ATOM     90  C   UNL A   1      30.563  28.260  22.659  1.00  0.00     0.111 A 
ATOM     91  C   UNL A   1      28.657  27.361  23.554  1.00  0.00     0.111 A 
ATOM     92  N   UNL A   1      29.243  28.389  22.907  1.00  0.00    -0.265 NA
ENDBRANCH  86  87
ENDBRANCH  77  86
ENDBRANCH  74  77
ENDBRANCH  72  73
ENDBRANCH  71  72
ENDBRANCH  70  71
ENDBRANCH   1  70
TORSDOF 18
ENDMDL
