MODEL 1
REMARK VINA RESULT:     -11.4      0.000      0.000
REMARK SMILES O=C(NCCCCCCNC(=O)[C@@H]1[C@@H](C(=O)N2CC[NH+](C/C=C/c3ccccc3)CC2)[C@@H]2C=C[C@H]1C2)c1ccc(-c2c3nc(c(-c4ccc(S(=O)(=O)[O-])cc4)c4ccc([nH]4)c(-c4ccc(S(=O)(=O)[O-])cc4)c4nc(c(-c5ccc(S(=O)(=O)[O-])cc5)c5ccc2[nH]5)C=C4)C=C3)cc1
REMARK SMILES IDX 7 1 6 2 5 3 4 4 3 5 1 6 2 7 37 9 38 10 96 11 39 12 95 13
REMARK SMILES IDX 40 14 41 15 42 16 89 17 43 18 94 19 88 20 90 21 44 22 93 23
REMARK SMILES IDX 87 24 86 25 45 27 75 28 56 29 74 30 57 31 60 32 73 33 91 34
REMARK SMILES IDX 58 35 59 36 72 38 92 39 61 40 46 41 47 42 55 43 48 44 54 45
REMARK SMILES IDX 49 46 50 47 51 48 52 49 53 50 76 51 77 52 85 53 78 54 84 55
REMARK SMILES IDX 79 56 80 57 81 58 82 59 83 60 62 61 63 62 71 63 64 64 70 65
REMARK SMILES IDX 65 66 66 67 67 68 68 69 69 70 8 71 9 72 10 73 11 74 12 76
REMARK SMILES IDX 13 77 14 78 35 79 32 80 34 81 36 82 33 83 15 84 16 85 17 86
REMARK SMILES IDX 18 87 31 88 19 89 30 90 20 91 21 93 22 94 23 95 24 96 25 97
REMARK SMILES IDX 29 98 26 99 28 100 27 101
REMARK H PARENT 3 8 90 26 60 37 10 75 20 92
REMARK Flexibility Score: inf
ROOT
ATOM      1  C   UNL A   1      34.559  31.251  27.760  1.00  0.00     0.002 C 
ENDROOT
BRANCH   1   2
ATOM      2  C   UNL A   1      35.803  32.147  27.718  1.00  0.00     0.002 C 
BRANCH   2   3
ATOM      3  C   UNL A   1      35.771  33.315  28.705  1.00  0.00     0.021 C 
BRANCH   3   4
ATOM      4  C   UNL A   1      36.788  33.182  29.830  1.00  0.00     0.116 C 
BRANCH   4   5
ATOM      5  N   UNL A   1      36.324  32.248  30.846  1.00  0.00    -0.352 N 
ATOM      6  O   UNL A   1      36.133  30.219  31.810  1.00  0.00    -0.269 OA
ATOM      7  C   UNL A   1      36.796  30.993  31.135  1.00  0.00     0.251 C 
ATOM      8  H   UNL A   1      35.569  32.558  31.398  1.00  0.00     0.163 HD
BRANCH   7   9
ATOM      9  C   UNL A   1      38.121  30.598  30.617  1.00  0.00     0.039 A 
ATOM     10  C   UNL A   1      38.248  30.166  29.294  1.00  0.00     0.014 A 
ATOM     11  C   UNL A   1      39.239  30.664  31.453  1.00  0.00     0.014 A 
ATOM     12  C   UNL A   1      39.466  29.677  28.844  1.00  0.00     0.010 A 
ATOM     13  C   UNL A   1      40.484  30.263  30.964  1.00  0.00     0.010 A 
ATOM     14  C   UNL A   1      40.604  29.752  29.662  1.00  0.00    -0.014 A 
BRANCH  14  15
ATOM     15  C   UNL A   1      41.922  29.381  29.095  1.00  0.00     0.031 A 
ATOM     16  C   UNL A   1      42.196  27.992  28.596  1.00  0.00     0.074 A 
ATOM     17  C   UNL A   1      42.874  30.333  29.028  1.00  0.00     0.049 A 
ATOM     18  N   UNL A   1      43.294  27.513  28.071  1.00  0.00    -0.248 NA
ATOM     19  C   UNL A   1      41.105  27.011  28.706  1.00  0.00     0.031 C 
ATOM     20  C   UNL A   1      42.717  31.715  29.495  1.00  0.00     0.029 A 
ATOM     21  N   UNL A   1      44.151  30.294  28.535  1.00  0.00    -0.354 N 
ATOM     22  C   UNL A   1      43.039  26.172  27.807  1.00  0.00     0.074 A 
ATOM     23  C   UNL A   1      41.687  25.908  28.253  1.00  0.00     0.031 C 
ATOM     24  C   UNL A   1      43.837  32.400  29.227  1.00  0.00     0.029 A 
ATOM     25  C   UNL A   1      44.816  31.492  28.644  1.00  0.00     0.049 A 
ATOM     26  H   UNL A   1      44.555  29.487  28.143  1.00  0.00     0.167 HD
ATOM     27  C   UNL A   1      43.859  25.252  27.245  1.00  0.00     0.031 A 
ATOM     28  C   UNL A   1      46.083  31.824  28.338  1.00  0.00     0.031 A 
ATOM     29  C   UNL A   1      45.208  25.529  26.818  1.00  0.00     0.049 A 
ATOM     30  C   UNL A   1      46.982  30.775  27.752  1.00  0.00     0.074 A 
ATOM     31  C   UNL A   1      46.108  24.676  26.205  1.00  0.00     0.029 A 
ATOM     32  N   UNL A   1      45.855  26.749  26.971  1.00  0.00    -0.354 N 
ATOM     33  N   UNL A   1      46.707  29.524  27.468  1.00  0.00    -0.248 NA
ATOM     34  C   UNL A   1      48.357  31.180  27.442  1.00  0.00     0.031 C 
ATOM     35  C   UNL A   1      47.319  25.358  26.049  1.00  0.00     0.029 A 
ATOM     36  C   UNL A   1      47.154  26.659  26.495  1.00  0.00     0.049 A 
ATOM     37  H   UNL A   1      45.450  27.557  27.359  1.00  0.00     0.167 HD
ATOM     38  C   UNL A   1      47.872  28.997  26.927  1.00  0.00     0.074 A 
ATOM     39  C   UNL A   1      48.845  30.071  26.904  1.00  0.00     0.031 C 
ATOM     40  C   UNL A   1      48.113  27.736  26.489  1.00  0.00     0.031 A 
BRANCH  27  41
ATOM     41  C   UNL A   1      43.335  23.845  27.096  1.00  0.00    -0.014 A 
ATOM     42  C   UNL A   1      43.508  22.886  28.109  1.00  0.00     0.010 A 
ATOM     43  C   UNL A   1      42.622  23.489  25.936  1.00  0.00     0.010 A 
ATOM     44  C   UNL A   1      43.018  21.586  27.946  1.00  0.00     0.020 A 
ATOM     45  C   UNL A   1      42.104  22.199  25.782  1.00  0.00     0.020 A 
ATOM     46  C   UNL A   1      42.324  21.249  26.780  1.00  0.00     0.054 A 
BRANCH  46  47
ATOM     47  S   UNL A   1      41.695  19.558  26.600  1.00  0.00     0.124 S 
ATOM     48  O   UNL A   1      42.923  18.771  26.673  1.00  0.00    -0.237 OA
ATOM     49  O   UNL A   1      40.797  19.425  27.746  1.00  0.00    -0.237 OA
ATOM     50  O   UNL A   1      41.038  19.567  25.295  1.00  0.00    -0.744 OA
ENDBRANCH  46  47
ENDBRANCH  27  41
BRANCH  28  51
ATOM     51  C   UNL A   1      46.567  33.203  28.614  1.00  0.00    -0.014 A 
ATOM     52  C   UNL A   1      46.418  34.224  27.661  1.00  0.00     0.010 A 
ATOM     53  C   UNL A   1      47.144  33.510  29.862  1.00  0.00     0.010 A 
ATOM     54  C   UNL A   1      46.850  35.523  27.945  1.00  0.00     0.020 A 
ATOM     55  C   UNL A   1      47.544  34.813  30.162  1.00  0.00     0.020 A 
ATOM     56  C   UNL A   1      47.405  35.810  29.196  1.00  0.00     0.054 A 
BRANCH  56  57
ATOM     57  S   UNL A   1      47.902  37.515  29.563  1.00  0.00     0.124 S 
ATOM     58  O   UNL A   1      48.314  37.416  30.959  1.00  0.00    -0.237 OA
ATOM     59  O   UNL A   1      48.977  37.744  28.600  1.00  0.00    -0.237 OA
ATOM     60  O   UNL A   1      46.685  38.287  29.322  1.00  0.00    -0.744 OA
ENDBRANCH  56  57
ENDBRANCH  28  51
BRANCH  40  61
ATOM     61  C   UNL A   1      49.479  27.457  25.919  1.00  0.00    -0.014 A 
ATOM     62  C   UNL A   1      50.551  27.073  26.742  1.00  0.00     0.010 A 
ATOM     63  C   UNL A   1      49.677  27.540  24.528  1.00  0.00     0.010 A 
ATOM     64  C   UNL A   1      51.806  26.807  26.188  1.00  0.00     0.020 A 
ATOM     65  C   UNL A   1      50.922  27.244  23.968  1.00  0.00     0.020 A 
ATOM     66  C   UNL A   1      51.982  26.892  24.804  1.00  0.00     0.054 A 
BRANCH  66  67
ATOM     67  S   UNL A   1      53.608  26.497  24.106  1.00  0.00     0.124 S 
ATOM     68  O   UNL A   1      54.205  25.686  25.165  1.00  0.00    -0.237 OA
ATOM     69  O   UNL A   1      53.264  25.778  22.882  1.00  0.00    -0.237 OA
ATOM     70  O   UNL A   1      54.226  27.805  23.901  1.00  0.00    -0.744 OA
ENDBRANCH  66  67
ENDBRANCH  40  61
ENDBRANCH  14  15
ENDBRANCH   7   9
ENDBRANCH   4   5
ENDBRANCH   3   4
ENDBRANCH   2   3
ENDBRANCH   1   2
BRANCH   1  71
ATOM     71  C   UNL A   1      34.862  29.759  27.606  1.00  0.00     0.021 C 
BRANCH  71  72
ATOM     72  C   UNL A   1      33.763  29.020  26.841  1.00  0.00     0.116 C 
BRANCH  72  73
ATOM     73  N   UNL A   1      33.890  29.274  25.424  1.00  0.00    -0.356 N 
ATOM     74  C   UNL A   1      33.543  28.528  24.346  1.00  0.00     0.224 C 
ATOM     75  H   UNL A   1      34.301  30.141  25.203  1.00  0.00     0.163 HD
ATOM     76  O   UNL A   1      34.025  28.881  23.263  1.00  0.00    -0.275 OA
BRANCH  74  77
ATOM     77  C   UNL A   1      32.460  27.458  24.383  1.00  0.00     0.098 C 
ATOM     78  C   UNL A   1      32.156  26.532  23.174  1.00  0.00     0.098 C 
ATOM     79  C   UNL A   1      31.063  28.063  24.696  1.00  0.00     0.025 C 
ATOM     80  C   UNL A   1      30.621  26.698  22.989  1.00  0.00     0.025 C 
ATOM     81  C   UNL A   1      30.637  28.932  23.537  1.00  0.00    -0.027 C 
ATOM     82  C   UNL A   1      30.156  26.855  24.437  1.00  0.00     0.017 C 
ATOM     83  C   UNL A   1      30.373  28.114  22.508  1.00  0.00    -0.027 C 
BRANCH  78  84
ATOM     84  C   UNL A   1      32.532  25.042  23.285  1.00  0.00     0.227 C 
ATOM     85  O   UNL A   1      32.670  24.355  22.272  1.00  0.00    -0.275 OA
ATOM     86  N   UNL A   1      32.965  24.582  24.524  1.00  0.00    -0.331 N 
ATOM     87  C   UNL A   1      34.194  23.775  24.558  1.00  0.00     0.181 C 
ATOM     88  C   UNL A   1      31.982  24.144  25.512  1.00  0.00     0.181 C 
ATOM     89  C   UNL A   1      34.759  23.581  25.986  1.00  0.00     0.284 C 
ATOM     90  C   UNL A   1      32.584  24.120  26.927  1.00  0.00     0.284 C 
ATOM     91  N   UNL A   1      33.786  23.284  27.058  1.00  0.00    -0.329 N 
ATOM     92  H   UNL A   1      34.229  23.554  27.936  1.00  0.00     0.348 HD
BRANCH  91  93
ATOM     93  C   UNL A   1      33.531  21.855  27.283  1.00  0.00     0.291 C 
BRANCH  93  94
ATOM     94  C   UNL A   1      33.848  20.941  26.137  1.00  0.00     0.034 C 
ATOM     95  C   UNL A   1      32.932  20.408  25.314  1.00  0.00     0.009 C 
BRANCH  95  96
ATOM     96  C   UNL A   1      33.246  19.305  24.398  1.00  0.00    -0.026 A 
ATOM     97  C   UNL A   1      32.403  18.995  23.332  1.00  0.00     0.008 A 
ATOM     98  C   UNL A   1      34.342  18.468  24.658  1.00  0.00     0.008 A 
ATOM     99  C   UNL A   1      32.647  17.858  22.554  1.00  0.00     0.001 A 
ATOM    100  C   UNL A   1      34.580  17.329  23.893  1.00  0.00     0.001 A 
ATOM    101  C   UNL A   1      33.727  17.021  22.841  1.00  0.00     0.000 A 
ENDBRANCH  95  96
ENDBRANCH  93  94
ENDBRANCH  91  93
ENDBRANCH  78  84
ENDBRANCH  74  77
ENDBRANCH  72  73
ENDBRANCH  71  72
ENDBRANCH   1  71
TORSDOF 20
ENDMDL
MODEL 2
REMARK VINA RESULT:     -11.2      5.738      9.770
REMARK SMILES O=C(NCCCCCCNC(=O)[C@@H]1[C@@H](C(=O)N2CC[NH+](C/C=C/c3ccccc3)CC2)[C@@H]2C=C[C@H]1C2)c1ccc(-c2c3nc(c(-c4ccc(S(=O)(=O)[O-])cc4)c4ccc([nH]4)c(-c4ccc(S(=O)(=O)[O-])cc4)c4nc(c(-c5ccc(S(=O)(=O)[O-])cc5)c5ccc2[nH]5)C=C4)C=C3)cc1
REMARK SMILES IDX 7 1 6 2 5 3 4 4 3 5 1 6 2 7 37 9 38 10 96 11 39 12 95 13
REMARK SMILES IDX 40 14 41 15 42 16 89 17 43 18 94 19 88 20 90 21 44 22 93 23
REMARK SMILES IDX 87 24 86 25 45 27 75 28 56 29 74 30 57 31 60 32 73 33 91 34
REMARK SMILES IDX 58 35 59 36 72 38 92 39 61 40 46 41 47 42 55 43 48 44 54 45
REMARK SMILES IDX 49 46 50 47 51 48 52 49 53 50 76 51 77 52 85 53 78 54 84 55
REMARK SMILES IDX 79 56 80 57 81 58 82 59 83 60 62 61 63 62 71 63 64 64 70 65
REMARK SMILES IDX 65 66 66 67 67 68 68 69 69 70 8 71 9 72 10 73 11 74 12 76
REMARK SMILES IDX 13 77 14 78 35 79 32 80 34 81 36 82 33 83 15 84 16 85 17 86
REMARK SMILES IDX 18 87 31 88 19 89 30 90 20 91 21 93 22 94 23 95 24 96 25 97
REMARK SMILES IDX 29 98 26 99 28 100 27 101
REMARK H PARENT 3 8 90 26 60 37 10 75 20 92
REMARK Flexibility Score: inf
ROOT
ATOM      1  C   UNL A   1      35.759  30.921  27.858  1.00  0.00     0.002 C 
ENDROOT
BRANCH   1   2
ATOM      2  C   UNL A   1      34.723  31.665  28.708  1.00  0.00     0.002 C 
BRANCH   2   3
ATOM      3  C   UNL A   1      33.728  32.500  27.900  1.00  0.00     0.021 C 
BRANCH   3   4
ATOM      4  C   UNL A   1      34.060  33.986  27.883  1.00  0.00     0.116 C 
BRANCH   4   5
ATOM      5  N   UNL A   1      33.283  34.705  28.882  1.00  0.00    -0.352 N 
ATOM      6  O   UNL A   1      32.516  35.104  30.965  1.00  0.00    -0.269 OA
ATOM      7  C   UNL A   1      33.412  34.680  30.248  1.00  0.00     0.251 C 
ATOM      8  H   UNL A   1      32.570  35.287  28.531  1.00  0.00     0.163 HD
BRANCH   7   9
ATOM      9  C   UNL A   1      34.653  34.133  30.832  1.00  0.00     0.039 A 
ATOM     10  C   UNL A   1      34.588  33.038  31.697  1.00  0.00     0.014 A 
ATOM     11  C   UNL A   1      35.882  34.714  30.513  1.00  0.00     0.014 A 
ATOM     12  C   UNL A   1      35.735  32.602  32.344  1.00  0.00     0.010 A 
ATOM     13  C   UNL A   1      37.049  34.209  31.090  1.00  0.00     0.010 A 
ATOM     14  C   UNL A   1      36.982  33.161  32.022  1.00  0.00    -0.014 A 
BRANCH  14  15
ATOM     15  C   UNL A   1      38.209  32.562  32.601  1.00  0.00     0.031 A 
ATOM     16  C   UNL A   1      38.624  32.843  34.015  1.00  0.00     0.074 A 
ATOM     17  C   UNL A   1      38.942  31.742  31.822  1.00  0.00     0.049 A 
ATOM     18  N   UNL A   1      39.666  32.394  34.667  1.00  0.00    -0.248 NA
ATOM     19  C   UNL A   1      37.771  33.750  34.799  1.00  0.00     0.031 C 
ATOM     20  C   UNL A   1      38.635  31.407  30.427  1.00  0.00     0.029 A 
ATOM     21  N   UNL A   1      40.084  31.033  32.087  1.00  0.00    -0.354 N 
ATOM     22  C   UNL A   1      39.608  32.977  35.928  1.00  0.00     0.074 A 
ATOM     23  C   UNL A   1      38.441  33.833  35.941  1.00  0.00     0.031 C 
ATOM     24  C   UNL A   1      39.539  30.528  29.975  1.00  0.00     0.029 A 
ATOM     25  C   UNL A   1      40.531  30.296  31.016  1.00  0.00     0.049 A 
ATOM     26  H   UNL A   1      40.541  31.051  32.959  1.00  0.00     0.167 HD
ATOM     27  C   UNL A   1      40.454  32.811  36.973  1.00  0.00     0.031 A 
ATOM     28  C   UNL A   1      41.633  29.538  30.872  1.00  0.00     0.031 A 
ATOM     29  C   UNL A   1      41.620  31.965  36.939  1.00  0.00     0.049 A 
ATOM     30  C   UNL A   1      42.572  29.402  32.033  1.00  0.00     0.074 A 
ATOM     31  C   UNL A   1      42.522  31.700  37.955  1.00  0.00     0.029 A 
ATOM     32  N   UNL A   1      42.055  31.256  35.827  1.00  0.00    -0.354 N 
ATOM     33  N   UNL A   1      42.476  29.925  33.233  1.00  0.00    -0.248 NA
ATOM     34  C   UNL A   1      43.764  28.572  31.826  1.00  0.00     0.031 C 
ATOM     35  C   UNL A   1      43.536  30.887  37.440  1.00  0.00     0.029 A 
ATOM     36  C   UNL A   1      43.230  30.582  36.123  1.00  0.00     0.049 A 
ATOM     37  H   UNL A   1      41.596  31.234  34.956  1.00  0.00     0.167 HD
ATOM     38  C   UNL A   1      43.587  29.472  33.930  1.00  0.00     0.074 A 
ATOM     39  C   UNL A   1      44.328  28.616  33.025  1.00  0.00     0.031 C 
ATOM     40  C   UNL A   1      43.961  29.741  35.207  1.00  0.00     0.031 A 
BRANCH  27  41
ATOM     41  C   UNL A   1      40.173  33.591  38.233  1.00  0.00    -0.014 A 
ATOM     42  C   UNL A   1      39.534  33.000  39.337  1.00  0.00     0.010 A 
ATOM     43  C   UNL A   1      40.592  34.932  38.328  1.00  0.00     0.010 A 
ATOM     44  C   UNL A   1      39.279  33.745  40.492  1.00  0.00     0.020 A 
ATOM     45  C   UNL A   1      40.366  35.672  39.492  1.00  0.00     0.020 A 
ATOM     46  C   UNL A   1      39.692  35.079  40.561  1.00  0.00     0.054 A 
BRANCH  46  47
ATOM     47  S   UNL A   1      39.353  36.019  42.075  1.00  0.00     0.124 S 
ATOM     48  O   UNL A   1      37.965  35.656  42.349  1.00  0.00    -0.237 OA
ATOM     49  O   UNL A   1      40.337  35.483  43.012  1.00  0.00    -0.237 OA
ATOM     50  O   UNL A   1      39.566  37.408  41.677  1.00  0.00    -0.744 OA
ENDBRANCH  46  47
ENDBRANCH  27  41
BRANCH  28  51
ATOM     51  C   UNL A   1      41.906  28.884  29.564  1.00  0.00    -0.014 A 
ATOM     52  C   UNL A   1      41.459  27.578  29.303  1.00  0.00     0.010 A 
ATOM     53  C   UNL A   1      42.583  29.591  28.551  1.00  0.00     0.010 A 
ATOM     54  C   UNL A   1      41.695  26.987  28.059  1.00  0.00     0.020 A 
ATOM     55  C   UNL A   1      42.790  29.017  27.296  1.00  0.00     0.020 A 
ATOM     56  C   UNL A   1      42.355  27.712  27.061  1.00  0.00     0.054 A 
BRANCH  56  57
ATOM     57  S   UNL A   1      42.597  26.945  25.437  1.00  0.00     0.124 S 
ATOM     58  O   UNL A   1      43.894  26.297  25.598  1.00  0.00    -0.237 OA
ATOM     59  O   UNL A   1      41.449  26.047  25.338  1.00  0.00    -0.237 OA
ATOM     60  O   UNL A   1      42.573  28.078  24.514  1.00  0.00    -0.744 OA
ENDBRANCH  56  57
ENDBRANCH  28  51
BRANCH  40  61
ATOM     61  C   UNL A   1      45.215  29.078  35.709  1.00  0.00    -0.014 A 
ATOM     62  C   UNL A   1      45.180  27.812  36.320  1.00  0.00     0.010 A 
ATOM     63  C   UNL A   1      46.456  29.715  35.523  1.00  0.00     0.010 A 
ATOM     64  C   UNL A   1      46.359  27.211  36.766  1.00  0.00     0.020 A 
ATOM     65  C   UNL A   1      47.640  29.103  35.939  1.00  0.00     0.020 A 
ATOM     66  C   UNL A   1      47.582  27.859  36.571  1.00  0.00     0.054 A 
BRANCH  66  67
ATOM     67  S   UNL A   1      49.103  27.036  37.116  1.00  0.00     0.124 S 
ATOM     68  O   UNL A   1      48.663  25.651  37.264  1.00  0.00    -0.237 OA
ATOM     69  O   UNL A   1      50.020  27.291  36.009  1.00  0.00    -0.237 OA
ATOM     70  O   UNL A   1      49.438  27.718  38.365  1.00  0.00    -0.744 OA
ENDBRANCH  66  67
ENDBRANCH  40  61
ENDBRANCH  14  15
ENDBRANCH   7   9
ENDBRANCH   4   5
ENDBRANCH   3   4
ENDBRANCH   2   3
ENDBRANCH   1   2
BRANCH   1  71
ATOM     71  C   UNL A   1      35.598  29.399  27.870  1.00  0.00     0.021 C 
BRANCH  71  72
ATOM     72  C   UNL A   1      34.577  28.917  26.838  1.00  0.00     0.116 C 
BRANCH  72  73
ATOM     73  N   UNL A   1      33.404  28.402  27.506  1.00  0.00    -0.356 N 
ATOM     74  C   UNL A   1      32.251  27.881  27.017  1.00  0.00     0.224 C 
ATOM     75  H   UNL A   1      33.448  28.437  28.490  1.00  0.00     0.163 HD
ATOM     76  O   UNL A   1      31.316  27.781  27.820  1.00  0.00    -0.275 OA
BRANCH  74  77
ATOM     77  C   UNL A   1      32.141  27.240  25.640  1.00  0.00     0.098 C 
ATOM     78  C   UNL A   1      33.366  26.651  24.889  1.00  0.00     0.098 C 
ATOM     79  C   UNL A   1      31.552  28.225  24.592  1.00  0.00     0.025 C 
ATOM     80  C   UNL A   1      33.285  27.344  23.500  1.00  0.00     0.025 C 
ATOM     81  C   UNL A   1      32.541  29.342  24.363  1.00  0.00    -0.027 C 
ATOM     82  C   UNL A   1      31.773  27.439  23.295  1.00  0.00     0.017 C 
ATOM     83  C   UNL A   1      33.586  28.815  23.709  1.00  0.00    -0.027 C 
BRANCH  78  84
ATOM     84  C   UNL A   1      33.456  25.121  24.730  1.00  0.00     0.227 C 
ATOM     85  O   UNL A   1      32.458  24.465  24.424  1.00  0.00    -0.275 OA
ATOM     86  N   UNL A   1      34.725  24.556  24.679  1.00  0.00    -0.331 N 
ATOM     87  C   UNL A   1      34.997  23.594  23.600  1.00  0.00     0.181 C 
ATOM     88  C   UNL A   1      35.409  24.210  25.921  1.00  0.00     0.181 C 
ATOM     89  C   UNL A   1      36.501  23.267  23.438  1.00  0.00     0.284 C 
ATOM     90  C   UNL A   1      36.923  24.047  25.700  1.00  0.00     0.284 C 
ATOM     91  N   UNL A   1      37.280  23.055  24.676  1.00  0.00    -0.329 N 
ATOM     92  H   UNL A   1      38.257  23.226  24.438  1.00  0.00     0.348 HD
BRANCH  91  93
ATOM     93  C   UNL A   1      37.331  21.664  25.145  1.00  0.00     0.291 C 
BRANCH  93  94
ATOM     94  C   UNL A   1      36.327  20.728  24.539  1.00  0.00     0.034 C 
ATOM     95  C   UNL A   1      35.291  20.191  25.201  1.00  0.00     0.009 C 
BRANCH  95  96
ATOM     96  C   UNL A   1      34.511  19.070  24.663  1.00  0.00    -0.026 A 
ATOM     97  C   UNL A   1      35.100  17.824  24.449  1.00  0.00     0.008 A 
ATOM     98  C   UNL A   1      33.188  19.274  24.244  1.00  0.00     0.008 A 
ATOM     99  C   UNL A   1      34.378  16.810  23.810  1.00  0.00     0.001 A 
ATOM    100  C   UNL A   1      32.472  18.270  23.597  1.00  0.00     0.001 A 
ATOM    101  C   UNL A   1      33.070  17.036  23.376  1.00  0.00     0.000 A 
ENDBRANCH  95  96
ENDBRANCH  93  94
ENDBRANCH  91  93
ENDBRANCH  78  84
ENDBRANCH  74  77
ENDBRANCH  72  73
ENDBRANCH  71  72
ENDBRANCH   1  71
TORSDOF 20
ENDMDL
MODEL 3
REMARK VINA RESULT:     -11.1      5.859      8.350
REMARK SMILES O=C(NCCCCCCNC(=O)[C@@H]1[C@@H](C(=O)N2CC[NH+](C/C=C/c3ccccc3)CC2)[C@@H]2C=C[C@H]1C2)c1ccc(-c2c3nc(c(-c4ccc(S(=O)(=O)[O-])cc4)c4ccc([nH]4)c(-c4ccc(S(=O)(=O)[O-])cc4)c4nc(c(-c5ccc(S(=O)(=O)[O-])cc5)c5ccc2[nH]5)C=C4)C=C3)cc1
REMARK SMILES IDX 7 1 6 2 5 3 4 4 3 5 1 6 2 7 37 9 38 10 96 11 39 12 95 13
REMARK SMILES IDX 40 14 41 15 42 16 89 17 43 18 94 19 88 20 90 21 44 22 93 23
REMARK SMILES IDX 87 24 86 25 45 27 75 28 56 29 74 30 57 31 60 32 73 33 91 34
REMARK SMILES IDX 58 35 59 36 72 38 92 39 61 40 46 41 47 42 55 43 48 44 54 45
REMARK SMILES IDX 49 46 50 47 51 48 52 49 53 50 76 51 77 52 85 53 78 54 84 55
REMARK SMILES IDX 79 56 80 57 81 58 82 59 83 60 62 61 63 62 71 63 64 64 70 65
REMARK SMILES IDX 65 66 66 67 67 68 68 69 69 70 8 71 9 72 10 73 11 74 12 76
REMARK SMILES IDX 13 77 14 78 35 79 32 80 34 81 36 82 33 83 15 84 16 85 17 86
REMARK SMILES IDX 18 87 31 88 19 89 30 90 20 91 21 93 22 94 23 95 24 96 25 97
REMARK SMILES IDX 29 98 26 99 28 100 27 101
REMARK H PARENT 3 8 90 26 60 37 10 75 20 92
REMARK Flexibility Score: inf
ROOT
ATOM      1  C   UNL A   1      34.294  31.156  27.259  1.00  0.00     0.002 C 
ENDROOT
BRANCH   1   2
ATOM      2  C   UNL A   1      34.308  32.205  28.378  1.00  0.00     0.002 C 
BRANCH   2   3
ATOM      3  C   UNL A   1      33.382  33.398  28.134  1.00  0.00     0.021 C 
BRANCH   3   4
ATOM      4  C   UNL A   1      33.906  34.699  28.726  1.00  0.00     0.116 C 
BRANCH   4   5
ATOM      5  N   UNL A   1      33.052  35.160  29.810  1.00  0.00    -0.352 N 
ATOM      6  O   UNL A   1      32.218  35.114  31.905  1.00  0.00    -0.269 OA
ATOM      7  C   UNL A   1      33.160  34.903  31.154  1.00  0.00     0.251 C 
ATOM      8  H   UNL A   1      32.295  35.732  29.545  1.00  0.00     0.163 HD
BRANCH   7   9
ATOM      9  C   UNL A   1      34.435  34.369  31.672  1.00  0.00     0.039 A 
ATOM     10  C   UNL A   1      34.525  33.025  32.042  1.00  0.00     0.014 A 
ATOM     11  C   UNL A   1      35.543  35.212  31.786  1.00  0.00     0.014 A 
ATOM     12  C   UNL A   1      35.682  32.552  32.645  1.00  0.00     0.010 A 
ATOM     13  C   UNL A   1      36.738  34.708  32.302  1.00  0.00     0.010 A 
ATOM     14  C   UNL A   1      36.811  33.379  32.751  1.00  0.00    -0.014 A 
BRANCH  14  15
ATOM     15  C   UNL A   1      38.084  32.798  33.242  1.00  0.00     0.031 A 
ATOM     16  C   UNL A   1      38.951  31.953  32.356  1.00  0.00     0.074 A 
ATOM     17  C   UNL A   1      38.450  33.058  34.513  1.00  0.00     0.049 A 
ATOM     18  N   UNL A   1      40.091  31.376  32.637  1.00  0.00    -0.248 NA
ATOM     19  C   UNL A   1      38.480  31.714  30.983  1.00  0.00     0.031 C 
ATOM     20  C   UNL A   1      37.675  33.860  35.466  1.00  0.00     0.029 A 
ATOM     21  N   UNL A   1      39.564  32.690  35.221  1.00  0.00    -0.354 N 
ATOM     22  C   UNL A   1      40.465  30.689  31.487  1.00  0.00     0.074 A 
ATOM     23  C   UNL A   1      39.417  30.902  30.513  1.00  0.00     0.031 C 
ATOM     24  C   UNL A   1      38.356  33.959  36.616  1.00  0.00     0.029 A 
ATOM     25  C   UNL A   1      39.574  33.166  36.510  1.00  0.00     0.049 A 
ATOM     26  H   UNL A   1      40.286  32.139  34.843  1.00  0.00     0.167 HD
ATOM     27  C   UNL A   1      41.581  29.952  31.271  1.00  0.00     0.031 A 
ATOM     28  C   UNL A   1      40.449  32.967  37.512  1.00  0.00     0.031 A 
ATOM     29  C   UNL A   1      42.610  29.739  32.258  1.00  0.00     0.049 A 
ATOM     30  C   UNL A   1      41.656  32.114  37.257  1.00  0.00     0.074 A 
ATOM     31  C   UNL A   1      43.796  29.038  32.127  1.00  0.00     0.029 A 
ATOM     32  N   UNL A   1      42.570  30.215  33.562  1.00  0.00    -0.354 N 
ATOM     33  N   UNL A   1      42.016  31.511  36.148  1.00  0.00    -0.248 NA
ATOM     34  C   UNL A   1      42.578  31.918  38.381  1.00  0.00     0.031 C 
ATOM     35  C   UNL A   1      44.440  29.033  33.368  1.00  0.00     0.029 A 
ATOM     36  C   UNL A   1      43.694  29.793  34.255  1.00  0.00     0.049 A 
ATOM     37  H   UNL A   1      41.851  30.771  33.938  1.00  0.00     0.167 HD
ATOM     38  C   UNL A   1      43.216  30.877  36.438  1.00  0.00     0.074 A 
ATOM     39  C   UNL A   1      43.531  31.190  37.818  1.00  0.00     0.031 C 
ATOM     40  C   UNL A   1      43.989  30.105  35.632  1.00  0.00     0.031 A 
BRANCH  27  41
ATOM     41  C   UNL A   1      41.729  29.284  29.927  1.00  0.00    -0.014 A 
ATOM     42  C   UNL A   1      41.337  27.949  29.722  1.00  0.00     0.010 A 
ATOM     43  C   UNL A   1      42.234  30.019  28.837  1.00  0.00     0.010 A 
ATOM     44  C   UNL A   1      41.488  27.349  28.468  1.00  0.00     0.020 A 
ATOM     45  C   UNL A   1      42.359  29.432  27.574  1.00  0.00     0.020 A 
ATOM     46  C   UNL A   1      42.004  28.093  27.403  1.00  0.00     0.054 A 
BRANCH  46  47
ATOM     47  S   UNL A   1      42.183  27.290  25.786  1.00  0.00     0.124 S 
ATOM     48  O   UNL A   1      42.328  28.439  24.895  1.00  0.00    -0.237 OA
ATOM     49  O   UNL A   1      43.385  26.479  25.963  1.00  0.00    -0.237 OA
ATOM     50  O   UNL A   1      40.942  26.536  25.632  1.00  0.00    -0.744 OA
ENDBRANCH  46  47
ENDBRANCH  27  41
BRANCH  28  51
ATOM     51  C   UNL A   1      40.183  33.567  38.848  1.00  0.00    -0.014 A 
ATOM     52  C   UNL A   1      40.714  34.821  39.193  1.00  0.00     0.010 A 
ATOM     53  C   UNL A   1      39.354  32.897  39.768  1.00  0.00     0.010 A 
ATOM     54  C   UNL A   1      40.432  35.387  40.440  1.00  0.00     0.020 A 
ATOM     55  C   UNL A   1      39.042  33.475  40.999  1.00  0.00     0.020 A 
ATOM     56  C   UNL A   1      39.593  34.713  41.333  1.00  0.00     0.054 A 
BRANCH  56  57
ATOM     57  S   UNL A   1      39.193  35.495  42.918  1.00  0.00     0.124 S 
ATOM     58  O   UNL A   1      39.891  34.632  43.866  1.00  0.00    -0.237 OA
ATOM     59  O   UNL A   1      39.749  36.837  42.757  1.00  0.00    -0.237 OA
ATOM     60  O   UNL A   1      37.734  35.436  42.973  1.00  0.00    -0.744 OA
ENDBRANCH  56  57
ENDBRANCH  28  51
BRANCH  40  61
ATOM     61  C   UNL A   1      45.268  29.568  36.217  1.00  0.00    -0.014 A 
ATOM     62  C   UNL A   1      46.492  30.235  36.037  1.00  0.00     0.010 A 
ATOM     63  C   UNL A   1      45.232  28.399  36.999  1.00  0.00     0.010 A 
ATOM     64  C   UNL A   1      47.664  29.724  36.602  1.00  0.00     0.020 A 
ATOM     65  C   UNL A   1      46.396  27.903  37.592  1.00  0.00     0.020 A 
ATOM     66  C   UNL A   1      47.607  28.562  37.377  1.00  0.00     0.054 A 
BRANCH  66  67
ATOM     67  S   UNL A   1      49.133  27.946  38.137  1.00  0.00     0.124 S 
ATOM     68  O   UNL A   1      50.156  28.711  37.427  1.00  0.00    -0.237 OA
ATOM     69  O   UNL A   1      48.953  28.293  39.545  1.00  0.00    -0.237 OA
ATOM     70  O   UNL A   1      49.113  26.514  37.846  1.00  0.00    -0.744 OA
ENDBRANCH  66  67
ENDBRANCH  40  61
ENDBRANCH  14  15
ENDBRANCH   7   9
ENDBRANCH   4   5
ENDBRANCH   3   4
ENDBRANCH   2   3
ENDBRANCH   1   2
BRANCH   1  71
ATOM     71  C   UNL A   1      34.685  29.750  27.719  1.00  0.00     0.021 C 
BRANCH  71  72
ATOM     72  C   UNL A   1      34.135  28.664  26.793  1.00  0.00     0.116 C 
BRANCH  72  73
ATOM     73  N   UNL A   1      33.966  29.190  25.458  1.00  0.00    -0.356 N 
ATOM     74  C   UNL A   1      33.432  28.639  24.340  1.00  0.00     0.224 C 
ATOM     75  H   UNL A   1      34.299  30.109  25.339  1.00  0.00     0.163 HD
ATOM     76  O   UNL A   1      33.675  29.224  23.277  1.00  0.00    -0.275 OA
BRANCH  74  77
ATOM     77  C   UNL A   1      32.411  27.510  24.369  1.00  0.00     0.098 C 
ATOM     78  C   UNL A   1      32.151  26.584  23.150  1.00  0.00     0.098 C 
ATOM     79  C   UNL A   1      30.984  28.032  24.699  1.00  0.00     0.025 C 
ATOM     80  C   UNL A   1      30.608  26.666  22.976  1.00  0.00     0.025 C 
ATOM     81  C   UNL A   1      30.502  28.890  23.554  1.00  0.00    -0.027 C 
ATOM     82  C   UNL A   1      30.145  26.778  24.429  1.00  0.00     0.017 C 
ATOM     83  C   UNL A   1      30.277  28.072  22.516  1.00  0.00    -0.027 C 
BRANCH  78  84
ATOM     84  C   UNL A   1      32.611  25.116  23.239  1.00  0.00     0.227 C 
ATOM     85  O   UNL A   1      32.804  24.458  22.215  1.00  0.00    -0.275 OA
ATOM     86  N   UNL A   1      33.050  24.657  24.476  1.00  0.00    -0.331 N 
ATOM     87  C   UNL A   1      34.323  23.922  24.515  1.00  0.00     0.181 C 
ATOM     88  C   UNL A   1      32.080  24.144  25.439  1.00  0.00     0.181 C 
ATOM     89  C   UNL A   1      34.876  23.732  25.948  1.00  0.00     0.284 C 
ATOM     90  C   UNL A   1      32.660  24.127  26.863  1.00  0.00     0.284 C 
ATOM     91  N   UNL A   1      33.906  23.358  26.998  1.00  0.00    -0.329 N 
ATOM     92  H   UNL A   1      34.319  23.635  27.889  1.00  0.00     0.348 HD
BRANCH  91  93
ATOM     93  C   UNL A   1      33.731  21.913  27.192  1.00  0.00     0.291 C 
BRANCH  93  94
ATOM     94  C   UNL A   1      33.426  21.116  25.959  1.00  0.00     0.034 C 
ATOM     95  C   UNL A   1      33.348  19.777  25.918  1.00  0.00     0.009 C 
BRANCH  95  96
ATOM     96  C   UNL A   1      33.337  19.028  24.656  1.00  0.00    -0.026 A 
ATOM     97  C   UNL A   1      32.425  19.337  23.647  1.00  0.00     0.008 A 
ATOM     98  C   UNL A   1      34.167  17.909  24.497  1.00  0.00     0.008 A 
ATOM     99  C   UNL A   1      32.339  18.527  22.509  1.00  0.00     0.001 A 
ATOM    100  C   UNL A   1      34.074  17.094  23.372  1.00  0.00     0.001 A 
ATOM    101  C   UNL A   1      33.155  17.401  22.377  1.00  0.00     0.000 A 
ENDBRANCH  95  96
ENDBRANCH  93  94
ENDBRANCH  91  93
ENDBRANCH  78  84
ENDBRANCH  74  77
ENDBRANCH  72  73
ENDBRANCH  71  72
ENDBRANCH   1  71
TORSDOF 20
ENDMDL
