MODEL 1
REMARK VINA RESULT:     -13.4      0.000      0.000
REMARK SMILES COc1ccccc1[C@@H]1C[N@@H+](Cc2cn3cc(C)ccc3n2)C[C@H]1C(=O)NCCCCCCNC(=O)c1ccc(-c2c3nc(c(-c4ccc(S(=O)(=O)[O-])cc4)c4ccc([nH]4)c(-c4ccc(S(=O)(=O)[O-])cc4)c4nc(c(-c5ccc(S(=O)(=O)[O-])cc5)c5ccc2[nH]5)C=C4)C=C3)cc1
REMARK SMILES IDX 31 1 30 2 29 3 28 4 27 5 25 6 26 7 24 9 9 10 10 11 11 12
REMARK SMILES IDX 23 13 8 15 3 16 4 17 5 18 7 19 6 20 2 21 1 22 12 23 13 24
REMARK SMILES IDX 14 25 22 26 15 27 21 28 16 29 20 30 17 31 19 32 18 33 32 34
REMARK SMILES IDX 33 35 34 36 35 37 36 39 37 40 38 41 96 42 39 43 95 44 40 45
REMARK SMILES IDX 41 46 42 47 89 48 43 49 94 50 88 51 90 52 44 53 93 54 87 55
REMARK SMILES IDX 86 56 45 58 75 59 56 60 74 61 57 62 60 63 73 64 91 65 58 66
REMARK SMILES IDX 59 67 72 69 92 70 61 71 46 72 47 73 55 74 48 75 54 76 49 77
REMARK SMILES IDX 50 78 51 79 52 80 53 81 76 82 77 83 85 84 78 85 84 86 79 87
REMARK SMILES IDX 80 88 81 89 82 90 83 91 62 92 63 93 71 94 64 95 70 96 65 97
REMARK SMILES IDX 66 98 67 99 68 100 69 101
REMARK H PARENT 27 8 11 14 34 38 90 57 60 68
REMARK Flexibility Score: inf
ROOT
ATOM      1  C   UNL A   1      32.003  28.120  26.466  1.00  0.00     0.002 C 
ENDROOT
BRANCH   1   2
ATOM      2  C   UNL A   1      33.254  27.269  26.665  1.00  0.00     0.002 C 
BRANCH   2   3
ATOM      3  C   UNL A   1      33.695  26.421  25.482  1.00  0.00     0.021 C 
BRANCH   3   4
ATOM      4  C   UNL A   1      34.240  24.996  25.695  1.00  0.00     0.116 C 
BRANCH   4   5
ATOM      5  N   UNL A   1      35.051  24.528  24.551  1.00  0.00    -0.356 N 
ATOM      6  C   UNL A   1      34.894  23.715  23.465  1.00  0.00     0.229 C 
ATOM      7  O   UNL A   1      35.979  23.358  22.966  1.00  0.00    -0.275 OA
ATOM      8  H   UNL A   1      35.958  24.909  24.580  1.00  0.00     0.163 HD
BRANCH   6   9
ATOM      9  C   UNL A   1      33.605  23.295  22.713  1.00  0.00     0.146 C 
ATOM     10  C   UNL A   1      32.627  22.329  23.451  1.00  0.00     0.096 C 
ATOM     11  C   UNL A   1      31.226  22.731  22.956  1.00  0.00     0.272 C 
ATOM     12  N   UNL A   1      31.311  24.174  22.670  1.00  0.00    -0.329 N 
ATOM     13  C   UNL A   1      32.678  24.377  22.154  1.00  0.00     0.276 C 
ATOM     14  H   UNL A   1      30.626  24.464  21.971  1.00  0.00     0.348 HD
BRANCH  10  15
ATOM     15  C   UNL A   1      32.812  20.850  23.758  1.00  0.00     0.004 A 
ATOM     16  C   UNL A   1      33.707  20.256  24.653  1.00  0.00     0.122 A 
ATOM     17  C   UNL A   1      33.894  18.856  24.642  1.00  0.00     0.047 A 
ATOM     18  C   UNL A   1      33.225  18.028  23.739  1.00  0.00     0.004 A 
ATOM     19  C   UNL A   1      32.148  19.966  22.857  1.00  0.00     0.008 A 
ATOM     20  C   UNL A   1      32.353  18.590  22.829  1.00  0.00     0.001 A 
BRANCH  16  21
ATOM     21  O   UNL A   1      34.603  20.913  25.452  1.00  0.00    -0.496 OA
ATOM     22  C   UNL A   1      34.073  21.420  26.662  1.00  0.00     0.278 C 
ENDBRANCH  16  21
ENDBRANCH  10  15
BRANCH  12  23
ATOM     23  C   UNL A   1      30.885  25.061  23.792  1.00  0.00     0.321 C 
BRANCH  23  24
ATOM     24  C   UNL A   1      30.378  26.432  23.422  1.00  0.00     0.114 A 
ATOM     25  C   UNL A   1      30.934  27.486  22.709  1.00  0.00     0.122 A 
ATOM     26  N   UNL A   1      29.125  26.792  23.821  1.00  0.00    -0.228 NA
ATOM     27  N   UNL A   1      29.939  28.447  22.602  1.00  0.00    -0.306 N 
ATOM     28  C   UNL A   1      28.821  27.895  23.184  1.00  0.00     0.137 A 
ATOM     29  C   UNL A   1      29.938  29.755  22.114  1.00  0.00     0.096 A 
ATOM     30  C   UNL A   1      27.586  28.591  23.093  1.00  0.00     0.048 A 
ATOM     31  C   UNL A   1      28.808  30.496  22.210  1.00  0.00    -0.034 A 
ATOM     32  C   UNL A   1      27.578  29.853  22.649  1.00  0.00     0.009 A 
ATOM     33  C   UNL A   1      28.702  31.962  21.960  1.00  0.00     0.046 C 
ENDBRANCH  23  24
ENDBRANCH  12  23
ENDBRANCH   6   9
ENDBRANCH   4   5
ENDBRANCH   3   4
ENDBRANCH   2   3
ENDBRANCH   1   2
BRANCH   1  34
ATOM     34  C   UNL A   1      32.178  29.648  26.509  1.00  0.00     0.021 C 
BRANCH  34  35
ATOM     35  C   UNL A   1      33.615  30.144  26.648  1.00  0.00     0.116 C 
BRANCH  35  36
ATOM     36  N   UNL A   1      33.695  31.492  27.189  1.00  0.00    -0.352 N 
ATOM     37  C   UNL A   1      34.579  31.998  28.122  1.00  0.00     0.251 C 
ATOM     38  H   UNL A   1      33.030  32.131  26.843  1.00  0.00     0.163 HD
ATOM     39  O   UNL A   1      34.315  33.038  28.705  1.00  0.00    -0.269 OA
BRANCH  37  40
ATOM     40  C   UNL A   1      35.850  31.292  28.400  1.00  0.00     0.039 A 
ATOM     41  C   UNL A   1      35.905  29.894  28.343  1.00  0.00     0.014 A 
ATOM     42  C   UNL A   1      36.975  32.016  28.792  1.00  0.00     0.014 A 
ATOM     43  C   UNL A   1      37.099  29.240  28.653  1.00  0.00     0.010 A 
ATOM     44  C   UNL A   1      38.172  31.370  29.008  1.00  0.00     0.010 A 
ATOM     45  C   UNL A   1      38.234  29.988  28.990  1.00  0.00    -0.014 A 
BRANCH  45  46
ATOM     46  C   UNL A   1      39.533  29.350  29.174  1.00  0.00     0.031 A 
ATOM     47  C   UNL A   1      39.879  29.109  30.592  1.00  0.00     0.074 A 
ATOM     48  C   UNL A   1      40.307  28.841  28.193  1.00  0.00     0.049 A 
ATOM     49  N   UNL A   1      40.688  29.815  31.304  1.00  0.00    -0.248 NA
ATOM     50  C   UNL A   1      39.134  28.095  31.351  1.00  0.00     0.031 C 
ATOM     51  C   UNL A   1      40.022  28.737  26.764  1.00  0.00     0.029 A 
ATOM     52  N   UNL A   1      41.512  28.217  28.294  1.00  0.00    -0.354 N 
ATOM     53  C   UNL A   1      40.751  29.188  32.539  1.00  0.00     0.074 A 
ATOM     54  C   UNL A   1      39.635  28.275  32.577  1.00  0.00     0.031 C 
ATOM     55  C   UNL A   1      40.892  27.882  26.176  1.00  0.00     0.029 A 
ATOM     56  C   UNL A   1      41.923  27.550  27.144  1.00  0.00     0.049 A 
ATOM     57  H   UNL A   1      42.053  28.238  29.116  1.00  0.00     0.167 HD
ATOM     58  C   UNL A   1      41.866  29.286  33.314  1.00  0.00     0.031 A 
ATOM     59  C   UNL A   1      43.044  26.802  26.993  1.00  0.00     0.031 A 
ATOM     60  C   UNL A   1      42.768  30.298  32.816  1.00  0.00     0.049 A 
ATOM     61  C   UNL A   1      44.004  27.255  28.027  1.00  0.00     0.074 A 
ATOM     62  C   UNL A   1      42.669  31.652  32.561  1.00  0.00     0.029 A 
ATOM     63  N   UNL A   1      43.857  29.857  32.098  1.00  0.00    -0.354 N 
ATOM     64  N   UNL A   1      44.545  28.440  28.024  1.00  0.00    -0.248 NA
ATOM     65  C   UNL A   1      44.014  26.570  29.309  1.00  0.00     0.031 C 
ATOM     66  C   UNL A   1      43.390  31.852  31.346  1.00  0.00     0.029 A 
ATOM     67  C   UNL A   1      43.959  30.632  30.972  1.00  0.00     0.049 A 
ATOM     68  H   UNL A   1      44.456  29.117  32.349  1.00  0.00     0.167 HD
ATOM     69  C   UNL A   1      44.543  28.833  29.354  1.00  0.00     0.074 A 
ATOM     70  C   UNL A   1      44.303  27.603  30.107  1.00  0.00     0.031 C 
ATOM     71  C   UNL A   1      44.462  30.153  29.701  1.00  0.00     0.031 A 
BRANCH  58  72
ATOM     72  C   UNL A   1      42.338  28.199  34.247  1.00  0.00    -0.014 A 
ATOM     73  C   UNL A   1      42.023  28.307  35.617  1.00  0.00     0.010 A 
ATOM     74  C   UNL A   1      43.303  27.237  33.886  1.00  0.00     0.010 A 
ATOM     75  C   UNL A   1      42.700  27.551  36.580  1.00  0.00     0.020 A 
ATOM     76  C   UNL A   1      43.952  26.446  34.834  1.00  0.00     0.020 A 
ATOM     77  C   UNL A   1      43.671  26.634  36.180  1.00  0.00     0.054 A 
BRANCH  77  78
ATOM     78  S   UNL A   1      44.609  25.735  37.437  1.00  0.00     0.124 S 
ATOM     79  O   UNL A   1      45.971  26.191  37.176  1.00  0.00    -0.237 OA
ATOM     80  O   UNL A   1      44.003  26.215  38.675  1.00  0.00    -0.237 OA
ATOM     81  O   UNL A   1      44.344  24.332  37.120  1.00  0.00    -0.744 OA
ENDBRANCH  77  78
ENDBRANCH  58  72
BRANCH  59  82
ATOM     82  C   UNL A   1      43.242  25.553  26.216  1.00  0.00    -0.014 A 
ATOM     83  C   UNL A   1      44.384  25.379  25.410  1.00  0.00     0.010 A 
ATOM     84  C   UNL A   1      42.475  24.410  26.522  1.00  0.00     0.010 A 
ATOM     85  C   UNL A   1      44.794  24.099  25.000  1.00  0.00     0.020 A 
ATOM     86  C   UNL A   1      42.875  23.131  26.113  1.00  0.00     0.020 A 
ATOM     87  C   UNL A   1      44.051  22.978  25.380  1.00  0.00     0.054 A 
BRANCH  87  88
ATOM     88  S   UNL A   1      44.701  21.315  25.033  1.00  0.00     0.124 S 
ATOM     89  O   UNL A   1      43.762  20.458  25.748  1.00  0.00    -0.237 OA
ATOM     90  O   UNL A   1      44.637  21.248  23.575  1.00  0.00    -0.237 OA
ATOM     91  O   UNL A   1      46.054  21.355  25.588  1.00  0.00    -0.744 OA
ENDBRANCH  87  88
ENDBRANCH  59  82
BRANCH  71  92
ATOM     92  C   UNL A   1      44.724  31.195  28.635  1.00  0.00    -0.014 A 
ATOM     93  C   UNL A   1      43.846  31.496  27.574  1.00  0.00     0.010 A 
ATOM     94  C   UNL A   1      45.882  31.979  28.782  1.00  0.00     0.010 A 
ATOM     95  C   UNL A   1      44.153  32.514  26.656  1.00  0.00     0.020 A 
ATOM     96  C   UNL A   1      46.182  33.008  27.887  1.00  0.00     0.020 A 
ATOM     97  C   UNL A   1      45.326  33.257  26.815  1.00  0.00     0.054 A 
BRANCH  97  98
ATOM     98  S   UNL A   1      45.731  34.562  25.620  1.00  0.00     0.124 S 
ATOM     99  O   UNL A   1      47.157  34.351  25.392  1.00  0.00    -0.237 OA
ATOM    100  O   UNL A   1      44.859  34.249  24.490  1.00  0.00    -0.237 OA
ATOM    101  O   UNL A   1      45.395  35.799  26.327  1.00  0.00    -0.744 OA
ENDBRANCH  97  98
ENDBRANCH  71  92
ENDBRANCH  45  46
ENDBRANCH  37  40
ENDBRANCH  35  36
ENDBRANCH  34  35
ENDBRANCH   1  34
TORSDOF 20
ENDMDL
MODEL 2
REMARK VINA RESULT:     -13.2      2.705      9.697
REMARK SMILES COc1ccccc1[C@@H]1C[N@@H+](Cc2cn3cc(C)ccc3n2)C[C@H]1C(=O)NCCCCCCNC(=O)c1ccc(-c2c3nc(c(-c4ccc(S(=O)(=O)[O-])cc4)c4ccc([nH]4)c(-c4ccc(S(=O)(=O)[O-])cc4)c4nc(c(-c5ccc(S(=O)(=O)[O-])cc5)c5ccc2[nH]5)C=C4)C=C3)cc1
REMARK SMILES IDX 31 1 30 2 29 3 28 4 27 5 25 6 26 7 24 9 9 10 10 11 11 12
REMARK SMILES IDX 23 13 8 15 3 16 4 17 5 18 7 19 6 20 2 21 1 22 12 23 13 24
REMARK SMILES IDX 14 25 22 26 15 27 21 28 16 29 20 30 17 31 19 32 18 33 32 34
REMARK SMILES IDX 33 35 34 36 35 37 36 39 37 40 38 41 96 42 39 43 95 44 40 45
REMARK SMILES IDX 41 46 42 47 89 48 43 49 94 50 88 51 90 52 44 53 93 54 87 55
REMARK SMILES IDX 86 56 45 58 75 59 56 60 74 61 57 62 60 63 73 64 91 65 58 66
REMARK SMILES IDX 59 67 72 69 92 70 61 71 46 72 47 73 55 74 48 75 54 76 49 77
REMARK SMILES IDX 50 78 51 79 52 80 53 81 76 82 77 83 85 84 78 85 84 86 79 87
REMARK SMILES IDX 80 88 81 89 82 90 83 91 62 92 63 93 71 94 64 95 70 96 65 97
REMARK SMILES IDX 66 98 67 99 68 100 69 101
REMARK H PARENT 27 8 11 14 34 38 90 57 60 68
REMARK Flexibility Score: inf
ROOT
ATOM      1  C   UNL A   1      35.909  23.269  24.222  1.00  0.00     0.002 C 
ENDROOT
BRANCH   1   2
ATOM      2  C   UNL A   1      35.599  24.284  25.319  1.00  0.00     0.002 C 
BRANCH   2   3
ATOM      3  C   UNL A   1      34.187  24.851  25.342  1.00  0.00     0.021 C 
BRANCH   3   4
ATOM      4  C   UNL A   1      33.952  26.372  25.405  1.00  0.00     0.116 C 
BRANCH   4   5
ATOM      5  N   UNL A   1      32.900  26.737  26.378  1.00  0.00    -0.356 N 
ATOM      6  C   UNL A   1      31.535  26.753  26.434  1.00  0.00     0.229 C 
ATOM      7  O   UNL A   1      31.097  27.471  27.353  1.00  0.00    -0.275 OA
ATOM      8  H   UNL A   1      33.293  27.058  27.222  1.00  0.00     0.163 HD
BRANCH   6   9
ATOM      9  C   UNL A   1      30.496  25.932  25.629  1.00  0.00     0.146 C 
ATOM     10  C   UNL A   1      30.417  26.186  24.091  1.00  0.00     0.096 C 
ATOM     11  C   UNL A   1      30.028  24.826  23.485  1.00  0.00     0.272 C 
ATOM     12  N   UNL A   1      30.609  23.815  24.387  1.00  0.00    -0.329 N 
ATOM     13  C   UNL A   1      30.502  24.406  25.734  1.00  0.00     0.276 C 
ATOM     14  H   UNL A   1      30.097  22.933  24.350  1.00  0.00     0.348 HD
BRANCH  10  15
ATOM     15  C   UNL A   1      29.874  27.406  23.361  1.00  0.00     0.004 A 
ATOM     16  C   UNL A   1      30.585  28.489  22.834  1.00  0.00     0.122 A 
ATOM     17  C   UNL A   1      29.895  29.638  22.389  1.00  0.00     0.047 A 
ATOM     18  C   UNL A   1      28.506  29.748  22.478  1.00  0.00     0.004 A 
ATOM     19  C   UNL A   1      28.457  27.560  23.429  1.00  0.00     0.008 A 
ATOM     20  C   UNL A   1      27.781  28.704  23.016  1.00  0.00     0.001 A 
BRANCH  16  21
ATOM     21  O   UNL A   1      31.942  28.654  22.868  1.00  0.00    -0.496 OA
ATOM     22  C   UNL A   1      32.693  27.597  22.300  1.00  0.00     0.278 C 
ENDBRANCH  16  21
ENDBRANCH  10  15
BRANCH  12  23
ATOM     23  C   UNL A   1      31.956  23.317  23.983  1.00  0.00     0.321 C 
BRANCH  23  24
ATOM     24  C   UNL A   1      32.236  21.852  24.207  1.00  0.00     0.114 A 
ATOM     25  C   UNL A   1      32.328  21.069  25.350  1.00  0.00     0.122 A 
ATOM     26  N   UNL A   1      32.445  21.056  23.119  1.00  0.00    -0.228 NA
ATOM     27  N   UNL A   1      32.493  19.763  24.912  1.00  0.00    -0.306 N 
ATOM     28  C   UNL A   1      32.416  19.816  23.539  1.00  0.00     0.137 A 
ATOM     29  C   UNL A   1      32.766  18.570  25.582  1.00  0.00     0.096 A 
ATOM     30  C   UNL A   1      32.400  18.600  22.805  1.00  0.00     0.048 A 
ATOM     31  C   UNL A   1      32.953  17.435  24.865  1.00  0.00    -0.034 A 
ATOM     32  C   UNL A   1      32.684  17.454  23.435  1.00  0.00     0.009 A 
ATOM     33  C   UNL A   1      33.477  16.144  25.395  1.00  0.00     0.046 C 
ENDBRANCH  23  24
ENDBRANCH  12  23
ENDBRANCH   6   9
ENDBRANCH   4   5
ENDBRANCH   3   4
ENDBRANCH   2   3
ENDBRANCH   1   2
BRANCH   1  34
ATOM     34  C   UNL A   1      36.897  22.142  24.568  1.00  0.00     0.021 C 
BRANCH  34  35
ATOM     35  C   UNL A   1      37.482  22.185  25.977  1.00  0.00     0.116 C 
BRANCH  35  36
ATOM     36  N   UNL A   1      38.691  21.387  26.110  1.00  0.00    -0.352 N 
ATOM     37  C   UNL A   1      39.975  21.803  26.398  1.00  0.00     0.251 C 
ATOM     38  H   UNL A   1      38.578  20.417  25.977  1.00  0.00     0.163 HD
ATOM     39  O   UNL A   1      40.920  21.069  26.156  1.00  0.00    -0.269 OA
BRANCH  37  40
ATOM     40  C   UNL A   1      40.203  23.129  27.019  1.00  0.00     0.039 A 
ATOM     41  C   UNL A   1      41.387  23.382  27.723  1.00  0.00     0.014 A 
ATOM     42  C   UNL A   1      39.206  24.100  26.966  1.00  0.00     0.014 A 
ATOM     43  C   UNL A   1      41.567  24.619  28.342  1.00  0.00     0.010 A 
ATOM     44  C   UNL A   1      39.428  25.350  27.500  1.00  0.00     0.010 A 
ATOM     45  C   UNL A   1      40.577  25.604  28.229  1.00  0.00    -0.014 A 
BRANCH  45  46
ATOM     46  C   UNL A   1      40.793  26.956  28.734  1.00  0.00     0.031 A 
ATOM     47  C   UNL A   1      41.914  27.662  28.077  1.00  0.00     0.074 A 
ATOM     48  C   UNL A   1      39.978  27.620  29.580  1.00  0.00     0.049 A 
ATOM     49  N   UNL A   1      43.093  27.833  28.568  1.00  0.00    -0.248 NA
ATOM     50  C   UNL A   1      41.780  28.074  26.673  1.00  0.00     0.031 C 
ATOM     51  C   UNL A   1      38.690  27.200  30.126  1.00  0.00     0.029 A 
ATOM     52  N   UNL A   1      40.105  28.881  30.072  1.00  0.00    -0.354 N 
ATOM     53  C   UNL A   1      43.784  28.594  27.638  1.00  0.00     0.074 A 
ATOM     54  C   UNL A   1      43.008  28.535  26.423  1.00  0.00     0.031 C 
ATOM     55  C   UNL A   1      38.043  28.263  30.662  1.00  0.00     0.029 A 
ATOM     56  C   UNL A   1      38.964  29.386  30.687  1.00  0.00     0.049 A 
ATOM     57  H   UNL A   1      40.940  29.397  30.001  1.00  0.00     0.167 HD
ATOM     58  C   UNL A   1      44.795  29.420  28.027  1.00  0.00     0.031 A 
ATOM     59  C   UNL A   1      38.798  30.630  31.204  1.00  0.00     0.031 A 
ATOM     60  C   UNL A   1      45.186  29.168  29.394  1.00  0.00     0.049 A 
ATOM     61  C   UNL A   1      40.153  31.151  31.505  1.00  0.00     0.074 A 
ATOM     62  C   UNL A   1      45.644  28.066  30.090  1.00  0.00     0.029 A 
ATOM     63  N   UNL A   1      44.713  30.044  30.344  1.00  0.00    -0.354 N 
ATOM     64  N   UNL A   1      40.921  30.644  32.427  1.00  0.00    -0.248 NA
ATOM     65  C   UNL A   1      40.836  31.930  30.486  1.00  0.00     0.031 C 
ATOM     66  C   UNL A   1      44.988  28.131  31.355  1.00  0.00     0.029 A 
ATOM     67  C   UNL A   1      44.235  29.306  31.396  1.00  0.00     0.049 A 
ATOM     68  H   UNL A   1      44.717  31.027  30.280  1.00  0.00     0.167 HD
ATOM     69  C   UNL A   1      42.190  30.645  31.870  1.00  0.00     0.074 A 
ATOM     70  C   UNL A   1      42.093  31.543  30.720  1.00  0.00     0.031 C 
ATOM     71  C   UNL A   1      43.120  29.710  32.229  1.00  0.00     0.031 A 
BRANCH  58  72
ATOM     72  C   UNL A   1      45.131  30.717  27.336  1.00  0.00    -0.014 A 
ATOM     73  C   UNL A   1      46.477  30.970  27.001  1.00  0.00     0.010 A 
ATOM     74  C   UNL A   1      44.237  31.805  27.259  1.00  0.00     0.010 A 
ATOM     75  C   UNL A   1      46.918  32.260  26.686  1.00  0.00     0.020 A 
ATOM     76  C   UNL A   1      44.658  33.086  26.903  1.00  0.00     0.020 A 
ATOM     77  C   UNL A   1      46.004  33.313  26.653  1.00  0.00     0.054 A 
BRANCH  77  78
ATOM     78  S   UNL A   1      46.599  34.991  26.344  1.00  0.00     0.124 S 
ATOM     79  O   UNL A   1      45.356  35.755  26.346  1.00  0.00    -0.237 OA
ATOM     80  O   UNL A   1      47.487  35.217  27.482  1.00  0.00    -0.237 OA
ATOM     81  O   UNL A   1      47.269  34.881  25.049  1.00  0.00    -0.744 OA
ENDBRANCH  77  78
ENDBRANCH  58  72
BRANCH  59  82
ATOM     82  C   UNL A   1      37.595  31.498  31.197  1.00  0.00    -0.014 A 
ATOM     83  C   UNL A   1      36.509  31.229  32.053  1.00  0.00     0.010 A 
ATOM     84  C   UNL A   1      37.652  32.767  30.587  1.00  0.00     0.010 A 
ATOM     85  C   UNL A   1      35.564  32.224  32.358  1.00  0.00     0.020 A 
ATOM     86  C   UNL A   1      36.710  33.762  30.883  1.00  0.00     0.020 A 
ATOM     87  C   UNL A   1      35.688  33.495  31.792  1.00  0.00     0.054 A 
BRANCH  87  88
ATOM     88  S   UNL A   1      34.594  34.834  32.356  1.00  0.00     0.124 S 
ATOM     89  O   UNL A   1      35.452  35.569  33.279  1.00  0.00    -0.237 OA
ATOM     90  O   UNL A   1      34.267  35.523  31.110  1.00  0.00    -0.237 OA
ATOM     91  O   UNL A   1      33.476  34.124  32.977  1.00  0.00    -0.744 OA
ENDBRANCH  87  88
ENDBRANCH  59  82
BRANCH  71  92
ATOM     92  C   UNL A   1      42.877  28.895  33.481  1.00  0.00    -0.014 A 
ATOM     93  C   UNL A   1      43.199  29.316  34.787  1.00  0.00     0.010 A 
ATOM     94  C   UNL A   1      42.191  27.677  33.325  1.00  0.00     0.010 A 
ATOM     95  C   UNL A   1      42.894  28.510  35.896  1.00  0.00     0.020 A 
ATOM     96  C   UNL A   1      41.864  26.882  34.425  1.00  0.00     0.020 A 
ATOM     97  C   UNL A   1      42.236  27.292  35.705  1.00  0.00     0.054 A 
BRANCH  97  98
ATOM     98  S   UNL A   1      41.855  26.242  37.136  1.00  0.00     0.124 S 
ATOM     99  O   UNL A   1      40.571  26.771  37.585  1.00  0.00    -0.237 OA
ATOM    100  O   UNL A   1      41.816  24.902  36.553  1.00  0.00    -0.237 OA
ATOM    101  O   UNL A   1      42.974  26.478  38.049  1.00  0.00    -0.744 OA
ENDBRANCH  97  98
ENDBRANCH  71  92
ENDBRANCH  45  46
ENDBRANCH  37  40
ENDBRANCH  35  36
ENDBRANCH  34  35
ENDBRANCH   1  34
TORSDOF 20
ENDMDL
MODEL 3
REMARK VINA RESULT:     -12.9      1.859      5.002
REMARK SMILES COc1ccccc1[C@@H]1C[N@@H+](Cc2cn3cc(C)ccc3n2)C[C@H]1C(=O)NCCCCCCNC(=O)c1ccc(-c2c3nc(c(-c4ccc(S(=O)(=O)[O-])cc4)c4ccc([nH]4)c(-c4ccc(S(=O)(=O)[O-])cc4)c4nc(c(-c5ccc(S(=O)(=O)[O-])cc5)c5ccc2[nH]5)C=C4)C=C3)cc1
REMARK SMILES IDX 31 1 30 2 29 3 28 4 27 5 25 6 26 7 24 9 9 10 10 11 11 12
REMARK SMILES IDX 23 13 8 15 3 16 4 17 5 18 7 19 6 20 2 21 1 22 12 23 13 24
REMARK SMILES IDX 14 25 22 26 15 27 21 28 16 29 20 30 17 31 19 32 18 33 32 34
REMARK SMILES IDX 33 35 34 36 35 37 36 39 37 40 38 41 96 42 39 43 95 44 40 45
REMARK SMILES IDX 41 46 42 47 89 48 43 49 94 50 88 51 90 52 44 53 93 54 87 55
REMARK SMILES IDX 86 56 45 58 75 59 56 60 74 61 57 62 60 63 73 64 91 65 58 66
REMARK SMILES IDX 59 67 72 69 92 70 61 71 46 72 47 73 55 74 48 75 54 76 49 77
REMARK SMILES IDX 50 78 51 79 52 80 53 81 76 82 77 83 85 84 78 85 84 86 79 87
REMARK SMILES IDX 80 88 81 89 82 90 83 91 62 92 63 93 71 94 64 95 70 96 65 97
REMARK SMILES IDX 66 98 67 99 68 100 69 101
REMARK H PARENT 27 8 11 14 34 38 90 57 60 68
REMARK Flexibility Score: inf
ROOT
ATOM      1  C   UNL A   1      31.695  27.726  26.704  1.00  0.00     0.002 C 
ENDROOT
BRANCH   1   2
ATOM      2  C   UNL A   1      32.183  26.326  26.343  1.00  0.00     0.002 C 
BRANCH   2   3
ATOM      3  C   UNL A   1      31.934  25.866  24.914  1.00  0.00     0.021 C 
BRANCH   3   4
ATOM      4  C   UNL A   1      32.933  26.207  23.793  1.00  0.00     0.116 C 
BRANCH   4   5
ATOM      5  N   UNL A   1      33.443  25.000  23.109  1.00  0.00    -0.356 N 
ATOM      6  C   UNL A   1      34.201  23.907  23.415  1.00  0.00     0.229 C 
ATOM      7  O   UNL A   1      34.648  23.328  22.407  1.00  0.00    -0.275 OA
ATOM      8  H   UNL A   1      33.154  24.978  22.167  1.00  0.00     0.163 HD
BRANCH   6   9
ATOM      9  C   UNL A   1      34.466  23.233  24.786  1.00  0.00     0.146 C 
ATOM     10  C   UNL A   1      34.928  21.742  24.775  1.00  0.00     0.096 C 
ATOM     11  C   UNL A   1      35.857  21.606  25.994  1.00  0.00     0.272 C 
ATOM     12  N   UNL A   1      36.482  22.931  26.159  1.00  0.00    -0.329 N 
ATOM     13  C   UNL A   1      35.433  23.893  25.771  1.00  0.00     0.276 C 
ATOM     14  H   UNL A   1      36.770  23.097  27.124  1.00  0.00     0.348 HD
BRANCH  10  15
ATOM     15  C   UNL A   1      34.112  20.502  24.434  1.00  0.00     0.004 A 
ATOM     16  C   UNL A   1      32.742  20.412  24.172  1.00  0.00     0.122 A 
ATOM     17  C   UNL A   1      32.119  19.147  24.095  1.00  0.00     0.047 A 
ATOM     18  C   UNL A   1      32.826  17.960  24.299  1.00  0.00     0.004 A 
ATOM     19  C   UNL A   1      34.796  19.266  24.632  1.00  0.00     0.008 A 
ATOM     20  C   UNL A   1      34.175  18.021  24.583  1.00  0.00     0.001 A 
BRANCH  16  21
ATOM     21  O   UNL A   1      31.853  21.451  24.161  1.00  0.00    -0.496 OA
ATOM     22  C   UNL A   1      31.349  21.827  25.430  1.00  0.00     0.278 C 
ENDBRANCH  16  21
ENDBRANCH  10  15
BRANCH  12  23
ATOM     23  C   UNL A   1      37.807  23.086  25.492  1.00  0.00     0.321 C 
BRANCH  23  24
ATOM     24  C   UNL A   1      39.021  23.118  26.387  1.00  0.00     0.114 A 
ATOM     25  C   UNL A   1      40.093  22.253  26.558  1.00  0.00     0.122 A 
ATOM     26  N   UNL A   1      39.182  24.181  27.227  1.00  0.00    -0.228 NA
ATOM     27  N   UNL A   1      40.956  22.879  27.447  1.00  0.00    -0.306 N 
ATOM     28  C   UNL A   1      40.399  24.111  27.704  1.00  0.00     0.137 A 
ATOM     29  C   UNL A   1      42.119  22.455  28.090  1.00  0.00     0.096 A 
ATOM     30  C   UNL A   1      41.138  25.051  28.472  1.00  0.00     0.048 A 
ATOM     31  C   UNL A   1      42.720  23.279  28.983  1.00  0.00    -0.034 A 
ATOM     32  C   UNL A   1      42.242  24.648  29.111  1.00  0.00     0.009 A 
ATOM     33  C   UNL A   1      43.817  22.900  29.919  1.00  0.00     0.046 C 
ENDBRANCH  23  24
ENDBRANCH  12  23
ENDBRANCH   6   9
ENDBRANCH   4   5
ENDBRANCH   3   4
ENDBRANCH   2   3
ENDBRANCH   1   2
BRANCH   1  34
ATOM     34  C   UNL A   1      32.579  28.910  26.277  1.00  0.00     0.021 C 
BRANCH  34  35
ATOM     35  C   UNL A   1      33.520  29.453  27.349  1.00  0.00     0.116 C 
BRANCH  35  36
ATOM     36  N   UNL A   1      33.697  30.895  27.265  1.00  0.00    -0.352 N 
ATOM     37  C   UNL A   1      34.735  31.668  27.746  1.00  0.00     0.251 C 
ATOM     38  H   UNL A   1      32.980  31.386  26.801  1.00  0.00     0.163 HD
ATOM     39  O   UNL A   1      34.581  32.872  27.882  1.00  0.00    -0.269 OA
BRANCH  37  40
ATOM     40  C   UNL A   1      36.036  31.042  28.075  1.00  0.00     0.039 A 
ATOM     41  C   UNL A   1      36.291  29.716  27.706  1.00  0.00     0.014 A 
ATOM     42  C   UNL A   1      36.977  31.749  28.820  1.00  0.00     0.014 A 
ATOM     43  C   UNL A   1      37.504  29.124  28.065  1.00  0.00     0.010 A 
ATOM     44  C   UNL A   1      38.207  31.190  29.091  1.00  0.00     0.010 A 
ATOM     45  C   UNL A   1      38.461  29.870  28.763  1.00  0.00    -0.014 A 
BRANCH  45  46
ATOM     46  C   UNL A   1      39.794  29.336  29.025  1.00  0.00     0.031 A 
ATOM     47  C   UNL A   1      40.040  29.031  30.450  1.00  0.00     0.074 A 
ATOM     48  C   UNL A   1      40.691  28.964  28.088  1.00  0.00     0.049 A 
ATOM     49  N   UNL A   1      40.719  29.753  31.274  1.00  0.00    -0.248 NA
ATOM     50  C   UNL A   1      39.331  27.907  31.077  1.00  0.00     0.031 C 
ATOM     51  C   UNL A   1      40.536  28.933  26.636  1.00  0.00     0.029 A 
ATOM     52  N   UNL A   1      41.935  28.441  28.259  1.00  0.00    -0.354 N 
ATOM     53  C   UNL A   1      40.735  29.052  32.469  1.00  0.00     0.074 A 
ATOM     54  C   UNL A   1      39.709  28.045  32.352  1.00  0.00     0.031 C 
ATOM     55  C   UNL A   1      41.528  28.198  26.077  1.00  0.00     0.029 A 
ATOM     56  C   UNL A   1      42.500  27.892  27.112  1.00  0.00     0.049 A 
ATOM     57  H   UNL A   1      42.401  28.452  29.126  1.00  0.00     0.167 HD
ATOM     58  C   UNL A   1      41.768  29.193  33.345  1.00  0.00     0.031 A 
ATOM     59  C   UNL A   1      43.695  27.255  27.017  1.00  0.00     0.031 A 
ATOM     60  C   UNL A   1      42.612  30.311  32.992  1.00  0.00     0.049 A 
ATOM     61  C   UNL A   1      44.519  27.719  28.158  1.00  0.00     0.074 A 
ATOM     62  C   UNL A   1      42.410  31.666  32.811  1.00  0.00     0.029 A 
ATOM     63  N   UNL A   1      43.792  30.016  32.349  1.00  0.00    -0.354 N 
ATOM     64  N   UNL A   1      44.946  28.944  28.275  1.00  0.00    -0.248 NA
ATOM     65  C   UNL A   1      44.484  26.952  29.393  1.00  0.00     0.031 C 
ATOM     66  C   UNL A   1      43.208  32.009  31.680  1.00  0.00     0.029 A 
ATOM     67  C   UNL A   1      43.916  30.872  31.285  1.00  0.00     0.049 A 
ATOM     68  H   UNL A   1      44.434  29.315  32.607  1.00  0.00     0.167 HD
ATOM     69  C   UNL A   1      44.797  29.244  29.620  1.00  0.00     0.074 A 
ATOM     70  C   UNL A   1      44.610  27.949  30.273  1.00  0.00     0.031 C 
ATOM     71  C   UNL A   1      44.566  30.525  30.037  1.00  0.00     0.031 A 
BRANCH  58  72
ATOM     72  C   UNL A   1      42.258  28.090  34.249  1.00  0.00    -0.014 A 
ATOM     73  C   UNL A   1      42.228  28.302  35.643  1.00  0.00     0.010 A 
ATOM     74  C   UNL A   1      42.999  26.984  33.786  1.00  0.00     0.010 A 
ATOM     75  C   UNL A   1      42.968  27.497  36.517  1.00  0.00     0.020 A 
ATOM     76  C   UNL A   1      43.704  26.148  34.652  1.00  0.00     0.020 A 
ATOM     77  C   UNL A   1      43.712  26.432  36.010  1.00  0.00     0.054 A 
BRANCH  77  78
ATOM     78  S   UNL A   1      44.743  25.461  37.134  1.00  0.00     0.124 S 
ATOM     79  O   UNL A   1      44.489  24.100  36.671  1.00  0.00    -0.237 OA
ATOM     80  O   UNL A   1      46.077  25.988  36.860  1.00  0.00    -0.237 OA
ATOM     81  O   UNL A   1      44.207  25.788  38.454  1.00  0.00    -0.744 OA
ENDBRANCH  77  78
ENDBRANCH  58  72
BRANCH  59  82
ATOM     82  C   UNL A   1      44.071  26.084  26.187  1.00  0.00    -0.014 A 
ATOM     83  C   UNL A   1      45.310  25.439  26.372  1.00  0.00     0.010 A 
ATOM     84  C   UNL A   1      43.082  25.407  25.444  1.00  0.00     0.010 A 
ATOM     85  C   UNL A   1      45.520  24.129  25.909  1.00  0.00     0.020 A 
ATOM     86  C   UNL A   1      43.287  24.102  24.976  1.00  0.00     0.020 A 
ATOM     87  C   UNL A   1      44.495  23.457  25.238  1.00  0.00     0.054 A 
BRANCH  87  88
ATOM     88  S   UNL A   1      44.696  21.695  24.834  1.00  0.00     0.124 S 
ATOM     89  O   UNL A   1      45.948  21.362  25.505  1.00  0.00    -0.237 OA
ATOM     90  O   UNL A   1      43.492  21.099  25.407  1.00  0.00    -0.237 OA
ATOM     91  O   UNL A   1      44.752  21.684  23.372  1.00  0.00    -0.744 OA
ENDBRANCH  87  88
ENDBRANCH  59  82
BRANCH  71  92
ATOM     92  C   UNL A   1      44.819  31.656  29.064  1.00  0.00    -0.014 A 
ATOM     93  C   UNL A   1      43.814  32.348  28.359  1.00  0.00     0.010 A 
ATOM     94  C   UNL A   1      46.147  32.103  28.938  1.00  0.00     0.010 A 
ATOM     95  C   UNL A   1      44.139  33.418  27.509  1.00  0.00     0.020 A 
ATOM     96  C   UNL A   1      46.475  33.181  28.113  1.00  0.00     0.020 A 
ATOM     97  C   UNL A   1      45.472  33.821  27.386  1.00  0.00     0.054 A 
BRANCH  97  98
ATOM     98  S   UNL A   1      45.897  35.192  26.276  1.00  0.00     0.124 S 
ATOM     99  O   UNL A   1      45.637  36.364  27.107  1.00  0.00    -0.237 OA
ATOM    100  O   UNL A   1      47.303  34.937  25.968  1.00  0.00    -0.237 OA
ATOM    101  O   UNL A   1      44.984  35.022  25.145  1.00  0.00    -0.744 OA
ENDBRANCH  97  98
ENDBRANCH  71  92
ENDBRANCH  45  46
ENDBRANCH  37  40
ENDBRANCH  35  36
ENDBRANCH  34  35
ENDBRANCH   1  34
TORSDOF 20
ENDMDL
