MODEL 1
REMARK VINA RESULT:     -10.1      0.000      0.000
REMARK SMILES COc1ncnc(N2CCCC[C@H]2CC(=O)NCCCCCCNC(=O)c2ccc(-c3c4nc(c(-c5ccc(S(=O)(=O)[O-])cc5)c5ccc([nH]5)c(-c5ccc(S(=O)(=O)[O-])cc5)c5nc(c(-c6ccc(S(=O)(=O)[O-])cc6)c6ccc3[nH]6)C=C5)C=C4)cc2)c1[N+](=O)[O-]
REMARK SMILES IDX 20 1 19 2 18 3 17 4 15 5 16 6 14 8 13 9 8 10 9 11 10 12
REMARK SMILES IDX 12 13 11 14 7 15 3 16 4 17 87 18 5 19 6 20 2 21 1 22 88 23
REMARK SMILES IDX 89 24 90 25 21 26 22 27 23 28 24 29 25 30 26 32 27 33 28 34
REMARK SMILES IDX 86 35 29 36 85 37 30 38 31 39 32 40 79 41 33 42 84 43 78 44
REMARK SMILES IDX 80 45 34 46 83 47 77 48 76 49 35 51 65 52 46 53 64 54 47 55
REMARK SMILES IDX 50 56 63 57 81 58 48 59 49 60 62 62 82 63 51 64 36 65 37 66
REMARK SMILES IDX 45 67 38 68 44 69 39 70 40 71 41 72 42 73 43 74 66 75 67 76
REMARK SMILES IDX 75 77 68 78 74 79 69 80 70 81 71 82 72 83 73 84 52 85 53 86
REMARK SMILES IDX 61 87 54 88 60 89 55 90 56 91 57 92 58 93 59 94
REMARK H PARENT 17 7 24 31 80 50 50 61
REMARK Flexibility Score: inf
ROOT
ATOM      1  C   UNL A   1      34.259  22.085  24.083  1.00  0.00     0.002 C 
ENDROOT
BRANCH   1   2
ATOM      2  C   UNL A   1      33.756  21.642  25.459  1.00  0.00     0.021 C 
BRANCH   2   3
ATOM      3  C   UNL A   1      32.257  21.352  25.516  1.00  0.00     0.116 C 
BRANCH   3   4
ATOM      4  N   UNL A   1      31.541  22.381  26.248  1.00  0.00    -0.356 N 
ATOM      5  C   UNL A   1      30.998  23.549  25.809  1.00  0.00     0.222 C 
ATOM      6  O   UNL A   1      30.459  24.298  26.625  1.00  0.00    -0.275 OA
ATOM      7  H   UNL A   1      31.431  22.205  27.211  1.00  0.00     0.163 HD
BRANCH   5   8
ATOM      8  C   UNL A   1      31.013  23.903  24.339  1.00  0.00     0.125 C 
BRANCH   8   9
ATOM      9  C   UNL A   1      31.016  25.422  24.075  1.00  0.00     0.093 C 
ATOM     10  N   UNL A   1      32.204  26.103  24.643  1.00  0.00    -0.347 N 
ATOM     11  C   UNL A   1      33.501  25.717  24.028  1.00  0.00     0.118 C 
ATOM     12  C   UNL A   1      33.491  25.984  22.528  1.00  0.00     0.022 C 
ATOM     13  C   UNL A   1      30.996  25.713  22.555  1.00  0.00     0.026 C 
ATOM     14  C   UNL A   1      32.297  25.304  21.864  1.00  0.00     0.004 C 
BRANCH  10  15
ATOM     15  C   UNL A   1      32.201  27.260  25.414  1.00  0.00     0.215 A 
ATOM     16  C   UNL A   1      31.773  29.546  25.929  1.00  0.00     0.299 A 
ATOM     17  N   UNL A   1      31.741  29.327  27.253  1.00  0.00    -0.196 NA
ATOM     18  C   UNL A   1      32.084  28.574  24.994  1.00  0.00     0.372 A 
ATOM     19  C   UNL A   1      32.002  28.075  27.608  1.00  0.00     0.228 A 
ATOM     20  N   UNL A   1      32.196  27.052  26.757  1.00  0.00    -0.212 NA
BRANCH  16  21
ATOM     21  O   UNL A   1      31.428  30.821  25.547  1.00  0.00    -0.476 OA
ATOM     22  C   UNL A   1      31.497  31.682  26.688  1.00  0.00     0.280 C 
ENDBRANCH  16  21
BRANCH  18  23
ATOM     23  N   UNL A   1      32.208  29.019  23.649  1.00  0.00     0.072 N 
ATOM     24  O   UNL A   1      31.175  29.104  22.972  1.00  0.00    -0.258 OA
ATOM     25  O   UNL A   1      33.346  29.330  23.267  1.00  0.00    -0.258 OA
ENDBRANCH  18  23
ENDBRANCH  10  15
ENDBRANCH   8   9
ENDBRANCH   5   8
ENDBRANCH   3   4
ENDBRANCH   2   3
ENDBRANCH   1   2
BRANCH   1  26
ATOM     26  C   UNL A   1      35.768  22.329  24.006  1.00  0.00     0.002 C 
BRANCH  26  27
ATOM     27  C   UNL A   1      36.257  23.610  24.691  1.00  0.00     0.021 C 
BRANCH  27  28
ATOM     28  C   UNL A   1      36.820  23.416  26.097  1.00  0.00     0.116 C 
BRANCH  28  29
ATOM     29  N   UNL A   1      37.750  22.302  26.163  1.00  0.00    -0.352 N 
ATOM     30  C   UNL A   1      39.109  22.308  26.359  1.00  0.00     0.251 C 
ATOM     31  H   UNL A   1      37.347  21.411  26.050  1.00  0.00     0.163 HD
ATOM     32  O   UNL A   1      39.756  21.282  26.172  1.00  0.00    -0.269 OA
BRANCH  30  33
ATOM     33  C   UNL A   1      39.794  23.548  26.782  1.00  0.00     0.039 A 
ATOM     34  C   UNL A   1      39.781  24.651  25.924  1.00  0.00     0.014 A 
ATOM     35  C   UNL A   1      40.470  23.619  28.004  1.00  0.00     0.014 A 
ATOM     36  C   UNL A   1      40.404  25.839  26.311  1.00  0.00     0.010 A 
ATOM     37  C   UNL A   1      41.035  24.825  28.418  1.00  0.00     0.010 A 
ATOM     38  C   UNL A   1      41.014  25.946  27.573  1.00  0.00    -0.014 A 
BRANCH  38  39
ATOM     39  C   UNL A   1      41.634  27.220  28.015  1.00  0.00     0.031 A 
ATOM     40  C   UNL A   1      43.119  27.430  27.889  1.00  0.00     0.074 A 
ATOM     41  C   UNL A   1      40.864  28.180  28.564  1.00  0.00     0.049 A 
ATOM     42  N   UNL A   1      43.836  28.472  28.228  1.00  0.00    -0.248 NA
ATOM     43  C   UNL A   1      43.903  26.317  27.330  1.00  0.00     0.031 C 
ATOM     44  C   UNL A   1      39.417  28.087  28.776  1.00  0.00     0.029 A 
ATOM     45  N   UNL A   1      41.189  29.424  29.043  1.00  0.00    -0.354 N 
ATOM     46  C   UNL A   1      45.152  28.138  27.931  1.00  0.00     0.074 A 
ATOM     47  C   UNL A   1      45.140  26.778  27.437  1.00  0.00     0.031 C 
ATOM     48  C   UNL A   1      38.976  29.239  29.306  1.00  0.00     0.029 A 
ATOM     49  C   UNL A   1      40.108  30.139  29.502  1.00  0.00     0.049 A 
ATOM     50  H   UNL A   1      42.109  29.773  29.055  1.00  0.00     0.167 HD
ATOM     51  C   UNL A   1      46.270  28.899  28.038  1.00  0.00     0.031 A 
ATOM     52  C   UNL A   1      40.035  31.381  30.017  1.00  0.00     0.031 A 
ATOM     53  C   UNL A   1      46.282  30.253  28.528  1.00  0.00     0.049 A 
ATOM     54  C   UNL A   1      41.286  32.204  30.135  1.00  0.00     0.074 A 
ATOM     55  C   UNL A   1      47.356  31.119  28.641  1.00  0.00     0.029 A 
ATOM     56  N   UNL A   1      45.167  30.937  28.988  1.00  0.00    -0.354 N 
ATOM     57  N   UNL A   1      42.515  31.887  29.803  1.00  0.00    -0.248 NA
ATOM     58  C   UNL A   1      41.137  33.560  30.682  1.00  0.00     0.031 C 
ATOM     59  C   UNL A   1      46.896  32.314  29.207  1.00  0.00     0.029 A 
ATOM     60  C   UNL A   1      45.528  32.209  29.399  1.00  0.00     0.049 A 
ATOM     61  H   UNL A   1      44.253  30.572  29.016  1.00  0.00     0.167 HD
ATOM     62  C   UNL A   1      43.282  33.014  30.076  1.00  0.00     0.074 A 
ATOM     63  C   UNL A   1      42.376  34.023  30.587  1.00  0.00     0.031 C 
ATOM     64  C   UNL A   1      44.616  33.199  29.915  1.00  0.00     0.031 A 
BRANCH  51  65
ATOM     65  C   UNL A   1      47.573  28.270  27.618  1.00  0.00    -0.014 A 
ATOM     66  C   UNL A   1      48.038  28.383  26.295  1.00  0.00     0.010 A 
ATOM     67  C   UNL A   1      48.348  27.565  28.557  1.00  0.00     0.010 A 
ATOM     68  C   UNL A   1      49.224  27.756  25.905  1.00  0.00     0.020 A 
ATOM     69  C   UNL A   1      49.550  26.961  28.178  1.00  0.00     0.020 A 
ATOM     70  C   UNL A   1      49.968  27.041  26.848  1.00  0.00     0.054 A 
BRANCH  70  71
ATOM     71  S   UNL A   1      51.503  26.232  26.316  1.00  0.00     0.124 S 
ATOM     72  O   UNL A   1      51.281  24.855  26.751  1.00  0.00    -0.237 OA
ATOM     73  O   UNL A   1      51.494  26.442  24.870  1.00  0.00    -0.237 OA
ATOM     74  O   UNL A   1      52.545  26.955  27.041  1.00  0.00    -0.744 OA
ENDBRANCH  70  71
ENDBRANCH  51  65
BRANCH  52  75
ATOM     75  C   UNL A   1      38.715  31.936  30.423  1.00  0.00    -0.014 A 
ATOM     76  C   UNL A   1      38.244  31.757  31.736  1.00  0.00     0.010 A 
ATOM     77  C   UNL A   1      37.933  32.664  29.509  1.00  0.00     0.010 A 
ATOM     78  C   UNL A   1      37.010  32.284  32.124  1.00  0.00     0.020 A 
ATOM     79  C   UNL A   1      36.710  33.214  29.900  1.00  0.00     0.020 A 
ATOM     80  C   UNL A   1      36.251  33.013  31.204  1.00  0.00     0.054 A 
BRANCH  80  81
ATOM     81  S   UNL A   1      34.681  33.742  31.746  1.00  0.00     0.124 S 
ATOM     82  O   UNL A   1      34.015  34.009  30.476  1.00  0.00    -0.237 OA
ATOM     83  O   UNL A   1      34.099  32.674  32.556  1.00  0.00    -0.237 OA
ATOM     84  O   UNL A   1      35.097  34.925  32.497  1.00  0.00    -0.744 OA
ENDBRANCH  80  81
ENDBRANCH  52  75
BRANCH  64  85
ATOM     85  C   UNL A   1      45.168  34.555  30.268  1.00  0.00    -0.014 A 
ATOM     86  C   UNL A   1      45.900  34.760  31.451  1.00  0.00     0.010 A 
ATOM     87  C   UNL A   1      44.966  35.635  29.389  1.00  0.00     0.010 A 
ATOM     88  C   UNL A   1      46.382  36.032  31.771  1.00  0.00     0.020 A 
ATOM     89  C   UNL A   1      45.470  36.903  29.693  1.00  0.00     0.020 A 
ATOM     90  C   UNL A   1      46.158  37.097  30.892  1.00  0.00     0.054 A 
BRANCH  90  91
ATOM     91  S   UNL A   1      46.808  38.736  31.319  1.00  0.00     0.124 S 
ATOM     92  O   UNL A   1      47.895  38.891  30.355  1.00  0.00    -0.237 OA
ATOM     93  O   UNL A   1      45.653  39.606  31.110  1.00  0.00    -0.237 OA
ATOM     94  O   UNL A   1      47.225  38.589  32.711  1.00  0.00    -0.744 OA
ENDBRANCH  90  91
ENDBRANCH  64  85
ENDBRANCH  38  39
ENDBRANCH  30  33
ENDBRANCH  28  29
ENDBRANCH  27  28
ENDBRANCH  26  27
ENDBRANCH   1  26
TORSDOF 20
ENDMDL
MODEL 2
REMARK VINA RESULT:     -10.0      1.219      2.157
REMARK SMILES COc1ncnc(N2CCCC[C@H]2CC(=O)NCCCCCCNC(=O)c2ccc(-c3c4nc(c(-c5ccc(S(=O)(=O)[O-])cc5)c5ccc([nH]5)c(-c5ccc(S(=O)(=O)[O-])cc5)c5nc(c(-c6ccc(S(=O)(=O)[O-])cc6)c6ccc3[nH]6)C=C5)C=C4)cc2)c1[N+](=O)[O-]
REMARK SMILES IDX 20 1 19 2 18 3 17 4 15 5 16 6 14 8 13 9 8 10 9 11 10 12
REMARK SMILES IDX 12 13 11 14 7 15 3 16 4 17 87 18 5 19 6 20 2 21 1 22 88 23
REMARK SMILES IDX 89 24 90 25 21 26 22 27 23 28 24 29 25 30 26 32 27 33 28 34
REMARK SMILES IDX 86 35 29 36 85 37 30 38 31 39 32 40 79 41 33 42 84 43 78 44
REMARK SMILES IDX 80 45 34 46 83 47 77 48 76 49 35 51 65 52 46 53 64 54 47 55
REMARK SMILES IDX 50 56 63 57 81 58 48 59 49 60 62 62 82 63 51 64 36 65 37 66
REMARK SMILES IDX 45 67 38 68 44 69 39 70 40 71 41 72 42 73 43 74 66 75 67 76
REMARK SMILES IDX 75 77 68 78 74 79 69 80 70 81 71 82 72 83 73 84 52 85 53 86
REMARK SMILES IDX 61 87 54 88 60 89 55 90 56 91 57 92 58 93 59 94
REMARK H PARENT 17 7 24 31 80 50 50 61
REMARK Flexibility Score: inf
ROOT
ATOM      1  C   UNL A   1      34.238  22.466  23.428  1.00  0.00     0.002 C 
ENDROOT
BRANCH   1   2
ATOM      2  C   UNL A   1      33.112  22.922  24.358  1.00  0.00     0.021 C 
BRANCH   2   3
ATOM      3  C   UNL A   1      32.235  24.034  23.784  1.00  0.00     0.116 C 
BRANCH   3   4
ATOM      4  N   UNL A   1      33.007  24.957  22.971  1.00  0.00    -0.356 N 
ATOM      5  C   UNL A   1      32.604  26.055  22.275  1.00  0.00     0.222 C 
ATOM      6  O   UNL A   1      33.437  26.679  21.615  1.00  0.00    -0.275 OA
ATOM      7  H   UNL A   1      33.969  24.758  22.916  1.00  0.00     0.163 HD
BRANCH   5   8
ATOM      8  C   UNL A   1      31.171  26.531  22.344  1.00  0.00     0.125 C 
BRANCH   8   9
ATOM      9  C   UNL A   1      30.772  27.075  23.731  1.00  0.00     0.093 C 
ATOM     10  N   UNL A   1      31.200  28.478  23.944  1.00  0.00    -0.347 N 
ATOM     11  C   UNL A   1      30.541  29.475  23.061  1.00  0.00     0.118 C 
ATOM     12  C   UNL A   1      29.027  29.426  23.222  1.00  0.00     0.022 C 
ATOM     13  C   UNL A   1      29.236  27.024  23.917  1.00  0.00     0.026 C 
ATOM     14  C   UNL A   1      28.504  28.010  23.006  1.00  0.00     0.004 C 
BRANCH  10  15
ATOM     15  C   UNL A   1      31.863  28.978  25.059  1.00  0.00     0.215 A 
ATOM     16  C   UNL A   1      33.676  29.287  26.572  1.00  0.00     0.299 A 
ATOM     17  N   UNL A   1      33.237  30.487  26.983  1.00  0.00    -0.196 NA
ATOM     18  C   UNL A   1      32.985  28.472  25.693  1.00  0.00     0.372 A 
ATOM     19  C   UNL A   1      32.081  30.860  26.448  1.00  0.00     0.228 A 
ATOM     20  N   UNL A   1      31.409  30.181  25.503  1.00  0.00    -0.212 NA
BRANCH  16  21
ATOM     21  O   UNL A   1      34.910  28.926  27.059  1.00  0.00    -0.476 OA
ATOM     22  C   UNL A   1      35.280  29.834  28.103  1.00  0.00     0.280 C 
ENDBRANCH  16  21
BRANCH  18  23
ATOM     23  N   UNL A   1      33.532  27.177  25.479  1.00  0.00     0.072 N 
ATOM     24  O   UNL A   1      33.103  26.248  26.175  1.00  0.00    -0.258 OA
ATOM     25  O   UNL A   1      34.376  27.070  24.577  1.00  0.00    -0.258 OA
ENDBRANCH  18  23
ENDBRANCH  10  15
ENDBRANCH   8   9
ENDBRANCH   5   8
ENDBRANCH   3   4
ENDBRANCH   2   3
ENDBRANCH   1   2
BRANCH   1  26
ATOM     26  C   UNL A   1      35.631  22.479  24.063  1.00  0.00     0.002 C 
BRANCH  26  27
ATOM     27  C   UNL A   1      36.004  23.775  24.789  1.00  0.00     0.021 C 
BRANCH  27  28
ATOM     28  C   UNL A   1      36.678  23.585  26.147  1.00  0.00     0.116 C 
BRANCH  28  29
ATOM     29  N   UNL A   1      37.611  22.471  26.140  1.00  0.00    -0.352 N 
ATOM     30  C   UNL A   1      38.976  22.471  26.292  1.00  0.00     0.251 C 
ATOM     31  H   UNL A   1      37.204  21.583  26.007  1.00  0.00     0.163 HD
ATOM     32  O   UNL A   1      39.616  21.455  26.044  1.00  0.00    -0.269 OA
BRANCH  30  33
ATOM     33  C   UNL A   1      39.673  23.697  26.738  1.00  0.00     0.039 A 
ATOM     34  C   UNL A   1      39.790  24.767  25.847  1.00  0.00     0.014 A 
ATOM     35  C   UNL A   1      40.234  23.783  28.016  1.00  0.00     0.014 A 
ATOM     36  C   UNL A   1      40.427  25.941  26.254  1.00  0.00     0.010 A 
ATOM     37  C   UNL A   1      40.812  24.978  28.442  1.00  0.00     0.010 A 
ATOM     38  C   UNL A   1      40.920  26.068  27.564  1.00  0.00    -0.014 A 
BRANCH  38  39
ATOM     39  C   UNL A   1      41.553  27.330  28.021  1.00  0.00     0.031 A 
ATOM     40  C   UNL A   1      43.043  27.520  27.913  1.00  0.00     0.074 A 
ATOM     41  C   UNL A   1      40.790  28.297  28.569  1.00  0.00     0.049 A 
ATOM     42  N   UNL A   1      43.770  28.549  28.268  1.00  0.00    -0.248 NA
ATOM     43  C   UNL A   1      43.817  26.400  27.356  1.00  0.00     0.031 C 
ATOM     44  C   UNL A   1      39.340  28.223  28.764  1.00  0.00     0.029 A 
ATOM     45  N   UNL A   1      41.127  29.533  29.059  1.00  0.00    -0.354 N 
ATOM     46  C   UNL A   1      45.085  28.198  27.984  1.00  0.00     0.074 A 
ATOM     47  C   UNL A   1      45.059  26.842  27.480  1.00  0.00     0.031 C 
ATOM     48  C   UNL A   1      38.909  29.378  29.297  1.00  0.00     0.029 A 
ATOM     49  C   UNL A   1      40.052  30.260  29.511  1.00  0.00     0.049 A 
ATOM     50  H   UNL A   1      42.053  29.869  29.084  1.00  0.00     0.167 HD
ATOM     51  C   UNL A   1      46.212  28.943  28.109  1.00  0.00     0.031 A 
ATOM     52  C   UNL A   1      39.990  31.499  30.034  1.00  0.00     0.031 A 
ATOM     53  C   UNL A   1      46.238  30.293  28.609  1.00  0.00     0.049 A 
ATOM     54  C   UNL A   1      41.252  32.304  30.172  1.00  0.00     0.074 A 
ATOM     55  C   UNL A   1      47.322  31.143  28.740  1.00  0.00     0.029 A 
ATOM     56  N   UNL A   1      45.127  30.990  29.060  1.00  0.00    -0.354 N 
ATOM     57  N   UNL A   1      42.480  31.972  29.852  1.00  0.00    -0.248 NA
ATOM     58  C   UNL A   1      41.115  33.658  30.727  1.00  0.00     0.031 C 
ATOM     59  C   UNL A   1      46.873  32.340  29.309  1.00  0.00     0.029 A 
ATOM     60  C   UNL A   1      45.501  32.254  29.484  1.00  0.00     0.049 A 
ATOM     61  H   UNL A   1      44.208  30.638  29.076  1.00  0.00     0.167 HD
ATOM     62  C   UNL A   1      43.260  33.086  30.142  1.00  0.00     0.074 A 
ATOM     63  C   UNL A   1      42.362  34.104  30.649  1.00  0.00     0.031 C 
ATOM     64  C   UNL A   1      44.597  33.253  29.997  1.00  0.00     0.031 A 
BRANCH  51  65
ATOM     65  C   UNL A   1      47.510  28.299  27.699  1.00  0.00    -0.014 A 
ATOM     66  C   UNL A   1      48.014  28.450  26.394  1.00  0.00     0.010 A 
ATOM     67  C   UNL A   1      48.243  27.540  28.630  1.00  0.00     0.010 A 
ATOM     68  C   UNL A   1      49.195  27.809  26.012  1.00  0.00     0.020 A 
ATOM     69  C   UNL A   1      49.440  26.921  28.260  1.00  0.00     0.020 A 
ATOM     70  C   UNL A   1      49.896  27.040  26.945  1.00  0.00     0.054 A 
BRANCH  70  71
ATOM     71  S   UNL A   1      51.425  26.215  26.423  1.00  0.00     0.124 S 
ATOM     72  O   UNL A   1      52.444  27.031  27.078  1.00  0.00    -0.237 OA
ATOM     73  O   UNL A   1      51.262  24.866  26.958  1.00  0.00    -0.237 OA
ATOM     74  O   UNL A   1      51.390  26.311  24.966  1.00  0.00    -0.744 OA
ENDBRANCH  70  71
ENDBRANCH  51  65
BRANCH  52  75
ATOM     75  C   UNL A   1      38.674  32.070  30.430  1.00  0.00    -0.014 A 
ATOM     76  C   UNL A   1      37.910  32.799  29.501  1.00  0.00     0.010 A 
ATOM     77  C   UNL A   1      38.168  31.871  31.727  1.00  0.00     0.010 A 
ATOM     78  C   UNL A   1      36.669  33.330  29.866  1.00  0.00     0.020 A 
ATOM     79  C   UNL A   1      36.917  32.379  32.087  1.00  0.00     0.020 A 
ATOM     80  C   UNL A   1      36.179  33.113  31.157  1.00  0.00     0.054 A 
BRANCH  80  81
ATOM     81  S   UNL A   1      34.540  33.757  31.590  1.00  0.00     0.124 S 
ATOM     82  O   UNL A   1      33.997  32.679  32.410  1.00  0.00    -0.237 OA
ATOM     83  O   UNL A   1      34.862  34.993  32.298  1.00  0.00    -0.237 OA
ATOM     84  O   UNL A   1      33.894  33.944  30.292  1.00  0.00    -0.744 OA
ENDBRANCH  80  81
ENDBRANCH  52  75
BRANCH  64  85
ATOM     85  C   UNL A   1      45.164  34.598  30.365  1.00  0.00    -0.014 A 
ATOM     86  C   UNL A   1      45.356  35.600  29.398  1.00  0.00     0.010 A 
ATOM     87  C   UNL A   1      45.492  34.868  31.707  1.00  0.00     0.010 A 
ATOM     88  C   UNL A   1      45.906  36.833  29.757  1.00  0.00     0.020 A 
ATOM     89  C   UNL A   1      46.018  36.109  32.075  1.00  0.00     0.020 A 
ATOM     90  C   UNL A   1      46.240  37.077  31.094  1.00  0.00     0.054 A 
BRANCH  90  91
ATOM     91  S   UNL A   1      46.938  38.691  31.542  1.00  0.00     0.124 S 
ATOM     92  O   UNL A   1      46.847  38.666  32.999  1.00  0.00    -0.237 OA
ATOM     93  O   UNL A   1      48.291  38.620  30.996  1.00  0.00    -0.237 OA
ATOM     94  O   UNL A   1      46.054  39.645  30.877  1.00  0.00    -0.744 OA
ENDBRANCH  90  91
ENDBRANCH  64  85
ENDBRANCH  38  39
ENDBRANCH  30  33
ENDBRANCH  28  29
ENDBRANCH  27  28
ENDBRANCH  26  27
ENDBRANCH   1  26
TORSDOF 20
ENDMDL
MODEL 3
REMARK VINA RESULT:      -9.8      2.341      3.215
REMARK SMILES COc1ncnc(N2CCCC[C@H]2CC(=O)NCCCCCCNC(=O)c2ccc(-c3c4nc(c(-c5ccc(S(=O)(=O)[O-])cc5)c5ccc([nH]5)c(-c5ccc(S(=O)(=O)[O-])cc5)c5nc(c(-c6ccc(S(=O)(=O)[O-])cc6)c6ccc3[nH]6)C=C5)C=C4)cc2)c1[N+](=O)[O-]
REMARK SMILES IDX 20 1 19 2 18 3 17 4 15 5 16 6 14 8 13 9 8 10 9 11 10 12
REMARK SMILES IDX 12 13 11 14 7 15 3 16 4 17 87 18 5 19 6 20 2 21 1 22 88 23
REMARK SMILES IDX 89 24 90 25 21 26 22 27 23 28 24 29 25 30 26 32 27 33 28 34
REMARK SMILES IDX 86 35 29 36 85 37 30 38 31 39 32 40 79 41 33 42 84 43 78 44
REMARK SMILES IDX 80 45 34 46 83 47 77 48 76 49 35 51 65 52 46 53 64 54 47 55
REMARK SMILES IDX 50 56 63 57 81 58 48 59 49 60 62 62 82 63 51 64 36 65 37 66
REMARK SMILES IDX 45 67 38 68 44 69 39 70 40 71 41 72 42 73 43 74 66 75 67 76
REMARK SMILES IDX 75 77 68 78 74 79 69 80 70 81 71 82 72 83 73 84 52 85 53 86
REMARK SMILES IDX 61 87 54 88 60 89 55 90 56 91 57 92 58 93 59 94
REMARK H PARENT 17 7 24 31 80 50 50 61
REMARK Flexibility Score: inf
ROOT
ATOM      1  C   UNL A   1      36.411  22.177  24.720  1.00  0.00     0.002 C 
ENDROOT
BRANCH   1   2
ATOM      2  C   UNL A   1      35.050  22.136  25.419  1.00  0.00     0.021 C 
BRANCH   2   3
ATOM      3  C   UNL A   1      33.896  21.700  24.519  1.00  0.00     0.116 C 
BRANCH   3   4
ATOM      4  N   UNL A   1      33.944  22.361  23.228  1.00  0.00    -0.356 N 
ATOM      5  C   UNL A   1      33.177  23.371  22.734  1.00  0.00     0.222 C 
ATOM      6  O   UNL A   1      33.374  23.759  21.581  1.00  0.00    -0.275 OA
ATOM      7  H   UNL A   1      34.640  22.029  22.616  1.00  0.00     0.163 HD
BRANCH   5   8
ATOM      8  C   UNL A   1      32.131  24.040  23.597  1.00  0.00     0.125 C 
BRANCH   8   9
ATOM      9  C   UNL A   1      32.118  25.577  23.463  1.00  0.00     0.093 C 
ATOM     10  N   UNL A   1      31.130  26.224  24.360  1.00  0.00    -0.347 N 
ATOM     11  C   UNL A   1      31.412  26.079  25.812  1.00  0.00     0.118 C 
ATOM     12  C   UNL A   1      32.785  26.643  26.157  1.00  0.00     0.022 C 
ATOM     13  C   UNL A   1      33.508  26.167  23.801  1.00  0.00     0.026 C 
ATOM     14  C   UNL A   1      33.864  26.016  25.280  1.00  0.00     0.004 C 
BRANCH  10  15
ATOM     15  C   UNL A   1      30.203  27.196  24.000  1.00  0.00     0.215 A 
ATOM     16  C   UNL A   1      29.404  29.171  22.935  1.00  0.00     0.299 A 
ATOM     17  N   UNL A   1      28.135  28.737  22.898  1.00  0.00    -0.196 NA
ATOM     18  C   UNL A   1      30.438  28.483  23.547  1.00  0.00     0.372 A 
ATOM     19  C   UNL A   1      27.942  27.557  23.475  1.00  0.00     0.228 A 
ATOM     20  N   UNL A   1      28.910  26.776  23.986  1.00  0.00    -0.212 NA
BRANCH  16  21
ATOM     21  O   UNL A   1      29.629  30.354  22.271  1.00  0.00    -0.476 OA
ATOM     22  C   UNL A   1      28.776  31.364  22.823  1.00  0.00     0.280 C 
ENDBRANCH  16  21
BRANCH  18  23
ATOM     23  N   UNL A   1      31.687  29.160  23.610  1.00  0.00     0.072 N 
ATOM     24  O   UNL A   1      31.993  29.706  24.677  1.00  0.00    -0.258 OA
ATOM     25  O   UNL A   1      32.397  29.115  22.595  1.00  0.00    -0.258 OA
ENDBRANCH  18  23
ENDBRANCH  10  15
ENDBRANCH   8   9
ENDBRANCH   5   8
ENDBRANCH   3   4
ENDBRANCH   2   3
ENDBRANCH   1   2
BRANCH   1  26
ATOM     26  C   UNL A   1      37.288  20.945  24.964  1.00  0.00     0.002 C 
BRANCH  26  27
ATOM     27  C   UNL A   1      38.766  21.240  25.236  1.00  0.00     0.021 C 
BRANCH  27  28
ATOM     28  C   UNL A   1      39.339  20.575  26.485  1.00  0.00     0.116 C 
BRANCH  28  29
ATOM     29  N   UNL A   1      40.411  19.648  26.166  1.00  0.00    -0.352 N 
ATOM     30  C   UNL A   1      41.749  19.890  25.974  1.00  0.00     0.251 C 
ATOM     31  H   UNL A   1      40.138  18.706  26.072  1.00  0.00     0.163 HD
ATOM     32  O   UNL A   1      42.465  19.013  25.501  1.00  0.00    -0.269 OA
BRANCH  30  33
ATOM     33  C   UNL A   1      42.323  21.208  26.322  1.00  0.00     0.039 A 
ATOM     34  C   UNL A   1      42.512  22.150  25.307  1.00  0.00     0.014 A 
ATOM     35  C   UNL A   1      42.699  21.506  27.635  1.00  0.00     0.014 A 
ATOM     36  C   UNL A   1      43.034  23.407  25.617  1.00  0.00     0.010 A 
ATOM     37  C   UNL A   1      43.159  22.784  27.953  1.00  0.00     0.010 A 
ATOM     38  C   UNL A   1      43.337  23.746  26.947  1.00  0.00    -0.014 A 
BRANCH  38  39
ATOM     39  C   UNL A   1      43.844  25.097  27.293  1.00  0.00     0.031 A 
ATOM     40  C   UNL A   1      45.294  25.446  27.084  1.00  0.00     0.074 A 
ATOM     41  C   UNL A   1      43.006  26.005  27.831  1.00  0.00     0.049 A 
ATOM     42  N   UNL A   1      45.915  26.570  27.334  1.00  0.00    -0.248 NA
ATOM     43  C   UNL A   1      46.161  24.386  26.544  1.00  0.00     0.031 C 
ATOM     44  C   UNL A   1      41.586  25.781  28.119  1.00  0.00     0.029 A 
ATOM     45  N   UNL A   1      43.224  27.300  28.230  1.00  0.00    -0.354 N 
ATOM     46  C   UNL A   1      47.245  26.351  26.990  1.00  0.00     0.074 A 
ATOM     47  C   UNL A   1      47.348  24.972  26.566  1.00  0.00     0.031 C 
ATOM     48  C   UNL A   1      41.055  26.912  28.611  1.00  0.00     0.029 A 
ATOM     49  C   UNL A   1      42.098  27.928  28.705  1.00  0.00     0.049 A 
ATOM     50  H   UNL A   1      44.104  27.737  28.179  1.00  0.00     0.167 HD
ATOM     51  C   UNL A   1      48.283  27.224  27.004  1.00  0.00     0.031 A 
ATOM     52  C   UNL A   1      41.922  29.183  29.160  1.00  0.00     0.031 A 
ATOM     53  C   UNL A   1      48.180  28.597  27.424  1.00  0.00     0.049 A 
ATOM     54  C   UNL A   1      43.088  30.132  29.175  1.00  0.00     0.074 A 
ATOM     55  C   UNL A   1      49.165  29.570  27.441  1.00  0.00     0.029 A 
ATOM     56  N   UNL A   1      47.023  29.192  27.903  1.00  0.00    -0.354 N 
ATOM     57  N   UNL A   1      44.327  29.919  28.799  1.00  0.00    -0.248 NA
ATOM     58  C   UNL A   1      42.826  31.493  29.660  1.00  0.00     0.031 C 
ATOM     59  C   UNL A   1      48.612  30.743  27.968  1.00  0.00     0.029 A 
ATOM     60  C   UNL A   1      47.271  30.514  28.232  1.00  0.00     0.049 A 
ATOM     61  H   UNL A   1      46.152  28.741  27.995  1.00  0.00     0.167 HD
ATOM     62  C   UNL A   1      44.987  31.130  28.977  1.00  0.00     0.074 A 
ATOM     63  C   UNL A   1      44.007  32.071  29.481  1.00  0.00     0.031 C 
ATOM     64  C   UNL A   1      46.287  31.437  28.742  1.00  0.00     0.031 A 
BRANCH  51  65
ATOM     65  C   UNL A   1      49.623  26.705  26.552  1.00  0.00    -0.014 A 
ATOM     66  C   UNL A   1      50.077  26.917  25.238  1.00  0.00     0.010 A 
ATOM     67  C   UNL A   1      50.445  26.003  27.453  1.00  0.00     0.010 A 
ATOM     68  C   UNL A   1      51.300  26.391  24.816  1.00  0.00     0.020 A 
ATOM     69  C   UNL A   1      51.683  25.499  27.044  1.00  0.00     0.020 A 
ATOM     70  C   UNL A   1      52.092  25.677  25.720  1.00  0.00     0.054 A 
BRANCH  70  71
ATOM     71  S   UNL A   1      53.674  24.999  25.147  1.00  0.00     0.124 S 
ATOM     72  O   UNL A   1      53.418  23.561  25.196  1.00  0.00    -0.237 OA
ATOM     73  O   UNL A   1      53.803  25.568  23.808  1.00  0.00    -0.237 OA
ATOM     74  O   UNL A   1      54.638  25.494  26.127  1.00  0.00    -0.744 OA
ENDBRANCH  70  71
ENDBRANCH  51  65
BRANCH  52  75
ATOM     75  C   UNL A   1      40.572  29.627  29.603  1.00  0.00    -0.014 A 
ATOM     76  C   UNL A   1      40.259  29.686  30.973  1.00  0.00     0.010 A 
ATOM     77  C   UNL A   1      39.602  30.014  28.661  1.00  0.00     0.010 A 
ATOM     78  C   UNL A   1      38.995  30.110  31.392  1.00  0.00     0.020 A 
ATOM     79  C   UNL A   1      38.346  30.463  29.078  1.00  0.00     0.020 A 
ATOM     80  C   UNL A   1      38.047  30.499  30.442  1.00  0.00     0.054 A 
BRANCH  80  81
ATOM     81  S   UNL A   1      36.436  31.107  31.011  1.00  0.00     0.124 S 
ATOM     82  O   UNL A   1      35.963  29.994  31.828  1.00  0.00    -0.237 OA
ATOM     83  O   UNL A   1      36.795  32.321  31.740  1.00  0.00    -0.237 OA
ATOM     84  O   UNL A   1      35.699  31.331  29.769  1.00  0.00    -0.744 OA
ENDBRANCH  80  81
ENDBRANCH  52  75
BRANCH  64  85
ATOM     85  C   UNL A   1      46.714  32.857  28.998  1.00  0.00    -0.014 A 
ATOM     86  C   UNL A   1      46.480  33.872  28.054  1.00  0.00     0.010 A 
ATOM     87  C   UNL A   1      47.342  33.183  30.215  1.00  0.00     0.010 A 
ATOM     88  C   UNL A   1      46.907  35.180  28.302  1.00  0.00     0.020 A 
ATOM     89  C   UNL A   1      47.747  34.494  30.478  1.00  0.00     0.020 A 
ATOM     90  C   UNL A   1      47.544  35.481  29.511  1.00  0.00     0.054 A 
BRANCH  90  91
ATOM     91  S   UNL A   1      48.074  37.188  29.819  1.00  0.00     0.124 S 
ATOM     92  O   UNL A   1      47.572  37.421  31.171  1.00  0.00    -0.237 OA
ATOM     93  O   UNL A   1      49.527  37.102  29.695  1.00  0.00    -0.237 OA
ATOM     94  O   UNL A   1      47.408  37.951  28.767  1.00  0.00    -0.744 OA
ENDBRANCH  90  91
ENDBRANCH  64  85
ENDBRANCH  38  39
ENDBRANCH  30  33
ENDBRANCH  28  29
ENDBRANCH  27  28
ENDBRANCH  26  27
ENDBRANCH   1  26
TORSDOF 20
ENDMDL
