MODEL 1
REMARK VINA RESULT:     -10.8      0.000      0.000
REMARK SMILES O=C(NCCCCCCNC(=O)c1ccnc(S[C@@H]2CCO[C@]3(CCOC3)C2)c1)c1ccc(-c2c3nc(c(-c4ccc(S(=O)(=O)[O-])cc4)c4ccc([nH]4)c(-c4ccc(S(=O)(=O)[O-])cc4)c4nc(c(-c5ccc(S(=O)(=O)[O-])cc5)c5ccc2[nH]5)C=C4)C=C3)cc1
REMARK SMILES IDX 6 1 5 2 4 3 3 4 1 5 2 6 30 8 31 9 89 10 32 11 88 12 33 13
REMARK SMILES IDX 34 14 35 15 82 16 36 17 87 18 81 19 83 20 37 21 86 22 80 23
REMARK SMILES IDX 79 24 38 26 68 27 49 28 67 29 50 30 53 31 66 32 84 33 51 34
REMARK SMILES IDX 52 35 65 37 85 38 54 39 39 40 40 41 48 42 41 43 47 44 42 45
REMARK SMILES IDX 43 46 44 47 45 48 46 49 69 50 70 51 78 52 71 53 77 54 72 55
REMARK SMILES IDX 73 56 74 57 75 58 76 59 55 60 56 61 64 62 57 63 63 64 58 65
REMARK SMILES IDX 59 66 60 67 61 68 62 69 7 70 8 71 9 72 10 73 11 74 12 76
REMARK SMILES IDX 13 77 14 78 29 79 15 80 17 81 16 82 18 83 19 84 20 85 28 86
REMARK SMILES IDX 21 87 23 88 22 89 24 90 27 91 25 92 26 93
REMARK H PARENT 3 7 83 25 53 36 10 75
REMARK Flexibility Score: inf
ROOT
ATOM      1  C   UNL A   1      31.815  27.993  26.375  1.00  0.00     0.002 C 
ENDROOT
BRANCH   1   2
ATOM      2  C   UNL A   1      33.290  27.623  26.510  1.00  0.00     0.021 C 
BRANCH   2   3
ATOM      3  C   UNL A   1      34.270  28.668  26.004  1.00  0.00     0.116 C 
BRANCH   3   4
ATOM      4  N   UNL A   1      33.896  30.011  26.396  1.00  0.00    -0.352 N 
ATOM      5  O   UNL A   1      33.921  31.844  27.709  1.00  0.00    -0.269 OA
ATOM      6  C   UNL A   1      34.455  30.791  27.380  1.00  0.00     0.251 C 
ATOM      7  H   UNL A   1      33.150  30.415  25.897  1.00  0.00     0.163 HD
BRANCH   6   8
ATOM      8  C   UNL A   1      35.694  30.336  28.051  1.00  0.00     0.039 A 
ATOM      9  C   UNL A   1      36.946  30.544  27.462  1.00  0.00     0.014 A 
ATOM     10  C   UNL A   1      35.597  29.712  29.297  1.00  0.00     0.014 A 
ATOM     11  C   UNL A   1      38.093  30.054  28.079  1.00  0.00     0.010 A 
ATOM     12  C   UNL A   1      36.756  29.282  29.947  1.00  0.00     0.010 A 
ATOM     13  C   UNL A   1      38.011  29.449  29.342  1.00  0.00    -0.014 A 
BRANCH  13  14
ATOM     14  C   UNL A   1      39.255  29.126  30.083  1.00  0.00     0.031 A 
ATOM     15  C   UNL A   1      39.660  29.891  31.311  1.00  0.00     0.074 A 
ATOM     16  C   UNL A   1      40.042  28.144  29.600  1.00  0.00     0.049 A 
ATOM     17  N   UNL A   1      40.740  29.759  32.036  1.00  0.00    -0.248 NA
ATOM     18  C   UNL A   1      38.744  30.941  31.783  1.00  0.00     0.031 C 
ATOM     19  C   UNL A   1      39.757  27.352  28.398  1.00  0.00     0.029 A 
ATOM     20  N   UNL A   1      41.239  27.648  30.044  1.00  0.00    -0.354 N 
ATOM     21  C   UNL A   1      40.652  30.721  33.033  1.00  0.00     0.074 A 
ATOM     22  C   UNL A   1      39.411  31.437  32.820  1.00  0.00     0.031 C 
ATOM     23  C   UNL A   1      40.742  26.464  28.212  1.00  0.00     0.029 A 
ATOM     24  C   UNL A   1      41.755  26.660  29.241  1.00  0.00     0.049 A 
ATOM     25  H   UNL A   1      41.686  27.969  30.862  1.00  0.00     0.167 HD
ATOM     26  C   UNL A   1      41.530  30.981  34.031  1.00  0.00     0.031 A 
ATOM     27  C   UNL A   1      42.930  26.008  29.297  1.00  0.00     0.031 A 
ATOM     28  C   UNL A   1      42.755  30.255  34.240  1.00  0.00     0.049 A 
ATOM     29  C   UNL A   1      43.896  26.342  30.395  1.00  0.00     0.074 A 
ATOM     30  C   UNL A   1      43.668  30.390  35.273  1.00  0.00     0.029 A 
ATOM     31  N   UNL A   1      43.251  29.275  33.395  1.00  0.00    -0.354 N 
ATOM     32  N   UNL A   1      43.754  27.201  31.376  1.00  0.00    -0.248 NA
ATOM     33  C   UNL A   1      45.180  25.629  30.389  1.00  0.00     0.031 C 
ATOM     34  C   UNL A   1      44.742  29.530  35.021  1.00  0.00     0.029 A 
ATOM     35  C   UNL A   1      44.478  28.828  33.857  1.00  0.00     0.049 A 
ATOM     36  H   UNL A   1      42.798  28.945  32.585  1.00  0.00     0.167 HD
ATOM     37  C   UNL A   1      44.933  27.131  32.107  1.00  0.00     0.074 A 
ATOM     38  C   UNL A   1      45.764  26.129  31.471  1.00  0.00     0.031 C 
ATOM     39  C   UNL A   1      45.296  27.841  33.202  1.00  0.00     0.031 A 
BRANCH  26  40
ATOM     40  C   UNL A   1      41.221  32.115  34.972  1.00  0.00    -0.014 A 
ATOM     41  C   UNL A   1      40.665  31.877  36.241  1.00  0.00     0.010 A 
ATOM     42  C   UNL A   1      41.584  33.427  34.617  1.00  0.00     0.010 A 
ATOM     43  C   UNL A   1      40.463  32.936  37.132  1.00  0.00     0.020 A 
ATOM     44  C   UNL A   1      41.398  34.485  35.511  1.00  0.00     0.020 A 
ATOM     45  C   UNL A   1      40.830  34.234  36.761  1.00  0.00     0.054 A 
BRANCH  45  46
ATOM     46  S   UNL A   1      40.601  35.581  37.955  1.00  0.00     0.124 S 
ATOM     47  O   UNL A   1      40.265  36.703  37.082  1.00  0.00    -0.237 OA
ATOM     48  O   UNL A   1      39.509  35.089  38.790  1.00  0.00    -0.237 OA
ATOM     49  O   UNL A   1      41.896  35.677  38.623  1.00  0.00    -0.744 OA
ENDBRANCH  45  46
ENDBRANCH  26  40
BRANCH  27  50
ATOM     50  C   UNL A   1      43.274  25.016  28.245  1.00  0.00    -0.014 A 
ATOM     51  C   UNL A   1      43.907  25.417  27.058  1.00  0.00     0.010 A 
ATOM     52  C   UNL A   1      42.985  23.653  28.444  1.00  0.00     0.010 A 
ATOM     53  C   UNL A   1      44.231  24.473  26.079  1.00  0.00     0.020 A 
ATOM     54  C   UNL A   1      43.332  22.704  27.480  1.00  0.00     0.020 A 
ATOM     55  C   UNL A   1      43.941  23.123  26.296  1.00  0.00     0.054 A 
BRANCH  55  56
ATOM     56  S   UNL A   1      44.413  21.905  25.038  1.00  0.00     0.124 S 
ATOM     57  O   UNL A   1      45.789  21.601  25.414  1.00  0.00    -0.237 OA
ATOM     58  O   UNL A   1      43.445  20.831  25.252  1.00  0.00    -0.237 OA
ATOM     59  O   UNL A   1      44.251  22.634  23.782  1.00  0.00    -0.744 OA
ENDBRANCH  55  56
ENDBRANCH  27  50
BRANCH  39  60
ATOM     60  C   UNL A   1      46.654  27.559  33.780  1.00  0.00    -0.014 A 
ATOM     61  C   UNL A   1      47.770  28.315  33.383  1.00  0.00     0.010 A 
ATOM     62  C   UNL A   1      46.804  26.570  34.768  1.00  0.00     0.010 A 
ATOM     63  C   UNL A   1      49.022  28.075  33.954  1.00  0.00     0.020 A 
ATOM     64  C   UNL A   1      48.051  26.342  35.355  1.00  0.00     0.020 A 
ATOM     65  C   UNL A   1      49.154  27.089  34.937  1.00  0.00     0.054 A 
BRANCH  65  66
ATOM     66  S   UNL A   1      50.777  26.835  35.706  1.00  0.00     0.124 S 
ATOM     67  O   UNL A   1      50.487  27.081  37.115  1.00  0.00    -0.237 OA
ATOM     68  O   UNL A   1      51.084  25.449  35.360  1.00  0.00    -0.237 OA
ATOM     69  O   UNL A   1      51.625  27.834  35.060  1.00  0.00    -0.744 OA
ENDBRANCH  65  66
ENDBRANCH  39  60
ENDBRANCH  13  14
ENDBRANCH   6   8
ENDBRANCH   3   4
ENDBRANCH   2   3
ENDBRANCH   1   2
BRANCH   1  70
ATOM     70  C   UNL A   1      31.383  28.590  25.032  1.00  0.00     0.002 C 
BRANCH  70  71
ATOM     71  C   UNL A   1      30.467  27.732  24.146  1.00  0.00     0.021 C 
BRANCH  71  72
ATOM     72  C   UNL A   1      30.760  27.763  22.651  1.00  0.00     0.116 C 
BRANCH  72  73
ATOM     73  N   UNL A   1      32.082  28.270  22.380  1.00  0.00    -0.352 N 
ATOM     74  C   UNL A   1      33.233  27.575  22.174  1.00  0.00     0.251 C 
ATOM     75  H   UNL A   1      32.162  29.250  22.337  1.00  0.00     0.163 HD
ATOM     76  O   UNL A   1      34.237  28.157  21.778  1.00  0.00    -0.269 OA
BRANCH  74  77
ATOM     77  C   UNL A   1      33.269  26.120  22.386  1.00  0.00     0.044 A 
ATOM     78  C   UNL A   1      32.870  25.292  21.348  1.00  0.00     0.034 A 
ATOM     79  C   UNL A   1      33.909  25.604  23.514  1.00  0.00     0.049 A 
ATOM     80  C   UNL A   1      33.172  23.955  21.473  1.00  0.00     0.113 A 
ATOM     81  C   UNL A   1      34.288  24.277  23.493  1.00  0.00     0.097 A 
ATOM     82  N   UNL A   1      33.890  23.444  22.498  1.00  0.00    -0.250 NA
BRANCH  81  83
ATOM     83  S   UNL A   1      35.307  23.493  24.719  1.00  0.00    -0.103 SA
BRANCH  83  84
ATOM     84  C   UNL A   1      34.244  22.329  25.709  1.00  0.00     0.058 C 
ATOM     85  C   UNL A   1      33.964  21.010  24.988  1.00  0.00     0.043 C 
ATOM     86  C   UNL A   1      33.012  22.873  26.452  1.00  0.00     0.053 C 
ATOM     87  C   UNL A   1      32.484  20.799  24.702  1.00  0.00     0.162 C 
ATOM     88  C   UNL A   1      31.718  22.875  25.615  1.00  0.00     0.095 C 
ATOM     89  O   UNL A   1      31.838  22.043  24.461  1.00  0.00    -0.372 OA
ATOM     90  C   UNL A   1      31.332  24.302  25.240  1.00  0.00     0.066 C 
ATOM     91  C   UNL A   1      30.468  22.467  26.402  1.00  0.00     0.195 C 
ATOM     92  C   UNL A   1      30.352  24.752  26.309  1.00  0.00     0.163 C 
ATOM     93  O   UNL A   1      30.057  23.621  27.135  1.00  0.00    -0.378 OA
ENDBRANCH  83  84
ENDBRANCH  81  83
ENDBRANCH  74  77
ENDBRANCH  72  73
ENDBRANCH  71  72
ENDBRANCH  70  71
ENDBRANCH   1  70
TORSDOF 18
ENDMDL
MODEL 2
REMARK VINA RESULT:     -10.8      0.721      8.069
REMARK SMILES O=C(NCCCCCCNC(=O)c1ccnc(S[C@@H]2CCO[C@]3(CCOC3)C2)c1)c1ccc(-c2c3nc(c(-c4ccc(S(=O)(=O)[O-])cc4)c4ccc([nH]4)c(-c4ccc(S(=O)(=O)[O-])cc4)c4nc(c(-c5ccc(S(=O)(=O)[O-])cc5)c5ccc2[nH]5)C=C4)C=C3)cc1
REMARK SMILES IDX 6 1 5 2 4 3 3 4 1 5 2 6 30 8 31 9 89 10 32 11 88 12 33 13
REMARK SMILES IDX 34 14 35 15 82 16 36 17 87 18 81 19 83 20 37 21 86 22 80 23
REMARK SMILES IDX 79 24 38 26 68 27 49 28 67 29 50 30 53 31 66 32 84 33 51 34
REMARK SMILES IDX 52 35 65 37 85 38 54 39 39 40 40 41 48 42 41 43 47 44 42 45
REMARK SMILES IDX 43 46 44 47 45 48 46 49 69 50 70 51 78 52 71 53 77 54 72 55
REMARK SMILES IDX 73 56 74 57 75 58 76 59 55 60 56 61 64 62 57 63 63 64 58 65
REMARK SMILES IDX 59 66 60 67 61 68 62 69 7 70 8 71 9 72 10 73 11 74 12 76
REMARK SMILES IDX 13 77 14 78 29 79 15 80 17 81 16 82 18 83 19 84 20 85 28 86
REMARK SMILES IDX 21 87 23 88 22 89 24 90 27 91 25 92 26 93
REMARK H PARENT 3 7 83 25 53 36 10 75
REMARK Flexibility Score: inf
ROOT
ATOM      1  C   UNL A   1      31.801  28.496  26.328  1.00  0.00     0.002 C 
ENDROOT
BRANCH   1   2
ATOM      2  C   UNL A   1      33.210  27.913  26.247  1.00  0.00     0.021 C 
BRANCH   2   3
ATOM      3  C   UNL A   1      34.337  28.922  26.391  1.00  0.00     0.116 C 
BRANCH   3   4
ATOM      4  N   UNL A   1      33.852  30.258  26.668  1.00  0.00    -0.352 N 
ATOM      5  O   UNL A   1      33.701  32.183  27.833  1.00  0.00    -0.269 OA
ATOM      6  C   UNL A   1      34.322  31.153  27.598  1.00  0.00     0.251 C 
ATOM      7  H   UNL A   1      33.090  30.563  26.122  1.00  0.00     0.163 HD
BRANCH   6   8
ATOM      8  C   UNL A   1      35.574  30.849  28.329  1.00  0.00     0.039 A 
ATOM      9  C   UNL A   1      35.647  29.758  29.201  1.00  0.00     0.014 A 
ATOM     10  C   UNL A   1      36.693  31.659  28.119  1.00  0.00     0.014 A 
ATOM     11  C   UNL A   1      36.813  29.526  29.926  1.00  0.00     0.010 A 
ATOM     12  C   UNL A   1      37.883  31.384  28.795  1.00  0.00     0.010 A 
ATOM     13  C   UNL A   1      37.951  30.316  29.704  1.00  0.00    -0.014 A 
BRANCH  13  14
ATOM     14  C   UNL A   1      39.245  29.929  30.318  1.00  0.00     0.031 A 
ATOM     15  C   UNL A   1      40.083  28.820  29.751  1.00  0.00     0.074 A 
ATOM     16  C   UNL A   1      39.635  30.580  31.432  1.00  0.00     0.049 A 
ATOM     17  N   UNL A   1      41.210  28.334  30.205  1.00  0.00    -0.248 NA
ATOM     18  C   UNL A   1      39.597  28.164  28.527  1.00  0.00     0.031 C 
ATOM     19  C   UNL A   1      38.884  31.659  32.084  1.00  0.00     0.029 A 
ATOM     20  N   UNL A   1      40.745  30.430  32.221  1.00  0.00    -0.354 N 
ATOM     21  C   UNL A   1      41.557  27.303  29.342  1.00  0.00     0.074 A 
ATOM     22  C   UNL A   1      40.518  27.227  28.337  1.00  0.00     0.031 C 
ATOM     23  C   UNL A   1      39.561  32.080  33.160  1.00  0.00     0.029 A 
ATOM     24  C   UNL A   1      40.760  31.266  33.311  1.00  0.00     0.049 A 
ATOM     25  H   UNL A   1      41.463  29.785  32.024  1.00  0.00     0.167 HD
ATOM     26  C   UNL A   1      42.643  26.495  29.391  1.00  0.00     0.031 A 
ATOM     27  C   UNL A   1      41.619  31.348  34.343  1.00  0.00     0.031 A 
ATOM     28  C   UNL A   1      43.676  26.588  30.390  1.00  0.00     0.049 A 
ATOM     29  C   UNL A   1      42.794  30.416  34.385  1.00  0.00     0.074 A 
ATOM     30  C   UNL A   1      44.857  25.870  30.474  1.00  0.00     0.029 A 
ATOM     31  N   UNL A   1      43.646  27.436  31.487  1.00  0.00    -0.354 N 
ATOM     32  N   UNL A   1      43.147  29.502  33.514  1.00  0.00    -0.248 NA
ATOM     33  C   UNL A   1      43.681  30.520  35.552  1.00  0.00     0.031 C 
ATOM     34  C   UNL A   1      45.513  26.243  31.651  1.00  0.00     0.029 A 
ATOM     35  C   UNL A   1      44.764  27.226  32.277  1.00  0.00     0.049 A 
ATOM     36  H   UNL A   1      42.935  28.089  31.676  1.00  0.00     0.167 HD
ATOM     37  C   UNL A   1      44.298  28.920  34.027  1.00  0.00     0.074 A 
ATOM     38  C   UNL A   1      44.597  29.603  35.269  1.00  0.00     0.031 C 
ATOM     39  C   UNL A   1      45.036  27.905  33.517  1.00  0.00     0.031 A 
BRANCH  26  40
ATOM     40  C   UNL A   1      42.773  25.414  28.351  1.00  0.00    -0.014 A 
ATOM     41  C   UNL A   1      43.392  25.665  27.115  1.00  0.00     0.010 A 
ATOM     42  C   UNL A   1      42.356  24.106  28.657  1.00  0.00     0.010 A 
ATOM     43  C   UNL A   1      43.576  24.627  26.195  1.00  0.00     0.020 A 
ATOM     44  C   UNL A   1      42.553  23.064  27.747  1.00  0.00     0.020 A 
ATOM     45  C   UNL A   1      43.155  23.333  26.517  1.00  0.00     0.054 A 
BRANCH  45  46
ATOM     46  S   UNL A   1      43.451  21.996  25.326  1.00  0.00     0.124 S 
ATOM     47  O   UNL A   1      42.342  21.090  25.609  1.00  0.00    -0.237 OA
ATOM     48  O   UNL A   1      43.381  22.689  24.042  1.00  0.00    -0.237 OA
ATOM     49  O   UNL A   1      44.774  21.495  25.688  1.00  0.00    -0.744 OA
ENDBRANCH  45  46
ENDBRANCH  26  40
BRANCH  27  50
ATOM     50  C   UNL A   1      41.361  32.313  35.443  1.00  0.00    -0.014 A 
ATOM     51  C   UNL A   1      41.894  33.611  35.400  1.00  0.00     0.010 A 
ATOM     52  C   UNL A   1      40.554  31.937  36.533  1.00  0.00     0.010 A 
ATOM     53  C   UNL A   1      41.639  34.512  36.438  1.00  0.00     0.020 A 
ATOM     54  C   UNL A   1      40.275  32.842  37.558  1.00  0.00     0.020 A 
ATOM     55  C   UNL A   1      40.832  34.122  37.510  1.00  0.00     0.054 A 
BRANCH  55  56
ATOM     56  S   UNL A   1      40.469  35.319  38.824  1.00  0.00     0.124 S 
ATOM     57  O   UNL A   1      41.247  36.477  38.399  1.00  0.00    -0.237 OA
ATOM     58  O   UNL A   1      39.018  35.463  38.734  1.00  0.00    -0.237 OA
ATOM     59  O   UNL A   1      40.945  34.651  40.033  1.00  0.00    -0.744 OA
ENDBRANCH  55  56
ENDBRANCH  27  50
BRANCH  39  60
ATOM     60  C   UNL A   1      46.239  27.470  34.306  1.00  0.00    -0.014 A 
ATOM     61  C   UNL A   1      47.476  28.114  34.137  1.00  0.00     0.010 A 
ATOM     62  C   UNL A   1      46.115  26.447  35.263  1.00  0.00     0.010 A 
ATOM     63  C   UNL A   1      48.579  27.731  34.903  1.00  0.00     0.020 A 
ATOM     64  C   UNL A   1      47.212  26.076  36.045  1.00  0.00     0.020 A 
ATOM     65  C   UNL A   1      48.440  26.714  35.852  1.00  0.00     0.054 A 
BRANCH  65  66
ATOM     66  S   UNL A   1      49.871  26.273  36.876  1.00  0.00     0.124 S 
ATOM     67  O   UNL A   1      49.805  27.274  37.937  1.00  0.00    -0.237 OA
ATOM     68  O   UNL A   1      49.567  24.904  37.283  1.00  0.00    -0.237 OA
ATOM     69  O   UNL A   1      51.003  26.407  35.962  1.00  0.00    -0.744 OA
ENDBRANCH  65  66
ENDBRANCH  39  60
ENDBRANCH  13  14
ENDBRANCH   6   8
ENDBRANCH   3   4
ENDBRANCH   2   3
ENDBRANCH   1   2
BRANCH   1  70
ATOM     70  C   UNL A   1      31.157  28.908  25.000  1.00  0.00     0.002 C 
BRANCH  70  71
ATOM     71  C   UNL A   1      30.601  27.785  24.112  1.00  0.00     0.021 C 
BRANCH  71  72
ATOM     72  C   UNL A   1      30.849  27.929  22.616  1.00  0.00     0.116 C 
BRANCH  72  73
ATOM     73  N   UNL A   1      32.186  28.391  22.340  1.00  0.00    -0.352 N 
ATOM     74  C   UNL A   1      33.313  27.657  22.136  1.00  0.00     0.251 C 
ATOM     75  H   UNL A   1      32.299  29.367  22.294  1.00  0.00     0.163 HD
ATOM     76  O   UNL A   1      34.336  28.203  21.737  1.00  0.00    -0.269 OA
BRANCH  74  77
ATOM     77  C   UNL A   1      33.301  26.203  22.355  1.00  0.00     0.044 A 
ATOM     78  C   UNL A   1      32.857  25.385  21.327  1.00  0.00     0.034 A 
ATOM     79  C   UNL A   1      33.939  25.669  23.476  1.00  0.00     0.049 A 
ATOM     80  C   UNL A   1      33.113  24.039  21.454  1.00  0.00     0.113 A 
ATOM     81  C   UNL A   1      34.270  24.329  23.455  1.00  0.00     0.097 A 
ATOM     82  N   UNL A   1      33.828  23.507  22.470  1.00  0.00    -0.250 NA
BRANCH  81  83
ATOM     83  S   UNL A   1      35.279  23.514  24.669  1.00  0.00    -0.103 SA
BRANCH  83  84
ATOM     84  C   UNL A   1      34.196  22.368  25.659  1.00  0.00     0.058 C 
ATOM     85  C   UNL A   1      33.875  21.064  24.928  1.00  0.00     0.043 C 
ATOM     86  C   UNL A   1      32.987  22.936  26.420  1.00  0.00     0.053 C 
ATOM     87  C   UNL A   1      32.388  20.894  24.655  1.00  0.00     0.162 C 
ATOM     88  C   UNL A   1      31.685  22.979  25.597  1.00  0.00     0.095 C 
ATOM     89  O   UNL A   1      31.771  22.156  24.434  1.00  0.00    -0.372 OA
ATOM     90  C   UNL A   1      31.332  24.420  25.240  1.00  0.00     0.066 C 
ATOM     91  C   UNL A   1      30.433  22.597  26.392  1.00  0.00     0.195 C 
ATOM     92  C   UNL A   1      30.374  24.884  26.323  1.00  0.00     0.163 C 
ATOM     93  O   UNL A   1      30.059  23.753  27.142  1.00  0.00    -0.378 OA
ENDBRANCH  83  84
ENDBRANCH  81  83
ENDBRANCH  74  77
ENDBRANCH  72  73
ENDBRANCH  71  72
ENDBRANCH  70  71
ENDBRANCH   1  70
TORSDOF 18
ENDMDL
MODEL 3
REMARK VINA RESULT:     -10.7      3.100      3.841
REMARK SMILES O=C(NCCCCCCNC(=O)c1ccnc(S[C@@H]2CCO[C@]3(CCOC3)C2)c1)c1ccc(-c2c3nc(c(-c4ccc(S(=O)(=O)[O-])cc4)c4ccc([nH]4)c(-c4ccc(S(=O)(=O)[O-])cc4)c4nc(c(-c5ccc(S(=O)(=O)[O-])cc5)c5ccc2[nH]5)C=C4)C=C3)cc1
REMARK SMILES IDX 6 1 5 2 4 3 3 4 1 5 2 6 30 8 31 9 89 10 32 11 88 12 33 13
REMARK SMILES IDX 34 14 35 15 82 16 36 17 87 18 81 19 83 20 37 21 86 22 80 23
REMARK SMILES IDX 79 24 38 26 68 27 49 28 67 29 50 30 53 31 66 32 84 33 51 34
REMARK SMILES IDX 52 35 65 37 85 38 54 39 39 40 40 41 48 42 41 43 47 44 42 45
REMARK SMILES IDX 43 46 44 47 45 48 46 49 69 50 70 51 78 52 71 53 77 54 72 55
REMARK SMILES IDX 73 56 74 57 75 58 76 59 55 60 56 61 64 62 57 63 63 64 58 65
REMARK SMILES IDX 59 66 60 67 61 68 62 69 7 70 8 71 9 72 10 73 11 74 12 76
REMARK SMILES IDX 13 77 14 78 29 79 15 80 17 81 16 82 18 83 19 84 20 85 28 86
REMARK SMILES IDX 21 87 23 88 22 89 24 90 27 91 25 92 26 93
REMARK H PARENT 3 7 83 25 53 36 10 75
REMARK Flexibility Score: inf
ROOT
ATOM      1  C   UNL A   1      32.273  29.371  25.352  1.00  0.00     0.002 C 
ENDROOT
BRANCH   1   2
ATOM      2  C   UNL A   1      33.345  28.382  25.801  1.00  0.00     0.021 C 
BRANCH   2   3
ATOM      3  C   UNL A   1      33.880  28.600  27.207  1.00  0.00     0.116 C 
BRANCH   3   4
ATOM      4  N   UNL A   1      33.653  29.949  27.682  1.00  0.00    -0.352 N 
ATOM      5  O   UNL A   1      34.122  31.812  28.862  1.00  0.00    -0.269 OA
ATOM      6  C   UNL A   1      34.517  30.756  28.382  1.00  0.00     0.251 C 
ATOM      7  H   UNL A   1      32.770  30.336  27.478  1.00  0.00     0.163 HD
BRANCH   6   8
ATOM      8  C   UNL A   1      35.921  30.326  28.569  1.00  0.00     0.039 A 
ATOM      9  C   UNL A   1      36.851  30.444  27.530  1.00  0.00     0.014 A 
ATOM     10  C   UNL A   1      36.313  29.817  29.809  1.00  0.00     0.014 A 
ATOM     11  C   UNL A   1      38.151  29.976  27.705  1.00  0.00     0.010 A 
ATOM     12  C   UNL A   1      37.635  29.411  30.005  1.00  0.00     0.010 A 
ATOM     13  C   UNL A   1      38.562  29.487  28.954  1.00  0.00    -0.014 A 
BRANCH  13  14
ATOM     14  C   UNL A   1      39.997  29.195  29.191  1.00  0.00     0.031 A 
ATOM     15  C   UNL A   1      40.945  30.253  29.677  1.00  0.00     0.074 A 
ATOM     16  C   UNL A   1      40.441  27.952  28.919  1.00  0.00     0.049 A 
ATOM     17  N   UNL A   1      42.234  30.163  29.882  1.00  0.00    -0.248 NA
ATOM     18  C   UNL A   1      40.384  31.583  29.962  1.00  0.00     0.031 C 
ATOM     19  C   UNL A   1      39.610  26.851  28.419  1.00  0.00     0.029 A 
ATOM     20  N   UNL A   1      41.693  27.402  29.014  1.00  0.00    -0.354 N 
ATOM     21  C   UNL A   1      42.645  31.423  30.295  1.00  0.00     0.074 A 
ATOM     22  C   UNL A   1      41.468  32.267  30.307  1.00  0.00     0.031 C 
ATOM     23  C   UNL A   1      40.371  25.759  28.264  1.00  0.00     0.029 A 
ATOM     24  C   UNL A   1      41.750  26.094  28.596  1.00  0.00     0.049 A 
ATOM     25  H   UNL A   1      42.476  27.897  29.348  1.00  0.00     0.167 HD
ATOM     26  C   UNL A   1      43.892  31.834  30.628  1.00  0.00     0.031 A 
ATOM     27  C   UNL A   1      42.797  25.262  28.456  1.00  0.00     0.031 A 
ATOM     28  C   UNL A   1      45.053  30.982  30.623  1.00  0.00     0.049 A 
ATOM     29  C   UNL A   1      44.170  25.758  28.802  1.00  0.00     0.074 A 
ATOM     30  C   UNL A   1      46.342  31.286  31.026  1.00  0.00     0.029 A 
ATOM     31  N   UNL A   1      45.072  29.670  30.177  1.00  0.00    -0.354 N 
ATOM     32  N   UNL A   1      44.524  26.931  29.269  1.00  0.00    -0.248 NA
ATOM     33  C   UNL A   1      45.284  24.823  28.596  1.00  0.00     0.031 C 
ATOM     34  C   UNL A   1      47.153  30.175  30.771  1.00  0.00     0.029 A 
ATOM     35  C   UNL A   1      46.360  29.165  30.252  1.00  0.00     0.049 A 
ATOM     36  H   UNL A   1      44.288  29.172  29.855  1.00  0.00     0.167 HD
ATOM     37  C   UNL A   1      45.904  26.876  29.412  1.00  0.00     0.074 A 
ATOM     38  C   UNL A   1      46.316  25.548  29.009  1.00  0.00     0.031 C 
ATOM     39  C   UNL A   1      46.753  27.844  29.832  1.00  0.00     0.031 A 
BRANCH  26  40
ATOM     40  C   UNL A   1      44.087  33.278  31.008  1.00  0.00    -0.014 A 
ATOM     41  C   UNL A   1      44.436  34.242  30.046  1.00  0.00     0.010 A 
ATOM     42  C   UNL A   1      43.823  33.688  32.327  1.00  0.00     0.010 A 
ATOM     43  C   UNL A   1      44.532  35.591  30.403  1.00  0.00     0.020 A 
ATOM     44  C   UNL A   1      43.902  35.038  32.683  1.00  0.00     0.020 A 
ATOM     45  C   UNL A   1      44.266  35.980  31.720  1.00  0.00     0.054 A 
BRANCH  45  46
ATOM     46  S   UNL A   1      44.350  37.743  32.144  1.00  0.00     0.124 S 
ATOM     47  O   UNL A   1      43.450  37.820  33.291  1.00  0.00    -0.237 OA
ATOM     48  O   UNL A   1      45.767  37.934  32.445  1.00  0.00    -0.237 OA
ATOM     49  O   UNL A   1      43.877  38.414  30.935  1.00  0.00    -0.744 OA
ENDBRANCH  45  46
ENDBRANCH  26  40
BRANCH  27  50
ATOM     50  C   UNL A   1      42.586  23.896  27.911  1.00  0.00    -0.014 A 
ATOM     51  C   UNL A   1      42.448  22.793  28.769  1.00  0.00     0.010 A 
ATOM     52  C   UNL A   1      42.500  23.699  26.520  1.00  0.00     0.010 A 
ATOM     53  C   UNL A   1      42.243  21.514  28.245  1.00  0.00     0.020 A 
ATOM     54  C   UNL A   1      42.268  22.427  25.994  1.00  0.00     0.020 A 
ATOM     55  C   UNL A   1      42.156  21.339  26.861  1.00  0.00     0.054 A 
BRANCH  55  56
ATOM     56  S   UNL A   1      41.840  19.680  26.199  1.00  0.00     0.124 S 
ATOM     57  O   UNL A   1      42.267  18.828  27.304  1.00  0.00    -0.237 OA
ATOM     58  O   UNL A   1      40.402  19.707  25.939  1.00  0.00    -0.237 OA
ATOM     59  O   UNL A   1      42.678  19.626  25.003  1.00  0.00    -0.744 OA
ENDBRANCH  55  56
ENDBRANCH  27  50
BRANCH  39  60
ATOM     60  C   UNL A   1      48.215  27.501  29.874  1.00  0.00    -0.014 A 
ATOM     61  C   UNL A   1      49.066  27.871  28.819  1.00  0.00     0.010 A 
ATOM     62  C   UNL A   1      48.750  26.854  31.002  1.00  0.00     0.010 A 
ATOM     63  C   UNL A   1      50.431  27.584  28.883  1.00  0.00     0.020 A 
ATOM     64  C   UNL A   1      50.119  26.584  31.077  1.00  0.00     0.020 A 
ATOM     65  C   UNL A   1      50.949  26.942  30.012  1.00  0.00     0.054 A 
BRANCH  65  66
ATOM     66  S   UNL A   1      52.735  26.632  30.099  1.00  0.00     0.124 S 
ATOM     67  O   UNL A   1      52.823  25.674  31.197  1.00  0.00    -0.237 OA
ATOM     68  O   UNL A   1      53.034  26.100  28.773  1.00  0.00    -0.237 OA
ATOM     69  O   UNL A   1      53.300  27.951  30.376  1.00  0.00    -0.744 OA
ENDBRANCH  65  66
ENDBRANCH  39  60
ENDBRANCH  13  14
ENDBRANCH   6   8
ENDBRANCH   3   4
ENDBRANCH   2   3
ENDBRANCH   1   2
BRANCH   1  70
ATOM     70  C   UNL A   1      31.105  28.791  24.549  1.00  0.00     0.002 C 
BRANCH  70  71
ATOM     71  C   UNL A   1      31.081  29.077  23.040  1.00  0.00     0.021 C 
BRANCH  71  72
ATOM     72  C   UNL A   1      31.100  27.858  22.127  1.00  0.00     0.116 C 
BRANCH  72  73
ATOM     73  N   UNL A   1      32.434  27.337  21.962  1.00  0.00    -0.352 N 
ATOM     74  C   UNL A   1      32.939  26.146  22.382  1.00  0.00     0.251 C 
ATOM     75  H   UNL A   1      33.063  27.921  21.482  1.00  0.00     0.163 HD
ATOM     76  O   UNL A   1      34.047  25.782  22.003  1.00  0.00    -0.269 OA
BRANCH  74  77
ATOM     77  C   UNL A   1      32.145  25.272  23.258  1.00  0.00     0.044 A 
ATOM     78  C   UNL A   1      31.236  24.402  22.675  1.00  0.00     0.034 A 
ATOM     79  C   UNL A   1      32.476  25.166  24.610  1.00  0.00     0.049 A 
ATOM     80  C   UNL A   1      30.715  23.417  23.483  1.00  0.00     0.113 A 
ATOM     81  C   UNL A   1      32.010  24.069  25.307  1.00  0.00     0.097 A 
ATOM     82  N   UNL A   1      31.104  23.219  24.762  1.00  0.00    -0.250 NA
BRANCH  81  83
ATOM     83  S   UNL A   1      32.502  23.631  26.957  1.00  0.00    -0.103 SA
BRANCH  83  84
ATOM     84  C   UNL A   1      34.035  22.580  26.853  1.00  0.00     0.058 C 
ATOM     85  C   UNL A   1      35.170  23.249  26.076  1.00  0.00     0.043 C 
ATOM     86  C   UNL A   1      33.907  21.079  26.544  1.00  0.00     0.053 C 
ATOM     87  C   UNL A   1      35.558  22.478  24.822  1.00  0.00     0.162 C 
ATOM     88  C   UNL A   1      33.927  20.739  25.041  1.00  0.00     0.095 C 
ATOM     89  O   UNL A   1      34.423  21.828  24.263  1.00  0.00    -0.372 OA
ATOM     90  C   UNL A   1      32.540  20.305  24.577  1.00  0.00     0.066 C 
ATOM     91  C   UNL A   1      34.720  19.474  24.700  1.00  0.00     0.195 C 
ATOM     92  C   UNL A   1      32.536  18.789  24.671  1.00  0.00     0.163 C 
ATOM     93  O   UNL A   1      33.866  18.368  24.993  1.00  0.00    -0.378 OA
ENDBRANCH  83  84
ENDBRANCH  81  83
ENDBRANCH  74  77
ENDBRANCH  72  73
ENDBRANCH  71  72
ENDBRANCH  70  71
ENDBRANCH   1  70
TORSDOF 18
ENDMDL
