MODEL 1
REMARK VINA RESULT:     -10.3      0.000      0.000
REMARK SMILES C[C@@H](C(=O)NCCCCCCNC(=O)c1ccc(-c2c3nc(c(-c4ccc(S(=O)(=O)[O-])cc4)c4ccc([nH]4)c(-c4ccc(S(=O)(=O)[O-])cc4)c4nc(c(-c5ccc(S(=O)(=O)[O-])cc5)c5ccc2[nH]5)C=C4)C=C3)cc1)c1ccc(Cc2ccsc2)cc1F
REMARK SMILES IDX 8 1 7 2 6 3 5 4 3 5 4 6 2 8 1 9 75 10 76 11 86 12 77 13
REMARK SMILES IDX 85 14 87 15 78 16 79 17 80 18 81 19 84 20 82 21 83 22 9 23
REMARK SMILES IDX 10 24 11 25 12 26 13 27 14 29 15 30 16 31 74 32 17 33 73 34
REMARK SMILES IDX 18 35 19 36 20 37 67 38 21 39 72 40 66 41 68 42 22 43 71 44
REMARK SMILES IDX 65 45 64 46 23 48 53 49 34 50 52 51 35 52 38 53 51 54 69 55
REMARK SMILES IDX 36 56 37 57 50 59 70 60 39 61 24 62 25 63 33 64 26 65 32 66
REMARK SMILES IDX 27 67 28 68 29 69 30 70 31 71 54 72 55 73 63 74 56 75 62 76
REMARK SMILES IDX 57 77 58 78 59 79 60 80 61 81 40 82 41 83 49 84 42 85 48 86
REMARK SMILES IDX 43 87 44 88 45 89 46 90 47 91
REMARK H PARENT 5 7 12 28 68 47 38 58
REMARK Flexibility Score: inf
ROOT
ATOM      1  C   UNL A   1      40.065  22.266  26.748  1.00  0.00     0.002 C 
ENDROOT
BRANCH   1   2
ATOM      2  C   UNL A   1      39.153  21.265  26.023  1.00  0.00     0.021 C 
BRANCH   2   3
ATOM      3  C   UNL A   1      37.852  21.880  25.491  1.00  0.00     0.116 C 
BRANCH   3   4
ATOM      4  N   UNL A   1      37.029  20.846  24.894  1.00  0.00    -0.356 N 
ATOM      5  C   UNL A   1      35.709  20.559  25.095  1.00  0.00     0.227 C 
ATOM      6  O   UNL A   1      35.323  19.439  24.750  1.00  0.00    -0.274 OA
ATOM      7  H   UNL A   1      37.491  20.264  24.248  1.00  0.00     0.163 HD
BRANCH   5   8
ATOM      8  C   UNL A   1      34.773  21.620  25.705  1.00  0.00     0.108 C 
ATOM      9  C   UNL A   1      33.649  20.935  26.497  1.00  0.00     0.023 C 
BRANCH   8  10
ATOM     10  C   UNL A   1      34.250  22.596  24.646  1.00  0.00    -0.000 A 
ATOM     11  C   UNL A   1      33.345  22.217  23.644  1.00  0.00     0.008 A 
ATOM     12  C   UNL A   1      34.667  23.935  24.655  1.00  0.00     0.127 A 
ATOM     13  C   UNL A   1      32.908  23.130  22.682  1.00  0.00     0.004 A 
ATOM     14  C   UNL A   1      34.270  24.842  23.667  1.00  0.00     0.043 A 
ATOM     15  F   UNL A   1      35.463  24.379  25.640  1.00  0.00    -0.207 F 
ATOM     16  C   UNL A   1      33.392  24.444  22.651  1.00  0.00    -0.041 A 
BRANCH  16  17
ATOM     17  C   UNL A   1      32.926  25.413  21.591  1.00  0.00     0.072 C 
BRANCH  17  18
ATOM     18  C   UNL A   1      32.456  26.672  22.272  1.00  0.00    -0.033 A 
ATOM     19  C   UNL A   1      33.154  27.932  22.295  1.00  0.00     0.015 A 
ATOM     20  C   UNL A   1      31.232  26.803  22.909  1.00  0.00     0.068 A 
ATOM     21  C   UNL A   1      32.468  28.921  22.964  1.00  0.00     0.065 A 
ATOM     22  S   UNL A   1      30.959  28.372  23.533  1.00  0.00    -0.152 S 
ENDBRANCH  17  18
ENDBRANCH  16  17
ENDBRANCH   8  10
ENDBRANCH   5   8
ENDBRANCH   3   4
ENDBRANCH   2   3
ENDBRANCH   1   2
BRANCH   1  23
ATOM     23  C   UNL A   1      41.564  21.985  26.618  1.00  0.00     0.002 C 
BRANCH  23  24
ATOM     24  C   UNL A   1      42.447  22.748  27.606  1.00  0.00     0.021 C 
BRANCH  24  25
ATOM     25  C   UNL A   1      43.372  23.773  26.960  1.00  0.00     0.116 C 
BRANCH  25  26
ATOM     26  N   UNL A   1      42.710  24.509  25.893  1.00  0.00    -0.352 N 
ATOM     27  C   UNL A   1      41.877  25.596  25.992  1.00  0.00     0.251 C 
ATOM     28  H   UNL A   1      42.881  24.183  24.979  1.00  0.00     0.163 HD
ATOM     29  O   UNL A   1      41.236  25.983  25.019  1.00  0.00    -0.269 OA
BRANCH  27  30
ATOM     30  C   UNL A   1      41.747  26.285  27.292  1.00  0.00     0.039 A 
ATOM     31  C   UNL A   1      42.600  27.350  27.592  1.00  0.00     0.014 A 
ATOM     32  C   UNL A   1      40.757  25.891  28.197  1.00  0.00     0.014 A 
ATOM     33  C   UNL A   1      42.419  28.064  28.779  1.00  0.00     0.010 A 
ATOM     34  C   UNL A   1      40.536  26.646  29.343  1.00  0.00     0.010 A 
ATOM     35  C   UNL A   1      41.365  27.738  29.647  1.00  0.00    -0.014 A 
BRANCH  35  36
ATOM     36  C   UNL A   1      41.101  28.510  30.886  1.00  0.00     0.031 A 
ATOM     37  C   UNL A   1      39.979  29.511  30.913  1.00  0.00     0.074 A 
ATOM     38  C   UNL A   1      41.934  28.398  31.938  1.00  0.00     0.049 A 
ATOM     39  N   UNL A   1      39.680  30.391  31.833  1.00  0.00    -0.248 NA
ATOM     40  C   UNL A   1      39.103  29.548  29.732  1.00  0.00     0.031 C 
ATOM     41  C   UNL A   1      43.083  27.494  32.019  1.00  0.00     0.029 A 
ATOM     42  N   UNL A   1      41.961  29.077  33.133  1.00  0.00    -0.354 N 
ATOM     43  C   UNL A   1      38.605  31.111  31.327  1.00  0.00     0.074 A 
ATOM     44  C   UNL A   1      38.332  30.590  30.004  1.00  0.00     0.031 C 
ATOM     45  C   UNL A   1      43.702  27.674  33.196  1.00  0.00     0.029 A 
ATOM     46  C   UNL A   1      43.024  28.737  33.935  1.00  0.00     0.049 A 
ATOM     47  H   UNL A   1      41.283  29.743  33.389  1.00  0.00     0.167 HD
ATOM     48  C   UNL A   1      37.901  32.110  31.912  1.00  0.00     0.031 A 
ATOM     49  C   UNL A   1      43.427  29.238  35.120  1.00  0.00     0.031 A 
ATOM     50  C   UNL A   1      38.172  32.615  33.231  1.00  0.00     0.049 A 
ATOM     51  C   UNL A   1      42.631  30.338  35.762  1.00  0.00     0.074 A 
ATOM     52  C   UNL A   1      37.478  33.574  33.944  1.00  0.00     0.029 A 
ATOM     53  N   UNL A   1      39.229  32.205  34.033  1.00  0.00    -0.354 N 
ATOM     54  N   UNL A   1      41.571  30.959  35.302  1.00  0.00    -0.248 NA
ATOM     55  C   UNL A   1      43.073  30.798  37.085  1.00  0.00     0.031 C 
ATOM     56  C   UNL A   1      38.143  33.783  35.156  1.00  0.00     0.029 A 
ATOM     57  C   UNL A   1      39.219  32.911  35.223  1.00  0.00     0.049 A 
ATOM     58  H   UNL A   1      39.888  31.516  33.790  1.00  0.00     0.167 HD
ATOM     59  C   UNL A   1      41.202  31.866  36.290  1.00  0.00     0.074 A 
ATOM     60  C   UNL A   1      42.151  31.711  37.373  1.00  0.00     0.031 C 
ATOM     61  C   UNL A   1      40.167  32.742  36.297  1.00  0.00     0.031 A 
BRANCH  48  62
ATOM     62  C   UNL A   1      36.792  32.734  31.108  1.00  0.00    -0.014 A 
ATOM     63  C   UNL A   1      37.064  33.628  30.056  1.00  0.00     0.010 A 
ATOM     64  C   UNL A   1      35.453  32.431  31.417  1.00  0.00     0.010 A 
ATOM     65  C   UNL A   1      36.019  34.263  29.379  1.00  0.00     0.020 A 
ATOM     66  C   UNL A   1      34.405  33.038  30.719  1.00  0.00     0.020 A 
ATOM     67  C   UNL A   1      34.697  33.974  29.724  1.00  0.00     0.054 A 
BRANCH  67  68
ATOM     68  S   UNL A   1      33.359  34.835  28.853  1.00  0.00     0.124 S 
ATOM     69  O   UNL A   1      32.475  35.207  29.956  1.00  0.00    -0.237 OA
ATOM     70  O   UNL A   1      34.056  35.943  28.207  1.00  0.00    -0.237 OA
ATOM     71  O   UNL A   1      32.829  33.821  27.945  1.00  0.00    -0.744 OA
ENDBRANCH  67  68
ENDBRANCH  48  62
BRANCH  49  72
ATOM     72  C   UNL A   1      44.649  28.685  35.762  1.00  0.00    -0.014 A 
ATOM     73  C   UNL A   1      45.915  29.219  35.470  1.00  0.00     0.010 A 
ATOM     74  C   UNL A   1      44.540  27.670  36.732  1.00  0.00     0.010 A 
ATOM     75  C   UNL A   1      47.051  28.755  36.143  1.00  0.00     0.020 A 
ATOM     76  C   UNL A   1      45.669  27.221  37.423  1.00  0.00     0.020 A 
ATOM     77  C   UNL A   1      46.919  27.767  37.123  1.00  0.00     0.054 A 
BRANCH  77  78
ATOM     78  S   UNL A   1      48.390  27.258  38.055  1.00  0.00     0.124 S 
ATOM     79  O   UNL A   1      47.803  26.545  39.185  1.00  0.00    -0.237 OA
ATOM     80  O   UNL A   1      49.106  26.431  37.086  1.00  0.00    -0.237 OA
ATOM     81  O   UNL A   1      49.042  28.524  38.382  1.00  0.00    -0.744 OA
ENDBRANCH  77  78
ENDBRANCH  49  72
BRANCH  61  82
ATOM     82  C   UNL A   1      39.967  33.586  37.526  1.00  0.00    -0.014 A 
ATOM     83  C   UNL A   1      40.448  34.904  37.592  1.00  0.00     0.010 A 
ATOM     84  C   UNL A   1      39.184  33.085  38.583  1.00  0.00     0.010 A 
ATOM     85  C   UNL A   1      40.148  35.709  38.695  1.00  0.00     0.020 A 
ATOM     86  C   UNL A   1      38.862  33.894  39.676  1.00  0.00     0.020 A 
ATOM     87  C   UNL A   1      39.349  35.201  39.726  1.00  0.00     0.054 A 
BRANCH  87  88
ATOM     88  S   UNL A   1      38.894  36.297  41.099  1.00  0.00     0.124 S 
ATOM     89  O   UNL A   1      38.613  37.551  40.407  1.00  0.00    -0.237 OA
ATOM     90  O   UNL A   1      37.733  35.623  41.674  1.00  0.00    -0.237 OA
ATOM     91  O   UNL A   1      40.084  36.305  41.946  1.00  0.00    -0.744 OA
ENDBRANCH  87  88
ENDBRANCH  61  82
ENDBRANCH  35  36
ENDBRANCH  27  30
ENDBRANCH  25  26
ENDBRANCH  24  25
ENDBRANCH  23  24
ENDBRANCH   1  23
TORSDOF 19
ENDMDL
MODEL 2
REMARK VINA RESULT:     -10.3      6.556     13.566
REMARK SMILES C[C@@H](C(=O)NCCCCCCNC(=O)c1ccc(-c2c3nc(c(-c4ccc(S(=O)(=O)[O-])cc4)c4ccc([nH]4)c(-c4ccc(S(=O)(=O)[O-])cc4)c4nc(c(-c5ccc(S(=O)(=O)[O-])cc5)c5ccc2[nH]5)C=C4)C=C3)cc1)c1ccc(Cc2ccsc2)cc1F
REMARK SMILES IDX 8 1 7 2 6 3 5 4 3 5 4 6 2 8 1 9 75 10 76 11 86 12 77 13
REMARK SMILES IDX 85 14 87 15 78 16 79 17 80 18 81 19 84 20 82 21 83 22 9 23
REMARK SMILES IDX 10 24 11 25 12 26 13 27 14 29 15 30 16 31 74 32 17 33 73 34
REMARK SMILES IDX 18 35 19 36 20 37 67 38 21 39 72 40 66 41 68 42 22 43 71 44
REMARK SMILES IDX 65 45 64 46 23 48 53 49 34 50 52 51 35 52 38 53 51 54 69 55
REMARK SMILES IDX 36 56 37 57 50 59 70 60 39 61 24 62 25 63 33 64 26 65 32 66
REMARK SMILES IDX 27 67 28 68 29 69 30 70 31 71 54 72 55 73 63 74 56 75 62 76
REMARK SMILES IDX 57 77 58 78 59 79 60 80 61 81 40 82 41 83 49 84 42 85 48 86
REMARK SMILES IDX 43 87 44 88 45 89 46 90 47 91
REMARK H PARENT 5 7 12 28 68 47 38 58
REMARK Flexibility Score: inf
ROOT
ATOM      1  C   UNL A   1      33.687  35.362  28.853  1.00  0.00     0.002 C 
ENDROOT
BRANCH   1   2
ATOM      2  C   UNL A   1      33.542  35.666  30.351  1.00  0.00     0.021 C 
BRANCH   2   3
ATOM      3  C   UNL A   1      34.056  34.546  31.266  1.00  0.00     0.116 C 
BRANCH   3   4
ATOM      4  N   UNL A   1      35.097  35.060  32.135  1.00  0.00    -0.356 N 
ATOM      5  C   UNL A   1      36.229  34.450  32.595  1.00  0.00     0.227 C 
ATOM      6  O   UNL A   1      36.771  34.953  33.582  1.00  0.00    -0.274 OA
ATOM      7  H   UNL A   1      34.968  35.988  32.439  1.00  0.00     0.163 HD
BRANCH   5   8
ATOM      8  C   UNL A   1      36.783  33.207  31.872  1.00  0.00     0.108 C 
ATOM      9  C   UNL A   1      36.220  31.932  32.517  1.00  0.00     0.023 C 
BRANCH   8  10
ATOM     10  C   UNL A   1      38.313  33.220  31.806  1.00  0.00    -0.000 A 
ATOM     11  C   UNL A   1      39.115  32.368  32.579  1.00  0.00     0.008 A 
ATOM     12  C   UNL A   1      38.973  34.104  30.940  1.00  0.00     0.127 A 
ATOM     13  C   UNL A   1      40.508  32.424  32.508  1.00  0.00     0.004 A 
ATOM     14  C   UNL A   1      40.368  34.198  30.899  1.00  0.00     0.043 A 
ATOM     15  F   UNL A   1      38.260  34.883  30.112  1.00  0.00    -0.207 F 
ATOM     16  C   UNL A   1      41.159  33.365  31.700  1.00  0.00    -0.041 A 
BRANCH  16  17
ATOM     17  C   UNL A   1      42.667  33.428  31.651  1.00  0.00     0.072 C 
BRANCH  17  18
ATOM     18  C   UNL A   1      43.099  34.798  32.105  1.00  0.00    -0.033 A 
ATOM     19  C   UNL A   1      43.658  35.829  31.267  1.00  0.00     0.015 A 
ATOM     20  C   UNL A   1      42.938  35.278  33.394  1.00  0.00     0.068 A 
ATOM     21  C   UNL A   1      43.927  36.995  31.948  1.00  0.00     0.065 A 
ATOM     22  S   UNL A   1      43.471  36.893  33.587  1.00  0.00    -0.152 S 
ENDBRANCH  17  18
ENDBRANCH  16  17
ENDBRANCH   8  10
ENDBRANCH   5   8
ENDBRANCH   3   4
ENDBRANCH   2   3
ENDBRANCH   1   2
BRANCH   1  23
ATOM     23  C   UNL A   1      34.126  33.932  28.524  1.00  0.00     0.002 C 
BRANCH  23  24
ATOM     24  C   UNL A   1      35.500  33.820  27.863  1.00  0.00     0.021 C 
BRANCH  24  25
ATOM     25  C   UNL A   1      36.420  32.783  28.499  1.00  0.00     0.116 C 
BRANCH  25  26
ATOM     26  N   UNL A   1      35.693  31.592  28.914  1.00  0.00    -0.352 N 
ATOM     27  C   UNL A   1      36.139  30.294  28.970  1.00  0.00     0.251 C 
ATOM     28  H   UNL A   1      34.758  31.735  29.190  1.00  0.00     0.163 HD
ATOM     29  O   UNL A   1      35.351  29.370  29.149  1.00  0.00    -0.269 OA
BRANCH  27  30
ATOM     30  C   UNL A   1      37.580  30.021  28.793  1.00  0.00     0.039 A 
ATOM     31  C   UNL A   1      38.420  30.027  29.909  1.00  0.00     0.014 A 
ATOM     32  C   UNL A   1      38.087  29.729  27.524  1.00  0.00     0.014 A 
ATOM     33  C   UNL A   1      39.765  29.677  29.761  1.00  0.00     0.010 A 
ATOM     34  C   UNL A   1      39.406  29.314  27.390  1.00  0.00     0.010 A 
ATOM     35  C   UNL A   1      40.259  29.287  28.506  1.00  0.00    -0.014 A 
BRANCH  35  36
ATOM     36  C   UNL A   1      41.665  28.848  28.317  1.00  0.00     0.031 A 
ATOM     37  C   UNL A   1      42.764  29.873  28.285  1.00  0.00     0.074 A 
ATOM     38  C   UNL A   1      41.937  27.555  28.059  1.00  0.00     0.049 A 
ATOM     39  N   UNL A   1      44.027  29.720  27.980  1.00  0.00    -0.248 NA
ATOM     40  C   UNL A   1      42.383  31.258  28.603  1.00  0.00     0.031 C 
ATOM     41  C   UNL A   1      40.951  26.472  28.021  1.00  0.00     0.029 A 
ATOM     42  N   UNL A   1      43.123  26.937  27.747  1.00  0.00    -0.354 N 
ATOM     43  C   UNL A   1      44.582  30.993  28.034  1.00  0.00     0.074 A 
ATOM     44  C   UNL A   1      43.510  31.909  28.361  1.00  0.00     0.031 C 
ATOM     45  C   UNL A   1      41.572  25.325  27.702  1.00  0.00     0.029 A 
ATOM     46  C   UNL A   1      42.989  25.597  27.469  1.00  0.00     0.049 A 
ATOM     47  H   UNL A   1      43.987  27.408  27.724  1.00  0.00     0.167 HD
ATOM     48  C   UNL A   1      45.870  31.366  27.837  1.00  0.00     0.031 A 
ATOM     49  C   UNL A   1      43.894  24.691  27.049  1.00  0.00     0.031 A 
ATOM     50  C   UNL A   1      46.930  30.448  27.522  1.00  0.00     0.049 A 
ATOM     51  C   UNL A   1      45.321  25.117  26.845  1.00  0.00     0.074 A 
ATOM     52  C   UNL A   1      48.280  30.711  27.372  1.00  0.00     0.029 A 
ATOM     53  N   UNL A   1      46.761  29.088  27.300  1.00  0.00    -0.354 N 
ATOM     54  N   UNL A   1      45.845  26.313  26.972  1.00  0.00    -0.248 NA
ATOM     55  C   UNL A   1      46.280  24.075  26.456  1.00  0.00     0.031 C 
ATOM     56  C   UNL A   1      48.918  29.521  27.009  1.00  0.00     0.029 A 
ATOM     57  C   UNL A   1      47.976  28.504  26.990  1.00  0.00     0.049 A 
ATOM     58  H   UNL A   1      45.902  28.610  27.355  1.00  0.00     0.167 HD
ATOM     59  C   UNL A   1      47.201  26.164  26.703  1.00  0.00     0.074 A 
ATOM     60  C   UNL A   1      47.417  24.761  26.409  1.00  0.00     0.031 C 
ATOM     61  C   UNL A   1      48.178  27.104  26.706  1.00  0.00     0.031 A 
BRANCH  48  62
ATOM     62  C   UNL A   1      46.183  32.835  27.931  1.00  0.00    -0.014 A 
ATOM     63  C   UNL A   1      46.430  33.454  29.170  1.00  0.00     0.010 A 
ATOM     64  C   UNL A   1      46.220  33.614  26.760  1.00  0.00     0.010 A 
ATOM     65  C   UNL A   1      46.634  34.834  29.244  1.00  0.00     0.020 A 
ATOM     66  C   UNL A   1      46.457  34.990  26.826  1.00  0.00     0.020 A 
ATOM     67  C   UNL A   1      46.633  35.595  28.072  1.00  0.00     0.054 A 
BRANCH  67  68
ATOM     68  S   UNL A   1      46.867  37.389  28.197  1.00  0.00     0.124 S 
ATOM     69  O   UNL A   1      46.051  37.717  29.365  1.00  0.00    -0.237 OA
ATOM     70  O   UNL A   1      48.309  37.514  28.385  1.00  0.00    -0.237 OA
ATOM     71  O   UNL A   1      46.361  37.894  26.922  1.00  0.00    -0.744 OA
ENDBRANCH  67  68
ENDBRANCH  48  62
BRANCH  49  72
ATOM     72  C   UNL A   1      43.457  23.291  26.801  1.00  0.00    -0.014 A 
ATOM     73  C   UNL A   1      43.573  22.721  25.522  1.00  0.00     0.010 A 
ATOM     74  C   UNL A   1      42.996  22.496  27.867  1.00  0.00     0.010 A 
ATOM     75  C   UNL A   1      43.244  21.378  25.314  1.00  0.00     0.020 A 
ATOM     76  C   UNL A   1      42.688  21.146  27.668  1.00  0.00     0.020 A 
ATOM     77  C   UNL A   1      42.815  20.596  26.391  1.00  0.00     0.054 A 
BRANCH  77  78
ATOM     78  S   UNL A   1      42.495  18.831  26.118  1.00  0.00     0.124 S 
ATOM     79  O   UNL A   1      42.815  18.258  27.421  1.00  0.00    -0.237 OA
ATOM     80  O   UNL A   1      41.081  18.820  25.751  1.00  0.00    -0.237 OA
ATOM     81  O   UNL A   1      43.413  18.481  25.036  1.00  0.00    -0.744 OA
ENDBRANCH  77  78
ENDBRANCH  49  72
BRANCH  61  82
ATOM     82  C   UNL A   1      49.586  26.660  26.421  1.00  0.00    -0.014 A 
ATOM     83  C   UNL A   1      50.389  26.092  27.424  1.00  0.00     0.010 A 
ATOM     84  C   UNL A   1      50.067  26.708  25.099  1.00  0.00     0.010 A 
ATOM     85  C   UNL A   1      51.651  25.578  27.110  1.00  0.00     0.020 A 
ATOM     86  C   UNL A   1      51.317  26.173  24.777  1.00  0.00     0.020 A 
ATOM     87  C   UNL A   1      52.103  25.614  25.786  1.00  0.00     0.054 A 
BRANCH  87  88
ATOM     88  S   UNL A   1      53.701  24.852  25.388  1.00  0.00     0.124 S 
ATOM     89  O   UNL A   1      54.455  25.066  26.619  1.00  0.00    -0.237 OA
ATOM     90  O   UNL A   1      53.334  23.466  25.109  1.00  0.00    -0.237 OA
ATOM     91  O   UNL A   1      54.168  25.612  24.230  1.00  0.00    -0.744 OA
ENDBRANCH  87  88
ENDBRANCH  61  82
ENDBRANCH  35  36
ENDBRANCH  27  30
ENDBRANCH  25  26
ENDBRANCH  24  25
ENDBRANCH  23  24
ENDBRANCH   1  23
TORSDOF 19
ENDMDL
MODEL 3
REMARK VINA RESULT:     -10.3      4.715     11.445
REMARK SMILES C[C@@H](C(=O)NCCCCCCNC(=O)c1ccc(-c2c3nc(c(-c4ccc(S(=O)(=O)[O-])cc4)c4ccc([nH]4)c(-c4ccc(S(=O)(=O)[O-])cc4)c4nc(c(-c5ccc(S(=O)(=O)[O-])cc5)c5ccc2[nH]5)C=C4)C=C3)cc1)c1ccc(Cc2ccsc2)cc1F
REMARK SMILES IDX 8 1 7 2 6 3 5 4 3 5 4 6 2 8 1 9 75 10 76 11 86 12 77 13
REMARK SMILES IDX 85 14 87 15 78 16 79 17 80 18 81 19 84 20 82 21 83 22 9 23
REMARK SMILES IDX 10 24 11 25 12 26 13 27 14 29 15 30 16 31 74 32 17 33 73 34
REMARK SMILES IDX 18 35 19 36 20 37 67 38 21 39 72 40 66 41 68 42 22 43 71 44
REMARK SMILES IDX 65 45 64 46 23 48 53 49 34 50 52 51 35 52 38 53 51 54 69 55
REMARK SMILES IDX 36 56 37 57 50 59 70 60 39 61 24 62 25 63 33 64 26 65 32 66
REMARK SMILES IDX 27 67 28 68 29 69 30 70 31 71 54 72 55 73 63 74 56 75 62 76
REMARK SMILES IDX 57 77 58 78 59 79 60 80 61 81 40 82 41 83 49 84 42 85 48 86
REMARK SMILES IDX 43 87 44 88 45 89 46 90 47 91
REMARK H PARENT 5 7 12 28 68 47 38 58
REMARK Flexibility Score: inf
ROOT
ATOM      1  C   UNL A   1      33.238  36.045  29.073  1.00  0.00     0.002 C 
ENDROOT
BRANCH   1   2
ATOM      2  C   UNL A   1      33.201  36.405  30.566  1.00  0.00     0.021 C 
BRANCH   2   3
ATOM      3  C   UNL A   1      33.346  35.197  31.501  1.00  0.00     0.116 C 
BRANCH   3   4
ATOM      4  N   UNL A   1      34.194  35.545  32.625  1.00  0.00    -0.356 N 
ATOM      5  C   UNL A   1      35.142  34.800  33.266  1.00  0.00     0.227 C 
ATOM      6  O   UNL A   1      35.478  35.174  34.392  1.00  0.00    -0.274 OA
ATOM      7  H   UNL A   1      34.067  36.455  32.979  1.00  0.00     0.163 HD
BRANCH   5   8
ATOM      8  C   UNL A   1      35.755  33.568  32.569  1.00  0.00     0.108 C 
ATOM      9  C   UNL A   1      36.124  32.505  33.615  1.00  0.00     0.023 C 
BRANCH   8  10
ATOM     10  C   UNL A   1      36.930  33.952  31.665  1.00  0.00    -0.000 A 
ATOM     11  C   UNL A   1      36.925  33.734  30.279  1.00  0.00     0.008 A 
ATOM     12  C   UNL A   1      38.071  34.558  32.210  1.00  0.00     0.127 A 
ATOM     13  C   UNL A   1      38.025  34.078  29.489  1.00  0.00     0.004 A 
ATOM     14  C   UNL A   1      39.194  34.859  31.433  1.00  0.00     0.043 A 
ATOM     15  F   UNL A   1      38.100  34.871  33.515  1.00  0.00    -0.207 F 
ATOM     16  C   UNL A   1      39.191  34.607  30.056  1.00  0.00    -0.041 A 
BRANCH  16  17
ATOM     17  C   UNL A   1      40.380  34.952  29.191  1.00  0.00     0.072 C 
BRANCH  17  18
ATOM     18  C   UNL A   1      41.622  34.417  29.856  1.00  0.00    -0.033 A 
ATOM     19  C   UNL A   1      41.932  33.027  30.072  1.00  0.00     0.015 A 
ATOM     20  C   UNL A   1      42.679  35.205  30.282  1.00  0.00     0.068 A 
ATOM     21  C   UNL A   1      43.156  32.831  30.672  1.00  0.00     0.065 A 
ATOM     22  S   UNL A   1      43.973  34.302  30.943  1.00  0.00    -0.152 S 
ENDBRANCH  17  18
ENDBRANCH  16  17
ENDBRANCH   8  10
ENDBRANCH   5   8
ENDBRANCH   3   4
ENDBRANCH   2   3
ENDBRANCH   1   2
BRANCH   1  23
ATOM     23  C   UNL A   1      33.169  34.546  28.769  1.00  0.00     0.002 C 
BRANCH  23  24
ATOM     24  C   UNL A   1      34.105  34.074  27.656  1.00  0.00     0.021 C 
BRANCH  24  25
ATOM     25  C   UNL A   1      34.881  32.803  27.984  1.00  0.00     0.116 C 
BRANCH  25  26
ATOM     26  N   UNL A   1      34.126  31.604  27.650  1.00  0.00    -0.352 N 
ATOM     27  C   UNL A   1      34.555  30.299  27.637  1.00  0.00     0.251 C 
ATOM     28  H   UNL A   1      33.184  31.747  27.400  1.00  0.00     0.163 HD
ATOM     29  O   UNL A   1      33.859  29.418  27.142  1.00  0.00    -0.269 OA
BRANCH  27  30
ATOM     30  C   UNL A   1      35.875  29.972  28.213  1.00  0.00     0.039 A 
ATOM     31  C   UNL A   1      37.030  30.230  27.470  1.00  0.00     0.014 A 
ATOM     32  C   UNL A   1      35.964  29.439  29.502  1.00  0.00     0.014 A 
ATOM     33  C   UNL A   1      38.283  30.012  28.048  1.00  0.00     0.010 A 
ATOM     34  C   UNL A   1      37.210  29.288  30.098  1.00  0.00     0.010 A 
ATOM     35  C   UNL A   1      38.382  29.570  29.377  1.00  0.00    -0.014 A 
BRANCH  35  36
ATOM     36  C   UNL A   1      39.693  29.384  30.047  1.00  0.00     0.031 A 
ATOM     37  C   UNL A   1      40.619  28.295  29.580  1.00  0.00     0.074 A 
ATOM     38  C   UNL A   1      39.998  30.108  31.141  1.00  0.00     0.049 A 
ATOM     39  N   UNL A   1      41.730  27.867  30.121  1.00  0.00    -0.248 NA
ATOM     40  C   UNL A   1      40.220  27.570  28.363  1.00  0.00     0.031 C 
ATOM     41  C   UNL A   1      39.164  31.165  31.718  1.00  0.00     0.029 A 
ATOM     42  N   UNL A   1      41.081  30.042  31.983  1.00  0.00    -0.354 N 
ATOM     43  C   UNL A   1      42.144  26.800  29.332  1.00  0.00     0.074 A 
ATOM     44  C   UNL A   1      41.143  26.623  28.301  1.00  0.00     0.031 C 
ATOM     45  C   UNL A   1      39.764  31.646  32.818  1.00  0.00     0.029 A 
ATOM     46  C   UNL A   1      41.001  30.903  33.051  1.00  0.00     0.049 A 
ATOM     47  H   UNL A   1      41.842  29.436  31.835  1.00  0.00     0.167 HD
ATOM     48  C   UNL A   1      43.260  26.042  29.449  1.00  0.00     0.031 A 
ATOM     49  C   UNL A   1      41.814  31.063  34.114  1.00  0.00     0.031 A 
ATOM     50  C   UNL A   1      44.254  26.231  30.471  1.00  0.00     0.049 A 
ATOM     51  C   UNL A   1      43.054  30.222  34.225  1.00  0.00     0.074 A 
ATOM     52  C   UNL A   1      45.454  25.565  30.637  1.00  0.00     0.029 A 
ATOM     53  N   UNL A   1      44.160  27.151  31.506  1.00  0.00    -0.354 N 
ATOM     54  N   UNL A   1      43.469  29.265  33.430  1.00  0.00    -0.248 NA
ATOM     55  C   UNL A   1      43.941  30.487  35.365  1.00  0.00     0.031 C 
ATOM     56  C   UNL A   1      46.062  26.045  31.802  1.00  0.00     0.029 A 
ATOM     57  C   UNL A   1      45.268  27.053  32.329  1.00  0.00     0.049 A 
ATOM     58  H   UNL A   1      43.414  27.780  31.635  1.00  0.00     0.167 HD
ATOM     59  C   UNL A   1      44.680  28.830  33.958  1.00  0.00     0.074 A 
ATOM     60  C   UNL A   1      44.931  29.630  35.139  1.00  0.00     0.031 C 
ATOM     61  C   UNL A   1      45.509  27.860  33.499  1.00  0.00     0.031 A 
BRANCH  48  62
ATOM     62  C   UNL A   1      43.439  24.921  28.459  1.00  0.00    -0.014 A 
ATOM     63  C   UNL A   1      44.070  25.133  27.220  1.00  0.00     0.010 A 
ATOM     64  C   UNL A   1      42.957  23.636  28.769  1.00  0.00     0.010 A 
ATOM     65  C   UNL A   1      44.149  24.102  26.281  1.00  0.00     0.020 A 
ATOM     66  C   UNL A   1      43.064  22.593  27.845  1.00  0.00     0.020 A 
ATOM     67  C   UNL A   1      43.633  22.842  26.594  1.00  0.00     0.054 A 
BRANCH  67  68
ATOM     68  S   UNL A   1      43.718  21.529  25.347  1.00  0.00     0.124 S 
ATOM     69  O   UNL A   1      43.673  22.295  24.103  1.00  0.00    -0.237 OA
ATOM     70  O   UNL A   1      44.995  20.886  25.641  1.00  0.00    -0.237 OA
ATOM     71  O   UNL A   1      42.535  20.714  25.619  1.00  0.00    -0.744 OA
ENDBRANCH  67  68
ENDBRANCH  48  62
BRANCH  49  72
ATOM     72  C   UNL A   1      41.464  32.073  35.149  1.00  0.00    -0.014 A 
ATOM     73  C   UNL A   1      41.833  33.419  34.990  1.00  0.00     0.010 A 
ATOM     74  C   UNL A   1      40.687  31.703  36.263  1.00  0.00     0.010 A 
ATOM     75  C   UNL A   1      41.425  34.380  35.921  1.00  0.00     0.020 A 
ATOM     76  C   UNL A   1      40.257  32.664  37.183  1.00  0.00     0.020 A 
ATOM     77  C   UNL A   1      40.630  33.997  37.005  1.00  0.00     0.054 A 
BRANCH  77  78
ATOM     78  S   UNL A   1      40.026  35.277  38.141  1.00  0.00     0.124 S 
ATOM     79  O   UNL A   1      39.858  36.421  37.250  1.00  0.00    -0.237 OA
ATOM     80  O   UNL A   1      38.791  34.686  38.653  1.00  0.00    -0.237 OA
ATOM     81  O   UNL A   1      41.102  35.399  39.122  1.00  0.00    -0.744 OA
ENDBRANCH  77  78
ENDBRANCH  49  72
BRANCH  61  82
ATOM     82  C   UNL A   1      46.793  27.619  34.245  1.00  0.00    -0.014 A 
ATOM     83  C   UNL A   1      47.950  28.364  33.963  1.00  0.00     0.010 A 
ATOM     84  C   UNL A   1      46.803  26.712  35.321  1.00  0.00     0.010 A 
ATOM     85  C   UNL A   1      49.097  28.206  34.746  1.00  0.00     0.020 A 
ATOM     86  C   UNL A   1      47.939  26.570  36.121  1.00  0.00     0.020 A 
ATOM     87  C   UNL A   1      49.081  27.316  35.826  1.00  0.00     0.054 A 
BRANCH  87  88
ATOM     88  S   UNL A   1      50.549  27.203  36.886  1.00  0.00     0.124 S 
ATOM     89  O   UNL A   1      50.941  25.807  36.716  1.00  0.00    -0.237 OA
ATOM     90  O   UNL A   1      51.451  28.186  36.292  1.00  0.00    -0.237 OA
ATOM     91  O   UNL A   1      50.046  27.551  38.214  1.00  0.00    -0.744 OA
ENDBRANCH  87  88
ENDBRANCH  61  82
ENDBRANCH  35  36
ENDBRANCH  27  30
ENDBRANCH  25  26
ENDBRANCH  24  25
ENDBRANCH  23  24
ENDBRANCH   1  23
TORSDOF 19
ENDMDL
