MODEL 1
REMARK VINA RESULT:     -11.0      0.000      0.000
REMARK SMILES Cc1c(Cl)ccc2c1C=C(C(=O)NCCCCCCNC(=O)c1ccc(-c3c4nc(c(-c5ccc(S(=O)(=O)[O-])cc5)c5ccc([nH]5)c(-c5ccc(S(=O)(=O)[O-])cc5)c5nc(c(-c6ccc(S(=O)(=O)[O-])cc6)c6ccc3[nH]6)C=C5)C=C4)cc1)[C@@H](C(F)(F)F)O2
REMARK SMILES IDX 17 1 16 2 15 3 14 4 13 5 11 6 12 7 10 9 1 10 2 11 3 12 8 13
REMARK SMILES IDX 4 14 5 15 7 16 9 17 6 18 88 19 83 20 84 21 85 22 86 23 87 24
REMARK SMILES IDX 18 25 19 26 20 27 21 28 22 30 23 31 24 32 82 33 25 34 81 35
REMARK SMILES IDX 26 36 27 37 28 38 75 39 29 40 80 41 74 42 76 43 30 44 79 45
REMARK SMILES IDX 73 46 72 47 31 49 61 50 42 51 60 52 43 53 46 54 59 55 77 56
REMARK SMILES IDX 44 57 45 58 58 60 78 61 47 62 32 63 33 64 41 65 34 66 40 67
REMARK SMILES IDX 35 68 36 69 37 70 38 71 39 72 62 73 63 74 71 75 64 76 70 77
REMARK SMILES IDX 65 78 66 79 67 80 68 81 69 82 48 83 49 84 57 85 50 86 56 87
REMARK SMILES IDX 51 88 52 89 53 90 54 91 55 92
REMARK H PARENT 13 8 20 29 76 48 46 59
REMARK Flexibility Score: inf
ROOT
ATOM      1  C   UNL A   1      31.467  27.328  26.046  1.00  0.00     0.002 C 
ENDROOT
BRANCH   1   2
ATOM      2  C   UNL A   1      30.581  26.836  24.893  1.00  0.00     0.002 C 
BRANCH   2   3
ATOM      3  C   UNL A   1      31.333  26.353  23.649  1.00  0.00     0.021 C 
BRANCH   3   4
ATOM      4  C   UNL A   1      31.185  24.860  23.372  1.00  0.00     0.116 C 
BRANCH   4   5
ATOM      5  N   UNL A   1      30.684  24.148  24.533  1.00  0.00    -0.352 N 
ATOM      6  C   UNL A   1      31.064  23.096  25.293  1.00  0.00     0.251 C 
ATOM      7  O   UNL A   1      30.305  22.830  26.231  1.00  0.00    -0.270 OA
ATOM      8  H   UNL A   1      29.837  24.535  24.854  1.00  0.00     0.163 HD
BRANCH   6   9
ATOM      9  C   UNL A   1      32.295  22.271  25.085  1.00  0.00     0.067 C 
ATOM     10  C   UNL A   1      36.114  24.051  26.324  1.00  0.00     0.047 C 
ATOM     11  C   UNL A   1      35.959  22.648  25.789  1.00  0.00    -0.021 A 
ATOM     12  C   UNL A   1      37.121  21.864  25.598  1.00  0.00     0.044 A 
ATOM     13  C   UNL A   1      34.707  22.093  25.433  1.00  0.00     0.022 A 
ATOM     14  Cl  UNL A   1      38.701  22.462  25.983  1.00  0.00    -0.084 Cl
ATOM     15  C   UNL A   1      37.048  20.567  25.089  1.00  0.00     0.024 A 
ATOM     16  C   UNL A   1      34.661  20.793  24.905  1.00  0.00     0.128 A 
ATOM     17  C   UNL A   1      33.425  22.781  25.612  1.00  0.00     0.026 C 
ATOM     18  C   UNL A   1      35.815  20.030  24.746  1.00  0.00     0.048 A 
ATOM     19  O   UNL A   1      33.505  20.162  24.550  1.00  0.00    -0.475 OA
ATOM     20  C   UNL A   1      32.337  20.986  24.314  1.00  0.00     0.314 C 
BRANCH  20  21
ATOM     21  C   UNL A   1      32.153  21.187  22.800  1.00  0.00     0.429 C 
ATOM     22  F   UNL A   1      30.920  21.679  22.533  1.00  0.00    -0.167 F 
ATOM     23  F   UNL A   1      33.039  22.070  22.283  1.00  0.00    -0.167 F 
ATOM     24  F   UNL A   1      32.294  20.035  22.107  1.00  0.00    -0.167 F 
ENDBRANCH  20  21
ENDBRANCH   6   9
ENDBRANCH   4   5
ENDBRANCH   3   4
ENDBRANCH   2   3
ENDBRANCH   1   2
BRANCH   1  25
ATOM     25  C   UNL A   1      32.919  27.646  25.672  1.00  0.00     0.021 C 
BRANCH  25  26
ATOM     26  C   UNL A   1      33.773  28.155  26.828  1.00  0.00     0.116 C 
BRANCH  26  27
ATOM     27  N   UNL A   1      33.600  29.583  27.033  1.00  0.00    -0.352 N 
ATOM     28  C   UNL A   1      34.427  30.456  27.692  1.00  0.00     0.251 C 
ATOM     29  H   UNL A   1      32.781  29.974  26.651  1.00  0.00     0.163 HD
ATOM     30  O   UNL A   1      34.040  31.586  27.974  1.00  0.00    -0.269 OA
BRANCH  28  31
ATOM     31  C   UNL A   1      35.785  30.016  28.064  1.00  0.00     0.039 A 
ATOM     32  C   UNL A   1      36.811  30.107  27.122  1.00  0.00     0.014 A 
ATOM     33  C   UNL A   1      36.033  29.514  29.346  1.00  0.00     0.014 A 
ATOM     34  C   UNL A   1      38.106  29.726  27.480  1.00  0.00     0.010 A 
ATOM     35  C   UNL A   1      37.333  29.178  29.715  1.00  0.00     0.010 A 
ATOM     36  C   UNL A   1      38.375  29.271  28.781  1.00  0.00    -0.014 A 
BRANCH  36  37
ATOM     37  C   UNL A   1      39.739  28.838  29.167  1.00  0.00     0.031 A 
ATOM     38  C   UNL A   1      40.622  29.779  29.937  1.00  0.00     0.074 A 
ATOM     39  C   UNL A   1      40.187  27.621  28.804  1.00  0.00     0.049 A 
ATOM     40  N   UNL A   1      41.855  29.605  30.336  1.00  0.00    -0.248 NA
ATOM     41  C   UNL A   1      40.052  31.089  30.294  1.00  0.00     0.031 C 
ATOM     42  C   UNL A   1      39.424  26.627  28.047  1.00  0.00     0.029 A 
ATOM     43  N   UNL A   1      41.396  27.013  29.028  1.00  0.00    -0.354 N 
ATOM     44  C   UNL A   1      42.207  30.778  30.988  1.00  0.00     0.074 A 
ATOM     45  C   UNL A   1      41.077  31.676  30.897  1.00  0.00     0.031 C 
ATOM     46  C   UNL A   1      40.175  25.524  27.890  1.00  0.00     0.029 A 
ATOM     47  C   UNL A   1      41.480  25.742  28.510  1.00  0.00     0.049 A 
ATOM     48  H   UNL A   1      42.136  27.445  29.514  1.00  0.00     0.167 HD
ATOM     49  C   UNL A   1      43.362  31.075  31.627  1.00  0.00     0.031 A 
ATOM     50  C   UNL A   1      42.492  24.854  28.532  1.00  0.00     0.031 A 
ATOM     51  C   UNL A   1      44.479  30.176  31.733  1.00  0.00     0.049 A 
ATOM     52  C   UNL A   1      43.778  25.219  29.221  1.00  0.00     0.074 A 
ATOM     53  C   UNL A   1      45.679  30.376  32.392  1.00  0.00     0.029 A 
ATOM     54  N   UNL A   1      44.530  28.908  31.176  1.00  0.00    -0.354 N 
ATOM     55  N   UNL A   1      44.084  26.326  29.852  1.00  0.00    -0.248 NA
ATOM     56  C   UNL A   1      44.853  24.215  29.205  1.00  0.00     0.031 C 
ATOM     57  C   UNL A   1      46.472  29.240  32.201  1.00  0.00     0.029 A 
ATOM     58  C   UNL A   1      45.748  28.319  31.461  1.00  0.00     0.049 A 
ATOM     59  H   UNL A   1      43.807  28.491  30.655  1.00  0.00     0.167 HD
ATOM     60  C   UNL A   1      45.378  26.146  30.326  1.00  0.00     0.074 A 
ATOM     61  C   UNL A   1      45.797  24.823  29.915  1.00  0.00     0.031 C 
ATOM     62  C   UNL A   1      46.146  27.001  31.043  1.00  0.00     0.031 A 
BRANCH  49  63
ATOM     63  C   UNL A   1      43.478  32.421  32.280  1.00  0.00    -0.014 A 
ATOM     64  C   UNL A   1      43.089  32.602  33.619  1.00  0.00     0.010 A 
ATOM     65  C   UNL A   1      44.057  33.494  31.578  1.00  0.00     0.010 A 
ATOM     66  C   UNL A   1      43.272  33.837  34.245  1.00  0.00     0.020 A 
ATOM     67  C   UNL A   1      44.259  34.725  32.207  1.00  0.00     0.020 A 
ATOM     68  C   UNL A   1      43.864  34.888  33.537  1.00  0.00     0.054 A 
BRANCH  68  69
ATOM     69  S   UNL A   1      44.131  36.462  34.396  1.00  0.00     0.124 S 
ATOM     70  O   UNL A   1      43.319  37.384  33.604  1.00  0.00    -0.237 OA
ATOM     71  O   UNL A   1      43.629  36.177  35.737  1.00  0.00    -0.237 OA
ATOM     72  O   UNL A   1      45.574  36.672  34.302  1.00  0.00    -0.744 OA
ENDBRANCH  68  69
ENDBRANCH  49  63
BRANCH  50  73
ATOM     73  C   UNL A   1      42.317  23.520  27.898  1.00  0.00    -0.014 A 
ATOM     74  C   UNL A   1      42.894  23.251  26.646  1.00  0.00     0.010 A 
ATOM     75  C   UNL A   1      41.604  22.505  28.560  1.00  0.00     0.010 A 
ATOM     76  C   UNL A   1      42.759  21.988  26.063  1.00  0.00     0.020 A 
ATOM     77  C   UNL A   1      41.482  21.234  27.989  1.00  0.00     0.020 A 
ATOM     78  C   UNL A   1      42.061  20.985  26.743  1.00  0.00     0.054 A 
BRANCH  78  79
ATOM     79  S   UNL A   1      41.947  19.341  25.984  1.00  0.00     0.124 S 
ATOM     80  O   UNL A   1      42.498  18.481  27.028  1.00  0.00    -0.237 OA
ATOM     81  O   UNL A   1      40.512  19.210  25.748  1.00  0.00    -0.237 OA
ATOM     82  O   UNL A   1      42.764  19.461  24.779  1.00  0.00    -0.744 OA
ENDBRANCH  78  79
ENDBRANCH  50  73
BRANCH  62  83
ATOM     83  C   UNL A   1      47.518  26.541  31.450  1.00  0.00    -0.014 A 
ATOM     84  C   UNL A   1      47.716  25.857  32.660  1.00  0.00     0.010 A 
ATOM     85  C   UNL A   1      48.593  26.690  30.554  1.00  0.00     0.010 A 
ATOM     86  C   UNL A   1      48.971  25.328  32.970  1.00  0.00     0.020 A 
ATOM     87  C   UNL A   1      49.844  26.146  30.853  1.00  0.00     0.020 A 
ATOM     88  C   UNL A   1      50.024  25.465  32.059  1.00  0.00     0.054 A 
BRANCH  88  89
ATOM     89  S   UNL A   1      51.620  24.706  32.461  1.00  0.00     0.124 S 
ATOM     90  O   UNL A   1      51.367  23.293  32.188  1.00  0.00    -0.237 OA
ATOM     91  O   UNL A   1      52.528  25.372  31.532  1.00  0.00    -0.237 OA
ATOM     92  O   UNL A   1      51.821  25.038  33.870  1.00  0.00    -0.744 OA
ENDBRANCH  88  89
ENDBRANCH  62  83
ENDBRANCH  36  37
ENDBRANCH  28  31
ENDBRANCH  26  27
ENDBRANCH  25  26
ENDBRANCH   1  25
TORSDOF 17
ENDMDL
MODEL 2
REMARK VINA RESULT:     -10.9      1.492      2.140
REMARK SMILES Cc1c(Cl)ccc2c1C=C(C(=O)NCCCCCCNC(=O)c1ccc(-c3c4nc(c(-c5ccc(S(=O)(=O)[O-])cc5)c5ccc([nH]5)c(-c5ccc(S(=O)(=O)[O-])cc5)c5nc(c(-c6ccc(S(=O)(=O)[O-])cc6)c6ccc3[nH]6)C=C5)C=C4)cc1)[C@@H](C(F)(F)F)O2
REMARK SMILES IDX 17 1 16 2 15 3 14 4 13 5 11 6 12 7 10 9 1 10 2 11 3 12 8 13
REMARK SMILES IDX 4 14 5 15 7 16 9 17 6 18 88 19 83 20 84 21 85 22 86 23 87 24
REMARK SMILES IDX 18 25 19 26 20 27 21 28 22 30 23 31 24 32 82 33 25 34 81 35
REMARK SMILES IDX 26 36 27 37 28 38 75 39 29 40 80 41 74 42 76 43 30 44 79 45
REMARK SMILES IDX 73 46 72 47 31 49 61 50 42 51 60 52 43 53 46 54 59 55 77 56
REMARK SMILES IDX 44 57 45 58 58 60 78 61 47 62 32 63 33 64 41 65 34 66 40 67
REMARK SMILES IDX 35 68 36 69 37 70 38 71 39 72 62 73 63 74 71 75 64 76 70 77
REMARK SMILES IDX 65 78 66 79 67 80 68 81 69 82 48 83 49 84 57 85 50 86 56 87
REMARK SMILES IDX 51 88 52 89 53 90 54 91 55 92
REMARK H PARENT 13 8 20 29 76 48 46 59
REMARK Flexibility Score: inf
ROOT
ATOM      1  C   UNL A   1      32.615  27.893  24.571  1.00  0.00     0.002 C 
ENDROOT
BRANCH   1   2
ATOM      2  C   UNL A   1      32.772  27.599  23.073  1.00  0.00     0.002 C 
BRANCH   2   3
ATOM      3  C   UNL A   1      33.550  26.324  22.734  1.00  0.00     0.021 C 
BRANCH   3   4
ATOM      4  C   UNL A   1      32.757  25.307  21.919  1.00  0.00     0.116 C 
BRANCH   4   5
ATOM      5  N   UNL A   1      31.717  24.679  22.714  1.00  0.00    -0.352 N 
ATOM      6  C   UNL A   1      31.622  23.660  23.597  1.00  0.00     0.251 C 
ATOM      7  O   UNL A   1      30.490  23.472  24.057  1.00  0.00    -0.270 OA
ATOM      8  H   UNL A   1      30.844  25.112  22.571  1.00  0.00     0.163 HD
BRANCH   6   9
ATOM      9  C   UNL A   1      32.751  22.783  24.039  1.00  0.00     0.067 C 
ATOM     10  C   UNL A   1      32.253  18.458  23.463  1.00  0.00     0.047 C 
ATOM     11  C   UNL A   1      33.506  19.110  23.994  1.00  0.00    -0.021 A 
ATOM     12  C   UNL A   1      34.577  18.283  24.407  1.00  0.00     0.044 A 
ATOM     13  C   UNL A   1      33.646  20.511  24.133  1.00  0.00     0.022 A 
ATOM     14  Cl  UNL A   1      34.493  16.555  24.297  1.00  0.00    -0.084 Cl
ATOM     15  C   UNL A   1      35.755  18.823  24.925  1.00  0.00     0.024 A 
ATOM     16  C   UNL A   1      34.833  21.029  24.673  1.00  0.00     0.128 A 
ATOM     17  C   UNL A   1      32.631  21.482  23.712  1.00  0.00     0.026 C 
ATOM     18  C   UNL A   1      35.884  20.198  25.053  1.00  0.00     0.048 A 
ATOM     19  O   UNL A   1      35.075  22.362  24.830  1.00  0.00    -0.475 OA
ATOM     20  C   UNL A   1      33.932  23.253  24.835  1.00  0.00     0.314 C 
BRANCH  20  21
ATOM     21  C   UNL A   1      33.573  23.615  26.286  1.00  0.00     0.429 C 
ATOM     22  F   UNL A   1      33.295  24.936  26.392  1.00  0.00    -0.167 F 
ATOM     23  F   UNL A   1      32.477  22.956  26.729  1.00  0.00    -0.167 F 
ATOM     24  F   UNL A   1      34.576  23.336  27.149  1.00  0.00    -0.167 F 
ENDBRANCH  20  21
ENDBRANCH   6   9
ENDBRANCH   4   5
ENDBRANCH   3   4
ENDBRANCH   2   3
ENDBRANCH   1   2
BRANCH   1  25
ATOM     25  C   UNL A   1      33.912  27.871  25.386  1.00  0.00     0.021 C 
BRANCH  25  26
ATOM     26  C   UNL A   1      33.737  28.206  26.863  1.00  0.00     0.116 C 
BRANCH  26  27
ATOM     27  N   UNL A   1      33.566  29.633  27.072  1.00  0.00    -0.352 N 
ATOM     28  C   UNL A   1      34.395  30.505  27.730  1.00  0.00     0.251 C 
ATOM     29  H   UNL A   1      32.747  30.026  26.691  1.00  0.00     0.163 HD
ATOM     30  O   UNL A   1      34.010  31.635  28.015  1.00  0.00    -0.269 OA
BRANCH  28  31
ATOM     31  C   UNL A   1      35.753  30.063  28.100  1.00  0.00     0.039 A 
ATOM     32  C   UNL A   1      36.773  30.132  27.150  1.00  0.00     0.014 A 
ATOM     33  C   UNL A   1      36.007  29.578  29.389  1.00  0.00     0.014 A 
ATOM     34  C   UNL A   1      38.068  29.749  27.505  1.00  0.00     0.010 A 
ATOM     35  C   UNL A   1      37.307  29.240  29.753  1.00  0.00     0.010 A 
ATOM     36  C   UNL A   1      38.344  29.312  28.811  1.00  0.00    -0.014 A 
BRANCH  36  37
ATOM     37  C   UNL A   1      39.707  28.877  29.194  1.00  0.00     0.031 A 
ATOM     38  C   UNL A   1      40.593  29.816  29.963  1.00  0.00     0.074 A 
ATOM     39  C   UNL A   1      40.152  27.660  28.830  1.00  0.00     0.049 A 
ATOM     40  N   UNL A   1      41.826  29.639  30.361  1.00  0.00    -0.248 NA
ATOM     41  C   UNL A   1      40.026  31.127  30.323  1.00  0.00     0.031 C 
ATOM     42  C   UNL A   1      39.387  26.667  28.073  1.00  0.00     0.029 A 
ATOM     43  N   UNL A   1      41.362  27.050  29.052  1.00  0.00    -0.354 N 
ATOM     44  C   UNL A   1      42.181  30.812  31.013  1.00  0.00     0.074 A 
ATOM     45  C   UNL A   1      41.053  31.711  30.924  1.00  0.00     0.031 C 
ATOM     46  C   UNL A   1      40.136  25.564  27.915  1.00  0.00     0.029 A 
ATOM     47  C   UNL A   1      41.442  25.779  28.532  1.00  0.00     0.049 A 
ATOM     48  H   UNL A   1      42.102  27.480  29.537  1.00  0.00     0.167 HD
ATOM     49  C   UNL A   1      43.338  31.106  31.650  1.00  0.00     0.031 A 
ATOM     50  C   UNL A   1      42.453  24.889  28.552  1.00  0.00     0.031 A 
ATOM     51  C   UNL A   1      44.453  30.206  31.754  1.00  0.00     0.049 A 
ATOM     52  C   UNL A   1      43.741  25.251  29.239  1.00  0.00     0.074 A 
ATOM     53  C   UNL A   1      45.655  30.403  32.410  1.00  0.00     0.029 A 
ATOM     54  N   UNL A   1      44.501  28.938  31.195  1.00  0.00    -0.354 N 
ATOM     55  N   UNL A   1      44.049  26.358  29.870  1.00  0.00    -0.248 NA
ATOM     56  C   UNL A   1      44.814  24.247  29.221  1.00  0.00     0.031 C 
ATOM     57  C   UNL A   1      46.446  29.267  32.218  1.00  0.00     0.029 A 
ATOM     58  C   UNL A   1      45.719  28.347  31.478  1.00  0.00     0.049 A 
ATOM     59  H   UNL A   1      43.777  28.522  30.675  1.00  0.00     0.167 HD
ATOM     60  C   UNL A   1      45.344  26.176  30.343  1.00  0.00     0.074 A 
ATOM     61  C   UNL A   1      45.760  24.852  29.929  1.00  0.00     0.031 C 
ATOM     62  C   UNL A   1      46.115  27.028  31.058  1.00  0.00     0.031 A 
BRANCH  49  63
ATOM     63  C   UNL A   1      43.457  32.452  32.304  1.00  0.00    -0.014 A 
ATOM     64  C   UNL A   1      43.758  33.593  31.540  1.00  0.00     0.010 A 
ATOM     65  C   UNL A   1      43.185  32.593  33.677  1.00  0.00     0.010 A 
ATOM     66  C   UNL A   1      43.791  34.854  32.140  1.00  0.00     0.020 A 
ATOM     67  C   UNL A   1      43.198  33.855  34.276  1.00  0.00     0.020 A 
ATOM     68  C   UNL A   1      43.502  34.978  33.502  1.00  0.00     0.054 A 
BRANCH  68  69
ATOM     69  S   UNL A   1      43.505  36.635  34.237  1.00  0.00     0.124 S 
ATOM     70  O   UNL A   1      43.832  37.478  33.088  1.00  0.00    -0.237 OA
ATOM     71  O   UNL A   1      42.139  36.758  34.738  1.00  0.00    -0.237 OA
ATOM     72  O   UNL A   1      44.541  36.561  35.264  1.00  0.00    -0.744 OA
ENDBRANCH  68  69
ENDBRANCH  49  63
BRANCH  50  73
ATOM     73  C   UNL A   1      42.275  23.556  27.918  1.00  0.00    -0.014 A 
ATOM     74  C   UNL A   1      42.742  23.326  26.613  1.00  0.00     0.010 A 
ATOM     75  C   UNL A   1      41.669  22.504  28.627  1.00  0.00     0.010 A 
ATOM     76  C   UNL A   1      42.606  22.064  26.026  1.00  0.00     0.020 A 
ATOM     77  C   UNL A   1      41.548  21.236  28.052  1.00  0.00     0.020 A 
ATOM     78  C   UNL A   1      42.017  21.025  26.754  1.00  0.00     0.054 A 
BRANCH  78  79
ATOM     79  S   UNL A   1      41.902  19.386  25.985  1.00  0.00     0.124 S 
ATOM     80  O   UNL A   1      40.472  19.276  25.708  1.00  0.00    -0.237 OA
ATOM     81  O   UNL A   1      42.763  19.535  24.814  1.00  0.00    -0.237 OA
ATOM     82  O   UNL A   1      42.410  18.484  27.015  1.00  0.00    -0.744 OA
ENDBRANCH  78  79
ENDBRANCH  50  73
BRANCH  62  83
ATOM     83  C   UNL A   1      47.486  26.566  31.463  1.00  0.00    -0.014 A 
ATOM     84  C   UNL A   1      47.714  26.026  32.738  1.00  0.00     0.010 A 
ATOM     85  C   UNL A   1      48.525  26.563  30.513  1.00  0.00     0.010 A 
ATOM     86  C   UNL A   1      48.963  25.488  33.060  1.00  0.00     0.020 A 
ATOM     87  C   UNL A   1      49.768  26.009  30.825  1.00  0.00     0.020 A 
ATOM     88  C   UNL A   1      49.978  25.472  32.097  1.00  0.00     0.054 A 
BRANCH  88  89
ATOM     89  S   UNL A   1      51.563  24.703  32.524  1.00  0.00     0.124 S 
ATOM     90  O   UNL A   1      51.636  24.927  33.965  1.00  0.00    -0.237 OA
ATOM     91  O   UNL A   1      51.360  23.316  32.113  1.00  0.00    -0.237 OA
ATOM     92  O   UNL A   1      52.539  25.448  31.731  1.00  0.00    -0.744 OA
ENDBRANCH  88  89
ENDBRANCH  62  83
ENDBRANCH  36  37
ENDBRANCH  28  31
ENDBRANCH  26  27
ENDBRANCH  25  26
ENDBRANCH   1  25
TORSDOF 17
ENDMDL
MODEL 3
REMARK VINA RESULT:     -10.7      4.302     10.016
REMARK SMILES Cc1c(Cl)ccc2c1C=C(C(=O)NCCCCCCNC(=O)c1ccc(-c3c4nc(c(-c5ccc(S(=O)(=O)[O-])cc5)c5ccc([nH]5)c(-c5ccc(S(=O)(=O)[O-])cc5)c5nc(c(-c6ccc(S(=O)(=O)[O-])cc6)c6ccc3[nH]6)C=C5)C=C4)cc1)[C@@H](C(F)(F)F)O2
REMARK SMILES IDX 17 1 16 2 15 3 14 4 13 5 11 6 12 7 10 9 1 10 2 11 3 12 8 13
REMARK SMILES IDX 4 14 5 15 7 16 9 17 6 18 88 19 83 20 84 21 85 22 86 23 87 24
REMARK SMILES IDX 18 25 19 26 20 27 21 28 22 30 23 31 24 32 82 33 25 34 81 35
REMARK SMILES IDX 26 36 27 37 28 38 75 39 29 40 80 41 74 42 76 43 30 44 79 45
REMARK SMILES IDX 73 46 72 47 31 49 61 50 42 51 60 52 43 53 46 54 59 55 77 56
REMARK SMILES IDX 44 57 45 58 58 60 78 61 47 62 32 63 33 64 41 65 34 66 40 67
REMARK SMILES IDX 35 68 36 69 37 70 38 71 39 72 62 73 63 74 71 75 64 76 70 77
REMARK SMILES IDX 65 78 66 79 67 80 68 81 69 82 48 83 49 84 57 85 50 86 56 87
REMARK SMILES IDX 51 88 52 89 53 90 54 91 55 92
REMARK H PARENT 13 8 20 29 76 48 46 59
REMARK Flexibility Score: inf
ROOT
ATOM      1  C   UNL A   1      41.022  21.663  27.686  1.00  0.00     0.002 C 
ENDROOT
BRANCH   1   2
ATOM      2  C   UNL A   1      40.033  22.537  26.903  1.00  0.00     0.002 C 
BRANCH   2   3
ATOM      3  C   UNL A   1      39.034  21.773  26.029  1.00  0.00     0.021 C 
BRANCH   3   4
ATOM      4  C   UNL A   1      37.720  22.511  25.796  1.00  0.00     0.116 C 
BRANCH   4   5
ATOM      5  N   UNL A   1      37.434  22.661  24.380  1.00  0.00    -0.352 N 
ATOM      6  C   UNL A   1      36.351  22.896  23.606  1.00  0.00     0.251 C 
ATOM      7  O   UNL A   1      36.581  22.956  22.393  1.00  0.00    -0.270 OA
ATOM      8  H   UNL A   1      38.250  22.565  23.837  1.00  0.00     0.163 HD
BRANCH   6   9
ATOM      9  C   UNL A   1      34.951  23.085  24.100  1.00  0.00     0.067 C 
ATOM     10  C   UNL A   1      33.992  26.964  25.921  1.00  0.00     0.047 C 
ATOM     11  C   UNL A   1      32.990  25.859  25.690  1.00  0.00    -0.021 A 
ATOM     12  C   UNL A   1      31.665  26.038  26.150  1.00  0.00     0.044 A 
ATOM     13  C   UNL A   1      33.327  24.633  25.066  1.00  0.00     0.022 A 
ATOM     14  Cl  UNL A   1      31.161  27.493  26.944  1.00  0.00    -0.084 Cl
ATOM     15  C   UNL A   1      30.697  25.046  25.984  1.00  0.00     0.024 A 
ATOM     16  C   UNL A   1      32.340  23.644  24.928  1.00  0.00     0.128 A 
ATOM     17  C   UNL A   1      34.650  24.331  24.513  1.00  0.00     0.026 C 
ATOM     18  C   UNL A   1      31.035  23.850  25.368  1.00  0.00     0.048 A 
ATOM     19  O   UNL A   1      32.556  22.440  24.325  1.00  0.00    -0.475 OA
ATOM     20  C   UNL A   1      33.929  21.992  24.196  1.00  0.00     0.314 C 
BRANCH  20  21
ATOM     21  C   UNL A   1      34.240  20.975  25.308  1.00  0.00     0.429 C 
ATOM     22  F   UNL A   1      34.606  21.611  26.446  1.00  0.00    -0.167 F 
ATOM     23  F   UNL A   1      33.170  20.209  25.624  1.00  0.00    -0.167 F 
ATOM     24  F   UNL A   1      35.241  20.133  24.969  1.00  0.00    -0.167 F 
ENDBRANCH  20  21
ENDBRANCH   6   9
ENDBRANCH   4   5
ENDBRANCH   3   4
ENDBRANCH   2   3
ENDBRANCH   1   2
BRANCH   1  25
ATOM     25  C   UNL A   1      42.495  21.823  27.297  1.00  0.00     0.021 C 
BRANCH  25  26
ATOM     26  C   UNL A   1      43.051  23.230  27.484  1.00  0.00     0.116 C 
BRANCH  26  27
ATOM     27  N   UNL A   1      43.024  23.985  26.243  1.00  0.00    -0.352 N 
ATOM     28  C   UNL A   1      42.569  25.261  26.030  1.00  0.00     0.251 C 
ATOM     29  H   UNL A   1      43.379  23.519  25.451  1.00  0.00     0.163 HD
ATOM     30  O   UNL A   1      42.407  25.681  24.888  1.00  0.00    -0.269 OA
BRANCH  28  31
ATOM     31  C   UNL A   1      42.268  26.119  27.192  1.00  0.00     0.039 A 
ATOM     32  C   UNL A   1      43.059  27.244  27.429  1.00  0.00     0.014 A 
ATOM     33  C   UNL A   1      41.204  25.800  28.043  1.00  0.00     0.014 A 
ATOM     34  C   UNL A   1      42.757  28.080  28.506  1.00  0.00     0.010 A 
ATOM     35  C   UNL A   1      40.878  26.659  29.088  1.00  0.00     0.010 A 
ATOM     36  C   UNL A   1      41.659  27.798  29.334  1.00  0.00    -0.014 A 
BRANCH  36  37
ATOM     37  C   UNL A   1      41.343  28.661  30.496  1.00  0.00     0.031 A 
ATOM     38  C   UNL A   1      42.169  28.549  31.747  1.00  0.00     0.074 A 
ATOM     39  C   UNL A   1      40.306  29.517  30.436  1.00  0.00     0.049 A 
ATOM     40  N   UNL A   1      42.032  29.186  32.880  1.00  0.00    -0.248 NA
ATOM     41  C   UNL A   1      43.286  27.589  31.726  1.00  0.00     0.031 C 
ATOM     42  C   UNL A   1      39.426  29.705  29.280  1.00  0.00     0.029 A 
ATOM     43  N   UNL A   1      39.816  30.392  31.373  1.00  0.00    -0.354 N 
ATOM     44  C   UNL A   1      43.040  28.706  33.705  1.00  0.00     0.074 A 
ATOM     45  C   UNL A   1      43.757  27.694  32.961  1.00  0.00     0.031 C 
ATOM     46  C   UNL A   1      38.521  30.655  29.568  1.00  0.00     0.029 A 
ATOM     47  C   UNL A   1      38.736  31.122  30.935  1.00  0.00     0.049 A 
ATOM     48  H   UNL A   1      40.202  30.490  32.273  1.00  0.00     0.167 HD
ATOM     49  C   UNL A   1      43.356  29.089  34.963  1.00  0.00     0.031 A 
ATOM     50  C   UNL A   1      38.004  32.062  31.564  1.00  0.00     0.031 A 
ATOM     51  C   UNL A   1      42.654  30.108  35.695  1.00  0.00     0.049 A 
ATOM     52  C   UNL A   1      38.354  32.449  32.974  1.00  0.00     0.074 A 
ATOM     53  C   UNL A   1      42.924  30.589  36.964  1.00  0.00     0.029 A 
ATOM     54  N   UNL A   1      41.554  30.805  35.224  1.00  0.00    -0.354 N 
ATOM     55  N   UNL A   1      39.326  31.998  33.729  1.00  0.00    -0.248 NA
ATOM     56  C   UNL A   1      37.515  33.471  33.615  1.00  0.00     0.031 C 
ATOM     57  C   UNL A   1      41.962  31.554  37.275  1.00  0.00     0.029 A 
ATOM     58  C   UNL A   1      41.121  31.703  36.183  1.00  0.00     0.049 A 
ATOM     59  H   UNL A   1      41.142  30.680  34.339  1.00  0.00     0.167 HD
ATOM     60  C   UNL A   1      39.228  32.696  34.927  1.00  0.00     0.074 A 
ATOM     61  C   UNL A   1      38.107  33.602  34.796  1.00  0.00     0.031 C 
ATOM     62  C   UNL A   1      40.003  32.597  36.034  1.00  0.00     0.031 A 
BRANCH  49  63
ATOM     63  C   UNL A   1      44.522  28.420  35.629  1.00  0.00    -0.014 A 
ATOM     64  C   UNL A   1      45.812  28.971  35.535  1.00  0.00     0.010 A 
ATOM     65  C   UNL A   1      44.316  27.279  36.425  1.00  0.00     0.010 A 
ATOM     66  C   UNL A   1      46.879  28.388  36.221  1.00  0.00     0.020 A 
ATOM     67  C   UNL A   1      45.378  26.705  37.128  1.00  0.00     0.020 A 
ATOM     68  C   UNL A   1      46.654  27.264  37.020  1.00  0.00     0.054 A 
BRANCH  68  69
ATOM     69  S   UNL A   1      48.053  26.562  37.936  1.00  0.00     0.124 S 
ATOM     70  O   UNL A   1      47.993  25.153  37.553  1.00  0.00    -0.237 OA
ATOM     71  O   UNL A   1      49.186  27.312  37.400  1.00  0.00    -0.237 OA
ATOM     72  O   UNL A   1      47.729  26.838  39.333  1.00  0.00    -0.744 OA
ENDBRANCH  68  69
ENDBRANCH  49  63
BRANCH  50  73
ATOM     73  C   UNL A   1      36.877  32.719  30.850  1.00  0.00    -0.014 A 
ATOM     74  C   UNL A   1      35.550  32.453  31.227  1.00  0.00     0.010 A 
ATOM     75  C   UNL A   1      37.127  33.637  29.814  1.00  0.00     0.010 A 
ATOM     76  C   UNL A   1      34.490  33.095  30.579  1.00  0.00     0.020 A 
ATOM     77  C   UNL A   1      36.071  34.294  29.176  1.00  0.00     0.020 A 
ATOM     78  C   UNL A   1      34.759  34.018  29.564  1.00  0.00     0.054 A 
BRANCH  78  79
ATOM     79  S   UNL A   1      33.365  34.872  28.778  1.00  0.00     0.124 S 
ATOM     80  O   UNL A   1      32.436  35.039  29.893  1.00  0.00    -0.237 OA
ATOM     81  O   UNL A   1      33.991  36.098  28.288  1.00  0.00    -0.237 OA
ATOM     82  O   UNL A   1      32.932  33.941  27.738  1.00  0.00    -0.744 OA
ENDBRANCH  78  79
ENDBRANCH  50  73
BRANCH  62  83
ATOM     83  C   UNL A   1      39.687  33.495  37.196  1.00  0.00    -0.014 A 
ATOM     84  C   UNL A   1      38.826  33.069  38.220  1.00  0.00     0.010 A 
ATOM     85  C   UNL A   1      40.357  34.726  37.323  1.00  0.00     0.010 A 
ATOM     86  C   UNL A   1      38.637  33.861  39.354  1.00  0.00     0.020 A 
ATOM     87  C   UNL A   1      40.185  35.512  38.464  1.00  0.00     0.020 A 
ATOM     88  C   UNL A   1      39.327  35.073  39.474  1.00  0.00     0.054 A 
BRANCH  88  89
ATOM     89  S   UNL A   1      39.113  36.043  40.991  1.00  0.00     0.124 S 
ATOM     90  O   UNL A   1      38.099  35.275  41.708  1.00  0.00    -0.237 OA
ATOM     91  O   UNL A   1      40.452  36.014  41.573  1.00  0.00    -0.237 OA
ATOM     92  O   UNL A   1      38.673  37.352  40.510  1.00  0.00    -0.744 OA
ENDBRANCH  88  89
ENDBRANCH  62  83
ENDBRANCH  36  37
ENDBRANCH  28  31
ENDBRANCH  26  27
ENDBRANCH  25  26
ENDBRANCH   1  25
TORSDOF 17
ENDMDL
