MODEL 1
REMARK VINA RESULT:      -9.4      0.000      0.000
REMARK SMILES CS(=O)(=O)c1ccc(/C=C(/C(=O)NCCCCCCNC(=O)c2ccc(-c3c4nc(c(-c5ccc(S(=O)(=O)[O-])cc5)c5ccc([nH]5)c(-c5ccc(S(=O)(=O)[O-])cc5)c5nc(c(-c6ccc(S(=O)(=O)[O-])cc6)c6ccc3[nH]6)C=C5)C=C4)cc2)c2ccc(-c3ccc(F)cc3F)cc2)cc1
REMARK SMILES IDX 17 1 16 2 15 3 14 4 13 5 11 6 12 7 10 9 9 10 8 11 5 12 6 13
REMARK SMILES IDX 98 14 7 15 97 16 2 17 1 18 3 19 4 20 83 21 84 22 96 23 85 24
REMARK SMILES IDX 95 25 86 26 87 27 88 28 93 29 89 30 92 31 94 32 90 33 91 34
REMARK SMILES IDX 18 35 19 36 20 37 21 38 22 40 23 41 24 42 82 43 25 44 81 45
REMARK SMILES IDX 26 46 27 47 28 48 75 49 29 50 80 51 74 52 76 53 30 54 79 55
REMARK SMILES IDX 73 56 72 57 31 59 61 60 42 61 60 62 43 63 46 64 59 65 77 66
REMARK SMILES IDX 44 67 45 68 58 70 78 71 47 72 32 73 33 74 41 75 34 76 40 77
REMARK SMILES IDX 35 78 36 79 37 80 38 81 39 82 62 83 63 84 71 85 64 86 70 87
REMARK SMILES IDX 65 88 66 89 67 90 68 91 69 92 48 93 49 94 57 95 50 96 56 97
REMARK SMILES IDX 51 98 52 99 53 100 54 101 55 102
REMARK H PARENT 13 8 20 39 76 58 46 69
REMARK Flexibility Score: inf
ROOT
ATOM      1  C   UNL A   1      44.747  40.324  34.161  1.00  0.00     0.002 C 
ENDROOT
BRANCH   1   2
ATOM      2  C   UNL A   1      43.732  40.257  33.013  1.00  0.00     0.002 C 
BRANCH   2   3
ATOM      3  C   UNL A   1      43.290  41.619  32.451  1.00  0.00     0.021 C 
BRANCH   3   4
ATOM      4  C   UNL A   1      43.242  41.664  30.922  1.00  0.00     0.116 C 
BRANCH   4   5
ATOM      5  N   UNL A   1      41.863  41.619  30.476  1.00  0.00    -0.352 N 
ATOM      6  C   UNL A   1      41.222  41.038  29.431  1.00  0.00     0.251 C 
ATOM      7  O   UNL A   1      40.023  41.314  29.315  1.00  0.00    -0.269 OA
ATOM      8  H   UNL A   1      41.255  42.122  31.065  1.00  0.00     0.163 HD
BRANCH   6   9
ATOM      9  C   UNL A   1      41.866  40.041  28.495  1.00  0.00     0.047 C 
ATOM     10  C   UNL A   1      42.257  38.807  28.890  1.00  0.00     0.022 C 
BRANCH  10  11
ATOM     11  C   UNL A   1      42.798  37.695  28.076  1.00  0.00    -0.025 A 
ATOM     12  C   UNL A   1      43.967  35.560  26.671  1.00  0.00     0.067 A 
ATOM     13  C   UNL A   1      42.583  35.734  26.646  1.00  0.00     0.021 A 
ATOM     14  C   UNL A   1      44.780  36.468  27.349  1.00  0.00     0.021 A 
ATOM     15  C   UNL A   1      42.006  36.808  27.334  1.00  0.00     0.009 A 
ATOM     16  C   UNL A   1      44.193  37.529  28.046  1.00  0.00     0.009 A 
BRANCH  12  17
ATOM     17  S   UNL A   1      44.699  34.181  25.821  1.00  0.00     0.175 S 
ATOM     18  C   UNL A   1      43.590  33.841  24.479  1.00  0.00     0.163 C 
ATOM     19  O   UNL A   1      44.654  33.039  26.709  1.00  0.00    -0.224 OA
ATOM     20  O   UNL A   1      45.953  34.652  25.260  1.00  0.00    -0.224 OA
ENDBRANCH  12  17
ENDBRANCH  10  11
BRANCH   9  21
ATOM     21  C   UNL A   1      42.244  40.545  27.150  1.00  0.00    -0.013 A 
ATOM     22  C   UNL A   1      41.281  40.495  26.135  1.00  0.00     0.009 A 
ATOM     23  C   UNL A   1      43.475  41.148  26.880  1.00  0.00     0.009 A 
ATOM     24  C   UNL A   1      41.516  41.094  24.898  1.00  0.00     0.009 A 
ATOM     25  C   UNL A   1      43.700  41.766  25.640  1.00  0.00     0.009 A 
ATOM     26  C   UNL A   1      42.711  41.780  24.639  1.00  0.00    -0.015 A 
BRANCH  26  27
ATOM     27  C   UNL A   1      42.875  42.531  23.379  1.00  0.00     0.018 A 
ATOM     28  C   UNL A   1      44.166  42.882  22.929  1.00  0.00     0.015 A 
ATOM     29  C   UNL A   1      41.788  42.922  22.579  1.00  0.00     0.133 A 
ATOM     30  C   UNL A   1      44.355  43.599  21.746  1.00  0.00     0.040 A 
ATOM     31  C   UNL A   1      41.966  43.635  21.395  1.00  0.00     0.079 A 
ATOM     32  F   UNL A   1      40.533  42.623  22.946  1.00  0.00    -0.206 F 
ATOM     33  C   UNL A   1      43.250  43.970  20.991  1.00  0.00     0.126 A 
ATOM     34  F   UNL A   1      43.430  44.658  19.858  1.00  0.00    -0.207 F 
ENDBRANCH  26  27
ENDBRANCH   9  21
ENDBRANCH   6   9
ENDBRANCH   4   5
ENDBRANCH   3   4
ENDBRANCH   2   3
ENDBRANCH   1   2
BRANCH   1  35
ATOM     35  C   UNL A   1      46.073  39.609  33.894  1.00  0.00     0.021 C 
BRANCH  35  36
ATOM     36  C   UNL A   1      46.492  39.580  32.425  1.00  0.00     0.116 C 
BRANCH  36  37
ATOM     37  N   UNL A   1      47.912  39.303  32.272  1.00  0.00    -0.352 N 
ATOM     38  C   UNL A   1      48.527  38.114  31.959  1.00  0.00     0.251 C 
ATOM     39  H   UNL A   1      48.513  40.069  32.411  1.00  0.00     0.163 HD
ATOM     40  O   UNL A   1      49.743  37.997  32.068  1.00  0.00    -0.269 OA
BRANCH  38  41
ATOM     41  C   UNL A   1      47.706  36.970  31.511  1.00  0.00     0.039 A 
ATOM     42  C   UNL A   1      47.252  36.933  30.190  1.00  0.00     0.014 A 
ATOM     43  C   UNL A   1      47.405  35.928  32.393  1.00  0.00     0.014 A 
ATOM     44  C   UNL A   1      46.557  35.811  29.731  1.00  0.00     0.010 A 
ATOM     45  C   UNL A   1      46.759  34.789  31.919  1.00  0.00     0.010 A 
ATOM     46  C   UNL A   1      46.339  34.716  30.583  1.00  0.00    -0.014 A 
BRANCH  46  47
ATOM     47  C   UNL A   1      45.699  33.469  30.096  1.00  0.00     0.031 A 
ATOM     48  C   UNL A   1      44.224  33.254  30.284  1.00  0.00     0.074 A 
ATOM     49  C   UNL A   1      46.463  32.492  29.567  1.00  0.00     0.049 A 
ATOM     50  N   UNL A   1      43.508  32.188  30.031  1.00  0.00    -0.248 NA
ATOM     51  C   UNL A   1      43.457  34.376  30.848  1.00  0.00     0.031 C 
ATOM     52  C   UNL A   1      47.911  32.567  29.358  1.00  0.00     0.029 A 
ATOM     53  N   UNL A   1      46.129  31.236  29.124  1.00  0.00    -0.354 N 
ATOM     54  C   UNL A   1      42.212  32.502  30.423  1.00  0.00     0.074 A 
ATOM     55  C   UNL A   1      42.247  33.845  30.962  1.00  0.00     0.031 C 
ATOM     56  C   UNL A   1      48.337  31.414  28.819  1.00  0.00     0.029 A 
ATOM     57  C   UNL A   1      47.205  30.503  28.683  1.00  0.00     0.049 A 
ATOM     58  H   UNL A   1      45.206  30.892  29.124  1.00  0.00     0.167 HD
ATOM     59  C   UNL A   1      41.092  31.746  30.331  1.00  0.00     0.031 A 
ATOM     60  C   UNL A   1      47.278  29.234  28.236  1.00  0.00     0.031 A 
ATOM     61  C   UNL A   1      41.057  30.416  29.786  1.00  0.00     0.049 A 
ATOM     62  C   UNL A   1      46.027  28.404  28.169  1.00  0.00     0.074 A 
ATOM     63  C   UNL A   1      39.961  29.593  29.595  1.00  0.00     0.029 A 
ATOM     64  N   UNL A   1      42.169  29.711  29.350  1.00  0.00    -0.354 N 
ATOM     65  N   UNL A   1      44.800  28.739  28.493  1.00  0.00    -0.248 NA
ATOM     66  C   UNL A   1      46.168  27.025  27.681  1.00  0.00     0.031 C 
ATOM     67  C   UNL A   1      40.416  28.372  29.085  1.00  0.00     0.029 A 
ATOM     68  C   UNL A   1      41.790  28.451  28.916  1.00  0.00     0.049 A 
ATOM     69  H   UNL A   1      43.091  30.054  29.348  1.00  0.00     0.167 HD
ATOM     70  C   UNL A   1      44.022  27.617  28.232  1.00  0.00     0.074 A 
ATOM     71  C   UNL A   1      44.912  26.599  27.713  1.00  0.00     0.031 C 
ATOM     72  C   UNL A   1      42.689  27.447  28.408  1.00  0.00     0.031 A 
BRANCH  59  73
ATOM     73  C   UNL A   1      39.810  32.345  30.843  1.00  0.00    -0.014 A 
ATOM     74  C   UNL A   1      39.507  32.341  32.216  1.00  0.00     0.010 A 
ATOM     75  C   UNL A   1      38.910  32.945  29.944  1.00  0.00     0.010 A 
ATOM     76  C   UNL A   1      38.306  32.885  32.677  1.00  0.00     0.020 A 
ATOM     77  C   UNL A   1      37.718  33.513  30.404  1.00  0.00     0.020 A 
ATOM     78  C   UNL A   1      37.415  33.462  31.766  1.00  0.00     0.054 A 
BRANCH  78  79
ATOM     79  S   UNL A   1      35.865  34.169  32.390  1.00  0.00     0.124 S 
ATOM     80  O   UNL A   1      36.353  35.143  33.364  1.00  0.00    -0.237 OA
ATOM     81  O   UNL A   1      35.262  34.735  31.186  1.00  0.00    -0.237 OA
ATOM     82  O   UNL A   1      35.162  33.021  32.956  1.00  0.00    -0.744 OA
ENDBRANCH  78  79
ENDBRANCH  59  73
BRANCH  60  83
ATOM     83  C   UNL A   1      48.590  28.673  27.817  1.00  0.00    -0.014 A 
ATOM     84  C   UNL A   1      49.018  28.788  26.483  1.00  0.00     0.010 A 
ATOM     85  C   UNL A   1      49.427  28.041  28.755  1.00  0.00     0.010 A 
ATOM     86  C   UNL A   1      50.259  28.278  26.094  1.00  0.00     0.020 A 
ATOM     87  C   UNL A   1      50.678  27.550  28.373  1.00  0.00     0.020 A 
ATOM     88  C   UNL A   1      51.083  27.664  27.041  1.00  0.00     0.054 A 
BRANCH  88  89
ATOM     89  S   UNL A   1      52.719  27.070  26.529  1.00  0.00     0.124 S 
ATOM     90  O   UNL A   1      53.059  28.000  25.457  1.00  0.00    -0.237 OA
ATOM     91  O   UNL A   1      53.503  27.201  27.755  1.00  0.00    -0.237 OA
ATOM     92  O   UNL A   1      52.463  25.694  26.108  1.00  0.00    -0.744 OA
ENDBRANCH  88  89
ENDBRANCH  60  83
BRANCH  72  93
ATOM     93  C   UNL A   1      42.103  26.117  28.025  1.00  0.00    -0.014 A 
ATOM     94  C   UNL A   1      41.469  25.940  26.783  1.00  0.00     0.010 A 
ATOM     95  C   UNL A   1      42.253  25.015  28.885  1.00  0.00     0.010 A 
ATOM     96  C   UNL A   1      40.983  24.682  26.414  1.00  0.00     0.020 A 
ATOM     97  C   UNL A   1      41.787  23.753  28.511  1.00  0.00     0.020 A 
ATOM     98  C   UNL A   1      41.148  23.596  27.279  1.00  0.00     0.054 A 
BRANCH  98  99
ATOM     99  S   UNL A   1      40.570  21.960  26.748  1.00  0.00     0.124 S 
ATOM    100  O   UNL A   1      40.823  21.149  27.937  1.00  0.00    -0.237 OA
ATOM    101  O   UNL A   1      39.163  22.199  26.438  1.00  0.00    -0.237 OA
ATOM    102  O   UNL A   1      41.413  21.655  25.595  1.00  0.00    -0.744 OA
ENDBRANCH  98  99
ENDBRANCH  72  93
ENDBRANCH  46  47
ENDBRANCH  38  41
ENDBRANCH  36  37
ENDBRANCH  35  36
ENDBRANCH   1  35
TORSDOF 20
ENDMDL
MODEL 2
REMARK VINA RESULT:      -9.4      4.358      9.888
REMARK SMILES CS(=O)(=O)c1ccc(/C=C(/C(=O)NCCCCCCNC(=O)c2ccc(-c3c4nc(c(-c5ccc(S(=O)(=O)[O-])cc5)c5ccc([nH]5)c(-c5ccc(S(=O)(=O)[O-])cc5)c5nc(c(-c6ccc(S(=O)(=O)[O-])cc6)c6ccc3[nH]6)C=C5)C=C4)cc2)c2ccc(-c3ccc(F)cc3F)cc2)cc1
REMARK SMILES IDX 17 1 16 2 15 3 14 4 13 5 11 6 12 7 10 9 9 10 8 11 5 12 6 13
REMARK SMILES IDX 98 14 7 15 97 16 2 17 1 18 3 19 4 20 83 21 84 22 96 23 85 24
REMARK SMILES IDX 95 25 86 26 87 27 88 28 93 29 89 30 92 31 94 32 90 33 91 34
REMARK SMILES IDX 18 35 19 36 20 37 21 38 22 40 23 41 24 42 82 43 25 44 81 45
REMARK SMILES IDX 26 46 27 47 28 48 75 49 29 50 80 51 74 52 76 53 30 54 79 55
REMARK SMILES IDX 73 56 72 57 31 59 61 60 42 61 60 62 43 63 46 64 59 65 77 66
REMARK SMILES IDX 44 67 45 68 58 70 78 71 47 72 32 73 33 74 41 75 34 76 40 77
REMARK SMILES IDX 35 78 36 79 37 80 38 81 39 82 62 83 63 84 71 85 64 86 70 87
REMARK SMILES IDX 65 88 66 89 67 90 68 91 69 92 48 93 49 94 57 95 50 96 56 97
REMARK SMILES IDX 51 98 52 99 53 100 54 101 55 102
REMARK H PARENT 13 8 20 39 76 58 46 69
REMARK Flexibility Score: inf
ROOT
ATOM      1  C   UNL A   1      37.576  30.338  33.134  1.00  0.00     0.002 C 
ENDROOT
BRANCH   1   2
ATOM      2  C   UNL A   1      38.007  31.094  34.398  1.00  0.00     0.002 C 
BRANCH   2   3
ATOM      3  C   UNL A   1      37.407  32.501  34.555  1.00  0.00     0.021 C 
BRANCH   3   4
ATOM      4  C   UNL A   1      37.482  33.043  35.985  1.00  0.00     0.116 C 
BRANCH   4   5
ATOM      5  N   UNL A   1      38.268  34.262  36.002  1.00  0.00    -0.352 N 
ATOM      6  C   UNL A   1      39.573  34.552  35.777  1.00  0.00     0.251 C 
ATOM      7  O   UNL A   1      39.908  35.722  35.994  1.00  0.00    -0.269 OA
ATOM      8  H   UNL A   1      37.733  35.057  36.228  1.00  0.00     0.163 HD
BRANCH   6   9
ATOM      9  C   UNL A   1      40.572  33.567  35.213  1.00  0.00     0.047 C 
ATOM     10  C   UNL A   1      41.078  32.539  35.931  1.00  0.00     0.022 C 
BRANCH  10  11
ATOM     11  C   UNL A   1      41.970  31.443  35.491  1.00  0.00    -0.025 A 
ATOM     12  C   UNL A   1      43.797  29.424  34.794  1.00  0.00     0.067 A 
ATOM     13  C   UNL A   1      42.425  29.174  34.728  1.00  0.00     0.021 A 
ATOM     14  C   UNL A   1      44.267  30.685  35.157  1.00  0.00     0.021 A 
ATOM     15  C   UNL A   1      41.519  30.188  35.060  1.00  0.00     0.009 A 
ATOM     16  C   UNL A   1      43.354  31.687  35.502  1.00  0.00     0.009 A 
BRANCH  12  17
ATOM     17  S   UNL A   1      44.948  28.129  34.399  1.00  0.00     0.175 S 
ATOM     18  C   UNL A   1      43.977  26.902  33.564  1.00  0.00     0.163 C 
ATOM     19  O   UNL A   1      45.398  27.541  35.643  1.00  0.00    -0.224 OA
ATOM     20  O   UNL A   1      45.891  28.684  33.443  1.00  0.00    -0.224 OA
ENDBRANCH  12  17
ENDBRANCH  10  11
BRANCH   9  21
ATOM     21  C   UNL A   1      41.140  33.892  33.880  1.00  0.00    -0.013 A 
ATOM     22  C   UNL A   1      40.515  33.352  32.749  1.00  0.00     0.009 A 
ATOM     23  C   UNL A   1      42.202  34.782  33.700  1.00  0.00     0.009 A 
ATOM     24  C   UNL A   1      40.897  33.741  31.467  1.00  0.00     0.009 A 
ATOM     25  C   UNL A   1      42.572  35.185  32.407  1.00  0.00     0.009 A 
ATOM     26  C   UNL A   1      41.903  34.699  31.269  1.00  0.00    -0.015 A 
BRANCH  26  27
ATOM     27  C   UNL A   1      42.187  35.204  29.911  1.00  0.00     0.018 A 
ATOM     28  C   UNL A   1      43.471  35.698  29.596  1.00  0.00     0.015 A 
ATOM     29  C   UNL A   1      41.225  35.216  28.888  1.00  0.00     0.133 A 
ATOM     30  C   UNL A   1      43.769  36.191  28.324  1.00  0.00     0.040 A 
ATOM     31  C   UNL A   1      41.514  35.703  27.614  1.00  0.00     0.079 A 
ATOM     32  F   UNL A   1      39.983  34.763  29.117  1.00  0.00    -0.206 F 
ATOM     33  C   UNL A   1      42.785  36.189  27.345  1.00  0.00     0.126 A 
ATOM     34  F   UNL A   1      43.070  36.662  26.126  1.00  0.00    -0.207 F 
ENDBRANCH  26  27
ENDBRANCH   9  21
ENDBRANCH   6   9
ENDBRANCH   4   5
ENDBRANCH   3   4
ENDBRANCH   2   3
ENDBRANCH   1   2
BRANCH   1  35
ATOM     35  C   UNL A   1      36.347  30.911  32.425  1.00  0.00     0.021 C 
BRANCH  35  36
ATOM     36  C   UNL A   1      35.951  30.170  31.150  1.00  0.00     0.116 C 
BRANCH  36  37
ATOM     37  N   UNL A   1      35.716  31.085  30.043  1.00  0.00    -0.352 N 
ATOM     38  C   UNL A   1      36.598  31.515  29.081  1.00  0.00     0.251 C 
ATOM     39  H   UNL A   1      34.802  31.444  29.973  1.00  0.00     0.163 HD
ATOM     40  O   UNL A   1      36.302  32.445  28.338  1.00  0.00    -0.269 OA
BRANCH  38  41
ATOM     41  C   UNL A   1      37.918  30.861  28.965  1.00  0.00     0.039 A 
ATOM     42  C   UNL A   1      38.154  29.983  27.905  1.00  0.00     0.014 A 
ATOM     43  C   UNL A   1      38.926  31.135  29.895  1.00  0.00     0.014 A 
ATOM     44  C   UNL A   1      39.427  29.435  27.733  1.00  0.00     0.010 A 
ATOM     45  C   UNL A   1      40.207  30.630  29.691  1.00  0.00     0.010 A 
ATOM     46  C   UNL A   1      40.472  29.784  28.604  1.00  0.00    -0.014 A 
BRANCH  46  47
ATOM     47  C   UNL A   1      41.859  29.303  28.385  1.00  0.00     0.031 A 
ATOM     48  C   UNL A   1      43.003  30.276  28.382  1.00  0.00     0.074 A 
ATOM     49  C   UNL A   1      42.075  28.003  28.101  1.00  0.00     0.049 A 
ATOM     50  N   UNL A   1      44.263  30.065  28.096  1.00  0.00    -0.248 NA
ATOM     51  C   UNL A   1      42.688  31.672  28.723  1.00  0.00     0.031 C 
ATOM     52  C   UNL A   1      41.043  26.965  28.045  1.00  0.00     0.029 A 
ATOM     53  N   UNL A   1      43.233  27.337  27.785  1.00  0.00    -0.354 N 
ATOM     54  C   UNL A   1      44.887  31.303  28.203  1.00  0.00     0.074 A 
ATOM     55  C   UNL A   1      43.861  32.265  28.546  1.00  0.00     0.031 C 
ATOM     56  C   UNL A   1      41.616  25.792  27.728  1.00  0.00     0.029 A 
ATOM     57  C   UNL A   1      43.045  26.002  27.515  1.00  0.00     0.049 A 
ATOM     58  H   UNL A   1      44.115  27.774  27.756  1.00  0.00     0.167 HD
ATOM     59  C   UNL A   1      46.196  31.608  28.043  1.00  0.00     0.031 A 
ATOM     60  C   UNL A   1      43.920  25.056  27.122  1.00  0.00     0.031 A 
ATOM     61  C   UNL A   1      47.216  30.648  27.712  1.00  0.00     0.049 A 
ATOM     62  C   UNL A   1      45.363  25.423  26.923  1.00  0.00     0.074 A 
ATOM     63  C   UNL A   1      48.579  30.851  27.587  1.00  0.00     0.029 A 
ATOM     64  N   UNL A   1      46.983  29.307  27.447  1.00  0.00    -0.354 N 
ATOM     65  N   UNL A   1      45.944  26.588  27.084  1.00  0.00    -0.248 NA
ATOM     66  C   UNL A   1      46.269  24.352  26.486  1.00  0.00     0.031 C 
ATOM     67  C   UNL A   1      49.166  29.640  27.202  1.00  0.00     0.029 A 
ATOM     68  C   UNL A   1      48.174  28.674  27.132  1.00  0.00     0.049 A 
ATOM     69  H   UNL A   1      46.102  28.869  27.479  1.00  0.00     0.167 HD
ATOM     70  C   UNL A   1      47.285  26.386  26.784  1.00  0.00     0.074 A 
ATOM     71  C   UNL A   1      47.434  24.985  26.444  1.00  0.00     0.031 C 
ATOM     72  C   UNL A   1      48.303  27.281  26.789  1.00  0.00     0.031 A 
BRANCH  59  73
ATOM     73  C   UNL A   1      46.597  33.048  28.217  1.00  0.00    -0.014 A 
ATOM     74  C   UNL A   1      46.668  33.917  27.114  1.00  0.00     0.010 A 
ATOM     75  C   UNL A   1      46.878  33.545  29.503  1.00  0.00     0.010 A 
ATOM     76  C   UNL A   1      47.057  35.248  27.288  1.00  0.00     0.020 A 
ATOM     77  C   UNL A   1      47.243  34.882  29.683  1.00  0.00     0.020 A 
ATOM     78  C   UNL A   1      47.349  35.721  28.571  1.00  0.00     0.054 A 
BRANCH  78  79
ATOM     79  S   UNL A   1      47.844  37.454  28.770  1.00  0.00     0.124 S 
ATOM     80  O   UNL A   1      49.123  37.322  29.464  1.00  0.00    -0.237 OA
ATOM     81  O   UNL A   1      47.925  37.928  27.391  1.00  0.00    -0.237 OA
ATOM     82  O   UNL A   1      46.763  38.035  29.563  1.00  0.00    -0.744 OA
ENDBRANCH  78  79
ENDBRANCH  59  73
BRANCH  60  83
ATOM     83  C   UNL A   1      43.447  23.665  26.890  1.00  0.00    -0.014 A 
ATOM     84  C   UNL A   1      43.212  23.204  25.583  1.00  0.00     0.010 A 
ATOM     85  C   UNL A   1      43.253  22.788  27.973  1.00  0.00     0.010 A 
ATOM     86  C   UNL A   1      42.786  21.891  25.363  1.00  0.00     0.020 A 
ATOM     87  C   UNL A   1      42.848  21.468  27.754  1.00  0.00     0.020 A 
ATOM     88  C   UNL A   1      42.610  21.030  26.449  1.00  0.00     0.054 A 
BRANCH  88  89
ATOM     89  S   UNL A   1      42.123  19.310  26.137  1.00  0.00     0.124 S 
ATOM     90  O   UNL A   1      40.699  19.445  25.848  1.00  0.00    -0.237 OA
ATOM     91  O   UNL A   1      42.967  18.942  25.003  1.00  0.00    -0.237 OA
ATOM     92  O   UNL A   1      42.447  18.633  27.390  1.00  0.00    -0.744 OA
ENDBRANCH  88  89
ENDBRANCH  60  83
BRANCH  72  93
ATOM     93  C   UNL A   1      49.672  26.776  26.430  1.00  0.00    -0.014 A 
ATOM     94  C   UNL A   1      50.461  26.097  27.376  1.00  0.00     0.010 A 
ATOM     95  C   UNL A   1      50.145  26.918  25.114  1.00  0.00     0.010 A 
ATOM     96  C   UNL A   1      51.707  25.579  27.011  1.00  0.00     0.020 A 
ATOM     97  C   UNL A   1      51.380  26.383  24.741  1.00  0.00     0.020 A 
ATOM     98  C   UNL A   1      52.157  25.723  25.695  1.00  0.00     0.054 A 
BRANCH  98  99
ATOM     99  S   UNL A   1      53.747  24.981  25.229  1.00  0.00     0.124 S 
ATOM    100  O   UNL A   1      54.627  25.456  26.294  1.00  0.00    -0.237 OA
ATOM    101  O   UNL A   1      53.453  23.550  25.247  1.00  0.00    -0.237 OA
ATOM    102  O   UNL A   1      54.012  25.539  23.905  1.00  0.00    -0.744 OA
ENDBRANCH  98  99
ENDBRANCH  72  93
ENDBRANCH  46  47
ENDBRANCH  38  41
ENDBRANCH  36  37
ENDBRANCH  35  36
ENDBRANCH   1  35
TORSDOF 20
ENDMDL
MODEL 3
REMARK VINA RESULT:      -9.4      8.042     15.874
REMARK SMILES CS(=O)(=O)c1ccc(/C=C(/C(=O)NCCCCCCNC(=O)c2ccc(-c3c4nc(c(-c5ccc(S(=O)(=O)[O-])cc5)c5ccc([nH]5)c(-c5ccc(S(=O)(=O)[O-])cc5)c5nc(c(-c6ccc(S(=O)(=O)[O-])cc6)c6ccc3[nH]6)C=C5)C=C4)cc2)c2ccc(-c3ccc(F)cc3F)cc2)cc1
REMARK SMILES IDX 17 1 16 2 15 3 14 4 13 5 11 6 12 7 10 9 9 10 8 11 5 12 6 13
REMARK SMILES IDX 98 14 7 15 97 16 2 17 1 18 3 19 4 20 83 21 84 22 96 23 85 24
REMARK SMILES IDX 95 25 86 26 87 27 88 28 93 29 89 30 92 31 94 32 90 33 91 34
REMARK SMILES IDX 18 35 19 36 20 37 21 38 22 40 23 41 24 42 82 43 25 44 81 45
REMARK SMILES IDX 26 46 27 47 28 48 75 49 29 50 80 51 74 52 76 53 30 54 79 55
REMARK SMILES IDX 73 56 72 57 31 59 61 60 42 61 60 62 43 63 46 64 59 65 77 66
REMARK SMILES IDX 44 67 45 68 58 70 78 71 47 72 32 73 33 74 41 75 34 76 40 77
REMARK SMILES IDX 35 78 36 79 37 80 38 81 39 82 62 83 63 84 71 85 64 86 70 87
REMARK SMILES IDX 65 88 66 89 67 90 68 91 69 92 48 93 49 94 57 95 50 96 56 97
REMARK SMILES IDX 51 98 52 99 53 100 54 101 55 102
REMARK H PARENT 13 8 20 39 76 58 46 69
REMARK Flexibility Score: inf
ROOT
ATOM      1  C   UNL A   1      49.548  27.392  33.812  1.00  0.00     0.002 C 
ENDROOT
BRANCH   1   2
ATOM      2  C   UNL A   1      50.537  27.481  32.643  1.00  0.00     0.002 C 
BRANCH   2   3
ATOM      3  C   UNL A   1      51.191  26.150  32.235  1.00  0.00     0.021 C 
BRANCH   3   4
ATOM      4  C   UNL A   1      50.195  24.994  32.103  1.00  0.00     0.116 C 
BRANCH   4   5
ATOM      5  N   UNL A   1      50.674  23.851  32.855  1.00  0.00    -0.352 N 
ATOM      6  C   UNL A   1      50.153  23.078  33.841  1.00  0.00     0.251 C 
ATOM      7  O   UNL A   1      50.917  22.235  34.323  1.00  0.00    -0.269 OA
ATOM      8  H   UNL A   1      51.580  23.572  32.589  1.00  0.00     0.163 HD
BRANCH   6   9
ATOM      9  C   UNL A   1      48.712  23.146  34.294  1.00  0.00     0.047 C 
ATOM     10  C   UNL A   1      47.964  24.270  34.204  1.00  0.00     0.022 C 
BRANCH  10  11
ATOM     11  C   UNL A   1      46.527  24.460  34.502  1.00  0.00    -0.025 A 
ATOM     12  C   UNL A   1      43.853  24.949  35.216  1.00  0.00     0.067 A 
ATOM     13  C   UNL A   1      44.186  24.725  33.879  1.00  0.00     0.021 A 
ATOM     14  C   UNL A   1      44.831  24.883  36.207  1.00  0.00     0.021 A 
ATOM     15  C   UNL A   1      45.518  24.466  33.530  1.00  0.00     0.009 A 
ATOM     16  C   UNL A   1      46.160  24.638  35.847  1.00  0.00     0.009 A 
BRANCH  12  17
ATOM     17  S   UNL A   1      42.169  25.306  35.656  1.00  0.00     0.175 S 
ATOM     18  C   UNL A   1      42.255  25.892  37.328  1.00  0.00     0.163 C 
ATOM     19  O   UNL A   1      41.443  24.053  35.683  1.00  0.00    -0.224 OA
ATOM     20  O   UNL A   1      41.739  26.409  34.815  1.00  0.00    -0.224 OA
ENDBRANCH  12  17
ENDBRANCH  10  11
BRANCH   9  21
ATOM     21  C   UNL A   1      48.198  21.969  35.040  1.00  0.00    -0.013 A 
ATOM     22  C   UNL A   1      48.471  21.889  36.411  1.00  0.00     0.009 A 
ATOM     23  C   UNL A   1      47.381  20.996  34.459  1.00  0.00     0.009 A 
ATOM     24  C   UNL A   1      47.888  20.898  37.199  1.00  0.00     0.009 A 
ATOM     25  C   UNL A   1      46.781  20.011  35.259  1.00  0.00     0.009 A 
ATOM     26  C   UNL A   1      46.996  19.966  36.649  1.00  0.00    -0.015 A 
BRANCH  26  27
ATOM     27  C   UNL A   1      46.277  19.022  37.528  1.00  0.00     0.018 A 
ATOM     28  C   UNL A   1      46.659  18.885  38.880  1.00  0.00     0.015 A 
ATOM     29  C   UNL A   1      45.202  18.236  37.082  1.00  0.00     0.133 A 
ATOM     30  C   UNL A   1      46.005  17.996  39.735  1.00  0.00     0.040 A 
ATOM     31  C   UNL A   1      44.540  17.348  37.928  1.00  0.00     0.079 A 
ATOM     32  F   UNL A   1      44.785  18.314  35.809  1.00  0.00    -0.206 F 
ATOM     33  C   UNL A   1      44.951  17.235  39.248  1.00  0.00     0.126 A 
ATOM     34  F   UNL A   1      44.324  16.382  40.067  1.00  0.00    -0.207 F 
ENDBRANCH  26  27
ENDBRANCH   9  21
ENDBRANCH   6   9
ENDBRANCH   4   5
ENDBRANCH   3   4
ENDBRANCH   2   3
ENDBRANCH   1   2
BRANCH   1  35
ATOM     35  C   UNL A   1      50.177  27.507  35.202  1.00  0.00     0.021 C 
BRANCH  35  36
ATOM     36  C   UNL A   1      49.423  26.763  36.301  1.00  0.00     0.116 C 
BRANCH  36  37
ATOM     37  N   UNL A   1      49.399  27.515  37.546  1.00  0.00    -0.352 N 
ATOM     38  C   UNL A   1      48.542  28.519  37.928  1.00  0.00     0.251 C 
ATOM     39  H   UNL A   1      50.090  27.272  38.204  1.00  0.00     0.163 HD
ATOM     40  O   UNL A   1      48.779  29.192  38.925  1.00  0.00    -0.269 OA
BRANCH  38  41
ATOM     41  C   UNL A   1      47.340  28.794  37.112  1.00  0.00     0.039 A 
ATOM     42  C   UNL A   1      46.177  28.056  37.341  1.00  0.00     0.014 A 
ATOM     43  C   UNL A   1      47.364  29.796  36.137  1.00  0.00     0.014 A 
ATOM     44  C   UNL A   1      45.010  28.374  36.642  1.00  0.00     0.010 A 
ATOM     45  C   UNL A   1      46.187  30.146  35.481  1.00  0.00     0.010 A 
ATOM     46  C   UNL A   1      44.998  29.445  35.734  1.00  0.00    -0.014 A 
BRANCH  46  47
ATOM     47  C   UNL A   1      43.750  29.875  35.056  1.00  0.00     0.031 A 
ATOM     48  C   UNL A   1      43.430  29.375  33.676  1.00  0.00     0.074 A 
ATOM     49  C   UNL A   1      42.951  30.785  35.648  1.00  0.00     0.049 A 
ATOM     50  N   UNL A   1      42.452  29.725  32.879  1.00  0.00    -0.248 NA
ATOM     51  C   UNL A   1      44.340  28.367  33.108  1.00  0.00     0.031 C 
ATOM     52  C   UNL A   1      43.167  31.369  36.974  1.00  0.00     0.029 A 
ATOM     53  N   UNL A   1      41.803  31.394  35.202  1.00  0.00    -0.354 N 
ATOM     54  C   UNL A   1      42.639  28.996  31.710  1.00  0.00     0.074 A 
ATOM     55  C   UNL A   1      43.842  28.211  31.889  1.00  0.00     0.031 C 
ATOM     56  C   UNL A   1      42.180  32.241  37.237  1.00  0.00     0.029 A 
ATOM     57  C   UNL A   1      41.286  32.311  36.085  1.00  0.00     0.049 A 
ATOM     58  H   UNL A   1      41.391  31.192  34.331  1.00  0.00     0.167 HD
ATOM     59  C   UNL A   1      41.871  28.972  30.595  1.00  0.00     0.031 A 
ATOM     60  C   UNL A   1      40.223  33.131  35.976  1.00  0.00     0.031 A 
ATOM     61  C   UNL A   1      40.670  29.745  30.423  1.00  0.00     0.049 A 
ATOM     62  C   UNL A   1      39.402  33.109  34.717  1.00  0.00     0.074 A 
ATOM     63  C   UNL A   1      39.793  29.744  29.354  1.00  0.00     0.029 A 
ATOM     64  N   UNL A   1      40.182  30.661  31.343  1.00  0.00    -0.354 N 
ATOM     65  N   UNL A   1      39.563  32.371  33.645  1.00  0.00    -0.248 NA
ATOM     66  C   UNL A   1      38.259  34.030  34.651  1.00  0.00     0.031 C 
ATOM     67  C   UNL A   1      38.796  30.693  29.607  1.00  0.00     0.029 A 
ATOM     68  C   UNL A   1      39.029  31.252  30.853  1.00  0.00     0.049 A 
ATOM     69  H   UNL A   1      40.593  30.862  32.214  1.00  0.00     0.167 HD
ATOM     70  C   UNL A   1      38.532  32.728  32.783  1.00  0.00     0.074 A 
ATOM     71  C   UNL A   1      37.746  33.737  33.463  1.00  0.00     0.031 C 
ATOM     72  C   UNL A   1      38.262  32.261  31.540  1.00  0.00     0.031 A 
BRANCH  59  73
ATOM     73  C   UNL A   1      42.319  28.083  29.467  1.00  0.00    -0.014 A 
ATOM     74  C   UNL A   1      41.818  26.776  29.334  1.00  0.00     0.010 A 
ATOM     75  C   UNL A   1      43.229  28.570  28.510  1.00  0.00     0.010 A 
ATOM     76  C   UNL A   1      42.254  25.955  28.291  1.00  0.00     0.020 A 
ATOM     77  C   UNL A   1      43.648  27.760  27.451  1.00  0.00     0.020 A 
ATOM     78  C   UNL A   1      43.172  26.449  27.360  1.00  0.00     0.054 A 
BRANCH  78  79
ATOM     79  S   UNL A   1      43.716  25.366  26.010  1.00  0.00     0.124 S 
ATOM     80  O   UNL A   1      44.147  24.175  26.738  1.00  0.00    -0.237 OA
ATOM     81  O   UNL A   1      42.502  25.209  25.213  1.00  0.00    -0.237 OA
ATOM     82  O   UNL A   1      44.786  26.124  25.367  1.00  0.00    -0.744 OA
ENDBRANCH  78  79
ENDBRANCH  59  73
BRANCH  60  83
ATOM     83  C   UNL A   1      39.877  34.045  37.097  1.00  0.00    -0.014 A 
ATOM     84  C   UNL A   1      39.111  33.582  38.180  1.00  0.00     0.010 A 
ATOM     85  C   UNL A   1      40.333  35.376  37.097  1.00  0.00     0.010 A 
ATOM     86  C   UNL A   1      38.802  34.435  39.243  1.00  0.00     0.020 A 
ATOM     87  C   UNL A   1      40.044  36.225  38.169  1.00  0.00     0.020 A 
ATOM     88  C   UNL A   1      39.273  35.751  39.233  1.00  0.00     0.054 A 
BRANCH  88  89
ATOM     89  S   UNL A   1      38.918  36.822  40.654  1.00  0.00     0.124 S 
ATOM     90  O   UNL A   1      38.214  37.936  40.027  1.00  0.00    -0.237 OA
ATOM     91  O   UNL A   1      38.105  35.958  41.507  1.00  0.00    -0.237 OA
ATOM     92  O   UNL A   1      40.244  37.134  41.182  1.00  0.00    -0.744 OA
ENDBRANCH  88  89
ENDBRANCH  60  83
BRANCH  72  93
ATOM     93  C   UNL A   1      37.061  32.823  30.834  1.00  0.00    -0.014 A 
ATOM     94  C   UNL A   1      35.760  32.555  31.298  1.00  0.00     0.010 A 
ATOM     95  C   UNL A   1      37.236  33.688  29.739  1.00  0.00     0.010 A 
ATOM     96  C   UNL A   1      34.655  33.134  30.669  1.00  0.00     0.020 A 
ATOM     97  C   UNL A   1      36.135  34.285  29.122  1.00  0.00     0.020 A 
ATOM     98  C   UNL A   1      34.850  33.998  29.587  1.00  0.00     0.054 A 
BRANCH  98  99
ATOM     99  S   UNL A   1      33.403  34.792  28.831  1.00  0.00     0.124 S 
ATOM    100  O   UNL A   1      32.516  34.961  29.978  1.00  0.00    -0.237 OA
ATOM    101  O   UNL A   1      33.963  36.025  28.282  1.00  0.00    -0.237 OA
ATOM    102  O   UNL A   1      32.958  33.821  27.835  1.00  0.00    -0.744 OA
ENDBRANCH  98  99
ENDBRANCH  72  93
ENDBRANCH  46  47
ENDBRANCH  38  41
ENDBRANCH  36  37
ENDBRANCH  35  36
ENDBRANCH   1  35
TORSDOF 20
ENDMDL
