MODEL 1
REMARK VINA RESULT:     -11.2      0.000      0.000
REMARK SMILES CC[NH2+][C@@]1(C(=O)NCCCCCCNC(=O)c2ccc(-c3c4nc(c(-c5ccc(S(=O)(=O)[O-])cc5)c5ccc([nH]5)c(-c5ccc(S(=O)(=O)[O-])cc5)c5nc(c(-c6ccc(S(=O)(=O)[O-])cc6)c6ccc3[nH]6)C=C5)C=C4)cc2)CC[C@@H](n2cnc3ccccc32)C1
REMARK SMILES IDX 11 1 10 2 9 3 8 4 7 5 5 6 6 7 4 9 77 10 89 11 78 12 79 13
REMARK SMILES IDX 3 14 2 17 1 18 80 19 81 20 88 21 82 22 83 23 87 24 84 25
REMARK SMILES IDX 86 26 85 27 12 28 13 29 14 30 15 31 16 33 17 34 18 35 76 36
REMARK SMILES IDX 19 37 75 38 20 39 21 40 22 41 69 42 23 43 74 44 68 45 70 46
REMARK SMILES IDX 24 47 73 48 67 49 66 50 25 52 55 53 36 54 54 55 37 56 40 57
REMARK SMILES IDX 53 58 71 59 38 60 39 61 52 63 72 64 41 65 26 66 27 67 35 68
REMARK SMILES IDX 28 69 34 70 29 71 30 72 31 73 32 74 33 75 56 76 57 77 65 78
REMARK SMILES IDX 58 79 64 80 59 81 60 82 61 83 62 84 63 85 42 86 43 87 51 88
REMARK SMILES IDX 44 89 50 90 45 91 46 92 47 93 48 94 49 95
REMARK H PARENT 7 8 3 15 3 16 14 32 70 51 40 62
REMARK Flexibility Score: inf
ROOT
ATOM      1  C   UNL A   1      40.791  22.172  27.990  1.00  0.00     0.002 C 
ENDROOT
BRANCH   1   2
ATOM      2  C   UNL A   1      40.423  23.124  26.851  1.00  0.00     0.002 C 
BRANCH   2   3
ATOM      3  C   UNL A   1      39.233  24.028  27.156  1.00  0.00     0.021 C 
BRANCH   3   4
ATOM      4  C   UNL A   1      37.961  23.680  26.372  1.00  0.00     0.116 C 
BRANCH   4   5
ATOM      5  N   UNL A   1      37.882  22.256  26.086  1.00  0.00    -0.351 N 
ATOM      6  C   UNL A   1      37.061  21.411  25.384  1.00  0.00     0.281 C 
ATOM      7  O   UNL A   1      37.809  20.544  24.890  1.00  0.00    -0.268 OA
ATOM      8  H   UNL A   1      38.620  21.764  26.514  1.00  0.00     0.163 HD
BRANCH   6   9
ATOM      9  C   UNL A   1      35.223  21.571  25.151  1.00  0.00     0.177 C 
ATOM     10  C   UNL A   1      35.432  22.778  23.844  1.00  0.00     0.081 C 
ATOM     11  C   UNL A   1      35.066  23.033  26.268  1.00  0.00     0.104 C 
ATOM     12  C   UNL A   1      34.713  24.102  24.213  1.00  0.00     0.033 C 
ATOM     13  C   UNL A   1      34.059  23.916  25.592  1.00  0.00     0.096 C 
BRANCH   9  14
ATOM     14  N   UNL A   1      33.871  19.965  25.197  1.00  0.00    -0.334 N 
ATOM     15  H   UNL A   1      34.499  19.178  25.363  1.00  0.00     0.347 HD
ATOM     16  H   UNL A   1      33.184  20.499  25.728  1.00  0.00     0.347 HD
BRANCH  14  17
ATOM     17  C   UNL A   1      32.759  19.293  24.295  1.00  0.00     0.257 C 
ATOM     18  C   UNL A   1      32.244  20.259  23.222  1.00  0.00     0.071 C 
ENDBRANCH  14  17
ENDBRANCH   9  14
BRANCH  13  19
ATOM     19  N   UNL A   1      32.844  23.093  25.628  1.00  0.00    -0.327 N 
ATOM     20  C   UNL A   1      32.267  22.800  26.863  1.00  0.00     0.200 A 
ATOM     21  C   UNL A   1      31.837  23.658  24.801  1.00  0.00     0.068 A 
ATOM     22  N   UNL A   1      31.482  23.766  27.318  1.00  0.00    -0.237 NA
ATOM     23  C   UNL A   1      31.264  24.556  26.221  1.00  0.00     0.088 A 
ATOM     24  C   UNL A   1      31.845  24.475  23.137  1.00  0.00     0.028 A 
ATOM     25  C   UNL A   1      30.709  26.272  26.067  1.00  0.00     0.030 A 
ATOM     26  C   UNL A   1      31.157  26.156  22.969  1.00  0.00     0.002 A 
ATOM     27  C   UNL A   1      30.607  27.046  24.453  1.00  0.00     0.002 A 
ENDBRANCH  13  19
ENDBRANCH   6   9
ENDBRANCH   4   5
ENDBRANCH   3   4
ENDBRANCH   2   3
ENDBRANCH   1   2
BRANCH   1  28
ATOM     28  C   UNL A   1      41.075  20.733  27.542  1.00  0.00     0.021 C 
BRANCH  28  29
ATOM     29  C   UNL A   1      41.081  20.554  26.029  1.00  0.00     0.116 C 
BRANCH  29  30
ATOM     30  N   UNL A   1      42.174  19.688  25.619  1.00  0.00    -0.352 N 
ATOM     31  C   UNL A   1      43.407  20.049  25.143  1.00  0.00     0.251 C 
ATOM     32  H   UNL A   1      42.008  18.721  25.693  1.00  0.00     0.163 HD
ATOM     33  O   UNL A   1      44.081  19.254  24.496  1.00  0.00    -0.269 OA
BRANCH  31  34
ATOM     34  C   UNL A   1      43.904  21.408  25.425  1.00  0.00     0.039 A 
ATOM     35  C   UNL A   1      43.810  22.388  24.438  1.00  0.00     0.014 A 
ATOM     36  C   UNL A   1      44.444  21.707  26.681  1.00  0.00     0.014 A 
ATOM     37  C   UNL A   1      44.208  23.692  24.733  1.00  0.00     0.010 A 
ATOM     38  C   UNL A   1      44.766  23.021  26.997  1.00  0.00     0.010 A 
ATOM     39  C   UNL A   1      44.651  24.025  26.025  1.00  0.00    -0.014 A 
BRANCH  39  40
ATOM     40  C   UNL A   1      44.959  25.428  26.390  1.00  0.00     0.031 A 
ATOM     41  C   UNL A   1      46.367  25.946  26.296  1.00  0.00     0.074 A 
ATOM     42  C   UNL A   1      43.971  26.212  26.866  1.00  0.00     0.049 A 
ATOM     43  N   UNL A   1      46.829  27.126  26.613  1.00  0.00    -0.248 NA
ATOM     44  C   UNL A   1      47.391  25.012  25.801  1.00  0.00     0.031 C 
ATOM     45  C   UNL A   1      42.575  25.802  27.037  1.00  0.00     0.029 A 
ATOM     46  N   UNL A   1      43.990  27.513  27.298  1.00  0.00    -0.354 N 
ATOM     47  C   UNL A   1      48.195  27.077  26.365  1.00  0.00     0.074 A 
ATOM     48  C   UNL A   1      48.496  25.734  25.921  1.00  0.00     0.031 C 
ATOM     49  C   UNL A   1      41.867  26.840  27.506  1.00  0.00     0.029 A 
ATOM     50  C   UNL A   1      42.764  27.970  27.721  1.00  0.00     0.049 A 
ATOM     51  H   UNL A   1      44.803  28.068  27.304  1.00  0.00     0.167 HD
ATOM     52  C   UNL A   1      49.111  28.067  26.482  1.00  0.00     0.031 A 
ATOM     53  C   UNL A   1      42.405  29.159  28.241  1.00  0.00     0.031 A 
ATOM     54  C   UNL A   1      48.800  29.399  26.933  1.00  0.00     0.049 A 
ATOM     55  C   UNL A   1      43.451  30.226  28.406  1.00  0.00     0.074 A 
ATOM     56  C   UNL A   1      49.645  30.490  27.035  1.00  0.00     0.029 A 
ATOM     57  N   UNL A   1      47.551  29.817  27.370  1.00  0.00    -0.354 N 
ATOM     58  N   UNL A   1      44.722  30.188  28.083  1.00  0.00    -0.248 NA
ATOM     59  C   UNL A   1      43.015  31.496  29.001  1.00  0.00     0.031 C 
ATOM     60  C   UNL A   1      48.926  31.545  27.604  1.00  0.00     0.029 A 
ATOM     61  C   UNL A   1      47.615  31.136  27.788  1.00  0.00     0.049 A 
ATOM     62  H   UNL A   1      46.741  29.259  27.381  1.00  0.00     0.167 HD
ATOM     63  C   UNL A   1      45.235  31.434  28.424  1.00  0.00     0.074 A 
ATOM     64  C   UNL A   1      44.131  32.212  28.949  1.00  0.00     0.031 C 
ATOM     65  C   UNL A   1      46.508  31.891  28.321  1.00  0.00     0.031 A 
BRANCH  52  66
ATOM     66  C   UNL A   1      50.542  27.744  26.134  1.00  0.00    -0.014 A 
ATOM     67  C   UNL A   1      51.037  27.933  24.831  1.00  0.00     0.010 A 
ATOM     68  C   UNL A   1      51.420  27.295  27.139  1.00  0.00     0.010 A 
ATOM     69  C   UNL A   1      52.371  27.643  24.531  1.00  0.00     0.020 A 
ATOM     70  C   UNL A   1      52.762  27.034  26.849  1.00  0.00     0.020 A 
ATOM     71  C   UNL A   1      53.225  27.196  25.542  1.00  0.00     0.054 A 
BRANCH  71  72
ATOM     72  S   UNL A   1      54.957  26.855  25.126  1.00  0.00     0.124 S 
ATOM     73  O   UNL A   1      55.285  25.780  26.059  1.00  0.00    -0.237 OA
ATOM     74  O   UNL A   1      54.875  26.462  23.721  1.00  0.00    -0.237 OA
ATOM     75  O   UNL A   1      55.633  28.125  25.378  1.00  0.00    -0.744 OA
ENDBRANCH  71  72
ENDBRANCH  52  66
BRANCH  53  76
ATOM     76  C   UNL A   1      40.993  29.393  28.654  1.00  0.00    -0.014 A 
ATOM     77  C   UNL A   1      39.957  29.389  27.704  1.00  0.00     0.010 A 
ATOM     78  C   UNL A   1      40.676  29.607  30.009  1.00  0.00     0.010 A 
ATOM     79  C   UNL A   1      38.635  29.609  28.097  1.00  0.00     0.020 A 
ATOM     80  C   UNL A   1      39.351  29.795  30.411  1.00  0.00     0.020 A 
ATOM     81  C   UNL A   1      38.340  29.805  29.449  1.00  0.00     0.054 A 
BRANCH  81  82
ATOM     82  S   UNL A   1      36.609  30.036  29.941  1.00  0.00     0.124 S 
ATOM     83  O   UNL A   1      36.529  31.484  30.100  1.00  0.00    -0.237 OA
ATOM     84  O   UNL A   1      35.883  29.481  28.801  1.00  0.00    -0.237 OA
ATOM     85  O   UNL A   1      36.498  29.262  31.176  1.00  0.00    -0.744 OA
ENDBRANCH  81  82
ENDBRANCH  53  76
BRANCH  65  86
ATOM     86  C   UNL A   1      46.778  33.299  28.782  1.00  0.00    -0.014 A 
ATOM     87  C   UNL A   1      47.173  33.562  30.107  1.00  0.00     0.010 A 
ATOM     88  C   UNL A   1      46.701  34.364  27.866  1.00  0.00     0.010 A 
ATOM     89  C   UNL A   1      47.465  34.867  30.510  1.00  0.00     0.020 A 
ATOM     90  C   UNL A   1      47.025  35.665  28.258  1.00  0.00     0.020 A 
ATOM     91  C   UNL A   1      47.396  35.909  29.582  1.00  0.00     0.054 A 
BRANCH  91  92
ATOM     92  S   UNL A   1      47.843  37.582  30.119  1.00  0.00     0.124 S 
ATOM     93  O   UNL A   1      46.535  38.202  30.311  1.00  0.00    -0.237 OA
ATOM     94  O   UNL A   1      48.605  37.329  31.341  1.00  0.00    -0.237 OA
ATOM     95  O   UNL A   1      48.624  38.109  29.003  1.00  0.00    -0.744 OA
ENDBRANCH  91  92
ENDBRANCH  65  86
ENDBRANCH  39  40
ENDBRANCH  31  34
ENDBRANCH  29  30
ENDBRANCH  28  29
ENDBRANCH   1  28
TORSDOF 19
ENDMDL
MODEL 2
REMARK VINA RESULT:     -11.1      0.462      8.090
REMARK SMILES CC[NH2+][C@@]1(C(=O)NCCCCCCNC(=O)c2ccc(-c3c4nc(c(-c5ccc(S(=O)(=O)[O-])cc5)c5ccc([nH]5)c(-c5ccc(S(=O)(=O)[O-])cc5)c5nc(c(-c6ccc(S(=O)(=O)[O-])cc6)c6ccc3[nH]6)C=C5)C=C4)cc2)CC[C@@H](n2cnc3ccccc32)C1
REMARK SMILES IDX 11 1 10 2 9 3 8 4 7 5 5 6 6 7 4 9 77 10 89 11 78 12 79 13
REMARK SMILES IDX 3 14 2 17 1 18 80 19 81 20 88 21 82 22 83 23 87 24 84 25
REMARK SMILES IDX 86 26 85 27 12 28 13 29 14 30 15 31 16 33 17 34 18 35 76 36
REMARK SMILES IDX 19 37 75 38 20 39 21 40 22 41 69 42 23 43 74 44 68 45 70 46
REMARK SMILES IDX 24 47 73 48 67 49 66 50 25 52 55 53 36 54 54 55 37 56 40 57
REMARK SMILES IDX 53 58 71 59 38 60 39 61 52 63 72 64 41 65 26 66 27 67 35 68
REMARK SMILES IDX 28 69 34 70 29 71 30 72 31 73 32 74 33 75 56 76 57 77 65 78
REMARK SMILES IDX 58 79 64 80 59 81 60 82 61 83 62 84 63 85 42 86 43 87 51 88
REMARK SMILES IDX 44 89 50 90 45 91 46 92 47 93 48 94 49 95
REMARK H PARENT 7 8 3 15 3 16 14 32 70 51 40 62
REMARK Flexibility Score: inf
ROOT
ATOM      1  C   UNL A   1      40.824  22.556  27.905  1.00  0.00     0.002 C 
ENDROOT
BRANCH   1   2
ATOM      2  C   UNL A   1      40.289  23.336  26.703  1.00  0.00     0.002 C 
BRANCH   2   3
ATOM      3  C   UNL A   1      39.013  24.121  26.989  1.00  0.00     0.021 C 
BRANCH   3   4
ATOM      4  C   UNL A   1      37.826  23.742  26.093  1.00  0.00     0.116 C 
BRANCH   4   5
ATOM      5  N   UNL A   1      37.707  22.299  25.949  1.00  0.00    -0.351 N 
ATOM      6  C   UNL A   1      36.860  21.413  25.332  1.00  0.00     0.281 C 
ATOM      7  O   UNL A   1      37.582  20.481  24.927  1.00  0.00    -0.268 OA
ATOM      8  H   UNL A   1      38.431  21.830  26.422  1.00  0.00     0.163 HD
BRANCH   6   9
ATOM      9  C   UNL A   1      35.026  21.602  25.085  1.00  0.00     0.177 C 
ATOM     10  C   UNL A   1      35.264  22.837  23.810  1.00  0.00     0.081 C 
ATOM     11  C   UNL A   1      34.876  23.038  26.236  1.00  0.00     0.104 C 
ATOM     12  C   UNL A   1      34.558  24.160  24.204  1.00  0.00     0.033 C 
ATOM     13  C   UNL A   1      33.887  23.950  25.571  1.00  0.00     0.096 C 
BRANCH   9  14
ATOM     14  N   UNL A   1      33.655  20.012  25.078  1.00  0.00    -0.334 N 
ATOM     15  H   UNL A   1      33.927  19.507  25.921  1.00  0.00     0.347 HD
ATOM     16  H   UNL A   1      32.888  20.616  24.783  1.00  0.00     0.347 HD
BRANCH  14  17
ATOM     17  C   UNL A   1      33.180  18.828  24.143  1.00  0.00     0.257 C 
ATOM     18  C   UNL A   1      34.228  17.713  24.070  1.00  0.00     0.071 C 
ENDBRANCH  14  17
ENDBRANCH   9  14
BRANCH  13  19
ATOM     19  N   UNL A   1      32.661  23.142  25.574  1.00  0.00    -0.327 N 
ATOM     20  C   UNL A   1      32.053  22.848  26.795  1.00  0.00     0.200 A 
ATOM     21  C   UNL A   1      31.681  23.723  24.728  1.00  0.00     0.068 A 
ATOM     22  N   UNL A   1      31.270  23.821  27.237  1.00  0.00    -0.237 NA
ATOM     23  C   UNL A   1      31.086  24.621  26.140  1.00  0.00     0.088 A 
ATOM     24  C   UNL A   1      31.736  24.549  23.070  1.00  0.00     0.028 A 
ATOM     25  C   UNL A   1      30.556  26.344  25.984  1.00  0.00     0.030 A 
ATOM     26  C   UNL A   1      31.073  26.239  22.896  1.00  0.00     0.002 A 
ATOM     27  C   UNL A   1      30.500  27.127  24.372  1.00  0.00     0.002 A 
ENDBRANCH  13  19
ENDBRANCH   6   9
ENDBRANCH   4   5
ENDBRANCH   3   4
ENDBRANCH   2   3
ENDBRANCH   1   2
BRANCH   1  28
ATOM     28  C   UNL A   1      41.067  21.067  27.633  1.00  0.00     0.021 C 
BRANCH  28  29
ATOM     29  C   UNL A   1      40.876  20.673  26.173  1.00  0.00     0.116 C 
BRANCH  29  30
ATOM     30  N   UNL A   1      41.931  19.771  25.743  1.00  0.00    -0.352 N 
ATOM     31  C   UNL A   1      43.173  20.091  25.259  1.00  0.00     0.251 C 
ATOM     32  H   UNL A   1      41.728  18.811  25.808  1.00  0.00     0.163 HD
ATOM     33  O   UNL A   1      43.809  19.278  24.597  1.00  0.00    -0.269 OA
BRANCH  31  34
ATOM     34  C   UNL A   1      43.724  21.426  25.551  1.00  0.00     0.039 A 
ATOM     35  C   UNL A   1      43.512  22.466  24.646  1.00  0.00     0.014 A 
ATOM     36  C   UNL A   1      44.434  21.644  26.737  1.00  0.00     0.014 A 
ATOM     37  C   UNL A   1      43.965  23.746  24.962  1.00  0.00     0.010 A 
ATOM     38  C   UNL A   1      44.816  22.934  27.084  1.00  0.00     0.010 A 
ATOM     39  C   UNL A   1      44.585  23.996  26.198  1.00  0.00    -0.014 A 
BRANCH  39  40
ATOM     40  C   UNL A   1      44.961  25.372  26.601  1.00  0.00     0.031 A 
ATOM     41  C   UNL A   1      43.925  26.315  27.141  1.00  0.00     0.074 A 
ATOM     42  C   UNL A   1      46.232  25.783  26.416  1.00  0.00     0.049 A 
ATOM     43  N   UNL A   1      44.061  27.565  27.501  1.00  0.00    -0.248 NA
ATOM     44  C   UNL A   1      42.553  25.797  27.276  1.00  0.00     0.031 C 
ATOM     45  C   UNL A   1      47.314  24.964  25.862  1.00  0.00     0.029 A 
ATOM     46  N   UNL A   1      46.828  26.991  26.668  1.00  0.00    -0.354 N 
ATOM     47  C   UNL A   1      42.797  27.985  27.897  1.00  0.00     0.074 A 
ATOM     48  C   UNL A   1      41.896  26.873  27.683  1.00  0.00     0.031 C 
ATOM     49  C   UNL A   1      48.446  25.683  25.847  1.00  0.00     0.029 A 
ATOM     50  C   UNL A   1      48.161  27.027  26.337  1.00  0.00     0.049 A 
ATOM     51  H   UNL A   1      46.347  27.761  27.051  1.00  0.00     0.167 HD
ATOM     52  C   UNL A   1      42.426  29.182  28.408  1.00  0.00     0.031 A 
ATOM     53  C   UNL A   1      49.053  28.035  26.402  1.00  0.00     0.031 A 
ATOM     54  C   UNL A   1      43.332  30.283  28.609  1.00  0.00     0.049 A 
ATOM     55  C   UNL A   1      48.605  29.369  26.928  1.00  0.00     0.074 A 
ATOM     56  C   UNL A   1      43.067  31.521  29.170  1.00  0.00     0.029 A 
ATOM     57  N   UNL A   1      44.670  30.287  28.244  1.00  0.00    -0.354 N 
ATOM     58  N   UNL A   1      47.425  29.720  27.379  1.00  0.00    -0.248 NA
ATOM     59  C   UNL A   1      49.607  30.442  26.956  1.00  0.00     0.031 C 
ATOM     60  C   UNL A   1      44.225  32.298  29.075  1.00  0.00     0.029 A 
ATOM     61  C   UNL A   1      45.232  31.522  28.523  1.00  0.00     0.049 A 
ATOM     62  H   UNL A   1      45.149  29.525  27.845  1.00  0.00     0.167 HD
ATOM     63  C   UNL A   1      47.546  31.053  27.759  1.00  0.00     0.074 A 
ATOM     64  C   UNL A   1      48.922  31.433  27.511  1.00  0.00     0.031 C 
ATOM     65  C   UNL A   1      46.602  31.888  28.257  1.00  0.00     0.031 A 
BRANCH  52  66
ATOM     66  C   UNL A   1      40.975  29.372  28.769  1.00  0.00    -0.014 A 
ATOM     67  C   UNL A   1      40.573  29.563  30.103  1.00  0.00     0.010 A 
ATOM     68  C   UNL A   1      40.003  29.415  27.752  1.00  0.00     0.010 A 
ATOM     69  C   UNL A   1      39.225  29.753  30.418  1.00  0.00     0.020 A 
ATOM     70  C   UNL A   1      38.657  29.636  28.059  1.00  0.00     0.020 A 
ATOM     71  C   UNL A   1      38.276  29.789  29.393  1.00  0.00     0.054 A 
BRANCH  71  72
ATOM     72  S   UNL A   1      36.538  30.065  29.831  1.00  0.00     0.124 S 
ATOM     73  O   UNL A   1      36.412  29.298  31.067  1.00  0.00    -0.237 OA
ATOM     74  O   UNL A   1      36.476  31.517  29.985  1.00  0.00    -0.237 OA
ATOM     75  O   UNL A   1      35.801  29.529  28.689  1.00  0.00    -0.744 OA
ENDBRANCH  71  72
ENDBRANCH  52  66
BRANCH  53  76
ATOM     76  C   UNL A   1      50.454  27.817  25.945  1.00  0.00    -0.014 A 
ATOM     77  C   UNL A   1      51.442  27.379  26.844  1.00  0.00     0.010 A 
ATOM     78  C   UNL A   1      50.803  28.034  24.599  1.00  0.00     0.010 A 
ATOM     79  C   UNL A   1      52.755  27.177  26.409  1.00  0.00     0.020 A 
ATOM     80  C   UNL A   1      52.107  27.802  24.153  1.00  0.00     0.020 A 
ATOM     81  C   UNL A   1      53.077  27.384  25.065  1.00  0.00     0.054 A 
BRANCH  81  82
ATOM     82  S   UNL A   1      54.775  27.064  24.514  1.00  0.00     0.124 S 
ATOM     83  O   UNL A   1      55.183  25.979  25.401  1.00  0.00    -0.237 OA
ATOM     84  O   UNL A   1      54.586  26.699  23.112  1.00  0.00    -0.237 OA
ATOM     85  O   UNL A   1      55.452  28.340  24.731  1.00  0.00    -0.744 OA
ENDBRANCH  81  82
ENDBRANCH  53  76
BRANCH  65  86
ATOM     86  C   UNL A   1      47.023  33.299  28.573  1.00  0.00    -0.014 A 
ATOM     87  C   UNL A   1      47.576  33.626  29.825  1.00  0.00     0.010 A 
ATOM     88  C   UNL A   1      46.927  34.297  27.586  1.00  0.00     0.010 A 
ATOM     89  C   UNL A   1      48.005  34.928  30.089  1.00  0.00     0.020 A 
ATOM     90  C   UNL A   1      47.387  35.593  27.835  1.00  0.00     0.020 A 
ATOM     91  C   UNL A   1      47.914  35.901  29.091  1.00  0.00     0.054 A 
BRANCH  91  92
ATOM     92  S   UNL A   1      48.539  37.567  29.442  1.00  0.00     0.124 S 
ATOM     93  O   UNL A   1      49.955  37.314  29.700  1.00  0.00    -0.237 OA
ATOM     94  O   UNL A   1      48.245  38.284  28.203  1.00  0.00    -0.237 OA
ATOM     95  O   UNL A   1      47.761  37.993  30.603  1.00  0.00    -0.744 OA
ENDBRANCH  91  92
ENDBRANCH  65  86
ENDBRANCH  39  40
ENDBRANCH  31  34
ENDBRANCH  29  30
ENDBRANCH  28  29
ENDBRANCH   1  28
TORSDOF 19
ENDMDL
MODEL 3
REMARK VINA RESULT:     -10.7      6.601      8.677
REMARK SMILES CC[NH2+][C@@]1(C(=O)NCCCCCCNC(=O)c2ccc(-c3c4nc(c(-c5ccc(S(=O)(=O)[O-])cc5)c5ccc([nH]5)c(-c5ccc(S(=O)(=O)[O-])cc5)c5nc(c(-c6ccc(S(=O)(=O)[O-])cc6)c6ccc3[nH]6)C=C5)C=C4)cc2)CC[C@@H](n2cnc3ccccc32)C1
REMARK SMILES IDX 11 1 10 2 9 3 8 4 7 5 5 6 6 7 4 9 77 10 89 11 78 12 79 13
REMARK SMILES IDX 3 14 2 17 1 18 80 19 81 20 88 21 82 22 83 23 87 24 84 25
REMARK SMILES IDX 86 26 85 27 12 28 13 29 14 30 15 31 16 33 17 34 18 35 76 36
REMARK SMILES IDX 19 37 75 38 20 39 21 40 22 41 69 42 23 43 74 44 68 45 70 46
REMARK SMILES IDX 24 47 73 48 67 49 66 50 25 52 55 53 36 54 54 55 37 56 40 57
REMARK SMILES IDX 53 58 71 59 38 60 39 61 52 63 72 64 41 65 26 66 27 67 35 68
REMARK SMILES IDX 28 69 34 70 29 71 30 72 31 73 32 74 33 75 56 76 57 77 65 78
REMARK SMILES IDX 58 79 64 80 59 81 60 82 61 83 62 84 63 85 42 86 43 87 51 88
REMARK SMILES IDX 44 89 50 90 45 91 46 92 47 93 48 94 49 95
REMARK H PARENT 7 8 3 15 3 16 14 32 70 51 40 62
REMARK Flexibility Score: inf
ROOT
ATOM      1  C   UNL A   1      37.018  23.317  24.622  1.00  0.00     0.002 C 
ENDROOT
BRANCH   1   2
ATOM      2  C   UNL A   1      36.675  22.012  23.901  1.00  0.00     0.002 C 
BRANCH   2   3
ATOM      3  C   UNL A   1      35.918  21.006  24.762  1.00  0.00     0.021 C 
BRANCH   3   4
ATOM      4  C   UNL A   1      34.390  21.117  24.663  1.00  0.00     0.116 C 
BRANCH   4   5
ATOM      5  N   UNL A   1      33.984  21.828  23.460  1.00  0.00    -0.351 N 
ATOM      6  C   UNL A   1      33.591  23.098  23.124  1.00  0.00     0.281 C 
ATOM      7  O   UNL A   1      34.070  23.313  21.993  1.00  0.00    -0.268 OA
ATOM      8  H   UNL A   1      33.994  21.237  22.674  1.00  0.00     0.163 HD
BRANCH   6   9
ATOM      9  C   UNL A   1      32.612  24.284  24.171  1.00  0.00     0.177 C 
ATOM     10  C   UNL A   1      31.354  24.454  22.908  1.00  0.00     0.081 C 
ATOM     11  C   UNL A   1      33.360  25.792  23.414  1.00  0.00     0.104 C 
ATOM     12  C   UNL A   1      31.216  25.939  22.482  1.00  0.00     0.033 C 
ATOM     13  C   UNL A   1      32.221  26.762  23.305  1.00  0.00     0.096 C 
BRANCH   9  14
ATOM     14  N   UNL A   1      32.320  24.084  26.241  1.00  0.00    -0.334 N 
ATOM     15  H   UNL A   1      33.218  24.404  26.603  1.00  0.00     0.347 HD
ATOM     16  H   UNL A   1      31.366  24.440  26.186  1.00  0.00     0.347 HD
BRANCH  14  17
ATOM     17  C   UNL A   1      31.927  22.984  27.307  1.00  0.00     0.257 C 
ATOM     18  C   UNL A   1      33.159  22.450  28.046  1.00  0.00     0.071 C 
ENDBRANCH  14  17
ENDBRANCH   9  14
BRANCH  13  19
ATOM     19  N   UNL A   1      31.870  26.997  24.711  1.00  0.00    -0.327 N 
ATOM     20  C   UNL A   1      32.621  27.913  25.447  1.00  0.00     0.200 A 
ATOM     21  C   UNL A   1      30.502  27.361  24.827  1.00  0.00     0.068 A 
ATOM     22  N   UNL A   1      32.238  29.169  25.267  1.00  0.00    -0.237 NA
ATOM     23  C   UNL A   1      31.007  29.057  24.676  1.00  0.00     0.088 A 
ATOM     24  C   UNL A   1      28.942  26.790  24.006  1.00  0.00     0.028 A 
ATOM     25  C   UNL A   1      30.028  30.230  23.707  1.00  0.00     0.030 A 
ATOM     26  C   UNL A   1      27.892  28.009  23.147  1.00  0.00     0.002 A 
ATOM     27  C   UNL A   1      28.462  29.725  22.995  1.00  0.00     0.002 A 
ENDBRANCH  13  19
ENDBRANCH   6   9
ENDBRANCH   4   5
ENDBRANCH   3   4
ENDBRANCH   2   3
ENDBRANCH   1   2
BRANCH   1  28
ATOM     28  C   UNL A   1      37.714  23.125  25.975  1.00  0.00     0.021 C 
BRANCH  28  29
ATOM     29  C   UNL A   1      38.500  24.346  26.436  1.00  0.00     0.116 C 
BRANCH  29  30
ATOM     30  N   UNL A   1      39.920  24.168  26.183  1.00  0.00    -0.352 N 
ATOM     31  C   UNL A   1      40.945  25.033  26.466  1.00  0.00     0.251 C 
ATOM     32  H   UNL A   1      40.177  23.320  25.756  1.00  0.00     0.163 HD
ATOM     33  O   UNL A   1      42.018  24.936  25.881  1.00  0.00    -0.269 OA
BRANCH  31  34
ATOM     34  C   UNL A   1      40.730  26.076  27.485  1.00  0.00     0.039 A 
ATOM     35  C   UNL A   1      39.818  25.849  28.514  1.00  0.00     0.014 A 
ATOM     36  C   UNL A   1      41.453  27.272  27.421  1.00  0.00     0.014 A 
ATOM     37  C   UNL A   1      39.674  26.804  29.520  1.00  0.00     0.010 A 
ATOM     38  C   UNL A   1      41.365  28.186  28.464  1.00  0.00     0.010 A 
ATOM     39  C   UNL A   1      40.474  27.960  29.522  1.00  0.00    -0.014 A 
BRANCH  39  40
ATOM     40  C   UNL A   1      40.423  28.924  30.647  1.00  0.00     0.031 A 
ATOM     41  C   UNL A   1      41.326  28.754  31.835  1.00  0.00     0.074 A 
ATOM     42  C   UNL A   1      39.511  29.916  30.616  1.00  0.00     0.049 A 
ATOM     43  N   UNL A   1      41.389  29.470  32.926  1.00  0.00    -0.248 NA
ATOM     44  C   UNL A   1      42.266  27.621  31.804  1.00  0.00     0.031 C 
ATOM     45  C   UNL A   1      38.556  30.154  29.530  1.00  0.00     0.029 A 
ATOM     46  N   UNL A   1      39.234  30.907  31.522  1.00  0.00    -0.354 N 
ATOM     47  C   UNL A   1      42.366  28.875  33.715  1.00  0.00     0.074 A 
ATOM     48  C   UNL A   1      42.832  27.707  32.999  1.00  0.00     0.031 C 
ATOM     49  C   UNL A   1      37.822  31.239  29.819  1.00  0.00     0.029 A 
ATOM     50  C   UNL A   1      38.214  31.741  31.132  1.00  0.00     0.049 A 
ATOM     51  H   UNL A   1      39.720  31.011  32.372  1.00  0.00     0.167 HD
ATOM     52  C   UNL A   1      42.842  29.275  34.917  1.00  0.00     0.031 A 
ATOM     53  C   UNL A   1      37.645  32.785  31.766  1.00  0.00     0.031 A 
ATOM     54  C   UNL A   1      42.364  30.436  35.622  1.00  0.00     0.049 A 
ATOM     55  C   UNL A   1      38.159  33.180  33.121  1.00  0.00     0.074 A 
ATOM     56  C   UNL A   1      42.817  30.958  36.821  1.00  0.00     0.029 A 
ATOM     57  N   UNL A   1      41.318  31.244  35.203  1.00  0.00    -0.354 N 
ATOM     58  N   UNL A   1      39.144  32.656  33.812  1.00  0.00    -0.248 NA
ATOM     59  C   UNL A   1      37.489  34.307  33.783  1.00  0.00     0.031 C 
ATOM     60  C   UNL A   1      41.996  32.037  37.163  1.00  0.00     0.029 A 
ATOM     61  C   UNL A   1      41.079  32.233  36.143  1.00  0.00     0.049 A 
ATOM     62  H   UNL A   1      40.819  31.132  34.362  1.00  0.00     0.167 HD
ATOM     63  C   UNL A   1      39.220  33.400  34.984  1.00  0.00     0.074 A 
ATOM     64  C   UNL A   1      38.202  34.427  34.894  1.00  0.00     0.031 C 
ATOM     65  C   UNL A   1      40.051  33.241  36.044  1.00  0.00     0.031 A 
BRANCH  52  66
ATOM     66  C   UNL A   1      43.924  28.442  35.557  1.00  0.00    -0.014 A 
ATOM     67  C   UNL A   1      45.283  28.667  35.273  1.00  0.00     0.010 A 
ATOM     68  C   UNL A   1      43.578  27.454  36.498  1.00  0.00     0.010 A 
ATOM     69  C   UNL A   1      46.272  27.896  35.887  1.00  0.00     0.020 A 
ATOM     70  C   UNL A   1      44.567  26.702  37.138  1.00  0.00     0.020 A 
ATOM     71  C   UNL A   1      45.908  26.918  36.817  1.00  0.00     0.054 A 
BRANCH  71  72
ATOM     72  S   UNL A   1      47.218  25.953  37.617  1.00  0.00     0.124 S 
ATOM     73  O   UNL A   1      46.541  24.686  37.882  1.00  0.00    -0.237 OA
ATOM     74  O   UNL A   1      48.254  25.907  36.588  1.00  0.00    -0.237 OA
ATOM     75  O   UNL A   1      47.554  26.737  38.804  1.00  0.00    -0.744 OA
ENDBRANCH  71  72
ENDBRANCH  52  66
BRANCH  53  76
ATOM     76  C   UNL A   1      36.516  33.516  31.126  1.00  0.00    -0.014 A 
ATOM     77  C   UNL A   1      36.580  33.892  29.773  1.00  0.00     0.010 A 
ATOM     78  C   UNL A   1      35.361  33.827  31.867  1.00  0.00     0.010 A 
ATOM     79  C   UNL A   1      35.517  34.578  29.179  1.00  0.00     0.020 A 
ATOM     80  C   UNL A   1      34.283  34.483  31.268  1.00  0.00     0.020 A 
ATOM     81  C   UNL A   1      34.373  34.864  29.929  1.00  0.00     0.054 A 
BRANCH  81  82
ATOM     82  S   UNL A   1      32.986  35.708  29.120  1.00  0.00     0.124 S 
ATOM     83  O   UNL A   1      32.127  36.035  30.253  1.00  0.00    -0.237 OA
ATOM     84  O   UNL A   1      33.644  36.843  28.475  1.00  0.00    -0.237 OA
ATOM     85  O   UNL A   1      32.460  34.701  28.202  1.00  0.00    -0.744 OA
ENDBRANCH  81  82
ENDBRANCH  53  76
BRANCH  65  86
ATOM     86  C   UNL A   1      39.899  34.201  37.194  1.00  0.00    -0.014 A 
ATOM     87  C   UNL A   1      40.474  35.484  37.145  1.00  0.00     0.010 A 
ATOM     88  C   UNL A   1      39.117  33.843  38.307  1.00  0.00     0.010 A 
ATOM     89  C   UNL A   1      40.287  36.382  38.198  1.00  0.00     0.020 A 
ATOM     90  C   UNL A   1      38.900  34.751  39.347  1.00  0.00     0.020 A 
ATOM     91  C   UNL A   1      39.495  36.012  39.289  1.00  0.00     0.054 A 
BRANCH  91  92
ATOM     92  S   UNL A   1      39.218  37.223  40.610  1.00  0.00     0.124 S 
ATOM     93  O   UNL A   1      38.599  36.404  41.649  1.00  0.00    -0.237 OA
ATOM     94  O   UNL A   1      40.571  37.691  40.901  1.00  0.00    -0.237 OA
ATOM     95  O   UNL A   1      38.340  38.215  39.994  1.00  0.00    -0.744 OA
ENDBRANCH  91  92
ENDBRANCH  65  86
ENDBRANCH  39  40
ENDBRANCH  31  34
ENDBRANCH  29  30
ENDBRANCH  28  29
ENDBRANCH   1  28
TORSDOF 19
ENDMDL
