MODEL 1
REMARK VINA RESULT:     -12.0      0.000      0.000
REMARK SMILES C[C@H]1c2ccc(O)cc2OC(=O)[C@@H]1CC(=O)N[C@@H](CC1=c2ccccc2=NC1)C(=O)NCCCCCCNC(=O)c1ccc(-c2c3nc(c(-c4ccc(S(=O)(=O)[O-])cc4)c4ccc([nH]4)c(-c4ccc(S(=O)(=O)[O-])cc4)c4nc(c(-c5ccc(S(=O)(=O)[O-])cc5)c5ccc2[nH]5)C=C4)C=C3)cc1
REMARK SMILES IDX 34 1 33 2 32 3 31 4 29 5 30 6 18 8 17 9 15 10 16 11 14 13
REMARK SMILES IDX 13 14 1 15 2 16 3 17 4 18 9 19 11 20 5 21 8 22 10 23 12 24
REMARK SMILES IDX 6 25 7 26 19 28 20 29 21 30 28 31 22 32 26 33 27 34 23 35
REMARK SMILES IDX 25 36 24 37 35 38 36 39 37 40 38 41 39 42 40 44 41 45 42 46
REMARK SMILES IDX 100 47 43 48 99 49 44 50 45 51 46 52 93 53 47 54 98 55 92 56
REMARK SMILES IDX 94 57 48 58 97 59 91 60 90 61 49 63 79 64 60 65 78 66 61 67
REMARK SMILES IDX 64 68 77 69 95 70 62 71 63 72 76 74 96 75 65 76 50 77 51 78
REMARK SMILES IDX 59 79 52 80 58 81 53 82 54 83 55 84 56 85 57 86 80 87 81 88
REMARK SMILES IDX 89 89 82 90 88 91 83 92 84 93 85 94 86 95 87 96 66 97 67 98
REMARK SMILES IDX 75 99 68 100 74 101 69 102 70 103 71 104 72 105 73 106
REMARK H PARENT 31 7 17 12 7 27 38 43 94 62 64 73
REMARK Flexibility Score: inf
ROOT
ATOM      1  C   UNL A   1      36.401  23.359  23.609  1.00  0.00     0.002 C 
ENDROOT
BRANCH   1   2
ATOM      2  C   UNL A   1      35.112  24.152  23.898  1.00  0.00     0.021 C 
BRANCH   2   3
ATOM      3  C   UNL A   1      34.061  24.203  22.797  1.00  0.00     0.116 C 
BRANCH   3   4
ATOM      4  N   UNL A   1      32.967  23.273  22.766  1.00  0.00    -0.354 N 
ATOM      5  C   UNL A   1      31.785  23.493  23.440  1.00  0.00     0.242 C 
ATOM      6  O   UNL A   1      30.746  23.200  22.834  1.00  0.00    -0.273 OA
ATOM      7  H   UNL A   1      33.066  22.446  22.243  1.00  0.00     0.163 HD
BRANCH   5   8
ATOM      8  C   UNL A   1      31.687  24.109  24.889  1.00  0.00     0.175 C 
BRANCH   8   9
ATOM      9  N   UNL A   1      30.381  24.531  25.405  1.00  0.00    -0.344 N 
ATOM     10  C   UNL A   1      30.050  25.670  26.084  1.00  0.00     0.221 C 
ATOM     11  O   UNL A   1      28.938  25.738  26.611  1.00  0.00    -0.275 OA
ATOM     12  H   UNL A   1      29.639  23.906  25.241  1.00  0.00     0.164 HD
BRANCH  10  13
ATOM     13  C   UNL A   1      30.999  26.861  26.141  1.00  0.00     0.116 C 
BRANCH  13  14
ATOM     14  C   UNL A   1      31.547  27.354  24.779  1.00  0.00     0.116 C 
ATOM     15  C   UNL A   1      33.624  27.875  23.374  1.00  0.00     0.014 C 
ATOM     16  C   UNL A   1      33.084  27.537  24.772  1.00  0.00     0.034 C 
ATOM     17  C   UNL A   1      33.441  28.633  25.751  1.00  0.00    -0.001 A 
ATOM     18  C   UNL A   1      34.660  28.656  26.432  1.00  0.00     0.011 A 
ATOM     19  C   UNL A   1      32.505  29.638  26.018  1.00  0.00     0.138 A 
ATOM     20  C   UNL A   1      31.005  28.709  24.395  1.00  0.00     0.315 C 
ATOM     21  C   UNL A   1      34.898  29.634  27.405  1.00  0.00     0.047 A 
ATOM     22  C   UNL A   1      32.712  30.593  27.006  1.00  0.00     0.093 A 
ATOM     23  O   UNL A   1      31.321  29.739  25.268  1.00  0.00    -0.426 OA
ATOM     24  O   UNL A   1      30.330  28.899  23.390  1.00  0.00    -0.251 OA
ATOM     25  C   UNL A   1      33.913  30.576  27.700  1.00  0.00     0.119 A 
BRANCH  25  26
ATOM     26  O   UNL A   1      34.097  31.516  28.669  1.00  0.00    -0.508 OA
ATOM     27  H   UNL A   1      34.792  32.141  28.590  1.00  0.00     0.293 HD
ENDBRANCH  25  26
ENDBRANCH  13  14
ENDBRANCH  10  13
ENDBRANCH   8   9
BRANCH   8  28
ATOM     28  C   UNL A   1      32.643  23.614  26.039  1.00  0.00     0.068 C 
BRANCH  28  29
ATOM     29  C   UNL A   1      32.765  22.149  26.454  1.00  0.00    -0.037 C 
ATOM     30  C   UNL A   1      32.958  21.152  25.563  1.00  0.00     0.001 A 
ATOM     31  C   UNL A   1      33.633  21.928  27.640  1.00  0.00     0.174 C 
ATOM     32  C   UNL A   1      32.431  19.778  25.643  1.00  0.00     0.010 A 
ATOM     33  C   UNL A   1      34.412  20.991  25.851  1.00  0.00     0.065 A 
ATOM     34  N   UNL A   1      34.838  21.358  27.013  1.00  0.00    -0.280 NA
ATOM     35  C   UNL A   1      33.205  18.767  25.186  1.00  0.00     0.001 A 
ATOM     36  C   UNL A   1      35.157  20.190  24.873  1.00  0.00     0.028 A 
ATOM     37  C   UNL A   1      34.509  19.051  24.579  1.00  0.00     0.002 A 
ENDBRANCH  28  29
ENDBRANCH   8  28
ENDBRANCH   5   8
ENDBRANCH   3   4
ENDBRANCH   2   3
ENDBRANCH   1   2
BRANCH   1  38
ATOM     38  C   UNL A   1      37.385  23.011  24.742  1.00  0.00     0.002 C 
BRANCH  38  39
ATOM     39  C   UNL A   1      37.347  23.784  26.061  1.00  0.00     0.021 C 
BRANCH  39  40
ATOM     40  C   UNL A   1      38.641  23.978  26.831  1.00  0.00     0.116 C 
BRANCH  40  41
ATOM     41  N   UNL A   1      39.755  24.347  25.980  1.00  0.00    -0.352 N 
ATOM     42  C   UNL A   1      40.692  25.350  26.112  1.00  0.00     0.251 C 
ATOM     43  H   UNL A   1      39.859  23.789  25.176  1.00  0.00     0.163 HD
ATOM     44  O   UNL A   1      41.479  25.555  25.207  1.00  0.00    -0.269 OA
BRANCH  42  45
ATOM     45  C   UNL A   1      40.721  26.203  27.330  1.00  0.00     0.039 A 
ATOM     46  C   UNL A   1      39.786  26.062  28.356  1.00  0.00     0.014 A 
ATOM     47  C   UNL A   1      41.737  27.161  27.448  1.00  0.00     0.014 A 
ATOM     48  C   UNL A   1      39.768  26.974  29.412  1.00  0.00     0.010 A 
ATOM     49  C   UNL A   1      41.764  28.024  28.549  1.00  0.00     0.010 A 
ATOM     50  C   UNL A   1      40.750  27.973  29.517  1.00  0.00    -0.014 A 
BRANCH  50  51
ATOM     51  C   UNL A   1      40.696  28.954  30.635  1.00  0.00     0.031 A 
ATOM     52  C   UNL A   1      39.642  30.032  30.661  1.00  0.00     0.074 A 
ATOM     53  C   UNL A   1      41.568  28.846  31.658  1.00  0.00     0.049 A 
ATOM     54  N   UNL A   1      39.431  30.951  31.567  1.00  0.00    -0.248 NA
ATOM     55  C   UNL A   1      38.704  30.086  29.527  1.00  0.00     0.031 C 
ATOM     56  C   UNL A   1      42.620  27.833  31.760  1.00  0.00     0.029 A 
ATOM     57  N   UNL A   1      41.693  29.572  32.818  1.00  0.00    -0.354 N 
ATOM     58  C   UNL A   1      38.348  31.697  31.112  1.00  0.00     0.074 A 
ATOM     59  C   UNL A   1      37.967  31.146  29.831  1.00  0.00     0.031 C 
ATOM     60  C   UNL A   1      43.242  27.964  32.941  1.00  0.00     0.029 A 
ATOM     61  C   UNL A   1      42.684  29.111  33.653  1.00  0.00     0.049 A 
ATOM     62  H   UNL A   1      41.128  30.349  33.031  1.00  0.00     0.167 HD
ATOM     63  C   UNL A   1      37.718  32.732  31.716  1.00  0.00     0.031 A 
ATOM     64  C   UNL A   1      43.110  29.556  34.853  1.00  0.00     0.031 A 
ATOM     65  C   UNL A   1      38.094  33.269  32.999  1.00  0.00     0.049 A 
ATOM     66  C   UNL A   1      42.431  30.742  35.478  1.00  0.00     0.074 A 
ATOM     67  C   UNL A   1      37.501  34.306  33.697  1.00  0.00     0.029 A 
ATOM     68  N   UNL A   1      39.147  32.813  33.778  1.00  0.00    -0.354 N 
ATOM     69  N   UNL A   1      41.402  31.424  35.034  1.00  0.00    -0.248 NA
ATOM     70  C   UNL A   1      42.965  31.222  36.759  1.00  0.00     0.031 C 
ATOM     71  C   UNL A   1      38.235  34.523  34.864  1.00  0.00     0.029 A 
ATOM     72  C   UNL A   1      39.238  33.569  34.935  1.00  0.00     0.049 A 
ATOM     73  H   UNL A   1      39.741  32.063  33.543  1.00  0.00     0.167 HD
ATOM     74  C   UNL A   1      41.158  32.407  35.987  1.00  0.00     0.074 A 
ATOM     75  C   UNL A   1      42.133  32.218  37.042  1.00  0.00     0.031 C 
ATOM     76  C   UNL A   1      40.214  33.378  35.981  1.00  0.00     0.031 A 
BRANCH  63  77
ATOM     77  C   UNL A   1      36.546  33.370  31.014  1.00  0.00    -0.014 A 
ATOM     78  C   UNL A   1      36.741  34.039  29.791  1.00  0.00     0.010 A 
ATOM     79  C   UNL A   1      35.279  33.423  31.624  1.00  0.00     0.010 A 
ATOM     80  C   UNL A   1      35.707  34.776  29.208  1.00  0.00     0.020 A 
ATOM     81  C   UNL A   1      34.233  34.136  31.030  1.00  0.00     0.020 A 
ATOM     82  C   UNL A   1      34.461  34.828  29.838  1.00  0.00     0.054 A 
BRANCH  82  83
ATOM     83  S   UNL A   1      33.138  35.817  29.086  1.00  0.00     0.124 S 
ATOM     84  O   UNL A   1      32.387  34.810  28.341  1.00  0.00    -0.237 OA
ATOM     85  O   UNL A   1      32.458  36.378  30.250  1.00  0.00    -0.237 OA
ATOM     86  O   UNL A   1      33.861  36.790  28.270  1.00  0.00    -0.744 OA
ENDBRANCH  82  83
ENDBRANCH  63  77
BRANCH  64  87
ATOM     87  C   UNL A   1      44.225  28.843  35.536  1.00  0.00    -0.014 A 
ATOM     88  C   UNL A   1      43.953  27.827  36.472  1.00  0.00     0.010 A 
ATOM     89  C   UNL A   1      45.557  29.242  35.332  1.00  0.00     0.010 A 
ATOM     90  C   UNL A   1      44.979  27.274  37.241  1.00  0.00     0.020 A 
ATOM     91  C   UNL A   1      46.593  28.667  36.076  1.00  0.00     0.020 A 
ATOM     92  C   UNL A   1      46.292  27.712  37.051  1.00  0.00     0.054 A 
BRANCH  92  93
ATOM     93  S   UNL A   1      47.598  27.032  38.110  1.00  0.00     0.124 S 
ATOM     94  O   UNL A   1      47.507  25.605  37.817  1.00  0.00    -0.237 OA
ATOM     95  O   UNL A   1      48.796  27.702  37.611  1.00  0.00    -0.237 OA
ATOM     96  O   UNL A   1      47.185  27.421  39.455  1.00  0.00    -0.744 OA
ENDBRANCH  92  93
ENDBRANCH  64  87
BRANCH  76  97
ATOM     97  C   UNL A   1      40.165  34.336  37.144  1.00  0.00    -0.014 A 
ATOM     98  C   UNL A   1      39.137  34.224  38.098  1.00  0.00     0.010 A 
ATOM     99  C   UNL A   1      41.042  35.433  37.209  1.00  0.00     0.010 A 
ATOM    100  C   UNL A   1      38.957  35.212  39.068  1.00  0.00     0.020 A 
ATOM    101  C   UNL A   1      40.884  36.408  38.199  1.00  0.00     0.020 A 
ATOM    102  C   UNL A   1      39.825  36.305  39.103  1.00  0.00     0.054 A 
BRANCH 102 103
ATOM    103  S   UNL A   1      39.546  37.604  40.338  1.00  0.00     0.124 S 
ATOM    104  O   UNL A   1      38.161  37.984  40.076  1.00  0.00    -0.237 OA
ATOM    105  O   UNL A   1      39.778  36.903  41.600  1.00  0.00    -0.237 OA
ATOM    106  O   UNL A   1      40.545  38.616  40.005  1.00  0.00    -0.744 OA
ENDBRANCH 102 103
ENDBRANCH  76  97
ENDBRANCH  50  51
ENDBRANCH  42  45
ENDBRANCH  40  41
ENDBRANCH  39  40
ENDBRANCH  38  39
ENDBRANCH   1  38
TORSDOF 22
ENDMDL
MODEL 2
REMARK VINA RESULT:     -11.9      5.786      8.079
REMARK SMILES C[C@H]1c2ccc(O)cc2OC(=O)[C@@H]1CC(=O)N[C@@H](CC1=c2ccccc2=NC1)C(=O)NCCCCCCNC(=O)c1ccc(-c2c3nc(c(-c4ccc(S(=O)(=O)[O-])cc4)c4ccc([nH]4)c(-c4ccc(S(=O)(=O)[O-])cc4)c4nc(c(-c5ccc(S(=O)(=O)[O-])cc5)c5ccc2[nH]5)C=C4)C=C3)cc1
REMARK SMILES IDX 34 1 33 2 32 3 31 4 29 5 30 6 18 8 17 9 15 10 16 11 14 13
REMARK SMILES IDX 13 14 1 15 2 16 3 17 4 18 9 19 11 20 5 21 8 22 10 23 12 24
REMARK SMILES IDX 6 25 7 26 19 28 20 29 21 30 28 31 22 32 26 33 27 34 23 35
REMARK SMILES IDX 25 36 24 37 35 38 36 39 37 40 38 41 39 42 40 44 41 45 42 46
REMARK SMILES IDX 100 47 43 48 99 49 44 50 45 51 46 52 93 53 47 54 98 55 92 56
REMARK SMILES IDX 94 57 48 58 97 59 91 60 90 61 49 63 79 64 60 65 78 66 61 67
REMARK SMILES IDX 64 68 77 69 95 70 62 71 63 72 76 74 96 75 65 76 50 77 51 78
REMARK SMILES IDX 59 79 52 80 58 81 53 82 54 83 55 84 56 85 57 86 80 87 81 88
REMARK SMILES IDX 89 89 82 90 88 91 83 92 84 93 85 94 86 95 87 96 66 97 67 98
REMARK SMILES IDX 75 99 68 100 74 101 69 102 70 103 71 104 72 105 73 106
REMARK H PARENT 31 7 17 12 7 27 38 43 94 62 64 73
REMARK Flexibility Score: inf
ROOT
ATOM      1  C   UNL A   1      36.665  21.545  24.186  1.00  0.00     0.002 C 
ENDROOT
BRANCH   1   2
ATOM      2  C   UNL A   1      36.702  23.002  23.686  1.00  0.00     0.021 C 
BRANCH   2   3
ATOM      3  C   UNL A   1      35.369  23.668  23.374  1.00  0.00     0.116 C 
BRANCH   3   4
ATOM      4  N   UNL A   1      34.284  22.929  22.792  1.00  0.00    -0.354 N 
ATOM      5  C   UNL A   1      33.098  22.701  23.457  1.00  0.00     0.242 C 
ATOM      6  O   UNL A   1      32.063  22.816  22.787  1.00  0.00    -0.273 OA
ATOM      7  H   UNL A   1      34.392  22.570  21.882  1.00  0.00     0.163 HD
BRANCH   5   8
ATOM      8  C   UNL A   1      32.990  22.344  24.990  1.00  0.00     0.175 C 
BRANCH   8   9
ATOM      9  N   UNL A   1      31.980  23.012  25.816  1.00  0.00    -0.344 N 
ATOM     10  C   UNL A   1      32.052  24.216  26.460  1.00  0.00     0.221 C 
ATOM     11  O   UNL A   1      31.170  24.501  27.272  1.00  0.00    -0.275 OA
ATOM     12  H   UNL A   1      31.132  22.525  25.923  1.00  0.00     0.164 HD
BRANCH  10  13
ATOM     13  C   UNL A   1      33.155  25.218  26.143  1.00  0.00     0.116 C 
BRANCH  13  14
ATOM     14  C   UNL A   1      32.750  26.711  26.203  1.00  0.00     0.116 C 
ATOM     15  C   UNL A   1      31.037  28.490  25.525  1.00  0.00     0.014 C 
ATOM     16  C   UNL A   1      31.515  27.042  25.332  1.00  0.00     0.034 C 
ATOM     17  C   UNL A   1      31.870  26.798  23.883  1.00  0.00    -0.001 A 
ATOM     18  C   UNL A   1      30.918  26.412  22.936  1.00  0.00     0.011 A 
ATOM     19  C   UNL A   1      33.205  26.921  23.479  1.00  0.00     0.138 A 
ATOM     20  C   UNL A   1      33.833  27.625  25.683  1.00  0.00     0.315 C 
ATOM     21  C   UNL A   1      31.318  26.095  21.632  1.00  0.00     0.047 A 
ATOM     22  C   UNL A   1      33.621  26.575  22.199  1.00  0.00     0.093 A 
ATOM     23  O   UNL A   1      34.179  27.431  24.354  1.00  0.00    -0.426 OA
ATOM     24  O   UNL A   1      34.380  28.476  26.374  1.00  0.00    -0.251 OA
ATOM     25  C   UNL A   1      32.667  26.156  21.284  1.00  0.00     0.119 A 
BRANCH  25  26
ATOM     26  O   UNL A   1      33.093  25.816  20.035  1.00  0.00    -0.508 OA
ATOM     27  H   UNL A   1      33.835  26.249  19.659  1.00  0.00     0.293 HD
ENDBRANCH  25  26
ENDBRANCH  13  14
ENDBRANCH  10  13
ENDBRANCH   8   9
BRANCH   8  28
ATOM     28  C   UNL A   1      33.295  20.884  25.498  1.00  0.00     0.068 C 
BRANCH  28  29
ATOM     29  C   UNL A   1      33.522  19.702  24.557  1.00  0.00    -0.037 C 
ATOM     30  C   UNL A   1      34.034  18.523  24.977  1.00  0.00     0.001 A 
ATOM     31  C   UNL A   1      32.394  19.447  23.624  1.00  0.00     0.174 C 
ATOM     32  C   UNL A   1      34.916  17.620  24.219  1.00  0.00     0.010 A 
ATOM     33  C   UNL A   1      32.726  17.807  24.997  1.00  0.00     0.065 A 
ATOM     34  N   UNL A   1      31.790  18.245  24.223  1.00  0.00    -0.280 NA
ATOM     35  C   UNL A   1      34.765  16.285  24.386  1.00  0.00     0.001 A 
ATOM     36  C   UNL A   1      32.730  16.520  25.702  1.00  0.00     0.028 A 
ATOM     37  C   UNL A   1      33.782  15.768  25.341  1.00  0.00     0.002 A 
ENDBRANCH  28  29
ENDBRANCH   8  28
ENDBRANCH   5   8
ENDBRANCH   3   4
ENDBRANCH   2   3
ENDBRANCH   1   2
BRANCH   1  38
ATOM     38  C   UNL A   1      37.460  21.118  25.435  1.00  0.00     0.002 C 
BRANCH  38  39
ATOM     39  C   UNL A   1      38.918  20.675  25.306  1.00  0.00     0.021 C 
BRANCH  39  40
ATOM     40  C   UNL A   1      39.576  19.978  26.484  1.00  0.00     0.116 C 
BRANCH  40  41
ATOM     41  N   UNL A   1      40.765  19.238  26.110  1.00  0.00    -0.352 N 
ATOM     42  C   UNL A   1      42.061  19.662  25.909  1.00  0.00     0.251 C 
ATOM     43  H   UNL A   1      40.622  18.273  25.978  1.00  0.00     0.163 HD
ATOM     44  O   UNL A   1      42.888  18.879  25.480  1.00  0.00    -0.269 OA
BRANCH  42  45
ATOM     45  C   UNL A   1      42.445  21.075  26.175  1.00  0.00     0.039 A 
ATOM     46  C   UNL A   1      42.466  22.039  25.166  1.00  0.00     0.014 A 
ATOM     47  C   UNL A   1      42.772  21.441  27.486  1.00  0.00     0.014 A 
ATOM     48  C   UNL A   1      42.965  23.314  25.432  1.00  0.00     0.010 A 
ATOM     49  C   UNL A   1      43.197  22.744  27.767  1.00  0.00     0.010 A 
ATOM     50  C   UNL A   1      43.346  23.681  26.733  1.00  0.00    -0.014 A 
BRANCH  50  51
ATOM     51  C   UNL A   1      43.902  25.038  26.991  1.00  0.00     0.031 A 
ATOM     52  C   UNL A   1      43.071  26.090  27.680  1.00  0.00     0.074 A 
ATOM     53  C   UNL A   1      45.178  25.309  26.650  1.00  0.00     0.049 A 
ATOM     54  N   UNL A   1      43.403  27.312  28.008  1.00  0.00    -0.248 NA
ATOM     55  C   UNL A   1      41.692  25.727  28.048  1.00  0.00     0.031 C 
ATOM     56  C   UNL A   1      46.091  24.368  25.999  1.00  0.00     0.029 A 
ATOM     57  N   UNL A   1      45.938  26.441  26.827  1.00  0.00    -0.354 N 
ATOM     58  C   UNL A   1      42.278  27.867  28.610  1.00  0.00     0.074 A 
ATOM     59  C   UNL A   1      41.240  26.860  28.570  1.00  0.00     0.031 C 
ATOM     60  C   UNL A   1      47.300  24.937  25.884  1.00  0.00     0.029 A 
ATOM     61  C   UNL A   1      47.236  26.307  26.389  1.00  0.00     0.049 A 
ATOM     62  H   UNL A   1      45.588  27.268  27.228  1.00  0.00     0.167 HD
ATOM     63  C   UNL A   1      42.129  29.094  29.161  1.00  0.00     0.031 A 
ATOM     64  C   UNL A   1      48.263  27.182  26.382  1.00  0.00     0.031 A 
ATOM     65  C   UNL A   1      43.171  30.089  29.210  1.00  0.00     0.049 A 
ATOM     66  C   UNL A   1      48.058  28.557  26.949  1.00  0.00     0.074 A 
ATOM     67  C   UNL A   1      43.116  31.355  29.766  1.00  0.00     0.029 A 
ATOM     68  N   UNL A   1      44.448  29.933  28.694  1.00  0.00    -0.354 N 
ATOM     69  N   UNL A   1      46.988  29.055  27.523  1.00  0.00    -0.248 NA
ATOM     70  C   UNL A   1      49.189  29.490  26.870  1.00  0.00     0.031 C 
ATOM     71  C   UNL A   1      44.336  31.989  29.527  1.00  0.00     0.029 A 
ATOM     72  C   UNL A   1      45.180  31.092  28.892  1.00  0.00     0.049 A 
ATOM     73  H   UNL A   1      44.785  29.120  28.252  1.00  0.00     0.167 HD
ATOM     74  C   UNL A   1      47.322  30.356  27.884  1.00  0.00     0.074 A 
ATOM     75  C   UNL A   1      48.699  30.562  27.483  1.00  0.00     0.031 C 
ATOM     76  C   UNL A   1      46.551  31.293  28.487  1.00  0.00     0.031 A 
BRANCH  63  77
ATOM     77  C   UNL A   1      40.797  29.454  29.771  1.00  0.00    -0.014 A 
ATOM     78  C   UNL A   1      39.742  29.883  28.943  1.00  0.00     0.010 A 
ATOM     79  C   UNL A   1      40.628  29.494  31.167  1.00  0.00     0.010 A 
ATOM     80  C   UNL A   1      38.558  30.378  29.497  1.00  0.00     0.020 A 
ATOM     81  C   UNL A   1      39.434  29.962  31.725  1.00  0.00     0.020 A 
ATOM     82  C   UNL A   1      38.417  30.423  30.886  1.00  0.00     0.054 A 
BRANCH  82  83
ATOM     83  S   UNL A   1      36.886  31.099  31.590  1.00  0.00     0.124 S 
ATOM     84  O   UNL A   1      36.373  29.967  32.355  1.00  0.00    -0.237 OA
ATOM     85  O   UNL A   1      37.370  32.228  32.382  1.00  0.00    -0.237 OA
ATOM     86  O   UNL A   1      36.103  31.467  30.413  1.00  0.00    -0.744 OA
ENDBRANCH  82  83
ENDBRANCH  63  77
BRANCH  64  87
ATOM     87  C   UNL A   1      49.578  26.749  25.834  1.00  0.00    -0.014 A 
ATOM     88  C   UNL A   1      50.530  26.133  26.670  1.00  0.00     0.010 A 
ATOM     89  C   UNL A   1      49.927  27.038  24.504  1.00  0.00     0.010 A 
ATOM     90  C   UNL A   1      51.824  25.882  26.210  1.00  0.00     0.020 A 
ATOM     91  C   UNL A   1      51.212  26.757  24.028  1.00  0.00     0.020 A 
ATOM     92  C   UNL A   1      52.163  26.213  24.895  1.00  0.00     0.054 A 
BRANCH  92  93
ATOM     93  S   UNL A   1      53.868  25.944  24.342  1.00  0.00     0.124 S 
ATOM     94  O   UNL A   1      53.732  26.050  22.892  1.00  0.00    -0.237 OA
ATOM     95  O   UNL A   1      54.591  27.037  24.987  1.00  0.00    -0.237 OA
ATOM     96  O   UNL A   1      54.185  24.610  24.844  1.00  0.00    -0.744 OA
ENDBRANCH  92  93
ENDBRANCH  64  87
BRANCH  76  97
ATOM     97  C   UNL A   1      47.154  32.645  28.765  1.00  0.00    -0.014 A 
ATOM     98  C   UNL A   1      47.802  32.883  29.991  1.00  0.00     0.010 A 
ATOM     99  C   UNL A   1      46.950  33.719  27.880  1.00  0.00     0.010 A 
ATOM    100  C   UNL A   1      48.194  34.175  30.350  1.00  0.00     0.020 A 
ATOM    101  C   UNL A   1      47.368  35.008  28.221  1.00  0.00     0.020 A 
ATOM    102  C   UNL A   1      47.961  35.232  29.466  1.00  0.00     0.054 A 
BRANCH 102 103
ATOM    103  S   UNL A   1      48.431  36.911  29.969  1.00  0.00     0.124 S 
ATOM    104  O   UNL A   1      47.169  37.634  29.839  1.00  0.00    -0.237 OA
ATOM    105  O   UNL A   1      48.906  36.716  31.337  1.00  0.00    -0.237 OA
ATOM    106  O   UNL A   1      49.466  37.281  29.006  1.00  0.00    -0.744 OA
ENDBRANCH 102 103
ENDBRANCH  76  97
ENDBRANCH  50  51
ENDBRANCH  42  45
ENDBRANCH  40  41
ENDBRANCH  39  40
ENDBRANCH  38  39
ENDBRANCH   1  38
TORSDOF 22
ENDMDL
MODEL 3
REMARK VINA RESULT:     -11.7      4.707      8.735
REMARK SMILES C[C@H]1c2ccc(O)cc2OC(=O)[C@@H]1CC(=O)N[C@@H](CC1=c2ccccc2=NC1)C(=O)NCCCCCCNC(=O)c1ccc(-c2c3nc(c(-c4ccc(S(=O)(=O)[O-])cc4)c4ccc([nH]4)c(-c4ccc(S(=O)(=O)[O-])cc4)c4nc(c(-c5ccc(S(=O)(=O)[O-])cc5)c5ccc2[nH]5)C=C4)C=C3)cc1
REMARK SMILES IDX 34 1 33 2 32 3 31 4 29 5 30 6 18 8 17 9 15 10 16 11 14 13
REMARK SMILES IDX 13 14 1 15 2 16 3 17 4 18 9 19 11 20 5 21 8 22 10 23 12 24
REMARK SMILES IDX 6 25 7 26 19 28 20 29 21 30 28 31 22 32 26 33 27 34 23 35
REMARK SMILES IDX 25 36 24 37 35 38 36 39 37 40 38 41 39 42 40 44 41 45 42 46
REMARK SMILES IDX 100 47 43 48 99 49 44 50 45 51 46 52 93 53 47 54 98 55 92 56
REMARK SMILES IDX 94 57 48 58 97 59 91 60 90 61 49 63 79 64 60 65 78 66 61 67
REMARK SMILES IDX 64 68 77 69 95 70 62 71 63 72 76 74 96 75 65 76 50 77 51 78
REMARK SMILES IDX 59 79 52 80 58 81 53 82 54 83 55 84 56 85 57 86 80 87 81 88
REMARK SMILES IDX 89 89 82 90 88 91 83 92 84 93 85 94 86 95 87 96 66 97 67 98
REMARK SMILES IDX 75 99 68 100 74 101 69 102 70 103 71 104 72 105 73 106
REMARK H PARENT 31 7 17 12 7 27 38 43 94 62 64 73
REMARK Flexibility Score: inf
ROOT
ATOM      1  C   UNL A   1      36.832  21.657  24.225  1.00  0.00     0.002 C 
ENDROOT
BRANCH   1   2
ATOM      2  C   UNL A   1      36.660  22.891  23.319  1.00  0.00     0.021 C 
BRANCH   2   3
ATOM      3  C   UNL A   1      35.288  23.549  23.287  1.00  0.00     0.116 C 
BRANCH   3   4
ATOM      4  N   UNL A   1      34.148  22.873  22.733  1.00  0.00    -0.354 N 
ATOM      5  C   UNL A   1      32.967  22.717  23.425  1.00  0.00     0.242 C 
ATOM      6  O   UNL A   1      31.925  22.890  22.778  1.00  0.00    -0.273 OA
ATOM      7  H   UNL A   1      34.214  22.505  21.823  1.00  0.00     0.163 HD
BRANCH   5   8
ATOM      8  C   UNL A   1      32.872  22.372  24.961  1.00  0.00     0.175 C 
BRANCH   8   9
ATOM      9  N   UNL A   1      31.875  23.053  25.793  1.00  0.00    -0.344 N 
ATOM     10  C   UNL A   1      31.974  24.245  26.455  1.00  0.00     0.221 C 
ATOM     11  O   UNL A   1      31.096  24.540  27.267  1.00  0.00    -0.275 OA
ATOM     12  H   UNL A   1      31.015  22.585  25.890  1.00  0.00     0.164 HD
BRANCH  10  13
ATOM     13  C   UNL A   1      33.103  25.224  26.156  1.00  0.00     0.116 C 
BRANCH  13  14
ATOM     14  C   UNL A   1      32.726  26.725  26.207  1.00  0.00     0.116 C 
ATOM     15  C   UNL A   1      31.055  28.534  25.507  1.00  0.00     0.014 C 
ATOM     16  C   UNL A   1      31.506  27.077  25.323  1.00  0.00     0.034 C 
ATOM     17  C   UNL A   1      31.869  26.819  23.879  1.00  0.00    -0.001 A 
ATOM     18  C   UNL A   1      30.918  26.448  22.925  1.00  0.00     0.011 A 
ATOM     19  C   UNL A   1      33.209  26.914  23.486  1.00  0.00     0.138 A 
ATOM     20  C   UNL A   1      33.832  27.615  25.692  1.00  0.00     0.315 C 
ATOM     21  C   UNL A   1      31.322  26.118  21.626  1.00  0.00     0.047 A 
ATOM     22  C   UNL A   1      33.630  26.555  22.211  1.00  0.00     0.093 A 
ATOM     23  O   UNL A   1      34.185  27.409  24.368  1.00  0.00    -0.426 OA
ATOM     24  O   UNL A   1      34.389  28.458  26.385  1.00  0.00    -0.251 OA
ATOM     25  C   UNL A   1      32.675  26.151  21.290  1.00  0.00     0.119 A 
BRANCH  25  26
ATOM     26  O   UNL A   1      33.105  25.797  20.046  1.00  0.00    -0.508 OA
ATOM     27  H   UNL A   1      32.945  26.363  19.316  1.00  0.00     0.293 HD
ENDBRANCH  25  26
ENDBRANCH  13  14
ENDBRANCH  10  13
ENDBRANCH   8   9
BRANCH   8  28
ATOM     28  C   UNL A   1      33.173  20.913  25.477  1.00  0.00     0.068 C 
BRANCH  28  29
ATOM     29  C   UNL A   1      33.486  19.745  24.544  1.00  0.00    -0.037 C 
ATOM     30  C   UNL A   1      34.021  18.584  24.984  1.00  0.00     0.001 A 
ATOM     31  C   UNL A   1      32.411  19.453  23.560  1.00  0.00     0.174 C 
ATOM     32  C   UNL A   1      34.970  17.717  24.263  1.00  0.00     0.010 A 
ATOM     33  C   UNL A   1      32.741  17.819  24.942  1.00  0.00     0.065 A 
ATOM     34  N   UNL A   1      31.825  18.227  24.128  1.00  0.00    -0.280 NA
ATOM     35  C   UNL A   1      34.860  16.377  24.419  1.00  0.00     0.001 A 
ATOM     36  C   UNL A   1      32.760  16.531  25.643  1.00  0.00     0.028 A 
ATOM     37  C   UNL A   1      33.855  15.819  25.327  1.00  0.00     0.002 A 
ENDBRANCH  28  29
ENDBRANCH   8  28
ENDBRANCH   5   8
ENDBRANCH   3   4
ENDBRANCH   2   3
ENDBRANCH   1   2
BRANCH   1  38
ATOM     38  C   UNL A   1      37.333  21.804  25.674  1.00  0.00     0.002 C 
BRANCH  38  39
ATOM     39  C   UNL A   1      38.409  22.835  26.017  1.00  0.00     0.021 C 
BRANCH  39  40
ATOM     40  C   UNL A   1      39.602  22.397  26.848  1.00  0.00     0.116 C 
BRANCH  40  41
ATOM     41  N   UNL A   1      40.775  22.113  26.045  1.00  0.00    -0.352 N 
ATOM     42  C   UNL A   1      41.879  22.890  25.763  1.00  0.00     0.251 C 
ATOM     43  H   UNL A   1      40.785  21.219  25.634  1.00  0.00     0.163 HD
ATOM     44  O   UNL A   1      42.703  22.490  24.961  1.00  0.00    -0.269 OA
BRANCH  42  45
ATOM     45  C   UNL A   1      42.050  24.223  26.400  1.00  0.00     0.039 A 
ATOM     46  C   UNL A   1      41.872  25.412  25.692  1.00  0.00     0.014 A 
ATOM     47  C   UNL A   1      42.379  24.273  27.761  1.00  0.00     0.014 A 
ATOM     48  C   UNL A   1      42.178  26.633  26.292  1.00  0.00     0.010 A 
ATOM     49  C   UNL A   1      42.608  25.506  28.384  1.00  0.00     0.010 A 
ATOM     50  C   UNL A   1      42.559  26.696  27.642  1.00  0.00    -0.014 A 
BRANCH  50  51
ATOM     51  C   UNL A   1      42.909  28.006  28.257  1.00  0.00     0.031 A 
ATOM     52  C   UNL A   1      44.341  28.473  28.305  1.00  0.00     0.074 A 
ATOM     53  C   UNL A   1      41.928  28.802  28.729  1.00  0.00     0.049 A 
ATOM     54  N   UNL A   1      44.823  29.595  28.776  1.00  0.00    -0.248 NA
ATOM     55  C   UNL A   1      45.365  27.570  27.754  1.00  0.00     0.031 C 
ATOM     56  C   UNL A   1      40.502  28.472  28.719  1.00  0.00     0.029 A 
ATOM     57  N   UNL A   1      41.974  30.060  29.281  1.00  0.00    -0.354 N 
ATOM     58  C   UNL A   1      46.200  29.529  28.589  1.00  0.00     0.074 A 
ATOM     59  C   UNL A   1      46.483  28.242  27.993  1.00  0.00     0.031 C 
ATOM     60  C   UNL A   1      39.806  29.520  29.184  1.00  0.00     0.029 A 
ATOM     61  C   UNL A   1      40.735  30.572  29.590  1.00  0.00     0.049 A 
ATOM     62  H   UNL A   1      42.813  30.548  29.440  1.00  0.00     0.167 HD
ATOM     63  C   UNL A   1      47.139  30.463  28.871  1.00  0.00     0.031 A 
ATOM     64  C   UNL A   1      40.376  31.748  30.145  1.00  0.00     0.031 A 
ATOM     65  C   UNL A   1      46.849  31.749  29.453  1.00  0.00     0.049 A 
ATOM     66  C   UNL A   1      41.441  32.746  30.501  1.00  0.00     0.074 A 
ATOM     67  C   UNL A   1      47.736  32.767  29.756  1.00  0.00     0.029 A 
ATOM     68  N   UNL A   1      45.587  32.197  29.812  1.00  0.00    -0.354 N 
ATOM     69  N   UNL A   1      42.736  32.667  30.304  1.00  0.00    -0.248 NA
ATOM     70  C   UNL A   1      41.005  33.989  31.151  1.00  0.00     0.031 C 
ATOM     71  C   UNL A   1      47.022  33.803  30.361  1.00  0.00     0.029 A 
ATOM     72  C   UNL A   1      45.677  33.465  30.362  1.00  0.00     0.049 A 
ATOM     73  H   UNL A   1      44.751  31.690  29.694  1.00  0.00     0.167 HD
ATOM     74  C   UNL A   1      43.268  33.854  30.796  1.00  0.00     0.074 A 
ATOM     75  C   UNL A   1      42.154  34.643  31.280  1.00  0.00     0.031 C 
ATOM     76  C   UNL A   1      44.563  34.246  30.846  1.00  0.00     0.031 A 
BRANCH  63  77
ATOM     77  C   UNL A   1      48.580  30.152  28.557  1.00  0.00    -0.014 A 
ATOM     78  C   UNL A   1      49.410  29.598  29.550  1.00  0.00     0.010 A 
ATOM     79  C   UNL A   1      49.149  30.528  27.326  1.00  0.00     0.010 A 
ATOM     80  C   UNL A   1      50.783  29.456  29.335  1.00  0.00     0.020 A 
ATOM     81  C   UNL A   1      50.519  30.362  27.096  1.00  0.00     0.020 A 
ATOM     82  C   UNL A   1      51.331  29.850  28.111  1.00  0.00     0.054 A 
BRANCH  82  83
ATOM     83  S   UNL A   1      53.121  29.691  27.859  1.00  0.00     0.124 S 
ATOM     84  O   UNL A   1      53.218  29.566  26.408  1.00  0.00    -0.237 OA
ATOM     85  O   UNL A   1      53.634  30.938  28.421  1.00  0.00    -0.237 OA
ATOM     86  O   UNL A   1      53.466  28.489  28.616  1.00  0.00    -0.744 OA
ENDBRANCH  82  83
ENDBRANCH  63  77
BRANCH  64  87
ATOM     87  C   UNL A   1      38.931  32.033  30.366  1.00  0.00    -0.014 A 
ATOM     88  C   UNL A   1      38.184  32.722  29.392  1.00  0.00     0.010 A 
ATOM     89  C   UNL A   1      38.319  31.709  31.589  1.00  0.00     0.010 A 
ATOM     90  C   UNL A   1      36.880  33.143  29.661  1.00  0.00     0.020 A 
ATOM     91  C   UNL A   1      37.002  32.099  31.851  1.00  0.00     0.020 A 
ATOM     92  C   UNL A   1      36.304  32.845  30.898  1.00  0.00     0.054 A 
BRANCH  92  93
ATOM     93  S   UNL A   1      34.637  33.465  31.253  1.00  0.00     0.124 S 
ATOM     94  O   UNL A   1      34.146  32.471  32.204  1.00  0.00    -0.237 OA
ATOM     95  O   UNL A   1      34.899  34.791  31.806  1.00  0.00    -0.237 OA
ATOM     96  O   UNL A   1      33.983  33.456  29.947  1.00  0.00    -0.744 OA
ENDBRANCH  92  93
ENDBRANCH  64  87
BRANCH  76  97
ATOM     97  C   UNL A   1      44.882  35.592  31.444  1.00  0.00    -0.014 A 
ATOM     98  C   UNL A   1      44.955  35.735  32.842  1.00  0.00     0.010 A 
ATOM     99  C   UNL A   1      44.958  36.739  30.633  1.00  0.00     0.010 A 
ATOM    100  C   UNL A   1      45.054  37.002  33.422  1.00  0.00     0.020 A 
ATOM    101  C   UNL A   1      45.088  38.006  31.210  1.00  0.00     0.020 A 
ATOM    102  C   UNL A   1      45.106  38.131  32.601  1.00  0.00     0.054 A 
BRANCH 102 103
ATOM    103  S   UNL A   1      45.184  39.771  33.373  1.00  0.00     0.124 S 
ATOM    104  O   UNL A   1      44.774  39.484  34.744  1.00  0.00    -0.237 OA
ATOM    105  O   UNL A   1      46.587  40.142  33.200  1.00  0.00    -0.237 OA
ATOM    106  O   UNL A   1      44.238  40.563  32.591  1.00  0.00    -0.744 OA
ENDBRANCH 102 103
ENDBRANCH  76  97
ENDBRANCH  50  51
ENDBRANCH  42  45
ENDBRANCH  40  41
ENDBRANCH  39  40
ENDBRANCH  38  39
ENDBRANCH   1  38
TORSDOF 22
ENDMDL
