MODEL 1
REMARK VINA RESULT:      -9.3      0.000      0.000
REMARK SMILES O=C(Cc1ccccc1Nc1c(Cl)cccc1Cl)NCCCCNC(=O)c1ccc(-c2c3nc(c(-c4ccc(S(=O)(=O)[O-])cc4)c4ccc([nH]4)c(-c4ccc(S(=O)(=O)[O-])cc4)c4nc(c(-c5ccc(S(=O)(=O)[O-])cc5)c5ccc2[nH]5)C=C4)C=C3)cc1
REMARK SMILES IDX 21 1 20 2 19 3 1 4 2 5 3 7 4 8 5 9 9 10 6 11 8 12 7 13 10 14
REMARK SMILES IDX 11 16 12 17 17 18 13 19 14 20 16 21 18 22 15 23 22 24 23 25
REMARK SMILES IDX 24 26 25 27 26 29 27 30 28 31 86 32 29 33 85 34 30 35 31 36
REMARK SMILES IDX 32 37 79 38 33 39 84 40 78 41 80 42 34 43 83 44 77 45 76 46
REMARK SMILES IDX 35 48 65 49 46 50 64 51 47 52 50 53 63 54 81 55 48 56 49 57
REMARK SMILES IDX 62 59 82 60 51 61 36 62 37 63 45 64 38 65 44 66 39 67 40 68
REMARK SMILES IDX 41 69 42 70 43 71 66 72 67 73 75 74 68 75 74 76 69 77 70 78
REMARK SMILES IDX 71 79 72 80 73 81 52 82 53 83 61 84 54 85 60 86 55 87 56 88
REMARK SMILES IDX 57 89 58 90 59 91
REMARK H PARENT 19 6 10 15 24 28 80 47 50 58
REMARK Flexibility Score: inf
ROOT
ATOM      1  C   UNL A   1      34.798  32.619  30.630  1.00  0.00     0.023 C 
ENDROOT
BRANCH   1   2
ATOM      2  C   UNL A   1      34.708  33.276  32.008  1.00  0.00     0.116 C 
BRANCH   2   3
ATOM      3  N   UNL A   1      36.004  33.369  32.649  1.00  0.00    -0.356 N 
ATOM      4  O   UNL A   1      35.763  35.477  33.547  1.00  0.00    -0.275 OA
ATOM      5  C   UNL A   1      36.433  34.463  33.374  1.00  0.00     0.224 C 
ATOM      6  H   UNL A   1      36.618  32.605  32.561  1.00  0.00     0.163 HD
BRANCH   5   7
ATOM      7  C   UNL A   1      37.844  34.323  33.932  1.00  0.00     0.137 C 
BRANCH   7   8
ATOM      8  C   UNL A   1      37.881  33.459  35.174  1.00  0.00    -0.015 A 
ATOM      9  C   UNL A   1      37.124  33.872  36.290  1.00  0.00     0.006 A 
ATOM     10  C   UNL A   1      38.686  32.303  35.266  1.00  0.00     0.042 A 
ATOM     11  C   UNL A   1      37.188  33.182  37.497  1.00  0.00     0.000 A 
ATOM     12  C   UNL A   1      38.729  31.623  36.495  1.00  0.00     0.026 A 
ATOM     13  C   UNL A   1      37.999  32.061  37.602  1.00  0.00     0.002 A 
BRANCH  10  14
ATOM     14  N   UNL A   1      39.382  31.813  34.138  1.00  0.00    -0.353 N 
ATOM     15  H   UNL A   1      39.677  32.501  33.498  1.00  0.00     0.167 HD
BRANCH  14  16
ATOM     16  C   UNL A   1      39.721  30.480  33.787  1.00  0.00     0.076 A 
ATOM     17  C   UNL A   1      38.766  29.684  33.118  1.00  0.00     0.066 A 
ATOM     18  C   UNL A   1      41.000  29.915  33.981  1.00  0.00     0.066 A 
ATOM     19  Cl  UNL A   1      37.152  30.261  32.868  1.00  0.00    -0.082 Cl
ATOM     20  C   UNL A   1      39.082  28.413  32.621  1.00  0.00     0.023 A 
ATOM     21  C   UNL A   1      41.317  28.644  33.475  1.00  0.00     0.023 A 
ATOM     22  Cl  UNL A   1      42.225  30.686  34.935  1.00  0.00    -0.082 Cl
ATOM     23  C   UNL A   1      40.364  27.899  32.786  1.00  0.00     0.003 A 
ENDBRANCH  14  16
ENDBRANCH  10  14
ENDBRANCH   7   8
ENDBRANCH   5   7
ENDBRANCH   2   3
ENDBRANCH   1   2
BRANCH   1  24
ATOM     24  C   UNL A   1      34.720  33.578  29.436  1.00  0.00     0.023 C 
BRANCH  24  25
ATOM     25  C   UNL A   1      34.969  32.954  28.066  1.00  0.00     0.116 C 
BRANCH  25  26
ATOM     26  N   UNL A   1      34.095  31.824  27.794  1.00  0.00    -0.352 N 
ATOM     27  C   UNL A   1      34.393  30.484  27.702  1.00  0.00     0.251 C 
ATOM     28  H   UNL A   1      33.147  32.051  27.653  1.00  0.00     0.163 HD
ATOM     29  O   UNL A   1      33.531  29.699  27.310  1.00  0.00    -0.269 OA
BRANCH  27  30
ATOM     30  C   UNL A   1      35.745  29.984  28.042  1.00  0.00     0.039 A 
ATOM     31  C   UNL A   1      36.742  30.015  27.061  1.00  0.00     0.014 A 
ATOM     32  C   UNL A   1      36.037  29.472  29.309  1.00  0.00     0.014 A 
ATOM     33  C   UNL A   1      38.041  29.605  27.372  1.00  0.00     0.010 A 
ATOM     34  C   UNL A   1      37.350  29.134  29.640  1.00  0.00     0.010 A 
ATOM     35  C   UNL A   1      38.369  29.199  28.677  1.00  0.00    -0.014 A 
BRANCH  35  36
ATOM     36  C   UNL A   1      39.768  28.857  29.052  1.00  0.00     0.031 A 
ATOM     37  C   UNL A   1      40.656  29.882  29.709  1.00  0.00     0.074 A 
ATOM     38  C   UNL A   1      40.262  27.639  28.749  1.00  0.00     0.049 A 
ATOM     39  N   UNL A   1      41.916  29.782  30.051  1.00  0.00    -0.248 NA
ATOM     40  C   UNL A   1      40.059  31.195  29.995  1.00  0.00     0.031 C 
ATOM     41  C   UNL A   1      39.521  26.567  28.081  1.00  0.00     0.029 A 
ATOM     42  N   UNL A   1      41.509  27.099  28.953  1.00  0.00    -0.354 N 
ATOM     43  C   UNL A   1      42.264  31.018  30.584  1.00  0.00     0.074 A 
ATOM     44  C   UNL A   1      41.099  31.869  30.467  1.00  0.00     0.031 C 
ATOM     45  C   UNL A   1      40.318  25.493  27.954  1.00  0.00     0.029 A 
ATOM     46  C   UNL A   1      41.638  25.812  28.487  1.00  0.00     0.049 A 
ATOM     47  H   UNL A   1      42.242  27.589  29.393  1.00  0.00     0.167 HD
ATOM     48  C   UNL A   1      43.438  31.407  31.137  1.00  0.00     0.031 A 
ATOM     49  C   UNL A   1      42.700  24.982  28.474  1.00  0.00     0.031 A 
ATOM     50  C   UNL A   1      44.598  30.561  31.252  1.00  0.00     0.049 A 
ATOM     51  C   UNL A   1      44.003  25.445  29.068  1.00  0.00     0.074 A 
ATOM     52  C   UNL A   1      45.819  30.850  31.837  1.00  0.00     0.029 A 
ATOM     53  N   UNL A   1      44.685  29.264  30.768  1.00  0.00    -0.354 N 
ATOM     54  N   UNL A   1      44.292  26.598  29.622  1.00  0.00    -0.248 NA
ATOM     55  C   UNL A   1      45.119  24.489  29.049  1.00  0.00     0.031 C 
ATOM     56  C   UNL A   1      46.663  29.751  31.653  1.00  0.00     0.029 A 
ATOM     57  C   UNL A   1      45.947  28.750  31.018  1.00  0.00     0.049 A 
ATOM     58  H   UNL A   1      43.958  28.779  30.315  1.00  0.00     0.167 HD
ATOM     59  C   UNL A   1      45.614  26.495  30.042  1.00  0.00     0.074 A 
ATOM     60  C   UNL A   1      46.061  25.163  29.693  1.00  0.00     0.031 C 
ATOM     61  C   UNL A   1      46.386  27.423  30.663  1.00  0.00     0.031 A 
BRANCH  48  62
ATOM     62  C   UNL A   1      43.530  32.820  31.657  1.00  0.00    -0.014 A 
ATOM     63  C   UNL A   1      43.252  33.120  33.003  1.00  0.00     0.010 A 
ATOM     64  C   UNL A   1      43.941  33.857  30.799  1.00  0.00     0.010 A 
ATOM     65  C   UNL A   1      43.336  34.435  33.470  1.00  0.00     0.020 A 
ATOM     66  C   UNL A   1      44.059  35.169  31.270  1.00  0.00     0.020 A 
ATOM     67  C   UNL A   1      43.737  35.451  32.599  1.00  0.00     0.054 A 
BRANCH  67  68
ATOM     68  S   UNL A   1      43.854  37.145  33.236  1.00  0.00     0.124 S 
ATOM     69  O   UNL A   1      45.125  37.108  33.956  1.00  0.00    -0.237 OA
ATOM     70  O   UNL A   1      43.846  37.947  32.016  1.00  0.00    -0.237 OA
ATOM     71  O   UNL A   1      42.668  37.283  34.078  1.00  0.00    -0.744 OA
ENDBRANCH  67  68
ENDBRANCH  48  62
BRANCH  49  72
ATOM     72  C   UNL A   1      42.573  23.622  27.877  1.00  0.00    -0.014 A 
ATOM     73  C   UNL A   1      42.043  22.556  28.625  1.00  0.00     0.010 A 
ATOM     74  C   UNL A   1      42.971  23.392  26.547  1.00  0.00     0.010 A 
ATOM     75  C   UNL A   1      41.930  21.282  28.061  1.00  0.00     0.020 A 
ATOM     76  C   UNL A   1      42.829  22.127  25.969  1.00  0.00     0.020 A 
ATOM     77  C   UNL A   1      42.320  21.077  26.734  1.00  0.00     0.054 A 
BRANCH  77  78
ATOM     78  S   UNL A   1      42.112  19.428  26.006  1.00  0.00     0.124 S 
ATOM     79  O   UNL A   1      42.638  18.563  27.057  1.00  0.00    -0.237 OA
ATOM     80  O   UNL A   1      40.669  19.358  25.791  1.00  0.00    -0.237 OA
ATOM     81  O   UNL A   1      42.914  19.489  24.786  1.00  0.00    -0.744 OA
ENDBRANCH  77  78
ENDBRANCH  49  72
BRANCH  61  82
ATOM     82  C   UNL A   1      47.788  27.021  31.042  1.00  0.00    -0.014 A 
ATOM     83  C   UNL A   1      48.068  26.402  32.274  1.00  0.00     0.010 A 
ATOM     84  C   UNL A   1      48.836  27.218  30.123  1.00  0.00     0.010 A 
ATOM     85  C   UNL A   1      49.374  26.018  32.591  1.00  0.00     0.020 A 
ATOM     86  C   UNL A   1      50.137  26.805  30.423  1.00  0.00     0.020 A 
ATOM     87  C   UNL A   1      50.400  26.220  31.662  1.00  0.00     0.054 A 
BRANCH  87  88
ATOM     88  S   UNL A   1      52.077  25.669  32.081  1.00  0.00     0.124 S 
ATOM     89  O   UNL A   1      51.883  24.236  32.289  1.00  0.00    -0.237 OA
ATOM     90  O   UNL A   1      52.839  26.033  30.889  1.00  0.00    -0.237 OA
ATOM     91  O   UNL A   1      52.404  26.435  33.281  1.00  0.00    -0.744 OA
ENDBRANCH  87  88
ENDBRANCH  61  82
ENDBRANCH  35  36
ENDBRANCH  27  30
ENDBRANCH  25  26
ENDBRANCH  24  25
ENDBRANCH   1  24
TORSDOF 17
ENDMDL
MODEL 2
REMARK VINA RESULT:      -9.2      4.029      7.079
REMARK SMILES O=C(Cc1ccccc1Nc1c(Cl)cccc1Cl)NCCCCNC(=O)c1ccc(-c2c3nc(c(-c4ccc(S(=O)(=O)[O-])cc4)c4ccc([nH]4)c(-c4ccc(S(=O)(=O)[O-])cc4)c4nc(c(-c5ccc(S(=O)(=O)[O-])cc5)c5ccc2[nH]5)C=C4)C=C3)cc1
REMARK SMILES IDX 21 1 20 2 19 3 1 4 2 5 3 7 4 8 5 9 9 10 6 11 8 12 7 13 10 14
REMARK SMILES IDX 11 16 12 17 17 18 13 19 14 20 16 21 18 22 15 23 22 24 23 25
REMARK SMILES IDX 24 26 25 27 26 29 27 30 28 31 86 32 29 33 85 34 30 35 31 36
REMARK SMILES IDX 32 37 79 38 33 39 84 40 78 41 80 42 34 43 83 44 77 45 76 46
REMARK SMILES IDX 35 48 65 49 46 50 64 51 47 52 50 53 63 54 81 55 48 56 49 57
REMARK SMILES IDX 62 59 82 60 51 61 36 62 37 63 45 64 38 65 44 66 39 67 40 68
REMARK SMILES IDX 41 69 42 70 43 71 66 72 67 73 75 74 68 75 74 76 69 77 70 78
REMARK SMILES IDX 71 79 72 80 73 81 52 82 53 83 61 84 54 85 60 86 55 87 56 88
REMARK SMILES IDX 57 89 58 90 59 91
REMARK H PARENT 19 6 10 15 24 28 80 47 50 58
REMARK Flexibility Score: inf
ROOT
ATOM      1  C   UNL A   1      33.765  28.657  24.557  1.00  0.00     0.023 C 
ENDROOT
BRANCH   1   2
ATOM      2  C   UNL A   1      33.417  28.184  23.145  1.00  0.00     0.116 C 
BRANCH   2   3
ATOM      3  N   UNL A   1      33.006  26.796  23.125  1.00  0.00    -0.356 N 
ATOM      4  O   UNL A   1      31.172  27.028  21.750  1.00  0.00    -0.275 OA
ATOM      5  C   UNL A   1      31.915  26.321  22.425  1.00  0.00     0.224 C 
ATOM      6  H   UNL A   1      33.538  26.150  23.644  1.00  0.00     0.163 HD
BRANCH   5   7
ATOM      7  C   UNL A   1      31.682  24.823  22.582  1.00  0.00     0.137 C 
BRANCH   7   8
ATOM      8  C   UNL A   1      31.216  24.463  23.976  1.00  0.00    -0.015 A 
ATOM      9  C   UNL A   1      30.321  25.342  24.622  1.00  0.00     0.006 A 
ATOM     10  C   UNL A   1      31.690  23.323  24.660  1.00  0.00     0.042 A 
ATOM     11  C   UNL A   1      29.929  25.128  25.940  1.00  0.00     0.000 A 
ATOM     12  C   UNL A   1      31.275  23.129  25.989  1.00  0.00     0.026 A 
ATOM     13  C   UNL A   1      30.414  24.024  26.627  1.00  0.00     0.002 A 
BRANCH  10  14
ATOM     14  N   UNL A   1      32.513  22.376  24.009  1.00  0.00    -0.353 N 
ATOM     15  H   UNL A   1      32.171  22.053  23.143  1.00  0.00     0.167 HD
BRANCH  14  16
ATOM     16  C   UNL A   1      33.755  21.822  24.411  1.00  0.00     0.076 A 
ATOM     17  C   UNL A   1      33.839  20.434  24.653  1.00  0.00     0.066 A 
ATOM     18  C   UNL A   1      34.956  22.559  24.498  1.00  0.00     0.066 A 
ATOM     19  Cl  UNL A   1      32.420  19.442  24.620  1.00  0.00    -0.082 Cl
ATOM     20  C   UNL A   1      35.062  19.802  24.917  1.00  0.00     0.023 A 
ATOM     21  C   UNL A   1      36.182  21.923  24.754  1.00  0.00     0.023 A 
ATOM     22  Cl  UNL A   1      34.997  24.289  24.404  1.00  0.00    -0.082 Cl
ATOM     23  C   UNL A   1      36.237  20.546  24.951  1.00  0.00     0.003 A 
ENDBRANCH  14  16
ENDBRANCH  10  14
ENDBRANCH   7   8
ENDBRANCH   5   7
ENDBRANCH   2   3
ENDBRANCH   1   2
BRANCH   1  24
ATOM     24  C   UNL A   1      33.045  27.923  25.695  1.00  0.00     0.023 C 
BRANCH  24  25
ATOM     25  C   UNL A   1      33.471  28.310  27.108  1.00  0.00     0.116 C 
BRANCH  25  26
ATOM     26  N   UNL A   1      33.447  29.746  27.333  1.00  0.00    -0.352 N 
ATOM     27  C   UNL A   1      34.406  30.567  27.876  1.00  0.00     0.251 C 
ATOM     28  H   UNL A   1      32.618  30.199  27.055  1.00  0.00     0.163 HD
ATOM     29  O   UNL A   1      34.130  31.740  28.121  1.00  0.00    -0.269 OA
BRANCH  27  30
ATOM     30  C   UNL A   1      35.757  30.048  28.194  1.00  0.00     0.039 A 
ATOM     31  C   UNL A   1      36.735  30.053  27.195  1.00  0.00     0.014 A 
ATOM     32  C   UNL A   1      36.065  29.544  29.461  1.00  0.00     0.014 A 
ATOM     33  C   UNL A   1      38.033  29.623  27.485  1.00  0.00     0.010 A 
ATOM     34  C   UNL A   1      37.377  29.188  29.770  1.00  0.00     0.010 A 
ATOM     35  C   UNL A   1      38.378  29.225  28.787  1.00  0.00    -0.014 A 
BRANCH  35  36
ATOM     36  C   UNL A   1      39.779  28.864  29.140  1.00  0.00     0.031 A 
ATOM     37  C   UNL A   1      40.688  29.871  29.795  1.00  0.00     0.074 A 
ATOM     38  C   UNL A   1      40.255  27.644  28.816  1.00  0.00     0.049 A 
ATOM     39  N   UNL A   1      41.951  29.753  30.119  1.00  0.00    -0.248 NA
ATOM     40  C   UNL A   1      40.109  31.187  30.105  1.00  0.00     0.031 C 
ATOM     41  C   UNL A   1      39.493  26.588  28.147  1.00  0.00     0.029 A 
ATOM     42  N   UNL A   1      41.499  27.088  28.997  1.00  0.00    -0.354 N 
ATOM     43  C   UNL A   1      42.320  30.979  30.661  1.00  0.00     0.074 A 
ATOM     44  C   UNL A   1      41.163  31.844  30.570  1.00  0.00     0.031 C 
ATOM     45  C   UNL A   1      40.276  25.506  27.997  1.00  0.00     0.029 A 
ATOM     46  C   UNL A   1      41.607  25.805  28.515  1.00  0.00     0.049 A 
ATOM     47  H   UNL A   1      42.243  27.564  29.433  1.00  0.00     0.167 HD
ATOM     48  C   UNL A   1      43.506  31.350  31.202  1.00  0.00     0.031 A 
ATOM     49  C   UNL A   1      42.659  24.963  28.478  1.00  0.00     0.031 A 
ATOM     50  C   UNL A   1      44.657  30.489  31.291  1.00  0.00     0.049 A 
ATOM     51  C   UNL A   1      43.975  25.405  29.060  1.00  0.00     0.074 A 
ATOM     52  C   UNL A   1      45.889  30.758  31.863  1.00  0.00     0.029 A 
ATOM     53  N   UNL A   1      44.723  29.197  30.792  1.00  0.00    -0.354 N 
ATOM     54  N   UNL A   1      44.285  26.548  29.623  1.00  0.00    -0.248 NA
ATOM     55  C   UNL A   1      45.080  24.437  29.014  1.00  0.00     0.031 C 
ATOM     56  C   UNL A   1      46.719  29.652  31.655  1.00  0.00     0.029 A 
ATOM     57  C   UNL A   1      45.983  28.666  31.019  1.00  0.00     0.049 A 
ATOM     58  H   UNL A   1      43.984  28.725  30.344  1.00  0.00     0.167 HD
ATOM     59  C   UNL A   1      45.611  26.426  30.023  1.00  0.00     0.074 A 
ATOM     60  C   UNL A   1      46.039  25.093  29.653  1.00  0.00     0.031 C 
ATOM     61  C   UNL A   1      46.402  27.338  30.644  1.00  0.00     0.031 A 
BRANCH  48  62
ATOM     62  C   UNL A   1      43.621  32.755  31.736  1.00  0.00    -0.014 A 
ATOM     63  C   UNL A   1      43.248  33.065  33.057  1.00  0.00     0.010 A 
ATOM     64  C   UNL A   1      44.148  33.774  30.921  1.00  0.00     0.010 A 
ATOM     65  C   UNL A   1      43.355  34.374  33.537  1.00  0.00     0.020 A 
ATOM     66  C   UNL A   1      44.288  35.078  31.408  1.00  0.00     0.020 A 
ATOM     67  C   UNL A   1      43.872  35.372  32.708  1.00  0.00     0.054 A 
BRANCH  67  68
ATOM     68  S   UNL A   1      44.015  37.056  33.363  1.00  0.00     0.124 S 
ATOM     69  O   UNL A   1      43.787  37.865  32.168  1.00  0.00    -0.237 OA
ATOM     70  O   UNL A   1      42.952  37.101  34.364  1.00  0.00    -0.237 OA
ATOM     71  O   UNL A   1      45.373  37.109  33.898  1.00  0.00    -0.744 OA
ENDBRANCH  67  68
ENDBRANCH  48  62
BRANCH  49  72
ATOM     72  C   UNL A   1      42.509  23.611  27.868  1.00  0.00    -0.014 A 
ATOM     73  C   UNL A   1      42.800  23.401  26.509  1.00  0.00     0.010 A 
ATOM     74  C   UNL A   1      42.085  22.523  28.653  1.00  0.00     0.010 A 
ATOM     75  C   UNL A   1      42.654  22.131  25.941  1.00  0.00     0.020 A 
ATOM     76  C   UNL A   1      41.968  21.246  28.097  1.00  0.00     0.020 A 
ATOM     77  C   UNL A   1      42.242  21.060  26.741  1.00  0.00     0.054 A 
BRANCH  77  78
ATOM     78  S   UNL A   1      42.113  19.411  25.995  1.00  0.00     0.124 S 
ATOM     79  O   UNL A   1      40.679  19.301  25.749  1.00  0.00    -0.237 OA
ATOM     80  O   UNL A   1      42.952  19.536  24.807  1.00  0.00    -0.237 OA
ATOM     81  O   UNL A   1      42.640  18.526  27.031  1.00  0.00    -0.744 OA
ENDBRANCH  77  78
ENDBRANCH  49  72
BRANCH  61  82
ATOM     82  C   UNL A   1      47.804  26.917  30.998  1.00  0.00    -0.014 A 
ATOM     83  C   UNL A   1      48.854  26.996  30.065  1.00  0.00     0.010 A 
ATOM     84  C   UNL A   1      48.087  26.484  32.308  1.00  0.00     0.010 A 
ATOM     85  C   UNL A   1      50.151  26.621  30.426  1.00  0.00     0.020 A 
ATOM     86  C   UNL A   1      49.388  26.139  32.682  1.00  0.00     0.020 A 
ATOM     87  C   UNL A   1      50.410  26.197  31.733  1.00  0.00     0.054 A 
BRANCH  87  88
ATOM     88  S   UNL A   1      52.111  25.760  32.188  1.00  0.00     0.124 S 
ATOM     89  O   UNL A   1      52.890  26.513  31.208  1.00  0.00    -0.237 OA
ATOM     90  O   UNL A   1      52.206  26.237  33.566  1.00  0.00    -0.237 OA
ATOM     91  O   UNL A   1      52.150  24.308  32.033  1.00  0.00    -0.744 OA
ENDBRANCH  87  88
ENDBRANCH  61  82
ENDBRANCH  35  36
ENDBRANCH  27  30
ENDBRANCH  25  26
ENDBRANCH  24  25
ENDBRANCH   1  24
TORSDOF 17
ENDMDL
MODEL 3
REMARK VINA RESULT:      -8.9      5.237     12.323
REMARK SMILES O=C(Cc1ccccc1Nc1c(Cl)cccc1Cl)NCCCCNC(=O)c1ccc(-c2c3nc(c(-c4ccc(S(=O)(=O)[O-])cc4)c4ccc([nH]4)c(-c4ccc(S(=O)(=O)[O-])cc4)c4nc(c(-c5ccc(S(=O)(=O)[O-])cc5)c5ccc2[nH]5)C=C4)C=C3)cc1
REMARK SMILES IDX 21 1 20 2 19 3 1 4 2 5 3 7 4 8 5 9 9 10 6 11 8 12 7 13 10 14
REMARK SMILES IDX 11 16 12 17 17 18 13 19 14 20 16 21 18 22 15 23 22 24 23 25
REMARK SMILES IDX 24 26 25 27 26 29 27 30 28 31 86 32 29 33 85 34 30 35 31 36
REMARK SMILES IDX 32 37 79 38 33 39 84 40 78 41 80 42 34 43 83 44 77 45 76 46
REMARK SMILES IDX 35 48 65 49 46 50 64 51 47 52 50 53 63 54 81 55 48 56 49 57
REMARK SMILES IDX 62 59 82 60 51 61 36 62 37 63 45 64 38 65 44 66 39 67 40 68
REMARK SMILES IDX 41 69 42 70 43 71 66 72 67 73 75 74 68 75 74 76 69 77 70 78
REMARK SMILES IDX 71 79 72 80 73 81 52 82 53 83 61 84 54 85 60 86 55 87 56 88
REMARK SMILES IDX 57 89 58 90 59 91
REMARK H PARENT 19 6 10 15 24 28 80 47 50 58
REMARK Flexibility Score: inf
ROOT
ATOM      1  C   UNL A   1      39.615  21.954  26.424  1.00  0.00     0.023 C 
ENDROOT
BRANCH   1   2
ATOM      2  C   UNL A   1      38.660  23.050  25.948  1.00  0.00     0.116 C 
BRANCH   2   3
ATOM      3  N   UNL A   1      37.290  22.778  26.333  1.00  0.00    -0.356 N 
ATOM      4  O   UNL A   1      36.409  22.539  24.217  1.00  0.00    -0.275 OA
ATOM      5  C   UNL A   1      36.267  22.539  25.437  1.00  0.00     0.224 C 
ATOM      6  H   UNL A   1      37.075  22.763  27.293  1.00  0.00     0.163 HD
BRANCH   5   7
ATOM      7  C   UNL A   1      34.912  22.298  26.092  1.00  0.00     0.137 C 
BRANCH   7   8
ATOM      8  C   UNL A   1      33.906  21.719  25.121  1.00  0.00    -0.015 A 
ATOM      9  C   UNL A   1      33.771  20.315  25.066  1.00  0.00     0.006 A 
ATOM     10  C   UNL A   1      33.156  22.527  24.239  1.00  0.00     0.042 A 
ATOM     11  C   UNL A   1      32.940  19.709  24.128  1.00  0.00     0.000 A 
ATOM     12  C   UNL A   1      32.322  21.888  23.305  1.00  0.00     0.026 A 
ATOM     13  C   UNL A   1      32.221  20.497  23.240  1.00  0.00     0.002 A 
BRANCH  10  14
ATOM     14  N   UNL A   1      33.201  23.936  24.332  1.00  0.00    -0.353 N 
ATOM     15  H   UNL A   1      34.106  24.326  24.328  1.00  0.00     0.167 HD
BRANCH  14  16
ATOM     16  C   UNL A   1      32.142  24.875  24.431  1.00  0.00     0.076 A 
ATOM     17  C   UNL A   1      32.071  25.929  23.494  1.00  0.00     0.066 A 
ATOM     18  C   UNL A   1      31.084  24.775  25.359  1.00  0.00     0.066 A 
ATOM     19  Cl  UNL A   1      33.339  26.173  22.339  1.00  0.00    -0.082 Cl
ATOM     20  C   UNL A   1      30.979  26.805  23.449  1.00  0.00     0.023 A 
ATOM     21  C   UNL A   1      29.986  25.649  25.308  1.00  0.00     0.023 A 
ATOM     22  Cl  UNL A   1      31.107  23.653  26.681  1.00  0.00    -0.082 Cl
ATOM     23  C   UNL A   1      29.928  26.654  24.347  1.00  0.00     0.003 A 
ENDBRANCH  14  16
ENDBRANCH  10  14
ENDBRANCH   7   8
ENDBRANCH   5   7
ENDBRANCH   2   3
ENDBRANCH   1   2
BRANCH   1  24
ATOM     24  C   UNL A   1      40.461  22.305  27.654  1.00  0.00     0.023 C 
BRANCH  24  25
ATOM     25  C   UNL A   1      41.822  22.933  27.365  1.00  0.00     0.116 C 
BRANCH  25  26
ATOM     26  N   UNL A   1      41.808  23.799  26.198  1.00  0.00    -0.352 N 
ATOM     27  C   UNL A   1      41.575  25.152  26.109  1.00  0.00     0.251 C 
ATOM     28  H   UNL A   1      41.993  23.351  25.341  1.00  0.00     0.163 HD
ATOM     29  O   UNL A   1      41.457  25.673  25.002  1.00  0.00    -0.269 OA
BRANCH  27  30
ATOM     30  C   UNL A   1      41.435  25.978  27.331  1.00  0.00     0.039 A 
ATOM     31  C   UNL A   1      42.489  26.820  27.701  1.00  0.00     0.014 A 
ATOM     32  C   UNL A   1      40.283  25.922  28.122  1.00  0.00     0.014 A 
ATOM     33  C   UNL A   1      42.359  27.654  28.815  1.00  0.00     0.010 A 
ATOM     34  C   UNL A   1      40.126  26.808  29.188  1.00  0.00     0.010 A 
ATOM     35  C   UNL A   1      41.160  27.687  29.546  1.00  0.00    -0.014 A 
BRANCH  35  36
ATOM     36  C   UNL A   1      40.966  28.642  30.671  1.00  0.00     0.031 A 
ATOM     37  C   UNL A   1      41.809  28.540  31.916  1.00  0.00     0.074 A 
ATOM     38  C   UNL A   1      39.989  29.569  30.599  1.00  0.00     0.049 A 
ATOM     39  N   UNL A   1      41.742  29.245  33.017  1.00  0.00    -0.248 NA
ATOM     40  C   UNL A   1      42.844  27.496  31.934  1.00  0.00     0.031 C 
ATOM     41  C   UNL A   1      39.078  29.753  29.467  1.00  0.00     0.029 A 
ATOM     42  N   UNL A   1      39.591  30.527  31.501  1.00  0.00    -0.354 N 
ATOM     43  C   UNL A   1      42.716  28.726  33.861  1.00  0.00     0.074 A 
ATOM     44  C   UNL A   1      43.322  27.610  33.166  1.00  0.00     0.031 C 
ATOM     45  C   UNL A   1      38.246  30.774  29.732  1.00  0.00     0.029 A 
ATOM     46  C   UNL A   1      38.531  31.289  31.067  1.00  0.00     0.049 A 
ATOM     47  H   UNL A   1      40.025  30.656  32.376  1.00  0.00     0.167 HD
ATOM     48  C   UNL A   1      43.089  29.147  35.094  1.00  0.00     0.031 A 
ATOM     49  C   UNL A   1      37.852  32.281  31.676  1.00  0.00     0.031 A 
ATOM     50  C   UNL A   1      42.484  30.256  35.786  1.00  0.00     0.049 A 
ATOM     51  C   UNL A   1      38.264  32.715  33.057  1.00  0.00     0.074 A 
ATOM     52  C   UNL A   1      42.822  30.787  37.019  1.00  0.00     0.029 A 
ATOM     53  N   UNL A   1      41.416  31.001  35.310  1.00  0.00    -0.354 N 
ATOM     54  N   UNL A   1      39.230  32.249  33.813  1.00  0.00    -0.248 NA
ATOM     55  C   UNL A   1      37.504  33.817  33.662  1.00  0.00     0.031 C 
ATOM     56  C   UNL A   1      41.919  31.813  37.316  1.00  0.00     0.029 A 
ATOM     57  C   UNL A   1      41.064  31.970  36.237  1.00  0.00     0.049 A 
ATOM     58  H   UNL A   1      40.972  30.864  34.442  1.00  0.00     0.167 HD
ATOM     59  C   UNL A   1      39.211  33.021  34.970  1.00  0.00     0.074 A 
ATOM     60  C   UNL A   1      38.150  33.993  34.807  1.00  0.00     0.031 C 
ATOM     61  C   UNL A   1      40.004  32.932  36.068  1.00  0.00     0.031 A 
BRANCH  48  62
ATOM     62  C   UNL A   1      44.202  28.397  35.781  1.00  0.00    -0.014 A 
ATOM     63  C   UNL A   1      45.546  28.782  35.622  1.00  0.00     0.010 A 
ATOM     64  C   UNL A   1      43.899  27.318  36.633  1.00  0.00     0.010 A 
ATOM     65  C   UNL A   1      46.568  28.074  36.260  1.00  0.00     0.020 A 
ATOM     66  C   UNL A   1      44.916  26.628  37.301  1.00  0.00     0.020 A 
ATOM     67  C   UNL A   1      46.246  27.000  37.094  1.00  0.00     0.054 A 
BRANCH  67  68
ATOM     68  S   UNL A   1      47.592  26.111  37.923  1.00  0.00     0.124 S 
ATOM     69  O   UNL A   1      48.518  27.196  38.240  1.00  0.00    -0.237 OA
ATOM     70  O   UNL A   1      46.917  25.507  39.069  1.00  0.00    -0.237 OA
ATOM     71  O   UNL A   1      48.063  25.169  36.912  1.00  0.00    -0.744 OA
ENDBRANCH  67  68
ENDBRANCH  48  62
BRANCH  49  72
ATOM     72  C   UNL A   1      36.709  32.936  30.979  1.00  0.00    -0.014 A 
ATOM     73  C   UNL A   1      35.393  32.769  31.444  1.00  0.00     0.010 A 
ATOM     74  C   UNL A   1      36.937  33.745  29.850  1.00  0.00     0.010 A 
ATOM     75  C   UNL A   1      34.325  33.383  30.784  1.00  0.00     0.020 A 
ATOM     76  C   UNL A   1      35.876  34.387  29.206  1.00  0.00     0.020 A 
ATOM     77  C   UNL A   1      34.574  34.192  29.670  1.00  0.00     0.054 A 
BRANCH  77  78
ATOM     78  S   UNL A   1      33.177  35.023  28.864  1.00  0.00     0.124 S 
ATOM     79  O   UNL A   1      32.289  35.289  29.991  1.00  0.00    -0.237 OA
ATOM     80  O   UNL A   1      33.811  36.195  28.266  1.00  0.00    -0.237 OA
ATOM     81  O   UNL A   1      32.695  34.029  27.907  1.00  0.00    -0.744 OA
ENDBRANCH  77  78
ENDBRANCH  49  72
BRANCH  61  82
ATOM     82  C   UNL A   1      39.782  33.935  37.169  1.00  0.00    -0.014 A 
ATOM     83  C   UNL A   1      38.953  33.648  38.270  1.00  0.00     0.010 A 
ATOM     84  C   UNL A   1      40.460  35.168  37.130  1.00  0.00     0.010 A 
ATOM     85  C   UNL A   1      38.783  34.587  39.290  1.00  0.00     0.020 A 
ATOM     86  C   UNL A   1      40.317  36.096  38.164  1.00  0.00     0.020 A 
ATOM     87  C   UNL A   1      39.468  35.805  39.232  1.00  0.00     0.054 A 
BRANCH  87  88
ATOM     88  S   UNL A   1      39.265  36.987  40.593  1.00  0.00     0.124 S 
ATOM     89  O   UNL A   1      38.651  36.156  41.627  1.00  0.00    -0.237 OA
ATOM     90  O   UNL A   1      40.638  37.407  40.859  1.00  0.00    -0.237 OA
ATOM     91  O   UNL A   1      38.399  38.020  40.030  1.00  0.00    -0.744 OA
ENDBRANCH  87  88
ENDBRANCH  61  82
ENDBRANCH  35  36
ENDBRANCH  27  30
ENDBRANCH  25  26
ENDBRANCH  24  25
ENDBRANCH   1  24
TORSDOF 17
ENDMDL
