MODEL 1
REMARK VINA RESULT:     -14.1      0.000      0.000
REMARK SMILES CC1=Nc2c(c(C)nn2-c2ccc(F)cc2)[C@H](c2ccc(C(=O)NCCCCNC(=O)c3ccc(-c4c5nc(c(-c6ccc(S(=O)(=O)[O-])cc6)c6ccc([nH]6)c(-c6ccc(S(=O)(=O)[O-])cc6)c6nc(c(-c7ccc(S(=O)(=O)[O-])cc7)c7ccc4[nH]7)C=C6)C=C5)cc3)cc2)S1
REMARK SMILES IDX 27 1 26 2 25 3 24 4 22 5 23 6 21 8 18 9 19 10 93 11 20 12
REMARK SMILES IDX 92 13 17 14 1 15 2 16 3 17 94 18 4 19 5 20 9 21 6 22 8 23
REMARK SMILES IDX 7 24 10 25 11 26 16 27 12 28 15 29 13 30 14 31 28 32 29 33
REMARK SMILES IDX 30 34 31 36 32 37 33 38 91 39 34 40 90 41 35 42 36 43 37 44
REMARK SMILES IDX 84 45 38 46 89 47 83 48 85 49 39 50 88 51 82 52 81 53 40 55
REMARK SMILES IDX 70 56 51 57 69 58 52 59 55 60 68 61 86 62 53 63 54 64 67 66
REMARK SMILES IDX 87 67 56 68 41 69 42 70 50 71 43 72 49 73 44 74 45 75 46 76
REMARK SMILES IDX 47 77 48 78 71 79 72 80 80 81 73 82 79 83 74 84 75 85 76 86
REMARK SMILES IDX 77 87 78 88 57 89 58 90 66 91 59 92 65 93 60 94 61 95 62 96
REMARK SMILES IDX 63 97 64 98
REMARK H PARENT 24 7 29 35 85 54 55 65
REMARK Flexibility Score: inf
ROOT
ATOM      1  C   UNL A   1      37.349  22.018  24.622  1.00  0.00     0.023 C 
ENDROOT
BRANCH   1   2
ATOM      2  C   UNL A   1      36.530  20.778  25.012  1.00  0.00     0.023 C 
BRANCH   2   3
ATOM      3  C   UNL A   1      35.223  21.050  25.768  1.00  0.00     0.116 C 
BRANCH   3   4
ATOM      4  N   UNL A   1      34.201  20.082  25.427  1.00  0.00    -0.352 N 
ATOM      5  C   UNL A   1      32.963  20.214  24.852  1.00  0.00     0.251 C 
ATOM      6  O   UNL A   1      32.304  19.192  24.661  1.00  0.00    -0.269 OA
ATOM      7  H   UNL A   1      34.440  19.154  25.651  1.00  0.00     0.163 HD
BRANCH   5   8
ATOM      8  C   UNL A   1      32.394  21.521  24.425  1.00  0.00     0.039 A 
ATOM      9  C   UNL A   1      31.285  24.059  23.809  1.00  0.00    -0.030 A 
ATOM     10  C   UNL A   1      30.889  23.358  24.960  1.00  0.00     0.006 A 
ATOM     11  C   UNL A   1      32.247  23.464  22.978  1.00  0.00     0.006 A 
ATOM     12  C   UNL A   1      31.445  22.112  25.269  1.00  0.00     0.014 A 
ATOM     13  C   UNL A   1      32.802  22.218  23.290  1.00  0.00     0.014 A 
BRANCH   9  14
ATOM     14  C   UNL A   1      30.729  25.453  23.556  1.00  0.00     0.119 C 
ATOM     15  C   UNL A   1      33.904  27.474  21.826  1.00  0.00     0.075 C 
ATOM     16  C   UNL A   1      32.779  27.153  22.775  1.00  0.00     0.074 C 
ATOM     17  N   UNL A   1      32.896  27.568  23.996  1.00  0.00    -0.227 NA
ATOM     18  S   UNL A   1      31.426  26.272  22.082  1.00  0.00    -0.098 SA
ATOM     19  C   UNL A   1      31.957  27.190  24.895  1.00  0.00     0.161 A 
ATOM     20  C   UNL A   1      30.989  26.218  24.800  1.00  0.00     0.038 A 
ATOM     21  N   UNL A   1      31.912  27.656  26.198  1.00  0.00    -0.215 N 
ATOM     22  C   UNL A   1      30.429  26.132  26.103  1.00  0.00     0.067 A 
ATOM     23  N   UNL A   1      31.056  26.941  26.969  1.00  0.00    -0.171 NA
ATOM     24  C   UNL A   1      29.332  25.249  26.579  1.00  0.00     0.069 C 
BRANCH  21  25
ATOM     25  C   UNL A   1      32.650  28.742  26.717  1.00  0.00     0.067 A 
ATOM     26  C   UNL A   1      32.054  30.012  26.764  1.00  0.00     0.031 A 
ATOM     27  C   UNL A   1      33.976  28.555  27.121  1.00  0.00     0.031 A 
ATOM     28  C   UNL A   1      32.794  31.105  27.203  1.00  0.00     0.041 A 
ATOM     29  C   UNL A   1      34.726  29.668  27.508  1.00  0.00     0.041 A 
ATOM     30  C   UNL A   1      34.129  30.928  27.548  1.00  0.00     0.123 A 
ATOM     31  F   UNL A   1      34.854  31.990  27.920  1.00  0.00    -0.207 F 
ENDBRANCH  21  25
ENDBRANCH   9  14
ENDBRANCH   5   8
ENDBRANCH   3   4
ENDBRANCH   2   3
ENDBRANCH   1   2
BRANCH   1  32
ATOM     32  C   UNL A   1      37.956  22.789  25.788  1.00  0.00     0.116 C 
BRANCH  32  33
ATOM     33  N   UNL A   1      38.926  22.002  26.558  1.00  0.00    -0.352 N 
ATOM     34  C   UNL A   1      40.130  22.420  27.113  1.00  0.00     0.251 C 
ATOM     35  H   UNL A   1      38.695  21.056  26.700  1.00  0.00     0.163 HD
ATOM     36  O   UNL A   1      41.011  21.627  27.385  1.00  0.00    -0.269 OA
BRANCH  34  37
ATOM     37  C   UNL A   1      40.291  23.860  27.389  1.00  0.00     0.039 A 
ATOM     38  C   UNL A   1      39.358  24.823  26.996  1.00  0.00     0.014 A 
ATOM     39  C   UNL A   1      41.400  24.208  28.146  1.00  0.00     0.014 A 
ATOM     40  C   UNL A   1      39.512  26.131  27.463  1.00  0.00     0.010 A 
ATOM     41  C   UNL A   1      41.421  25.418  28.777  1.00  0.00     0.010 A 
ATOM     42  C   UNL A   1      40.540  26.413  28.373  1.00  0.00    -0.014 A 
BRANCH  42  43
ATOM     43  C   UNL A   1      40.734  27.729  28.963  1.00  0.00     0.031 A 
ATOM     44  C   UNL A   1      41.843  28.548  28.417  1.00  0.00     0.074 A 
ATOM     45  C   UNL A   1      39.816  28.277  29.789  1.00  0.00     0.049 A 
ATOM     46  N   UNL A   1      42.957  28.837  29.000  1.00  0.00    -0.248 NA
ATOM     47  C   UNL A   1      41.754  29.029  27.031  1.00  0.00     0.031 C 
ATOM     48  C   UNL A   1      38.513  27.736  30.213  1.00  0.00     0.029 A 
ATOM     49  N   UNL A   1      39.809  29.518  30.335  1.00  0.00    -0.354 N 
ATOM     50  C   UNL A   1      43.630  29.707  28.149  1.00  0.00     0.074 A 
ATOM     51  C   UNL A   1      42.929  29.650  26.889  1.00  0.00     0.031 C 
ATOM     52  C   UNL A   1      37.758  28.726  30.737  1.00  0.00     0.029 A 
ATOM     53  C   UNL A   1      38.591  29.903  30.876  1.00  0.00     0.049 A 
ATOM     54  H   UNL A   1      40.604  30.098  30.346  1.00  0.00     0.167 HD
ATOM     55  C   UNL A   1      44.579  30.570  28.613  1.00  0.00     0.031 A 
ATOM     56  C   UNL A   1      38.291  31.107  31.415  1.00  0.00     0.031 A 
ATOM     57  C   UNL A   1      44.923  30.294  29.986  1.00  0.00     0.049 A 
ATOM     58  C   UNL A   1      39.579  31.705  31.844  1.00  0.00     0.074 A 
ATOM     59  C   UNL A   1      45.462  29.216  30.658  1.00  0.00     0.029 A 
ATOM     60  N   UNL A   1      44.313  31.069  30.948  1.00  0.00    -0.354 N 
ATOM     61  N   UNL A   1      40.327  31.177  32.774  1.00  0.00    -0.248 NA
ATOM     62  C   UNL A   1      40.268  32.603  30.931  1.00  0.00     0.031 C 
ATOM     63  C   UNL A   1      44.731  29.145  31.882  1.00  0.00     0.029 A 
ATOM     64  C   UNL A   1      43.839  30.220  31.919  1.00  0.00     0.049 A 
ATOM     65  H   UNL A   1      44.231  32.051  30.941  1.00  0.00     0.167 HD
ATOM     66  C   UNL A   1      41.629  31.317  32.310  1.00  0.00     0.074 A 
ATOM     67  C   UNL A   1      41.535  32.301  31.232  1.00  0.00     0.031 C 
ATOM     68  C   UNL A   1      42.607  30.425  32.657  1.00  0.00     0.031 A 
BRANCH  55  69
ATOM     69  C   UNL A   1      44.935  31.884  27.967  1.00  0.00    -0.014 A 
ATOM     70  C   UNL A   1      46.283  32.139  27.640  1.00  0.00     0.010 A 
ATOM     71  C   UNL A   1      44.045  32.975  27.911  1.00  0.00     0.010 A 
ATOM     72  C   UNL A   1      46.729  33.434  27.345  1.00  0.00     0.020 A 
ATOM     73  C   UNL A   1      44.471  34.263  27.577  1.00  0.00     0.020 A 
ATOM     74  C   UNL A   1      45.820  34.490  27.334  1.00  0.00     0.054 A 
BRANCH  74  75
ATOM     75  S   UNL A   1      46.427  36.178  27.085  1.00  0.00     0.124 S 
ATOM     76  O   UNL A   1      47.365  36.325  28.195  1.00  0.00    -0.237 OA
ATOM     77  O   UNL A   1      47.024  36.100  25.756  1.00  0.00    -0.237 OA
ATOM     78  O   UNL A   1      45.218  36.994  27.175  1.00  0.00    -0.744 OA
ENDBRANCH  74  75
ENDBRANCH  55  69
BRANCH  56  79
ATOM     79  C   UNL A   1      37.020  31.855  31.290  1.00  0.00    -0.014 A 
ATOM     80  C   UNL A   1      35.969  31.667  32.204  1.00  0.00     0.010 A 
ATOM     81  C   UNL A   1      36.946  32.966  30.421  1.00  0.00     0.010 A 
ATOM     82  C   UNL A   1      34.915  32.593  32.291  1.00  0.00     0.020 A 
ATOM     83  C   UNL A   1      35.898  33.891  30.501  1.00  0.00     0.020 A 
ATOM     84  C   UNL A   1      34.899  33.712  31.454  1.00  0.00     0.054 A 
BRANCH  84  85
ATOM     85  S   UNL A   1      33.634  34.995  31.700  1.00  0.00     0.124 S 
ATOM     86  O   UNL A   1      32.964  35.023  30.404  1.00  0.00    -0.237 OA
ATOM     87  O   UNL A   1      32.848  34.456  32.807  1.00  0.00    -0.237 OA
ATOM     88  O   UNL A   1      34.413  36.190  32.022  1.00  0.00    -0.744 OA
ENDBRANCH  84  85
ENDBRANCH  56  79
BRANCH  68  89
ATOM     89  C   UNL A   1      42.290  29.399  33.727  1.00  0.00    -0.014 A 
ATOM     90  C   UNL A   1      41.673  28.161  33.451  1.00  0.00     0.010 A 
ATOM     91  C   UNL A   1      42.783  29.619  35.024  1.00  0.00     0.010 A 
ATOM     92  C   UNL A   1      41.537  27.181  34.447  1.00  0.00     0.020 A 
ATOM     93  C   UNL A   1      42.664  28.641  36.019  1.00  0.00     0.020 A 
ATOM     94  C   UNL A   1      42.036  27.429  35.728  1.00  0.00     0.054 A 
BRANCH  94  95
ATOM     95  S   UNL A   1      41.909  26.138  36.998  1.00  0.00     0.124 S 
ATOM     96  O   UNL A   1      40.526  26.271  37.451  1.00  0.00    -0.237 OA
ATOM     97  O   UNL A   1      42.211  24.917  36.255  1.00  0.00    -0.237 OA
ATOM     98  O   UNL A   1      42.920  26.517  37.984  1.00  0.00    -0.744 OA
ENDBRANCH  94  95
ENDBRANCH  68  89
ENDBRANCH  42  43
ENDBRANCH  34  37
ENDBRANCH  32  33
ENDBRANCH   1  32
TORSDOF 16
ENDMDL
MODEL 2
REMARK VINA RESULT:     -14.0      3.408      9.788
REMARK SMILES CC1=Nc2c(c(C)nn2-c2ccc(F)cc2)[C@H](c2ccc(C(=O)NCCCCNC(=O)c3ccc(-c4c5nc(c(-c6ccc(S(=O)(=O)[O-])cc6)c6ccc([nH]6)c(-c6ccc(S(=O)(=O)[O-])cc6)c6nc(c(-c7ccc(S(=O)(=O)[O-])cc7)c7ccc4[nH]7)C=C6)C=C5)cc3)cc2)S1
REMARK SMILES IDX 27 1 26 2 25 3 24 4 22 5 23 6 21 8 18 9 19 10 93 11 20 12
REMARK SMILES IDX 92 13 17 14 1 15 2 16 3 17 94 18 4 19 5 20 9 21 6 22 8 23
REMARK SMILES IDX 7 24 10 25 11 26 16 27 12 28 15 29 13 30 14 31 28 32 29 33
REMARK SMILES IDX 30 34 31 36 32 37 33 38 91 39 34 40 90 41 35 42 36 43 37 44
REMARK SMILES IDX 84 45 38 46 89 47 83 48 85 49 39 50 88 51 82 52 81 53 40 55
REMARK SMILES IDX 70 56 51 57 69 58 52 59 55 60 68 61 86 62 53 63 54 64 67 66
REMARK SMILES IDX 87 67 56 68 41 69 42 70 50 71 43 72 49 73 44 74 45 75 46 76
REMARK SMILES IDX 47 77 48 78 71 79 72 80 80 81 73 82 79 83 74 84 75 85 76 86
REMARK SMILES IDX 77 87 78 88 57 89 58 90 66 91 59 92 65 93 60 94 61 95 62 96
REMARK SMILES IDX 63 97 64 98
REMARK H PARENT 24 7 29 35 85 54 55 65
REMARK Flexibility Score: inf
ROOT
ATOM      1  C   UNL A   1      32.861  29.212  26.610  1.00  0.00     0.023 C 
ENDROOT
BRANCH   1   2
ATOM      2  C   UNL A   1      32.603  30.052  25.350  1.00  0.00     0.023 C 
BRANCH   2   3
ATOM      3  C   UNL A   1      31.131  30.235  24.958  1.00  0.00     0.116 C 
BRANCH   3   4
ATOM      4  N   UNL A   1      30.849  29.647  23.664  1.00  0.00    -0.352 N 
ATOM      5  C   UNL A   1      31.004  28.373  23.178  1.00  0.00     0.251 C 
ATOM      6  O   UNL A   1      30.654  28.152  22.019  1.00  0.00    -0.269 OA
ATOM      7  H   UNL A   1      30.475  30.281  23.010  1.00  0.00     0.163 HD
BRANCH   5   8
ATOM      8  C   UNL A   1      31.544  27.248  23.988  1.00  0.00     0.039 A 
ATOM      9  C   UNL A   1      32.761  25.184  25.508  1.00  0.00    -0.030 A 
ATOM     10  C   UNL A   1      33.451  25.810  24.457  1.00  0.00     0.006 A 
ATOM     11  C   UNL A   1      31.453  25.616  25.781  1.00  0.00     0.006 A 
ATOM     12  C   UNL A   1      32.855  26.836  23.716  1.00  0.00     0.014 A 
ATOM     13  C   UNL A   1      30.860  26.642  25.038  1.00  0.00     0.014 A 
BRANCH   9  14
ATOM     14  C   UNL A   1      33.476  24.140  26.353  1.00  0.00     0.119 C 
ATOM     15  C   UNL A   1      36.905  23.304  24.184  1.00  0.00     0.075 C 
ATOM     16  C   UNL A   1      35.615  23.088  24.932  1.00  0.00     0.074 C 
ATOM     17  N   UNL A   1      34.876  22.089  24.565  1.00  0.00    -0.227 NA
ATOM     18  S   UNL A   1      35.296  24.215  26.242  1.00  0.00    -0.098 SA
ATOM     19  C   UNL A   1      33.659  21.945  25.141  1.00  0.00     0.161 A 
ATOM     20  C   UNL A   1      32.940  22.831  25.907  1.00  0.00     0.038 A 
ATOM     21  N   UNL A   1      32.828  20.863  24.914  1.00  0.00    -0.215 N 
ATOM     22  C   UNL A   1      31.665  22.222  26.068  1.00  0.00     0.067 A 
ATOM     23  N   UNL A   1      31.574  21.071  25.386  1.00  0.00    -0.171 NA
ATOM     24  C   UNL A   1      30.487  22.732  26.817  1.00  0.00     0.069 C 
BRANCH  21  25
ATOM     25  C   UNL A   1      33.189  19.658  24.272  1.00  0.00     0.067 A 
ATOM     26  C   UNL A   1      32.383  19.170  23.232  1.00  0.00     0.031 A 
ATOM     27  C   UNL A   1      34.305  18.939  24.715  1.00  0.00     0.031 A 
ATOM     28  C   UNL A   1      32.684  17.947  22.641  1.00  0.00     0.041 A 
ATOM     29  C   UNL A   1      34.567  17.688  24.152  1.00  0.00     0.041 A 
ATOM     30  C   UNL A   1      33.759  17.207  23.122  1.00  0.00     0.123 A 
ATOM     31  F   UNL A   1      34.016  16.007  22.588  1.00  0.00    -0.207 F 
ENDBRANCH  21  25
ENDBRANCH   9  14
ENDBRANCH   5   8
ENDBRANCH   3   4
ENDBRANCH   2   3
ENDBRANCH   1   2
BRANCH   1  32
ATOM     32  C   UNL A   1      33.622  29.925  27.721  1.00  0.00     0.116 C 
BRANCH  32  33
ATOM     33  N   UNL A   1      34.088  31.262  27.338  1.00  0.00    -0.352 N 
ATOM     34  C   UNL A   1      35.257  31.911  27.717  1.00  0.00     0.251 C 
ATOM     35  H   UNL A   1      33.496  31.766  26.734  1.00  0.00     0.163 HD
ATOM     36  O   UNL A   1      35.357  33.122  27.659  1.00  0.00    -0.269 OA
BRANCH  34  37
ATOM     37  C   UNL A   1      36.386  31.075  28.165  1.00  0.00     0.039 A 
ATOM     38  C   UNL A   1      36.525  29.728  27.822  1.00  0.00     0.014 A 
ATOM     39  C   UNL A   1      37.368  31.730  28.895  1.00  0.00     0.014 A 
ATOM     40  C   UNL A   1      37.717  29.076  28.144  1.00  0.00     0.010 A 
ATOM     41  C   UNL A   1      38.605  31.162  29.005  1.00  0.00     0.010 A 
ATOM     42  C   UNL A   1      38.763  29.812  28.720  1.00  0.00    -0.014 A 
BRANCH  42  43
ATOM     43  C   UNL A   1      40.062  29.233  29.026  1.00  0.00     0.031 A 
ATOM     44  C   UNL A   1      40.388  29.047  30.461  1.00  0.00     0.074 A 
ATOM     45  C   UNL A   1      40.831  28.671  28.068  1.00  0.00     0.049 A 
ATOM     46  N   UNL A   1      41.245  29.716  31.157  1.00  0.00    -0.248 NA
ATOM     47  C   UNL A   1      39.614  28.075  31.245  1.00  0.00     0.031 C 
ATOM     48  C   UNL A   1      40.542  28.498  26.634  1.00  0.00     0.029 A 
ATOM     49  N   UNL A   1      42.007  28.014  28.211  1.00  0.00    -0.354 N 
ATOM     50  C   UNL A   1      41.279  29.121  32.413  1.00  0.00     0.074 A 
ATOM     51  C   UNL A   1      40.139  28.237  32.463  1.00  0.00     0.031 C 
ATOM     52  C   UNL A   1      41.388  27.588  26.106  1.00  0.00     0.029 A 
ATOM     53  C   UNL A   1      42.396  27.279  27.100  1.00  0.00     0.049 A 
ATOM     54  H   UNL A   1      42.542  28.055  29.036  1.00  0.00     0.167 HD
ATOM     55  C   UNL A   1      42.364  29.237  33.231  1.00  0.00     0.031 A 
ATOM     56  C   UNL A   1      43.483  26.480  27.000  1.00  0.00     0.031 A 
ATOM     57  C   UNL A   1      43.309  30.203  32.727  1.00  0.00     0.049 A 
ATOM     58  C   UNL A   1      44.451  26.961  28.016  1.00  0.00     0.074 A 
ATOM     59  C   UNL A   1      43.269  31.556  32.455  1.00  0.00     0.029 A 
ATOM     60  N   UNL A   1      44.386  29.710  32.023  1.00  0.00    -0.354 N 
ATOM     61  N   UNL A   1      44.990  28.148  27.969  1.00  0.00    -0.248 NA
ATOM     62  C   UNL A   1      44.457  26.329  29.326  1.00  0.00     0.031 C 
ATOM     63  C   UNL A   1      43.998  31.706  31.238  1.00  0.00     0.029 A 
ATOM     64  C   UNL A   1      44.499  30.453  30.873  1.00  0.00     0.049 A 
ATOM     65  H   UNL A   1      44.968  28.963  32.294  1.00  0.00     0.167 HD
ATOM     66  C   UNL A   1      45.001  28.590  29.286  1.00  0.00     0.074 A 
ATOM     67  C   UNL A   1      44.769  27.385  30.084  1.00  0.00     0.031 C 
ATOM     68  C   UNL A   1      44.923  29.921  29.591  1.00  0.00     0.031 A 
BRANCH  55  69
ATOM     69  C   UNL A   1      42.759  28.232  34.283  1.00  0.00    -0.014 A 
ATOM     70  C   UNL A   1      42.977  28.679  35.603  1.00  0.00     0.010 A 
ATOM     71  C   UNL A   1      43.179  26.924  33.972  1.00  0.00     0.010 A 
ATOM     72  C   UNL A   1      43.647  27.883  36.540  1.00  0.00     0.020 A 
ATOM     73  C   UNL A   1      43.810  26.105  34.911  1.00  0.00     0.020 A 
ATOM     74  C   UNL A   1      44.075  26.606  36.180  1.00  0.00     0.054 A 
BRANCH  74  75
ATOM     75  S   UNL A   1      45.057  25.638  37.353  1.00  0.00     0.124 S 
ATOM     76  O   UNL A   1      44.233  24.443  37.518  1.00  0.00    -0.237 OA
ATOM     77  O   UNL A   1      46.310  25.449  36.628  1.00  0.00    -0.237 OA
ATOM     78  O   UNL A   1      45.144  26.505  38.525  1.00  0.00    -0.744 OA
ENDBRANCH  74  75
ENDBRANCH  55  69
BRANCH  56  79
ATOM     79  C   UNL A   1      43.578  25.177  26.303  1.00  0.00    -0.014 A 
ATOM     80  C   UNL A   1      44.467  24.987  25.231  1.00  0.00     0.010 A 
ATOM     81  C   UNL A   1      42.985  24.032  26.877  1.00  0.00     0.010 A 
ATOM     82  C   UNL A   1      44.801  23.695  24.791  1.00  0.00     0.020 A 
ATOM     83  C   UNL A   1      43.312  22.741  26.443  1.00  0.00     0.020 A 
ATOM     84  C   UNL A   1      44.238  22.579  25.417  1.00  0.00     0.054 A 
BRANCH  84  85
ATOM     85  S   UNL A   1      44.815  20.915  24.966  1.00  0.00     0.124 S 
ATOM     86  O   UNL A   1      46.186  20.913  25.471  1.00  0.00    -0.237 OA
ATOM     87  O   UNL A   1      43.878  20.050  25.680  1.00  0.00    -0.237 OA
ATOM     88  O   UNL A   1      44.691  20.889  23.510  1.00  0.00    -0.744 OA
ENDBRANCH  84  85
ENDBRANCH  56  79
BRANCH  68  89
ATOM     89  C   UNL A   1      45.035  30.921  28.457  1.00  0.00    -0.014 A 
ATOM     90  C   UNL A   1      43.959  31.247  27.606  1.00  0.00     0.010 A 
ATOM     91  C   UNL A   1      46.214  31.678  28.353  1.00  0.00     0.010 A 
ATOM     92  C   UNL A   1      44.066  32.286  26.668  1.00  0.00     0.020 A 
ATOM     93  C   UNL A   1      46.323  32.725  27.430  1.00  0.00     0.020 A 
ATOM     94  C   UNL A   1      45.251  33.020  26.588  1.00  0.00     0.054 A 
BRANCH  94  95
ATOM     95  S   UNL A   1      45.365  34.400  25.412  1.00  0.00     0.124 S 
ATOM     96  O   UNL A   1      44.775  35.506  26.161  1.00  0.00    -0.237 OA
ATOM     97  O   UNL A   1      46.802  34.504  25.169  1.00  0.00    -0.237 OA
ATOM     98  O   UNL A   1      44.584  33.945  24.262  1.00  0.00    -0.744 OA
ENDBRANCH  94  95
ENDBRANCH  68  89
ENDBRANCH  42  43
ENDBRANCH  34  37
ENDBRANCH  32  33
ENDBRANCH   1  32
TORSDOF 16
ENDMDL
MODEL 3
REMARK VINA RESULT:     -13.9      3.125      9.505
REMARK SMILES CC1=Nc2c(c(C)nn2-c2ccc(F)cc2)[C@H](c2ccc(C(=O)NCCCCNC(=O)c3ccc(-c4c5nc(c(-c6ccc(S(=O)(=O)[O-])cc6)c6ccc([nH]6)c(-c6ccc(S(=O)(=O)[O-])cc6)c6nc(c(-c7ccc(S(=O)(=O)[O-])cc7)c7ccc4[nH]7)C=C6)C=C5)cc3)cc2)S1
REMARK SMILES IDX 27 1 26 2 25 3 24 4 22 5 23 6 21 8 18 9 19 10 93 11 20 12
REMARK SMILES IDX 92 13 17 14 1 15 2 16 3 17 94 18 4 19 5 20 9 21 6 22 8 23
REMARK SMILES IDX 7 24 10 25 11 26 16 27 12 28 15 29 13 30 14 31 28 32 29 33
REMARK SMILES IDX 30 34 31 36 32 37 33 38 91 39 34 40 90 41 35 42 36 43 37 44
REMARK SMILES IDX 84 45 38 46 89 47 83 48 85 49 39 50 88 51 82 52 81 53 40 55
REMARK SMILES IDX 70 56 51 57 69 58 52 59 55 60 68 61 86 62 53 63 54 64 67 66
REMARK SMILES IDX 87 67 56 68 41 69 42 70 50 71 43 72 49 73 44 74 45 75 46 76
REMARK SMILES IDX 47 77 48 78 71 79 72 80 80 81 73 82 79 83 74 84 75 85 76 86
REMARK SMILES IDX 77 87 78 88 57 89 58 90 66 91 59 92 65 93 60 94 61 95 62 96
REMARK SMILES IDX 63 97 64 98
REMARK H PARENT 24 7 29 35 85 54 55 65
REMARK Flexibility Score: inf
ROOT
ATOM      1  C   UNL A   1      33.633  28.993  26.147  1.00  0.00     0.023 C 
ENDROOT
BRANCH   1   2
ATOM      2  C   UNL A   1      32.872  29.491  24.909  1.00  0.00     0.023 C 
BRANCH   2   3
ATOM      3  C   UNL A   1      31.369  29.731  25.099  1.00  0.00     0.116 C 
BRANCH   3   4
ATOM      4  N   UNL A   1      30.681  29.831  23.827  1.00  0.00    -0.352 N 
ATOM      5  C   UNL A   1      30.264  28.882  22.930  1.00  0.00     0.251 C 
ATOM      6  O   UNL A   1      29.675  29.265  21.918  1.00  0.00    -0.269 OA
ATOM      7  H   UNL A   1      30.475  30.754  23.557  1.00  0.00     0.163 HD
BRANCH   5   8
ATOM      8  C   UNL A   1      30.462  27.421  23.131  1.00  0.00     0.039 A 
ATOM      9  C   UNL A   1      31.034  24.661  23.457  1.00  0.00    -0.030 A 
ATOM     10  C   UNL A   1      31.695  25.425  22.482  1.00  0.00     0.006 A 
ATOM     11  C   UNL A   1      30.085  25.308  24.264  1.00  0.00     0.006 A 
ATOM     12  C   UNL A   1      31.422  26.789  22.330  1.00  0.00     0.014 A 
ATOM     13  C   UNL A   1      29.813  26.672  24.110  1.00  0.00     0.014 A 
BRANCH   9  14
ATOM     14  C   UNL A   1      31.427  23.204  23.658  1.00  0.00     0.119 C 
ATOM     15  C   UNL A   1      32.160  22.937  27.726  1.00  0.00     0.075 C 
ATOM     16  C   UNL A   1      32.377  22.835  26.239  1.00  0.00     0.074 C 
ATOM     17  N   UNL A   1      33.592  22.963  25.807  1.00  0.00    -0.227 NA
ATOM     18  S   UNL A   1      30.940  22.522  25.278  1.00  0.00    -0.098 SA
ATOM     19  C   UNL A   1      33.797  22.994  24.468  1.00  0.00     0.161 A 
ATOM     20  C   UNL A   1      32.894  23.154  23.444  1.00  0.00     0.038 A 
ATOM     21  N   UNL A   1      35.052  23.016  23.886  1.00  0.00    -0.215 N 
ATOM     22  C   UNL A   1      33.689  23.304  22.277  1.00  0.00     0.067 A 
ATOM     23  N   UNL A   1      34.999  23.311  22.564  1.00  0.00    -0.171 NA
ATOM     24  C   UNL A   1      33.241  23.499  20.873  1.00  0.00     0.069 C 
BRANCH  21  25
ATOM     25  C   UNL A   1      36.277  22.768  24.544  1.00  0.00     0.067 A 
ATOM     26  C   UNL A   1      36.817  21.473  24.517  1.00  0.00     0.031 A 
ATOM     27  C   UNL A   1      36.904  23.794  25.259  1.00  0.00     0.031 A 
ATOM     28  C   UNL A   1      37.984  21.198  25.223  1.00  0.00     0.041 A 
ATOM     29  C   UNL A   1      38.044  23.494  26.008  1.00  0.00     0.041 A 
ATOM     30  C   UNL A   1      38.573  22.204  25.980  1.00  0.00     0.123 A 
ATOM     31  F   UNL A   1      39.666  21.924  26.701  1.00  0.00    -0.207 F 
ENDBRANCH  21  25
ENDBRANCH   9  14
ENDBRANCH   5   8
ENDBRANCH   3   4
ENDBRANCH   2   3
ENDBRANCH   1   2
BRANCH   1  32
ATOM     32  C   UNL A   1      33.542  29.896  27.372  1.00  0.00     0.116 C 
BRANCH  32  33
ATOM     33  N   UNL A   1      34.004  31.264  27.117  1.00  0.00    -0.352 N 
ATOM     34  C   UNL A   1      35.131  31.902  27.622  1.00  0.00     0.251 C 
ATOM     35  H   UNL A   1      33.444  31.800  26.511  1.00  0.00     0.163 HD
ATOM     36  O   UNL A   1      35.209  33.116  27.657  1.00  0.00    -0.269 OA
BRANCH  34  37
ATOM     37  C   UNL A   1      36.244  31.055  28.087  1.00  0.00     0.039 A 
ATOM     38  C   UNL A   1      36.403  29.721  27.702  1.00  0.00     0.014 A 
ATOM     39  C   UNL A   1      37.191  31.686  28.881  1.00  0.00     0.014 A 
ATOM     40  C   UNL A   1      37.584  29.062  28.051  1.00  0.00     0.010 A 
ATOM     41  C   UNL A   1      38.424  31.118  29.023  1.00  0.00     0.010 A 
ATOM     42  C   UNL A   1      38.601  29.780  28.696  1.00  0.00    -0.014 A 
BRANCH  42  43
ATOM     43  C   UNL A   1      39.889  29.195  29.036  1.00  0.00     0.031 A 
ATOM     44  C   UNL A   1      40.182  29.021  30.480  1.00  0.00     0.074 A 
ATOM     45  C   UNL A   1      40.674  28.618  28.100  1.00  0.00     0.049 A 
ATOM     46  N   UNL A   1      41.029  29.690  31.187  1.00  0.00    -0.248 NA
ATOM     47  C   UNL A   1      39.384  28.061  31.256  1.00  0.00     0.031 C 
ATOM     48  C   UNL A   1      40.415  28.433  26.662  1.00  0.00     0.029 A 
ATOM     49  N   UNL A   1      41.842  27.953  28.275  1.00  0.00    -0.354 N 
ATOM     50  C   UNL A   1      41.031  29.107  32.450  1.00  0.00     0.074 A 
ATOM     51  C   UNL A   1      39.884  28.231  32.483  1.00  0.00     0.031 C 
ATOM     52  C   UNL A   1      41.265  27.511  26.161  1.00  0.00     0.029 A 
ATOM     53  C   UNL A   1      42.249  27.205  27.180  1.00  0.00     0.049 A 
ATOM     54  H   UNL A   1      42.359  27.998  29.111  1.00  0.00     0.167 HD
ATOM     55  C   UNL A   1      42.099  29.223  33.290  1.00  0.00     0.031 A 
ATOM     56  C   UNL A   1      43.332  26.397  27.111  1.00  0.00     0.031 A 
ATOM     57  C   UNL A   1      43.062  30.177  32.797  1.00  0.00     0.049 A 
ATOM     58  C   UNL A   1      44.281  26.881  28.143  1.00  0.00     0.074 A 
ATOM     59  C   UNL A   1      43.038  31.527  32.512  1.00  0.00     0.029 A 
ATOM     60  N   UNL A   1      44.151  29.670  32.121  1.00  0.00    -0.354 N 
ATOM     61  N   UNL A   1      44.830  28.063  28.097  1.00  0.00    -0.248 NA
ATOM     62  C   UNL A   1      44.255  26.261  29.459  1.00  0.00     0.031 C 
ATOM     63  C   UNL A   1      43.795  31.660  31.309  1.00  0.00     0.029 A 
ATOM     64  C   UNL A   1      44.294  30.400  30.967  1.00  0.00     0.049 A 
ATOM     65  H   UNL A   1      44.721  28.921  32.412  1.00  0.00     0.167 HD
ATOM     66  C   UNL A   1      44.816  28.518  29.410  1.00  0.00     0.074 A 
ATOM     67  C   UNL A   1      44.558  27.323  30.213  1.00  0.00     0.031 C 
ATOM     68  C   UNL A   1      44.741  29.852  29.700  1.00  0.00     0.031 A 
BRANCH  55  69
ATOM     69  C   UNL A   1      42.464  28.226  34.359  1.00  0.00    -0.014 A 
ATOM     70  C   UNL A   1      42.506  28.654  35.703  1.00  0.00     0.010 A 
ATOM     71  C   UNL A   1      43.020  26.964  34.072  1.00  0.00     0.010 A 
ATOM     72  C   UNL A   1      43.138  27.889  36.692  1.00  0.00     0.020 A 
ATOM     73  C   UNL A   1      43.615  26.173  35.058  1.00  0.00     0.020 A 
ATOM     74  C   UNL A   1      43.705  26.660  36.356  1.00  0.00     0.054 A 
BRANCH  74  75
ATOM     75  S   UNL A   1      44.635  25.743  37.609  1.00  0.00     0.124 S 
ATOM     76  O   UNL A   1      45.997  26.215  37.376  1.00  0.00    -0.237 OA
ATOM     77  O   UNL A   1      44.012  26.191  38.850  1.00  0.00    -0.237 OA
ATOM     78  O   UNL A   1      44.389  24.344  37.263  1.00  0.00    -0.744 OA
ENDBRANCH  74  75
ENDBRANCH  55  69
BRANCH  56  79
ATOM     79  C   UNL A   1      43.433  25.087  26.429  1.00  0.00    -0.014 A 
ATOM     80  C   UNL A   1      44.233  24.920  25.286  1.00  0.00     0.010 A 
ATOM     81  C   UNL A   1      42.952  23.925  27.071  1.00  0.00     0.010 A 
ATOM     82  C   UNL A   1      44.593  23.637  24.839  1.00  0.00     0.020 A 
ATOM     83  C   UNL A   1      43.305  22.644  26.631  1.00  0.00     0.020 A 
ATOM     84  C   UNL A   1      44.145  22.507  25.529  1.00  0.00     0.054 A 
BRANCH  84  85
ATOM     85  S   UNL A   1      44.765  20.865  25.056  1.00  0.00     0.124 S 
ATOM     86  O   UNL A   1      46.136  20.893  25.557  1.00  0.00    -0.237 OA
ATOM     87  O   UNL A   1      43.854  19.967  25.760  1.00  0.00    -0.237 OA
ATOM     88  O   UNL A   1      44.637  20.855  23.599  1.00  0.00    -0.744 OA
ENDBRANCH  84  85
ENDBRANCH  56  79
BRANCH  68  89
ATOM     89  C   UNL A   1      44.885  30.840  28.559  1.00  0.00    -0.014 A 
ATOM     90  C   UNL A   1      43.841  31.139  27.659  1.00  0.00     0.010 A 
ATOM     91  C   UNL A   1      46.056  31.616  28.496  1.00  0.00     0.010 A 
ATOM     92  C   UNL A   1      43.971  32.168  26.713  1.00  0.00     0.020 A 
ATOM     93  C   UNL A   1      46.187  32.653  27.565  1.00  0.00     0.020 A 
ATOM     94  C   UNL A   1      45.147  32.920  26.674  1.00  0.00     0.054 A 
BRANCH  94  95
ATOM     95  S   UNL A   1      45.289  34.288  25.487  1.00  0.00     0.124 S 
ATOM     96  O   UNL A   1      44.636  35.389  26.190  1.00  0.00    -0.237 OA
ATOM     97  O   UNL A   1      46.734  34.422  25.315  1.00  0.00    -0.237 OA
ATOM     98  O   UNL A   1      44.577  33.801  24.306  1.00  0.00    -0.744 OA
ENDBRANCH  94  95
ENDBRANCH  68  89
ENDBRANCH  42  43
ENDBRANCH  34  37
ENDBRANCH  32  33
ENDBRANCH   1  32
TORSDOF 16
ENDMDL
