MODEL 1
REMARK VINA RESULT:     -12.9      0.000      0.000
REMARK SMILES Cc1ccc(OCCC(=O)N2C[C@H](O)C[C@@H]2C(=O)NCCCCNC(=O)c2ccc(-c3c4nc(c(-c5ccc(S(=O)(=O)[O-])cc5)c5ccc([nH]5)c(-c5ccc(S(=O)(=O)[O-])cc5)c5nc(c(-c6ccc(S(=O)(=O)[O-])cc6)c6ccc3[nH]6)C=C5)C=C4)cc2)cc1
REMARK SMILES IDX 20 1 19 2 17 3 18 4 16 6 11 7 12 8 13 9 15 10 9 11 10 12
REMARK SMILES IDX 8 13 7 14 6 15 5 16 1 17 2 18 3 19 88 20 4 21 87 22 14 23
REMARK SMILES IDX 21 25 22 26 23 27 24 28 25 29 26 31 27 32 28 33 86 34 29 35
REMARK SMILES IDX 85 36 30 37 31 38 32 39 79 40 33 41 84 42 78 43 80 44 34 45
REMARK SMILES IDX 83 46 77 47 76 48 35 50 65 51 46 52 64 53 47 54 50 55 63 56
REMARK SMILES IDX 81 57 48 58 49 59 62 61 82 62 51 63 36 64 37 65 45 66 38 67
REMARK SMILES IDX 44 68 39 69 40 70 41 71 42 72 43 73 66 74 67 75 75 76 68 77
REMARK SMILES IDX 74 78 69 79 70 80 71 81 72 82 73 83 52 84 53 85 61 86 54 87
REMARK SMILES IDX 60 88 55 89 56 90 57 91 58 92 59 93
REMARK H PARENT 19 5 14 24 24 30 80 49 50 60
REMARK Flexibility Score: inf
ROOT
ATOM      1  C   UNL A   1      31.967  26.960  26.095  1.00  0.00     0.116 C 
ENDROOT
BRANCH   1   2
ATOM      2  N   UNL A   1      31.379  25.707  26.560  1.00  0.00    -0.354 N 
ATOM      3  C   UNL A   1      32.001  24.496  26.732  1.00  0.00     0.242 C 
ATOM      4  O   UNL A   1      31.580  23.781  27.650  1.00  0.00    -0.273 OA
ATOM      5  H   UNL A   1      30.418  25.734  26.776  1.00  0.00     0.163 HD
BRANCH   3   6
ATOM      6  C   UNL A   1      32.982  23.905  25.684  1.00  0.00     0.177 C 
ATOM      7  N   UNL A   1      32.547  23.892  24.291  1.00  0.00    -0.328 N 
ATOM      8  C   UNL A   1      32.093  22.563  23.909  1.00  0.00     0.152 C 
ATOM      9  C   UNL A   1      32.117  21.720  25.179  1.00  0.00     0.136 C 
ATOM     10  C   UNL A   1      33.183  22.414  26.019  1.00  0.00     0.069 C 
BRANCH   7  11
ATOM     11  C   UNL A   1      32.921  24.879  23.394  1.00  0.00     0.226 C 
ATOM     12  O   UNL A   1      33.934  25.561  23.561  1.00  0.00    -0.275 OA
BRANCH  11  13
ATOM     13  C   UNL A   1      31.954  25.187  22.259  1.00  0.00     0.141 C 
BRANCH  13  14
ATOM     14  C   UNL A   1      31.349  26.587  22.272  1.00  0.00     0.239 C 
BRANCH  14  15
ATOM     15  O   UNL A   1      30.149  26.692  23.055  1.00  0.00    -0.493 OA
BRANCH  15  16
ATOM     16  C   UNL A   1      29.408  27.832  22.920  1.00  0.00     0.119 A 
ATOM     17  C   UNL A   1      27.656  31.734  23.284  1.00  0.00     0.044 C 
ATOM     18  C   UNL A   1      28.225  30.371  23.034  1.00  0.00    -0.051 A 
ATOM     19  C   UNL A   1      29.519  30.221  22.521  1.00  0.00     0.007 A 
ATOM     20  C   UNL A   1      27.488  29.229  23.362  1.00  0.00     0.007 A 
ATOM     21  C   UNL A   1      30.104  28.951  22.451  1.00  0.00     0.046 A 
ATOM     22  C   UNL A   1      28.074  27.963  23.294  1.00  0.00     0.046 A 
ENDBRANCH  15  16
ENDBRANCH  14  15
ENDBRANCH  13  14
ENDBRANCH  11  13
ENDBRANCH   7  11
BRANCH   9  23
ATOM     23  O   UNL A   1      30.862  21.689  25.847  1.00  0.00    -0.391 OA
ATOM     24  H   UNL A   1      30.750  22.501  26.365  1.00  0.00     0.211 HD
ENDBRANCH   9  23
ENDBRANCH   3   6
ENDBRANCH   1   2
BRANCH   1  25
ATOM     25  C   UNL A   1      33.418  27.197  26.541  1.00  0.00     0.023 C 
BRANCH  25  26
ATOM     26  C   UNL A   1      34.012  28.569  26.224  1.00  0.00     0.023 C 
BRANCH  26  27
ATOM     27  C   UNL A   1      34.298  29.376  27.475  1.00  0.00     0.116 C 
BRANCH  27  28
ATOM     28  N   UNL A   1      35.072  30.589  27.288  1.00  0.00    -0.352 N 
ATOM     29  C   UNL A   1      36.300  30.840  27.898  1.00  0.00     0.251 C 
ATOM     30  H   UNL A   1      34.707  31.280  26.691  1.00  0.00     0.163 HD
ATOM     31  O   UNL A   1      36.664  31.943  28.248  1.00  0.00    -0.269 OA
BRANCH  29  32
ATOM     32  C   UNL A   1      37.232  29.684  27.926  1.00  0.00     0.039 A 
ATOM     33  C   UNL A   1      37.276  28.926  29.101  1.00  0.00     0.014 A 
ATOM     34  C   UNL A   1      38.242  29.591  26.974  1.00  0.00     0.014 A 
ATOM     35  C   UNL A   1      38.432  28.213  29.410  1.00  0.00     0.010 A 
ATOM     36  C   UNL A   1      39.429  28.989  27.340  1.00  0.00     0.010 A 
ATOM     37  C   UNL A   1      39.540  28.334  28.576  1.00  0.00    -0.014 A 
BRANCH  37  38
ATOM     38  C   UNL A   1      40.866  27.808  28.888  1.00  0.00     0.031 A 
ATOM     39  C   UNL A   1      41.142  26.376  28.599  1.00  0.00     0.074 A 
ATOM     40  C   UNL A   1      41.855  28.609  29.350  1.00  0.00     0.049 A 
ATOM     41  N   UNL A   1      42.132  25.709  29.091  1.00  0.00    -0.248 NA
ATOM     42  C   UNL A   1      40.255  25.546  27.778  1.00  0.00     0.031 C 
ATOM     43  C   UNL A   1      43.282  28.285  29.398  1.00  0.00     0.029 A 
ATOM     44  N   UNL A   1      41.769  29.802  30.074  1.00  0.00    -0.354 N 
ATOM     45  C   UNL A   1      42.207  24.522  28.399  1.00  0.00     0.074 A 
ATOM     46  C   UNL A   1      40.946  24.405  27.713  1.00  0.00     0.031 C 
ATOM     47  C   UNL A   1      43.865  29.039  30.342  1.00  0.00     0.029 A 
ATOM     48  C   UNL A   1      42.799  29.741  31.033  1.00  0.00     0.049 A 
ATOM     49  H   UNL A   1      41.123  30.534  29.940  1.00  0.00     0.167 HD
ATOM     50  C   UNL A   1      43.390  23.851  28.352  1.00  0.00     0.031 A 
ATOM     51  C   UNL A   1      42.595  29.700  32.385  1.00  0.00     0.031 A 
ATOM     52  C   UNL A   1      44.329  24.355  29.354  1.00  0.00     0.049 A 
ATOM     53  C   UNL A   1      43.212  28.484  33.053  1.00  0.00     0.074 A 
ATOM     54  C   UNL A   1      45.490  25.103  29.289  1.00  0.00     0.029 A 
ATOM     55  N   UNL A   1      43.955  24.322  30.694  1.00  0.00    -0.354 N 
ATOM     56  N   UNL A   1      43.630  27.428  32.411  1.00  0.00    -0.248 NA
ATOM     57  C   UNL A   1      43.368  28.343  34.500  1.00  0.00     0.031 C 
ATOM     58  C   UNL A   1      45.751  25.612  30.593  1.00  0.00     0.029 A 
ATOM     59  C   UNL A   1      44.778  25.130  31.452  1.00  0.00     0.049 A 
ATOM     60  H   UNL A   1      43.207  23.792  31.053  1.00  0.00     0.167 HD
ATOM     61  C   UNL A   1      44.085  26.487  33.299  1.00  0.00     0.074 A 
ATOM     62  C   UNL A   1      43.917  27.118  34.596  1.00  0.00     0.031 C 
ATOM     63  C   UNL A   1      44.545  25.266  32.887  1.00  0.00     0.031 A 
BRANCH  50  64
ATOM     64  C   UNL A   1      43.776  22.889  27.243  1.00  0.00    -0.014 A 
ATOM     65  C   UNL A   1      42.901  21.840  26.886  1.00  0.00     0.010 A 
ATOM     66  C   UNL A   1      45.035  22.877  26.607  1.00  0.00     0.010 A 
ATOM     67  C   UNL A   1      43.275  20.834  25.975  1.00  0.00     0.020 A 
ATOM     68  C   UNL A   1      45.409  21.901  25.673  1.00  0.00     0.020 A 
ATOM     69  C   UNL A   1      44.534  20.869  25.377  1.00  0.00     0.054 A 
BRANCH  69  70
ATOM     70  S   UNL A   1      45.038  19.548  24.243  1.00  0.00     0.124 S 
ATOM     71  O   UNL A   1      44.507  20.016  22.966  1.00  0.00    -0.237 OA
ATOM     72  O   UNL A   1      46.492  19.558  24.366  1.00  0.00    -0.237 OA
ATOM     73  O   UNL A   1      44.381  18.358  24.784  1.00  0.00    -0.744 OA
ENDBRANCH  69  70
ENDBRANCH  50  64
BRANCH  51  74
ATOM     74  C   UNL A   1      41.357  30.393  32.841  1.00  0.00    -0.014 A 
ATOM     75  C   UNL A   1      40.240  29.583  33.133  1.00  0.00     0.010 A 
ATOM     76  C   UNL A   1      41.433  31.680  33.400  1.00  0.00     0.010 A 
ATOM     77  C   UNL A   1      39.338  29.958  34.130  1.00  0.00     0.020 A 
ATOM     78  C   UNL A   1      40.519  32.064  34.393  1.00  0.00     0.020 A 
ATOM     79  C   UNL A   1      39.538  31.160  34.810  1.00  0.00     0.054 A 
BRANCH  79  80
ATOM     80  S   UNL A   1      38.651  31.406  36.380  1.00  0.00     0.124 S 
ATOM     81  O   UNL A   1      38.271  30.045  36.743  1.00  0.00    -0.237 OA
ATOM     82  O   UNL A   1      39.688  32.014  37.216  1.00  0.00    -0.237 OA
ATOM     83  O   UNL A   1      37.554  32.292  36.008  1.00  0.00    -0.744 OA
ENDBRANCH  79  80
ENDBRANCH  51  74
BRANCH  63  84
ATOM     84  C   UNL A   1      44.877  24.081  33.775  1.00  0.00    -0.014 A 
ATOM     85  C   UNL A   1      44.103  22.915  33.878  1.00  0.00     0.010 A 
ATOM     86  C   UNL A   1      46.114  24.079  34.470  1.00  0.00     0.010 A 
ATOM     87  C   UNL A   1      44.506  21.834  34.679  1.00  0.00     0.020 A 
ATOM     88  C   UNL A   1      46.548  22.991  35.234  1.00  0.00     0.020 A 
ATOM     89  C   UNL A   1      45.725  21.880  35.355  1.00  0.00     0.054 A 
BRANCH  89  90
ATOM     90  S   UNL A   1      46.265  20.456  36.334  1.00  0.00     0.124 S 
ATOM     91  O   UNL A   1      45.926  20.875  37.691  1.00  0.00    -0.237 OA
ATOM     92  O   UNL A   1      45.455  19.363  35.798  1.00  0.00    -0.237 OA
ATOM     93  O   UNL A   1      47.693  20.361  36.044  1.00  0.00    -0.744 OA
ENDBRANCH  89  90
ENDBRANCH  63  84
ENDBRANCH  37  38
ENDBRANCH  29  32
ENDBRANCH  27  28
ENDBRANCH  26  27
ENDBRANCH  25  26
ENDBRANCH   1  25
TORSDOF 20
ENDMDL
MODEL 2
REMARK VINA RESULT:     -12.6      4.900     11.610
REMARK SMILES Cc1ccc(OCCC(=O)N2C[C@H](O)C[C@@H]2C(=O)NCCCCNC(=O)c2ccc(-c3c4nc(c(-c5ccc(S(=O)(=O)[O-])cc5)c5ccc([nH]5)c(-c5ccc(S(=O)(=O)[O-])cc5)c5nc(c(-c6ccc(S(=O)(=O)[O-])cc6)c6ccc3[nH]6)C=C5)C=C4)cc2)cc1
REMARK SMILES IDX 20 1 19 2 17 3 18 4 16 6 11 7 12 8 13 9 15 10 9 11 10 12
REMARK SMILES IDX 8 13 7 14 6 15 5 16 1 17 2 18 3 19 88 20 4 21 87 22 14 23
REMARK SMILES IDX 21 25 22 26 23 27 24 28 25 29 26 31 27 32 28 33 86 34 29 35
REMARK SMILES IDX 85 36 30 37 31 38 32 39 79 40 33 41 84 42 78 43 80 44 34 45
REMARK SMILES IDX 83 46 77 47 76 48 35 50 65 51 46 52 64 53 47 54 50 55 63 56
REMARK SMILES IDX 81 57 48 58 49 59 62 61 82 62 51 63 36 64 37 65 45 66 38 67
REMARK SMILES IDX 44 68 39 69 40 70 41 71 42 72 43 73 66 74 67 75 75 76 68 77
REMARK SMILES IDX 74 78 69 79 70 80 71 81 72 82 73 83 52 84 53 85 61 86 54 87
REMARK SMILES IDX 60 88 55 89 56 90 57 91 58 92 59 93
REMARK H PARENT 19 5 14 24 24 30 80 49 50 60
REMARK Flexibility Score: inf
ROOT
ATOM      1  C   UNL A   1      36.403  23.310  23.395  1.00  0.00     0.116 C 
ENDROOT
BRANCH   1   2
ATOM      2  N   UNL A   1      34.962  23.303  23.159  1.00  0.00    -0.354 N 
ATOM      3  C   UNL A   1      34.007  24.094  23.747  1.00  0.00     0.242 C 
ATOM      4  O   UNL A   1      33.029  24.396  23.050  1.00  0.00    -0.273 OA
ATOM      5  H   UNL A   1      34.635  22.651  22.497  1.00  0.00     0.163 HD
BRANCH   3   6
ATOM      6  C   UNL A   1      33.980  24.375  25.274  1.00  0.00     0.177 C 
ATOM      7  N   UNL A   1      32.710  24.187  25.967  1.00  0.00    -0.328 N 
ATOM      8  C   UNL A   1      32.061  25.469  26.205  1.00  0.00     0.152 C 
ATOM      9  C   UNL A   1      32.912  26.517  25.496  1.00  0.00     0.136 C 
ATOM     10  C   UNL A   1      34.292  25.870  25.480  1.00  0.00     0.069 C 
BRANCH   7  11
ATOM     11  C   UNL A   1      32.411  23.021  26.651  1.00  0.00     0.226 C 
ATOM     12  O   UNL A   1      31.497  22.964  27.476  1.00  0.00    -0.275 OA
BRANCH  11  13
ATOM     13  C   UNL A   1      33.349  21.838  26.448  1.00  0.00     0.141 C 
BRANCH  13  14
ATOM     14  C   UNL A   1      33.036  20.948  25.251  1.00  0.00     0.239 C 
BRANCH  14  15
ATOM     15  O   UNL A   1      34.106  20.057  24.896  1.00  0.00    -0.493 OA
BRANCH  15  16
ATOM     16  C   UNL A   1      33.808  18.728  24.785  1.00  0.00     0.119 A 
ATOM     17  C   UNL A   1      33.027  14.560  25.455  1.00  0.00     0.044 C 
ATOM     18  C   UNL A   1      33.230  16.005  25.112  1.00  0.00    -0.051 A 
ATOM     19  C   UNL A   1      32.311  16.974  25.536  1.00  0.00     0.007 A 
ATOM     20  C   UNL A   1      34.369  16.409  24.411  1.00  0.00     0.007 A 
ATOM     21  C   UNL A   1      32.595  18.333  25.359  1.00  0.00     0.046 A 
ATOM     22  C   UNL A   1      34.651  17.766  24.237  1.00  0.00     0.046 A 
ENDBRANCH  15  16
ENDBRANCH  14  15
ENDBRANCH  13  14
ENDBRANCH  11  13
ENDBRANCH   7  11
BRANCH   9  23
ATOM     23  O   UNL A   1      32.453  26.807  24.182  1.00  0.00    -0.391 OA
ATOM     24  H   UNL A   1      33.198  26.766  23.562  1.00  0.00     0.211 HD
ENDBRANCH   9  23
ENDBRANCH   3   6
ENDBRANCH   1   2
BRANCH   1  25
ATOM     25  C   UNL A   1      36.912  22.187  24.312  1.00  0.00     0.023 C 
BRANCH  25  26
ATOM     26  C   UNL A   1      36.968  22.502  25.807  1.00  0.00     0.023 C 
BRANCH  26  27
ATOM     27  C   UNL A   1      38.020  23.541  26.139  1.00  0.00     0.116 C 
BRANCH  27  28
ATOM     28  N   UNL A   1      38.983  23.171  27.159  1.00  0.00    -0.352 N 
ATOM     29  C   UNL A   1      40.001  24.003  27.620  1.00  0.00     0.251 C 
ATOM     30  H   UNL A   1      38.912  22.271  27.552  1.00  0.00     0.163 HD
ATOM     31  O   UNL A   1      41.092  23.603  27.968  1.00  0.00    -0.269 OA
BRANCH  29  32
ATOM     32  C   UNL A   1      39.601  25.416  27.839  1.00  0.00     0.039 A 
ATOM     33  C   UNL A   1      40.172  26.380  27.002  1.00  0.00     0.014 A 
ATOM     34  C   UNL A   1      38.977  25.779  29.029  1.00  0.00     0.014 A 
ATOM     35  C   UNL A   1      40.285  27.694  27.451  1.00  0.00     0.010 A 
ATOM     36  C   UNL A   1      39.202  27.048  29.523  1.00  0.00     0.010 A 
ATOM     37  C   UNL A   1      39.892  27.997  28.752  1.00  0.00    -0.014 A 
BRANCH  37  38
ATOM     38  C   UNL A   1      40.142  29.274  29.411  1.00  0.00     0.031 A 
ATOM     39  C   UNL A   1      39.134  30.357  29.255  1.00  0.00     0.074 A 
ATOM     40  C   UNL A   1      41.216  29.461  30.214  1.00  0.00     0.049 A 
ATOM     41  N   UNL A   1      39.354  31.603  29.510  1.00  0.00    -0.248 NA
ATOM     42  C   UNL A   1      37.793  30.121  28.710  1.00  0.00     0.031 C 
ATOM     43  C   UNL A   1      41.410  30.558  31.165  1.00  0.00     0.029 A 
ATOM     44  N   UNL A   1      42.460  28.822  30.199  1.00  0.00    -0.354 N 
ATOM     45  C   UNL A   1      38.135  32.241  29.503  1.00  0.00     0.074 A 
ATOM     46  C   UNL A   1      37.232  31.323  28.859  1.00  0.00     0.031 C 
ATOM     47  C   UNL A   1      42.724  30.712  31.384  1.00  0.00     0.029 A 
ATOM     48  C   UNL A   1      43.408  29.831  30.456  1.00  0.00     0.049 A 
ATOM     49  H   UNL A   1      42.636  27.866  30.041  1.00  0.00     0.167 HD
ATOM     50  C   UNL A   1      37.989  33.407  30.191  1.00  0.00     0.031 A 
ATOM     51  C   UNL A   1      44.366  30.237  29.568  1.00  0.00     0.031 A 
ATOM     52  C   UNL A   1      39.285  33.973  30.561  1.00  0.00     0.049 A 
ATOM     53  C   UNL A   1      44.302  31.719  29.244  1.00  0.00     0.074 A 
ATOM     54  C   UNL A   1      39.967  34.105  31.757  1.00  0.00     0.029 A 
ATOM     55  N   UNL A   1      40.197  34.268  29.552  1.00  0.00    -0.354 N 
ATOM     56  N   UNL A   1      43.283  32.487  29.521  1.00  0.00    -0.248 NA
ATOM     57  C   UNL A   1      45.360  32.446  28.545  1.00  0.00     0.031 C 
ATOM     58  C   UNL A   1      41.332  34.376  31.450  1.00  0.00     0.029 A 
ATOM     59  C   UNL A   1      41.461  34.459  30.074  1.00  0.00     0.049 A 
ATOM     60  H   UNL A   1      39.971  34.335  28.596  1.00  0.00     0.167 HD
ATOM     61  C   UNL A   1      43.511  33.757  29.056  1.00  0.00     0.074 A 
ATOM     62  C   UNL A   1      44.837  33.684  28.469  1.00  0.00     0.031 C 
ATOM     63  C   UNL A   1      42.580  34.751  29.184  1.00  0.00     0.031 A 
BRANCH  50  64
ATOM     64  C   UNL A   1      36.662  33.916  30.725  1.00  0.00    -0.014 A 
ATOM     65  C   UNL A   1      35.585  34.134  29.839  1.00  0.00     0.010 A 
ATOM     66  C   UNL A   1      36.450  34.325  32.058  1.00  0.00     0.010 A 
ATOM     67  C   UNL A   1      34.388  34.747  30.257  1.00  0.00     0.020 A 
ATOM     68  C   UNL A   1      35.251  34.906  32.496  1.00  0.00     0.020 A 
ATOM     69  C   UNL A   1      34.231  35.135  31.587  1.00  0.00     0.054 A 
BRANCH  69  70
ATOM     70  S   UNL A   1      32.713  35.970  32.117  1.00  0.00     0.124 S 
ATOM     71  O   UNL A   1      32.232  36.561  30.871  1.00  0.00    -0.237 OA
ATOM     72  O   UNL A   1      31.912  34.872  32.648  1.00  0.00    -0.237 OA
ATOM     73  O   UNL A   1      33.177  36.933  33.115  1.00  0.00    -0.744 OA
ENDBRANCH  69  70
ENDBRANCH  50  64
BRANCH  51  74
ATOM     74  C   UNL A   1      44.824  29.174  28.630  1.00  0.00    -0.014 A 
ATOM     75  C   UNL A   1      45.773  28.252  29.119  1.00  0.00     0.010 A 
ATOM     76  C   UNL A   1      44.031  28.817  27.526  1.00  0.00     0.010 A 
ATOM     77  C   UNL A   1      45.776  26.933  28.663  1.00  0.00     0.020 A 
ATOM     78  C   UNL A   1      44.042  27.495  27.058  1.00  0.00     0.020 A 
ATOM     79  C   UNL A   1      44.848  26.547  27.695  1.00  0.00     0.054 A 
BRANCH  79  80
ATOM     80  S   UNL A   1      44.559  24.767  27.457  1.00  0.00     0.124 S 
ATOM     81  O   UNL A   1      45.877  24.285  27.055  1.00  0.00    -0.237 OA
ATOM     82  O   UNL A   1      44.120  24.355  28.791  1.00  0.00    -0.237 OA
ATOM     83  O   UNL A   1      43.530  24.730  26.424  1.00  0.00    -0.744 OA
ENDBRANCH  79  80
ENDBRANCH  51  74
BRANCH  63  84
ATOM     84  C   UNL A   1      42.631  36.123  28.537  1.00  0.00    -0.014 A 
ATOM     85  C   UNL A   1      41.952  36.481  27.362  1.00  0.00     0.010 A 
ATOM     86  C   UNL A   1      43.314  37.167  29.213  1.00  0.00     0.010 A 
ATOM     87  C   UNL A   1      42.003  37.790  26.854  1.00  0.00     0.020 A 
ATOM     88  C   UNL A   1      43.333  38.484  28.742  1.00  0.00     0.020 A 
ATOM     89  C   UNL A   1      42.696  38.783  27.546  1.00  0.00     0.054 A 
BRANCH  89  90
ATOM     90  S   UNL A   1      42.701  40.481  26.916  1.00  0.00     0.124 S 
ATOM     91  O   UNL A   1      43.382  41.199  27.990  1.00  0.00    -0.237 OA
ATOM     92  O   UNL A   1      43.453  40.366  25.668  1.00  0.00    -0.237 OA
ATOM     93  O   UNL A   1      41.284  40.792  26.753  1.00  0.00    -0.744 OA
ENDBRANCH  89  90
ENDBRANCH  63  84
ENDBRANCH  37  38
ENDBRANCH  29  32
ENDBRANCH  27  28
ENDBRANCH  26  27
ENDBRANCH  25  26
ENDBRANCH   1  25
TORSDOF 20
ENDMDL
MODEL 3
REMARK VINA RESULT:     -12.5      1.586      3.964
REMARK SMILES Cc1ccc(OCCC(=O)N2C[C@H](O)C[C@@H]2C(=O)NCCCCNC(=O)c2ccc(-c3c4nc(c(-c5ccc(S(=O)(=O)[O-])cc5)c5ccc([nH]5)c(-c5ccc(S(=O)(=O)[O-])cc5)c5nc(c(-c6ccc(S(=O)(=O)[O-])cc6)c6ccc3[nH]6)C=C5)C=C4)cc2)cc1
REMARK SMILES IDX 20 1 19 2 17 3 18 4 16 6 11 7 12 8 13 9 15 10 9 11 10 12
REMARK SMILES IDX 8 13 7 14 6 15 5 16 1 17 2 18 3 19 88 20 4 21 87 22 14 23
REMARK SMILES IDX 21 25 22 26 23 27 24 28 25 29 26 31 27 32 28 33 86 34 29 35
REMARK SMILES IDX 85 36 30 37 31 38 32 39 79 40 33 41 84 42 78 43 80 44 34 45
REMARK SMILES IDX 83 46 77 47 76 48 35 50 65 51 46 52 64 53 47 54 50 55 63 56
REMARK SMILES IDX 81 57 48 58 49 59 62 61 82 62 51 63 36 64 37 65 45 66 38 67
REMARK SMILES IDX 44 68 39 69 40 70 41 71 42 72 43 73 66 74 67 75 75 76 68 77
REMARK SMILES IDX 74 78 69 79 70 80 71 81 72 82 73 83 52 84 53 85 61 86 54 87
REMARK SMILES IDX 60 88 55 89 56 90 57 91 58 92 59 93
REMARK H PARENT 19 5 14 24 24 30 80 49 50 60
REMARK Flexibility Score: inf
ROOT
ATOM      1  C   UNL A   1      31.302  29.481  25.006  1.00  0.00     0.116 C 
ENDROOT
BRANCH   1   2
ATOM      2  N   UNL A   1      31.065  29.458  23.565  1.00  0.00    -0.354 N 
ATOM      3  C   UNL A   1      30.545  28.435  22.812  1.00  0.00     0.242 C 
ATOM      4  O   UNL A   1      29.866  28.758  21.828  1.00  0.00    -0.273 OA
ATOM      5  H   UNL A   1      31.307  30.277  23.073  1.00  0.00     0.163 HD
BRANCH   3   6
ATOM      6  C   UNL A   1      30.994  26.959  22.987  1.00  0.00     0.177 C 
ATOM      7  N   UNL A   1      31.930  26.667  24.067  1.00  0.00    -0.328 N 
ATOM      8  C   UNL A   1      33.281  26.514  23.548  1.00  0.00     0.152 C 
ATOM      9  C   UNL A   1      33.212  26.867  22.066  1.00  0.00     0.136 C 
ATOM     10  C   UNL A   1      31.763  26.550  21.715  1.00  0.00     0.069 C 
BRANCH   7  11
ATOM     11  C   UNL A   1      31.507  26.193  25.298  1.00  0.00     0.226 C 
ATOM     12  O   UNL A   1      30.318  26.192  25.623  1.00  0.00    -0.275 OA
BRANCH  11  13
ATOM     13  C   UNL A   1      32.586  25.798  26.297  1.00  0.00     0.141 C 
BRANCH  13  14
ATOM     14  C   UNL A   1      32.947  24.317  26.326  1.00  0.00     0.239 C 
BRANCH  14  15
ATOM     15  O   UNL A   1      32.344  23.553  25.268  1.00  0.00    -0.493 OA
BRANCH  15  16
ATOM     16  C   UNL A   1      32.952  22.382  24.912  1.00  0.00     0.119 A 
ATOM     17  C   UNL A   1      34.179  18.294  24.448  1.00  0.00     0.044 C 
ATOM     18  C   UNL A   1      33.804  19.745  24.495  1.00  0.00    -0.051 A 
ATOM     19  C   UNL A   1      32.591  20.185  23.951  1.00  0.00     0.007 A 
ATOM     20  C   UNL A   1      34.639  20.668  25.130  1.00  0.00     0.007 A 
ATOM     21  C   UNL A   1      32.173  21.506  24.149  1.00  0.00     0.046 A 
ATOM     22  C   UNL A   1      34.219  21.985  25.328  1.00  0.00     0.046 A 
ENDBRANCH  15  16
ENDBRANCH  14  15
ENDBRANCH  13  14
ENDBRANCH  11  13
ENDBRANCH   7  11
BRANCH   9  23
ATOM     23  O   UNL A   1      33.529  28.228  21.805  1.00  0.00    -0.391 OA
ATOM     24  H   UNL A   1      34.489  28.326  21.712  1.00  0.00     0.211 HD
ENDBRANCH   9  23
ENDBRANCH   3   6
ENDBRANCH   1   2
BRANCH   1  25
ATOM     25  C   UNL A   1      32.750  29.789  25.416  1.00  0.00     0.023 C 
BRANCH  25  26
ATOM     26  C   UNL A   1      33.082  29.644  26.901  1.00  0.00     0.023 C 
BRANCH  26  27
ATOM     27  C   UNL A   1      34.566  29.452  27.144  1.00  0.00     0.116 C 
BRANCH  27  28
ATOM     28  N   UNL A   1      35.368  30.660  27.177  1.00  0.00    -0.352 N 
ATOM     29  C   UNL A   1      36.507  30.828  27.964  1.00  0.00     0.251 C 
ATOM     30  H   UNL A   1      35.090  31.412  26.606  1.00  0.00     0.163 HD
ATOM     31  O   UNL A   1      36.830  31.885  28.462  1.00  0.00    -0.269 OA
BRANCH  29  32
ATOM     32  C   UNL A   1      37.417  29.655  28.001  1.00  0.00     0.039 A 
ATOM     33  C   UNL A   1      37.471  28.926  29.194  1.00  0.00     0.014 A 
ATOM     34  C   UNL A   1      38.406  29.520  27.033  1.00  0.00     0.014 A 
ATOM     35  C   UNL A   1      38.619  28.198  29.498  1.00  0.00     0.010 A 
ATOM     36  C   UNL A   1      39.589  28.904  27.391  1.00  0.00     0.010 A 
ATOM     37  C   UNL A   1      39.713  28.277  28.640  1.00  0.00    -0.014 A 
BRANCH  37  38
ATOM     38  C   UNL A   1      41.034  27.734  28.939  1.00  0.00     0.031 A 
ATOM     39  C   UNL A   1      41.295  26.304  28.626  1.00  0.00     0.074 A 
ATOM     40  C   UNL A   1      42.032  28.518  29.411  1.00  0.00     0.049 A 
ATOM     41  N   UNL A   1      42.280  25.620  29.104  1.00  0.00    -0.248 NA
ATOM     42  C   UNL A   1      40.399  25.496  27.795  1.00  0.00     0.031 C 
ATOM     43  C   UNL A   1      43.457  28.180  29.449  1.00  0.00     0.029 A 
ATOM     44  N   UNL A   1      41.960  29.700  30.154  1.00  0.00    -0.354 N 
ATOM     45  C   UNL A   1      42.342  24.444  28.392  1.00  0.00     0.074 A 
ATOM     46  C   UNL A   1      41.079  24.350  27.709  1.00  0.00     0.031 C 
ATOM     47  C   UNL A   1      44.049  28.914  30.403  1.00  0.00     0.029 A 
ATOM     48  C   UNL A   1      42.991  29.614  31.109  1.00  0.00     0.049 A 
ATOM     49  H   UNL A   1      41.321  30.440  30.034  1.00  0.00     0.167 HD
ATOM     50  C   UNL A   1      43.519  23.763  28.331  1.00  0.00     0.031 A 
ATOM     51  C   UNL A   1      42.792  29.553  32.460  1.00  0.00     0.031 A 
ATOM     52  C   UNL A   1      44.465  24.242  29.338  1.00  0.00     0.049 A 
ATOM     53  C   UNL A   1      43.399  28.321  33.107  1.00  0.00     0.074 A 
ATOM     54  C   UNL A   1      45.634  24.979  29.281  1.00  0.00     0.029 A 
ATOM     55  N   UNL A   1      44.096  24.190  30.679  1.00  0.00    -0.354 N 
ATOM     56  N   UNL A   1      43.805  27.271  32.447  1.00  0.00    -0.248 NA
ATOM     57  C   UNL A   1      43.558  28.154  34.551  1.00  0.00     0.031 C 
ATOM     58  C   UNL A   1      45.903  25.465  30.593  1.00  0.00     0.029 A 
ATOM     59  C   UNL A   1      44.928  24.978  31.447  1.00  0.00     0.049 A 
ATOM     60  H   UNL A   1      43.344  23.662  31.031  1.00  0.00     0.167 HD
ATOM     61  C   UNL A   1      44.254  26.312  33.318  1.00  0.00     0.074 A 
ATOM     62  C   UNL A   1      44.096  26.923  34.626  1.00  0.00     0.031 C 
ATOM     63  C   UNL A   1      44.701  25.093  32.885  1.00  0.00     0.031 A 
BRANCH  50  64
ATOM     64  C   UNL A   1      43.892  22.815  27.205  1.00  0.00    -0.014 A 
ATOM     65  C   UNL A   1      42.968  21.841  26.772  1.00  0.00     0.010 A 
ATOM     66  C   UNL A   1      45.176  22.740  26.626  1.00  0.00     0.010 A 
ATOM     67  C   UNL A   1      43.317  20.843  25.841  1.00  0.00     0.020 A 
ATOM     68  C   UNL A   1      45.529  21.773  25.674  1.00  0.00     0.020 A 
ATOM     69  C   UNL A   1      44.602  20.813  25.301  1.00  0.00     0.054 A 
BRANCH  69  70
ATOM     70  S   UNL A   1      45.071  19.501  24.143  1.00  0.00     0.124 S 
ATOM     71  O   UNL A   1      46.529  19.525  24.220  1.00  0.00    -0.237 OA
ATOM     72  O   UNL A   1      44.425  18.323  24.714  1.00  0.00    -0.237 OA
ATOM     73  O   UNL A   1      44.514  19.950  22.867  1.00  0.00    -0.744 OA
ENDBRANCH  69  70
ENDBRANCH  50  64
BRANCH  51  74
ATOM     74  C   UNL A   1      41.562  30.250  32.932  1.00  0.00    -0.014 A 
ATOM     75  C   UNL A   1      41.703  31.591  33.346  1.00  0.00     0.010 A 
ATOM     76  C   UNL A   1      40.295  29.786  32.542  1.00  0.00     0.010 A 
ATOM     77  C   UNL A   1      40.660  32.500  33.164  1.00  0.00     0.020 A 
ATOM     78  C   UNL A   1      39.240  30.696  32.371  1.00  0.00     0.020 A 
ATOM     79  C   UNL A   1      39.465  32.057  32.597  1.00  0.00     0.054 A 
BRANCH  79  80
ATOM     80  S   UNL A   1      38.314  33.310  31.951  1.00  0.00     0.124 S 
ATOM     81  O   UNL A   1      38.625  34.475  32.773  1.00  0.00    -0.237 OA
ATOM     82  O   UNL A   1      38.728  33.401  30.549  1.00  0.00    -0.237 OA
ATOM     83  O   UNL A   1      37.005  32.710  32.175  1.00  0.00    -0.744 OA
ENDBRANCH  79  80
ENDBRANCH  51  74
BRANCH  63  84
ATOM     84  C   UNL A   1      45.025  23.890  33.752  1.00  0.00    -0.014 A 
ATOM     85  C   UNL A   1      44.189  22.776  33.921  1.00  0.00     0.010 A 
ATOM     86  C   UNL A   1      46.308  23.812  34.351  1.00  0.00     0.010 A 
ATOM     87  C   UNL A   1      44.583  21.673  34.696  1.00  0.00     0.020 A 
ATOM     88  C   UNL A   1      46.731  22.700  35.087  1.00  0.00     0.020 A 
ATOM     89  C   UNL A   1      45.851  21.643  35.277  1.00  0.00     0.054 A 
BRANCH  89  90
ATOM     90  S   UNL A   1      46.373  20.189  36.221  1.00  0.00     0.124 S 
ATOM     91  O   UNL A   1      45.904  20.516  37.565  1.00  0.00    -0.237 OA
ATOM     92  O   UNL A   1      45.663  19.095  35.560  1.00  0.00    -0.237 OA
ATOM     93  O   UNL A   1      47.824  20.170  36.050  1.00  0.00    -0.744 OA
ENDBRANCH  89  90
ENDBRANCH  63  84
ENDBRANCH  37  38
ENDBRANCH  29  32
ENDBRANCH  27  28
ENDBRANCH  26  27
ENDBRANCH  25  26
ENDBRANCH   1  25
TORSDOF 20
ENDMDL
