MODEL 1
REMARK VINA RESULT:     -11.5      0.000      0.000
REMARK SMILES Cc1ccc(NC(=O)C[C@H]([NH2+]Cc2cccnc2)C(=O)NCCCCNC(=O)c2ccc(-c3c4nc(c(-c5ccc(S(=O)(=O)[O-])cc5)c5ccc([nH]5)c(-c5ccc(S(=O)(=O)[O-])cc5)c5nc(c(-c6ccc(S(=O)(=O)[O-])cc6)c6ccc3[nH]6)C=C5)C=C4)cc2)cc1Cl
REMARK SMILES IDX 23 1 22 2 21 3 19 4 20 5 10 7 9 8 7 9 6 10 8 12 5 13 1 14
REMARK SMILES IDX 2 15 3 16 90 17 4 18 89 19 91 20 11 21 12 24 13 25 14 26
REMARK SMILES IDX 18 27 15 28 17 29 16 30 24 31 25 32 26 33 27 34 28 36 29 37
REMARK SMILES IDX 30 38 88 39 31 40 87 41 32 42 33 43 34 44 81 45 35 46 86 47
REMARK SMILES IDX 80 48 82 49 36 50 85 51 79 52 78 53 37 55 67 56 48 57 66 58
REMARK SMILES IDX 49 59 52 60 65 61 83 62 50 63 51 64 64 66 84 67 53 68 38 69
REMARK SMILES IDX 39 70 47 71 40 72 46 73 41 74 42 75 43 76 44 77 45 78 68 79
REMARK SMILES IDX 69 80 77 81 70 82 76 83 71 84 72 85 73 86 74 87 75 88 54 89
REMARK SMILES IDX 55 90 63 91 56 92 62 93 57 94 58 95 59 96 60 97 61 98
REMARK H PARENT 21 6 6 11 11 22 11 23 26 35 82 54 52 65
REMARK Flexibility Score: inf
ROOT
ATOM      1  C   UNL A   1      31.793  27.314  26.976  1.00  0.00     0.023 C 
ENDROOT
BRANCH   1   2
ATOM      2  C   UNL A   1      32.527  26.519  25.894  1.00  0.00     0.116 C 
BRANCH   2   3
ATOM      3  N   UNL A   1      31.764  25.345  25.468  1.00  0.00    -0.351 N 
ATOM      4  C   UNL A   1      31.088  24.940  24.364  1.00  0.00     0.278 C 
ATOM      5  O   UNL A   1      30.531  23.833  24.468  1.00  0.00    -0.268 OA
ATOM      6  H   UNL A   1      31.735  24.661  26.177  1.00  0.00     0.163 HD
BRANCH   4   7
ATOM      7  C   UNL A   1      30.881  25.729  23.030  1.00  0.00     0.282 C 
BRANCH   7   8
ATOM      8  C   UNL A   1      32.080  25.854  22.118  1.00  0.00     0.175 C 
BRANCH   8   9
ATOM      9  C   UNL A   1      32.805  24.803  21.292  1.00  0.00     0.230 C 
ATOM     10  N   UNL A   1      33.186  23.535  21.524  1.00  0.00    -0.326 N 
ATOM     11  H   UNL A   1      33.593  23.163  20.709  1.00  0.00     0.169 HD
ATOM     12  O   UNL A   1      33.085  25.169  20.130  1.00  0.00    -0.274 OA
BRANCH  10  13
ATOM     13  C   UNL A   1      33.197  22.561  22.534  1.00  0.00     0.042 A 
ATOM     14  C   UNL A   1      32.969  19.373  25.482  1.00  0.00     0.046 C 
ATOM     15  C   UNL A   1      33.045  20.480  24.474  1.00  0.00    -0.032 A 
ATOM     16  C   UNL A   1      32.167  20.515  23.387  1.00  0.00     0.007 A 
ATOM     17  C   UNL A   1      33.990  21.498  24.579  1.00  0.00     0.046 A 
ATOM     18  C   UNL A   1      32.247  21.538  22.431  1.00  0.00     0.026 A 
ATOM     19  C   UNL A   1      34.034  22.527  23.633  1.00  0.00     0.047 A 
ATOM     20  Cl  UNL A   1      35.127  21.557  25.881  1.00  0.00    -0.084 Cl
ENDBRANCH  10  13
ENDBRANCH   8   9
ENDBRANCH   7   8
BRANCH   7  21
ATOM     21  N   UNL A   1      30.028  26.898  23.294  1.00  0.00    -0.332 N 
ATOM     22  H   UNL A   1      30.134  27.129  24.282  1.00  0.00     0.347 HD
ATOM     23  H   UNL A   1      29.101  26.598  22.994  1.00  0.00     0.347 HD
BRANCH  21  24
ATOM     24  C   UNL A   1      30.260  28.121  22.543  1.00  0.00     0.299 C 
BRANCH  24  25
ATOM     25  C   UNL A   1      29.322  29.205  23.022  1.00  0.00     0.024 A 
ATOM     26  C   UNL A   1      29.788  30.390  23.604  1.00  0.00     0.013 A 
ATOM     27  C   UNL A   1      27.946  29.100  22.829  1.00  0.00     0.120 A 
ATOM     28  C   UNL A   1      28.893  31.411  23.916  1.00  0.00     0.021 A 
ATOM     29  N   UNL A   1      27.048  30.066  23.142  1.00  0.00    -0.264 NA
ATOM     30  C   UNL A   1      27.548  31.208  23.659  1.00  0.00     0.111 A 
ENDBRANCH  24  25
ENDBRANCH  21  24
ENDBRANCH   7  21
ENDBRANCH   4   7
ENDBRANCH   2   3
ENDBRANCH   1   2
BRANCH   1  31
ATOM     31  C   UNL A   1      31.998  28.819  26.987  1.00  0.00     0.023 C 
BRANCH  31  32
ATOM     32  C   UNL A   1      33.416  29.275  27.285  1.00  0.00     0.116 C 
BRANCH  32  33
ATOM     33  N   UNL A   1      33.526  30.598  27.890  1.00  0.00    -0.352 N 
ATOM     34  C   UNL A   1      34.624  31.176  28.499  1.00  0.00     0.251 C 
ATOM     35  H   UNL A   1      32.712  31.152  27.861  1.00  0.00     0.163 HD
ATOM     36  O   UNL A   1      34.545  32.297  28.993  1.00  0.00    -0.269 OA
BRANCH  34  37
ATOM     37  C   UNL A   1      35.878  30.394  28.610  1.00  0.00     0.039 A 
ATOM     38  C   UNL A   1      36.797  30.427  27.557  1.00  0.00     0.014 A 
ATOM     39  C   UNL A   1      36.200  29.744  29.802  1.00  0.00     0.014 A 
ATOM     40  C   UNL A   1      38.087  29.925  27.754  1.00  0.00     0.010 A 
ATOM     41  C   UNL A   1      37.513  29.356  30.032  1.00  0.00     0.010 A 
ATOM     42  C   UNL A   1      38.479  29.453  29.018  1.00  0.00    -0.014 A 
BRANCH  42  43
ATOM     43  C   UNL A   1      39.887  29.080  29.322  1.00  0.00     0.031 A 
ATOM     44  C   UNL A   1      40.815  30.093  29.944  1.00  0.00     0.074 A 
ATOM     45  C   UNL A   1      40.368  27.879  28.937  1.00  0.00     0.049 A 
ATOM     46  N   UNL A   1      42.103  30.011  30.158  1.00  0.00    -0.248 NA
ATOM     47  C   UNL A   1      40.224  31.385  30.334  1.00  0.00     0.031 C 
ATOM     48  C   UNL A   1      39.601  26.827  28.261  1.00  0.00     0.029 A 
ATOM     49  N   UNL A   1      41.627  27.340  29.049  1.00  0.00    -0.354 N 
ATOM     50  C   UNL A   1      42.481  31.252  30.657  1.00  0.00     0.074 A 
ATOM     51  C   UNL A   1      41.297  32.083  30.672  1.00  0.00     0.031 C 
ATOM     52  C   UNL A   1      40.394  25.761  28.056  1.00  0.00     0.029 A 
ATOM     53  C   UNL A   1      41.735  26.065  28.542  1.00  0.00     0.049 A 
ATOM     54  H   UNL A   1      42.383  27.822  29.456  1.00  0.00     0.167 HD
ATOM     55  C   UNL A   1      43.697  31.661  31.088  1.00  0.00     0.031 A 
ATOM     56  C   UNL A   1      42.793  25.234  28.475  1.00  0.00     0.031 A 
ATOM     57  C   UNL A   1      44.859  30.817  31.135  1.00  0.00     0.049 A 
ATOM     58  C   UNL A   1      44.122  25.690  29.015  1.00  0.00     0.074 A 
ATOM     59  C   UNL A   1      46.111  31.106  31.650  1.00  0.00     0.029 A 
ATOM     60  N   UNL A   1      44.909  29.514  30.664  1.00  0.00    -0.354 N 
ATOM     61  N   UNL A   1      44.439  26.843  29.552  1.00  0.00    -0.248 NA
ATOM     62  C   UNL A   1      45.232  24.730  28.944  1.00  0.00     0.031 C 
ATOM     63  C   UNL A   1      46.929  29.986  31.459  1.00  0.00     0.029 A 
ATOM     64  C   UNL A   1      46.173  28.990  30.865  1.00  0.00     0.049 A 
ATOM     65  H   UNL A   1      44.156  29.035  30.250  1.00  0.00     0.167 HD
ATOM     66  C   UNL A   1      45.777  26.735  29.914  1.00  0.00     0.074 A 
ATOM     67  C   UNL A   1      46.207  25.403  29.542  1.00  0.00     0.031 C 
ATOM     68  C   UNL A   1      46.579  27.656  30.501  1.00  0.00     0.031 A 
BRANCH  55  69
ATOM     69  C   UNL A   1      43.829  33.085  31.555  1.00  0.00    -0.014 A 
ATOM     70  C   UNL A   1      43.731  33.414  32.919  1.00  0.00     0.010 A 
ATOM     71  C   UNL A   1      44.085  34.104  30.621  1.00  0.00     0.010 A 
ATOM     72  C   UNL A   1      43.842  34.743  33.336  1.00  0.00     0.020 A 
ATOM     73  C   UNL A   1      44.223  35.432  31.036  1.00  0.00     0.020 A 
ATOM     74  C   UNL A   1      44.083  35.744  32.391  1.00  0.00     0.054 A 
BRANCH  74  75
ATOM     75  S   UNL A   1      44.244  37.459  32.960  1.00  0.00     0.124 S 
ATOM     76  O   UNL A   1      44.340  38.185  31.696  1.00  0.00    -0.237 OA
ATOM     77  O   UNL A   1      43.007  37.667  33.709  1.00  0.00    -0.237 OA
ATOM     78  O   UNL A   1      45.461  37.444  33.765  1.00  0.00    -0.744 OA
ENDBRANCH  74  75
ENDBRANCH  55  69
BRANCH  56  79
ATOM     79  C   UNL A   1      42.641  23.867  27.904  1.00  0.00    -0.014 A 
ATOM     80  C   UNL A   1      42.828  23.652  26.527  1.00  0.00     0.010 A 
ATOM     81  C   UNL A   1      42.297  22.777  28.725  1.00  0.00     0.010 A 
ATOM     82  C   UNL A   1      42.646  22.380  25.975  1.00  0.00     0.020 A 
ATOM     83  C   UNL A   1      42.139  21.499  28.180  1.00  0.00     0.020 A 
ATOM     84  C   UNL A   1      42.300  21.312  26.806  1.00  0.00     0.054 A 
BRANCH  84  85
ATOM     85  S   UNL A   1      42.102  19.662  26.075  1.00  0.00     0.124 S 
ATOM     86  O   UNL A   1      40.684  19.651  25.732  1.00  0.00    -0.237 OA
ATOM     87  O   UNL A   1      43.027  19.701  24.945  1.00  0.00    -0.237 OA
ATOM     88  O   UNL A   1      42.494  18.762  27.159  1.00  0.00    -0.744 OA
ENDBRANCH  84  85
ENDBRANCH  56  79
BRANCH  68  89
ATOM     89  C   UNL A   1      47.989  27.245  30.820  1.00  0.00    -0.014 A 
ATOM     90  C   UNL A   1      48.294  26.552  32.004  1.00  0.00     0.010 A 
ATOM     91  C   UNL A   1      49.011  27.504  29.889  1.00  0.00     0.010 A 
ATOM     92  C   UNL A   1      49.604  26.145  32.264  1.00  0.00     0.020 A 
ATOM     93  C   UNL A   1      50.318  27.077  30.134  1.00  0.00     0.020 A 
ATOM     94  C   UNL A   1      50.610  26.412  31.328  1.00  0.00     0.054 A 
BRANCH  94  95
ATOM     95  S   UNL A   1      52.294  25.828  31.660  1.00  0.00     0.124 S 
ATOM     96  O   UNL A   1      52.920  25.945  30.346  1.00  0.00    -0.237 OA
ATOM     97  O   UNL A   1      52.770  26.771  32.669  1.00  0.00    -0.237 OA
ATOM     98  O   UNL A   1      52.098  24.461  32.137  1.00  0.00    -0.744 OA
ENDBRANCH  94  95
ENDBRANCH  68  89
ENDBRANCH  42  43
ENDBRANCH  34  37
ENDBRANCH  32  33
ENDBRANCH  31  32
ENDBRANCH   1  31
TORSDOF 20
ENDMDL
MODEL 2
REMARK VINA RESULT:     -11.4      2.801      4.066
REMARK SMILES Cc1ccc(NC(=O)C[C@H]([NH2+]Cc2cccnc2)C(=O)NCCCCNC(=O)c2ccc(-c3c4nc(c(-c5ccc(S(=O)(=O)[O-])cc5)c5ccc([nH]5)c(-c5ccc(S(=O)(=O)[O-])cc5)c5nc(c(-c6ccc(S(=O)(=O)[O-])cc6)c6ccc3[nH]6)C=C5)C=C4)cc2)cc1Cl
REMARK SMILES IDX 23 1 22 2 21 3 19 4 20 5 10 7 9 8 7 9 6 10 8 12 5 13 1 14
REMARK SMILES IDX 2 15 3 16 90 17 4 18 89 19 91 20 11 21 12 24 13 25 14 26
REMARK SMILES IDX 18 27 15 28 17 29 16 30 24 31 25 32 26 33 27 34 28 36 29 37
REMARK SMILES IDX 30 38 88 39 31 40 87 41 32 42 33 43 34 44 81 45 35 46 86 47
REMARK SMILES IDX 80 48 82 49 36 50 85 51 79 52 78 53 37 55 67 56 48 57 66 58
REMARK SMILES IDX 49 59 52 60 65 61 83 62 50 63 51 64 64 66 84 67 53 68 38 69
REMARK SMILES IDX 39 70 47 71 40 72 46 73 41 74 42 75 43 76 44 77 45 78 68 79
REMARK SMILES IDX 69 80 77 81 70 82 76 83 71 84 72 85 73 86 74 87 75 88 54 89
REMARK SMILES IDX 55 90 63 91 56 92 62 93 57 94 58 95 59 96 60 97 61 98
REMARK H PARENT 21 6 6 11 11 22 11 23 26 35 82 54 52 65
REMARK Flexibility Score: inf
ROOT
ATOM      1  C   UNL A   1      32.696  29.569  27.095  1.00  0.00     0.023 C 
ENDROOT
BRANCH   1   2
ATOM      2  C   UNL A   1      32.465  30.355  25.802  1.00  0.00     0.116 C 
BRANCH   2   3
ATOM      3  N   UNL A   1      31.543  29.664  24.901  1.00  0.00    -0.351 N 
ATOM      4  C   UNL A   1      31.573  28.590  24.073  1.00  0.00     0.278 C 
ATOM      5  O   UNL A   1      30.522  28.387  23.441  1.00  0.00    -0.268 OA
ATOM      6  H   UNL A   1      30.658  30.096  24.895  1.00  0.00     0.163 HD
BRANCH   4   7
ATOM      7  C   UNL A   1      32.783  27.643  23.783  1.00  0.00     0.282 C 
BRANCH   7   8
ATOM      8  C   UNL A   1      32.913  27.113  22.373  1.00  0.00     0.175 C 
BRANCH   8   9
ATOM      9  C   UNL A   1      32.220  25.944  21.691  1.00  0.00     0.230 C 
ATOM     10  N   UNL A   1      32.272  24.610  21.845  1.00  0.00    -0.326 N 
ATOM     11  H   UNL A   1      31.625  24.186  21.238  1.00  0.00     0.169 HD
ATOM     12  O   UNL A   1      31.391  26.281  20.817  1.00  0.00    -0.274 OA
BRANCH  10  13
ATOM     13  C   UNL A   1      32.937  23.617  22.582  1.00  0.00     0.042 A 
ATOM     14  C   UNL A   1      34.673  20.378  24.905  1.00  0.00     0.046 C 
ATOM     15  C   UNL A   1      34.078  21.503  24.112  1.00  0.00    -0.032 A 
ATOM     16  C   UNL A   1      32.699  21.571  23.899  1.00  0.00     0.007 A 
ATOM     17  C   UNL A   1      34.872  22.504  23.558  1.00  0.00     0.046 A 
ATOM     18  C   UNL A   1      32.139  22.611  23.141  1.00  0.00     0.026 A 
ATOM     19  C   UNL A   1      34.293  23.549  22.832  1.00  0.00     0.047 A 
ATOM     20  Cl  UNL A   1      36.591  22.521  23.757  1.00  0.00    -0.084 Cl
ENDBRANCH  10  13
ENDBRANCH   8   9
ENDBRANCH   7   8
BRANCH   7  21
ATOM     21  N   UNL A   1      32.969  26.742  24.931  1.00  0.00    -0.332 N 
ATOM     22  H   UNL A   1      33.372  27.297  25.686  1.00  0.00     0.347 HD
ATOM     23  H   UNL A   1      33.549  25.989  24.560  1.00  0.00     0.347 HD
BRANCH  21  24
ATOM     24  C   UNL A   1      31.812  26.053  25.479  1.00  0.00     0.299 C 
BRANCH  24  25
ATOM     25  C   UNL A   1      32.248  24.779  26.164  1.00  0.00     0.024 A 
ATOM     26  C   UNL A   1      33.598  24.445  26.326  1.00  0.00     0.013 A 
ATOM     27  C   UNL A   1      31.315  23.915  26.736  1.00  0.00     0.120 A 
ATOM     28  C   UNL A   1      33.952  23.322  27.072  1.00  0.00     0.021 A 
ATOM     29  N   UNL A   1      31.628  22.805  27.447  1.00  0.00    -0.264 NA
ATOM     30  C   UNL A   1      32.941  22.548  27.616  1.00  0.00     0.111 A 
ENDBRANCH  24  25
ENDBRANCH  21  24
ENDBRANCH   7  21
ENDBRANCH   4   7
ENDBRANCH   2   3
ENDBRANCH   1   2
BRANCH   1  31
ATOM     31  C   UNL A   1      34.098  29.040  27.342  1.00  0.00     0.023 C 
BRANCH  31  32
ATOM     32  C   UNL A   1      35.145  30.102  27.633  1.00  0.00     0.116 C 
BRANCH  32  33
ATOM     33  N   UNL A   1      35.232  30.518  29.029  1.00  0.00    -0.352 N 
ATOM     34  C   UNL A   1      36.272  30.328  29.919  1.00  0.00     0.251 C 
ATOM     35  H   UNL A   1      34.448  30.996  29.383  1.00  0.00     0.163 HD
ATOM     36  O   UNL A   1      36.178  30.713  31.080  1.00  0.00    -0.269 OA
BRANCH  34  37
ATOM     37  C   UNL A   1      37.476  29.590  29.469  1.00  0.00     0.039 A 
ATOM     38  C   UNL A   1      37.926  29.754  28.156  1.00  0.00     0.014 A 
ATOM     39  C   UNL A   1      38.230  28.849  30.380  1.00  0.00     0.014 A 
ATOM     40  C   UNL A   1      39.195  29.288  27.800  1.00  0.00     0.010 A 
ATOM     41  C   UNL A   1      39.532  28.494  30.058  1.00  0.00     0.010 A 
ATOM     42  C   UNL A   1      40.040  28.721  28.768  1.00  0.00    -0.014 A 
BRANCH  42  43
ATOM     43  C   UNL A   1      41.459  28.378  28.479  1.00  0.00     0.031 A 
ATOM     44  C   UNL A   1      42.509  29.460  28.489  1.00  0.00     0.074 A 
ATOM     45  C   UNL A   1      41.788  27.127  28.093  1.00  0.00     0.049 A 
ATOM     46  N   UNL A   1      43.766  29.394  28.131  1.00  0.00    -0.248 NA
ATOM     47  C   UNL A   1      42.078  30.803  28.913  1.00  0.00     0.031 C 
ATOM     48  C   UNL A   1      40.861  25.997  27.971  1.00  0.00     0.029 A 
ATOM     49  N   UNL A   1      42.999  26.594  27.721  1.00  0.00    -0.354 N 
ATOM     50  C   UNL A   1      44.256  30.690  28.239  1.00  0.00     0.074 A 
ATOM     51  C   UNL A   1      43.153  31.529  28.652  1.00  0.00     0.031 C 
ATOM     52  C   UNL A   1      41.543  24.903  27.592  1.00  0.00     0.029 A 
ATOM     53  C   UNL A   1      42.944  25.257  27.400  1.00  0.00     0.049 A 
ATOM     54  H   UNL A   1      43.830  27.122  27.687  1.00  0.00     0.167 HD
ATOM     55  C   UNL A   1      45.517  31.141  28.038  1.00  0.00     0.031 A 
ATOM     56  C   UNL A   1      43.912  24.411  26.995  1.00  0.00     0.031 A 
ATOM     57  C   UNL A   1      46.628  30.298  27.692  1.00  0.00     0.049 A 
ATOM     58  C   UNL A   1      45.318  24.925  26.835  1.00  0.00     0.074 A 
ATOM     59  C   UNL A   1      47.962  30.644  27.565  1.00  0.00     0.029 A 
ATOM     60  N   UNL A   1      46.538  28.940  27.431  1.00  0.00    -0.354 N 
ATOM     61  N   UNL A   1      45.775  26.140  27.016  1.00  0.00    -0.248 NA
ATOM     62  C   UNL A   1      46.337  23.950  26.423  1.00  0.00     0.031 C 
ATOM     63  C   UNL A   1      48.675  29.498  27.195  1.00  0.00     0.029 A 
ATOM     64  C   UNL A   1      47.790  28.434  27.133  1.00  0.00     0.049 A 
ATOM     65  H   UNL A   1      45.706  28.414  27.456  1.00  0.00     0.167 HD
ATOM     66  C   UNL A   1      47.141  26.069  26.771  1.00  0.00     0.074 A 
ATOM     67  C   UNL A   1      47.437  24.691  26.438  1.00  0.00     0.031 C 
ATOM     68  C   UNL A   1      48.068  27.056  26.818  1.00  0.00     0.031 A 
BRANCH  55  69
ATOM     69  C   UNL A   1      45.762  32.617  28.198  1.00  0.00    -0.014 A 
ATOM     70  C   UNL A   1      45.619  33.499  27.112  1.00  0.00     0.010 A 
ATOM     71  C   UNL A   1      46.109  33.134  29.459  1.00  0.00     0.010 A 
ATOM     72  C   UNL A   1      45.864  34.865  27.273  1.00  0.00     0.020 A 
ATOM     73  C   UNL A   1      46.329  34.504  29.631  1.00  0.00     0.020 A 
ATOM     74  C   UNL A   1      46.221  35.358  28.531  1.00  0.00     0.054 A 
BRANCH  74  75
ATOM     75  S   UNL A   1      46.512  37.138  28.719  1.00  0.00     0.124 S 
ATOM     76  O   UNL A   1      45.188  37.618  29.104  1.00  0.00    -0.237 OA
ATOM     77  O   UNL A   1      47.527  37.189  29.769  1.00  0.00    -0.237 OA
ATOM     78  O   UNL A   1      46.968  37.556  27.397  1.00  0.00    -0.744 OA
ENDBRANCH  74  75
ENDBRANCH  55  69
BRANCH  56  79
ATOM     79  C   UNL A   1      43.601  22.977  26.743  1.00  0.00    -0.014 A 
ATOM     80  C   UNL A   1      42.880  22.233  27.694  1.00  0.00     0.010 A 
ATOM     81  C   UNL A   1      44.030  22.343  25.564  1.00  0.00     0.010 A 
ATOM     82  C   UNL A   1      42.619  20.876  27.485  1.00  0.00     0.020 A 
ATOM     83  C   UNL A   1      43.749  20.991  25.339  1.00  0.00     0.020 A 
ATOM     84  C   UNL A   1      43.058  20.263  26.310  1.00  0.00     0.054 A 
BRANCH  84  85
ATOM     85  S   UNL A   1      42.679  18.508  26.041  1.00  0.00     0.124 S 
ATOM     86  O   UNL A   1      43.010  17.925  27.337  1.00  0.00    -0.237 OA
ATOM     87  O   UNL A   1      41.258  18.537  25.704  1.00  0.00    -0.237 OA
ATOM     88  O   UNL A   1      43.564  18.134  24.939  1.00  0.00    -0.744 OA
ENDBRANCH  84  85
ENDBRANCH  56  79
BRANCH  68  89
ATOM     89  C   UNL A   1      49.498  26.679  26.546  1.00  0.00    -0.014 A 
ATOM     90  C   UNL A   1      50.035  26.752  25.249  1.00  0.00     0.010 A 
ATOM     91  C   UNL A   1      50.329  26.306  27.617  1.00  0.00     0.010 A 
ATOM     92  C   UNL A   1      51.376  26.433  25.024  1.00  0.00     0.020 A 
ATOM     93  C   UNL A   1      51.677  26.010  27.399  1.00  0.00     0.020 A 
ATOM     94  C   UNL A   1      52.189  26.063  26.101  1.00  0.00     0.054 A 
BRANCH  94  95
ATOM     95  S   UNL A   1      53.940  25.705  25.794  1.00  0.00     0.124 S 
ATOM     96  O   UNL A   1      53.887  25.008  24.512  1.00  0.00    -0.237 OA
ATOM     97  O   UNL A   1      54.540  27.037  25.760  1.00  0.00    -0.237 OA
ATOM     98  O   UNL A   1      54.329  24.883  26.936  1.00  0.00    -0.744 OA
ENDBRANCH  94  95
ENDBRANCH  68  89
ENDBRANCH  42  43
ENDBRANCH  34  37
ENDBRANCH  32  33
ENDBRANCH  31  32
ENDBRANCH   1  31
TORSDOF 20
ENDMDL
MODEL 3
REMARK VINA RESULT:     -11.4      2.700      9.143
REMARK SMILES Cc1ccc(NC(=O)C[C@H]([NH2+]Cc2cccnc2)C(=O)NCCCCNC(=O)c2ccc(-c3c4nc(c(-c5ccc(S(=O)(=O)[O-])cc5)c5ccc([nH]5)c(-c5ccc(S(=O)(=O)[O-])cc5)c5nc(c(-c6ccc(S(=O)(=O)[O-])cc6)c6ccc3[nH]6)C=C5)C=C4)cc2)cc1Cl
REMARK SMILES IDX 23 1 22 2 21 3 19 4 20 5 10 7 9 8 7 9 6 10 8 12 5 13 1 14
REMARK SMILES IDX 2 15 3 16 90 17 4 18 89 19 91 20 11 21 12 24 13 25 14 26
REMARK SMILES IDX 18 27 15 28 17 29 16 30 24 31 25 32 26 33 27 34 28 36 29 37
REMARK SMILES IDX 30 38 88 39 31 40 87 41 32 42 33 43 34 44 81 45 35 46 86 47
REMARK SMILES IDX 80 48 82 49 36 50 85 51 79 52 78 53 37 55 67 56 48 57 66 58
REMARK SMILES IDX 49 59 52 60 65 61 83 62 50 63 51 64 64 66 84 67 53 68 38 69
REMARK SMILES IDX 39 70 47 71 40 72 46 73 41 74 42 75 43 76 44 77 45 78 68 79
REMARK SMILES IDX 69 80 77 81 70 82 76 83 71 84 72 85 73 86 74 87 75 88 54 89
REMARK SMILES IDX 55 90 63 91 56 92 62 93 57 94 58 95 59 96 60 97 61 98
REMARK H PARENT 21 6 6 11 11 22 11 23 26 35 82 54 52 65
REMARK Flexibility Score: inf
ROOT
ATOM      1  C   UNL A   1      35.399  21.361  25.346  1.00  0.00     0.023 C 
ENDROOT
BRANCH   1   2
ATOM      2  C   UNL A   1      33.896  21.172  25.562  1.00  0.00     0.116 C 
BRANCH   2   3
ATOM      3  N   UNL A   1      33.163  21.141  24.297  1.00  0.00    -0.351 N 
ATOM      4  C   UNL A   1      32.754  22.029  23.357  1.00  0.00     0.278 C 
ATOM      5  O   UNL A   1      32.092  21.538  22.426  1.00  0.00    -0.268 OA
ATOM      6  H   UNL A   1      32.894  20.222  24.062  1.00  0.00     0.163 HD
BRANCH   4   7
ATOM      7  C   UNL A   1      32.963  23.578  23.355  1.00  0.00     0.282 C 
BRANCH   7   8
ATOM      8  C   UNL A   1      32.808  24.290  24.680  1.00  0.00     0.175 C 
BRANCH   8   9
ATOM      9  C   UNL A   1      31.598  24.975  25.295  1.00  0.00     0.230 C 
ATOM     10  N   UNL A   1      31.388  26.185  25.841  1.00  0.00    -0.326 N 
ATOM     11  H   UNL A   1      30.439  26.273  26.084  1.00  0.00     0.169 HD
ATOM     12  O   UNL A   1      30.552  24.290  25.261  1.00  0.00    -0.274 OA
BRANCH  10  13
ATOM     13  C   UNL A   1      32.066  27.367  26.180  1.00  0.00     0.042 A 
ATOM     14  C   UNL A   1      34.468  30.829  27.247  1.00  0.00     0.046 C 
ATOM     15  C   UNL A   1      33.633  29.637  26.888  1.00  0.00    -0.032 A 
ATOM     16  C   UNL A   1      34.203  28.363  26.823  1.00  0.00     0.007 A 
ATOM     17  C   UNL A   1      32.275  29.757  26.603  1.00  0.00     0.046 A 
ATOM     18  C   UNL A   1      33.430  27.247  26.469  1.00  0.00     0.026 A 
ATOM     19  C   UNL A   1      31.514  28.629  26.283  1.00  0.00     0.047 A 
ATOM     20  Cl  UNL A   1      31.463  31.284  26.654  1.00  0.00    -0.084 Cl
ENDBRANCH  10  13
ENDBRANCH   8   9
ENDBRANCH   7   8
BRANCH   7  21
ATOM     21  N   UNL A   1      32.356  24.140  22.138  1.00  0.00    -0.332 N 
ATOM     22  H   UNL A   1      31.425  24.470  22.393  1.00  0.00     0.347 HD
ATOM     23  H   UNL A   1      32.399  23.374  21.466  1.00  0.00     0.347 HD
BRANCH  21  24
ATOM     24  C   UNL A   1      33.027  25.238  21.460  1.00  0.00     0.299 C 
BRANCH  24  25
ATOM     25  C   UNL A   1      32.521  26.558  21.994  1.00  0.00     0.024 A 
ATOM     26  C   UNL A   1      33.387  27.542  22.487  1.00  0.00     0.013 A 
ATOM     27  C   UNL A   1      31.167  26.882  21.944  1.00  0.00     0.120 A 
ATOM     28  C   UNL A   1      32.886  28.790  22.853  1.00  0.00     0.021 A 
ATOM     29  N   UNL A   1      30.647  28.078  22.314  1.00  0.00    -0.264 NA
ATOM     30  C   UNL A   1      31.524  29.010  22.739  1.00  0.00     0.111 A 
ENDBRANCH  24  25
ENDBRANCH  21  24
ENDBRANCH   7  21
ENDBRANCH   4   7
ENDBRANCH   2   3
ENDBRANCH   1   2
BRANCH   1  31
ATOM     31  C   UNL A   1      36.030  22.613  25.931  1.00  0.00     0.023 C 
BRANCH  31  32
ATOM     32  C   UNL A   1      37.302  23.077  25.240  1.00  0.00     0.116 C 
BRANCH  32  33
ATOM     33  N   UNL A   1      38.509  22.347  25.612  1.00  0.00    -0.352 N 
ATOM     34  C   UNL A   1      39.591  22.793  26.346  1.00  0.00     0.251 C 
ATOM     35  H   UNL A   1      38.559  21.414  25.299  1.00  0.00     0.163 HD
ATOM     36  O   UNL A   1      40.554  22.059  26.548  1.00  0.00    -0.269 OA
BRANCH  34  37
ATOM     37  C   UNL A   1      39.604  24.195  26.827  1.00  0.00     0.039 A 
ATOM     38  C   UNL A   1      39.149  24.477  28.117  1.00  0.00     0.014 A 
ATOM     39  C   UNL A   1      40.188  25.200  26.054  1.00  0.00     0.014 A 
ATOM     40  C   UNL A   1      39.404  25.732  28.679  1.00  0.00     0.010 A 
ATOM     41  C   UNL A   1      40.544  26.400  26.654  1.00  0.00     0.010 A 
ATOM     42  C   UNL A   1      40.171  26.679  27.979  1.00  0.00    -0.014 A 
BRANCH  42  43
ATOM     43  C   UNL A   1      40.620  27.953  28.604  1.00  0.00     0.031 A 
ATOM     44  C   UNL A   1      42.021  28.067  29.150  1.00  0.00     0.074 A 
ATOM     45  C   UNL A   1      39.744  28.963  28.788  1.00  0.00     0.049 A 
ATOM     46  N   UNL A   1      42.558  29.034  29.849  1.00  0.00    -0.248 NA
ATOM     47  C   UNL A   1      42.921  26.925  28.918  1.00  0.00     0.031 C 
ATOM     48  C   UNL A   1      38.337  28.962  28.372  1.00  0.00     0.029 A 
ATOM     49  N   UNL A   1      39.905  30.191  29.385  1.00  0.00    -0.354 N 
ATOM     50  C   UNL A   1      43.834  28.594  30.181  1.00  0.00     0.074 A 
ATOM     51  C   UNL A   1      43.975  27.258  29.647  1.00  0.00     0.031 C 
ATOM     52  C   UNL A   1      37.779  30.142  28.692  1.00  0.00     0.029 A 
ATOM     53  C   UNL A   1      38.769  30.968  29.374  1.00  0.00     0.049 A 
ATOM     54  H   UNL A   1      40.755  30.486  29.784  1.00  0.00     0.167 HD
ATOM     55  C   UNL A   1      44.812  29.249  30.850  1.00  0.00     0.031 A 
ATOM     56  C   UNL A   1      38.549  32.206  29.859  1.00  0.00     0.031 A 
ATOM     57  C   UNL A   1      44.696  30.600  31.325  1.00  0.00     0.049 A 
ATOM     58  C   UNL A   1      39.670  32.937  30.547  1.00  0.00     0.074 A 
ATOM     59  C   UNL A   1      45.665  31.387  31.923  1.00  0.00     0.029 A 
ATOM     60  N   UNL A   1      43.547  31.371  31.242  1.00  0.00    -0.354 N 
ATOM     61  N   UNL A   1      40.894  32.530  30.784  1.00  0.00    -0.248 NA
ATOM     62  C   UNL A   1      39.381  34.295  31.026  1.00  0.00     0.031 C 
ATOM     63  C   UNL A   1      45.090  32.625  32.232  1.00  0.00     0.029 A 
ATOM     64  C   UNL A   1      43.778  32.620  31.789  1.00  0.00     0.049 A 
ATOM     65  H   UNL A   1      42.694  31.072  30.851  1.00  0.00     0.167 HD
ATOM     66  C   UNL A   1      41.530  33.595  31.410  1.00  0.00     0.074 A 
ATOM     67  C   UNL A   1      40.560  34.665  31.509  1.00  0.00     0.031 C 
ATOM     68  C   UNL A   1      42.804  33.679  31.865  1.00  0.00     0.031 A 
BRANCH  55  69
ATOM     69  C   UNL A   1      46.100  28.512  31.098  1.00  0.00    -0.014 A 
ATOM     70  C   UNL A   1      47.163  28.579  30.179  1.00  0.00     0.010 A 
ATOM     71  C   UNL A   1      46.263  27.769  32.280  1.00  0.00     0.010 A 
ATOM     72  C   UNL A   1      48.348  27.878  30.416  1.00  0.00     0.020 A 
ATOM     73  C   UNL A   1      47.457  27.088  32.535  1.00  0.00     0.020 A 
ATOM     74  C   UNL A   1      48.486  27.133  31.591  1.00  0.00     0.054 A 
BRANCH  74  75
ATOM     75  S   UNL A   1      50.042  26.250  31.886  1.00  0.00     0.124 S 
ATOM     76  O   UNL A   1      50.919  26.848  30.882  1.00  0.00    -0.237 OA
ATOM     77  O   UNL A   1      50.349  26.594  33.272  1.00  0.00    -0.237 OA
ATOM     78  O   UNL A   1      49.695  24.851  31.656  1.00  0.00    -0.744 OA
ENDBRANCH  74  75
ENDBRANCH  55  69
BRANCH  56  79
ATOM     79  C   UNL A   1      37.220  32.856  29.685  1.00  0.00    -0.014 A 
ATOM     80  C   UNL A   1      36.944  33.598  28.522  1.00  0.00     0.010 A 
ATOM     81  C   UNL A   1      36.232  32.752  30.679  1.00  0.00     0.010 A 
ATOM     82  C   UNL A   1      35.715  34.246  28.368  1.00  0.00     0.020 A 
ATOM     83  C   UNL A   1      34.992  33.379  30.518  1.00  0.00     0.020 A 
ATOM     84  C   UNL A   1      34.748  34.135  29.369  1.00  0.00     0.054 A 
BRANCH  84  85
ATOM     85  S   UNL A   1      33.146  34.956  29.136  1.00  0.00     0.124 S 
ATOM     86  O   UNL A   1      33.550  36.295  28.719  1.00  0.00    -0.237 OA
ATOM     87  O   UNL A   1      32.514  34.136  28.105  1.00  0.00    -0.237 OA
ATOM     88  O   UNL A   1      32.524  34.870  30.456  1.00  0.00    -0.744 OA
ENDBRANCH  84  85
ENDBRANCH  56  79
BRANCH  68  89
ATOM     89  C   UNL A   1      43.240  34.985  32.469  1.00  0.00    -0.014 A 
ATOM     90  C   UNL A   1      42.990  35.279  33.820  1.00  0.00     0.010 A 
ATOM     91  C   UNL A   1      43.965  35.900  31.685  1.00  0.00     0.010 A 
ATOM     92  C   UNL A   1      43.437  36.482  34.372  1.00  0.00     0.020 A 
ATOM     93  C   UNL A   1      44.435  37.093  32.241  1.00  0.00     0.020 A 
ATOM     94  C   UNL A   1      44.156  37.382  33.579  1.00  0.00     0.054 A 
BRANCH  94  95
ATOM     95  S   UNL A   1      44.773  38.913  34.329  1.00  0.00     0.124 S 
ATOM     96  O   UNL A   1      45.361  38.424  35.574  1.00  0.00    -0.237 OA
ATOM     97  O   UNL A   1      45.726  39.400  33.334  1.00  0.00    -0.237 OA
ATOM     98  O   UNL A   1      43.573  39.730  34.485  1.00  0.00    -0.744 OA
ENDBRANCH  94  95
ENDBRANCH  68  89
ENDBRANCH  42  43
ENDBRANCH  34  37
ENDBRANCH  32  33
ENDBRANCH  31  32
ENDBRANCH   1  31
TORSDOF 20
ENDMDL
