MODEL 1
REMARK VINA RESULT:      -9.4      0.000      0.000
REMARK SMILES CCCN(CC(=O)NCCCCNC(=O)c1ccc(-c2c3nc(c(-c4ccc(S(=O)(=O)[O-])cc4)c4ccc([nH]4)c(-c4ccc(S(=O)(=O)[O-])cc4)c4nc(c(-c5ccc(S(=O)(=O)[O-])cc5)c5ccc2[nH]5)C=C4)C=C3)cc1)C(=O)C[C@@H]1CSCC[NH2+]1
REMARK SMILES IDX 10 1 9 2 8 3 6 4 7 5 5 7 4 8 3 9 2 10 1 11 76 12 77 13 78 14
REMARK SMILES IDX 79 15 80 16 84 17 81 18 83 19 82 22 11 23 12 24 13 25 14 26
REMARK SMILES IDX 15 28 16 29 17 30 75 31 18 32 74 33 19 34 20 35 21 36 68 37
REMARK SMILES IDX 22 38 73 39 67 40 69 41 23 42 72 43 66 44 65 45 24 47 54 48
REMARK SMILES IDX 35 49 53 50 36 51 39 52 52 53 70 54 37 55 38 56 51 58 71 59
REMARK SMILES IDX 40 60 25 61 26 62 34 63 27 64 33 65 28 66 29 67 30 68 31 69
REMARK SMILES IDX 32 70 55 71 56 72 64 73 57 74 63 75 58 76 59 77 60 78 61 79
REMARK SMILES IDX 62 80 41 81 42 82 50 83 43 84 49 85 44 86 45 87 46 88 47 89
REMARK SMILES IDX 48 90
REMARK H PARENT 8 6 84 20 84 21 13 27 69 46 39 57
REMARK Flexibility Score: inf
ROOT
ATOM      1  C   UNL A   1      33.836  23.981  25.382  1.00  0.00     0.023 C 
ENDROOT
BRANCH   1   2
ATOM      2  C   UNL A   1      34.315  25.220  24.632  1.00  0.00     0.116 C 
BRANCH   2   3
ATOM      3  N   UNL A   1      33.901  25.229  23.249  1.00  0.00    -0.355 N 
ATOM      4  C   UNL A   1      33.531  26.296  22.489  1.00  0.00     0.239 C 
ATOM      5  O   UNL A   1      33.407  26.127  21.272  1.00  0.00    -0.273 OA
ATOM      6  H   UNL A   1      33.882  24.354  22.800  1.00  0.00     0.163 HD
BRANCH   4   7
ATOM      7  C   UNL A   1      33.329  27.690  23.111  1.00  0.00     0.219 C 
BRANCH   7   8
ATOM      8  N   UNL A   1      32.185  27.825  24.029  1.00  0.00    -0.333 N 
BRANCH   8   9
ATOM      9  C   UNL A   1      32.429  28.477  25.326  1.00  0.00     0.120 C 
BRANCH   9  10
ATOM     10  C   UNL A   1      33.889  28.513  25.798  1.00  0.00     0.018 C 
ATOM     11  C   UNL A   1      34.142  29.450  26.970  1.00  0.00     0.006 C 
ENDBRANCH   9  10
ENDBRANCH   8   9
BRANCH   8  12
ATOM     12  C   UNL A   1      30.892  27.403  23.735  1.00  0.00     0.229 C 
ATOM     13  O   UNL A   1      30.536  26.246  23.985  1.00  0.00    -0.275 OA
BRANCH  12  14
ATOM     14  C   UNL A   1      29.910  28.317  23.006  1.00  0.00     0.166 C 
BRANCH  14  15
ATOM     15  C   UNL A   1      30.203  29.824  22.836  1.00  0.00     0.201 C 
ATOM     16  C   UNL A   1      29.560  30.780  23.854  1.00  0.00     0.135 C 
ATOM     17  N   UNL A   1      30.145  30.343  21.455  1.00  0.00    -0.342 N 
ATOM     18  S   UNL A   1      27.801  31.118  23.550  1.00  0.00    -0.150 SA
ATOM     19  C   UNL A   1      28.786  30.586  20.965  1.00  0.00     0.271 C 
ATOM     20  H   UNL A   1      30.591  29.665  20.838  1.00  0.00     0.346 HD
ATOM     21  H   UNL A   1      30.622  31.245  21.458  1.00  0.00     0.346 HD
ATOM     22  C   UNL A   1      27.937  31.558  21.792  1.00  0.00     0.131 C 
ENDBRANCH  14  15
ENDBRANCH  12  14
ENDBRANCH   8  12
ENDBRANCH   7   8
ENDBRANCH   4   7
ENDBRANCH   2   3
ENDBRANCH   1   2
BRANCH   1  23
ATOM     23  C   UNL A   1      34.797  23.462  26.451  1.00  0.00     0.023 C 
BRANCH  23  24
ATOM     24  C   UNL A   1      36.231  23.963  26.339  1.00  0.00     0.116 C 
BRANCH  24  25
ATOM     25  N   UNL A   1      37.183  22.928  25.959  1.00  0.00    -0.352 N 
ATOM     26  C   UNL A   1      38.545  22.922  26.134  1.00  0.00     0.251 C 
ATOM     27  H   UNL A   1      36.801  22.132  25.522  1.00  0.00     0.163 HD
ATOM     28  O   UNL A   1      39.225  22.004  25.688  1.00  0.00    -0.269 OA
BRANCH  26  29
ATOM     29  C   UNL A   1      39.180  24.063  26.823  1.00  0.00     0.039 A 
ATOM     30  C   UNL A   1      39.964  24.946  26.079  1.00  0.00     0.014 A 
ATOM     31  C   UNL A   1      38.944  24.292  28.181  1.00  0.00     0.014 A 
ATOM     32  C   UNL A   1      40.455  26.103  26.684  1.00  0.00     0.010 A 
ATOM     33  C   UNL A   1      39.374  25.479  28.761  1.00  0.00     0.010 A 
ATOM     34  C   UNL A   1      40.132  26.397  28.018  1.00  0.00    -0.014 A 
BRANCH  34  35
ATOM     35  C   UNL A   1      40.569  27.664  28.654  1.00  0.00     0.031 A 
ATOM     36  C   UNL A   1      41.944  27.768  29.254  1.00  0.00     0.074 A 
ATOM     37  C   UNL A   1      39.704  28.693  28.754  1.00  0.00     0.049 A 
ATOM     38  N   UNL A   1      42.485  28.765  29.907  1.00  0.00    -0.248 NA
ATOM     39  C   UNL A   1      42.816  26.588  29.129  1.00  0.00     0.031 C 
ATOM     40  C   UNL A   1      38.327  28.696  28.254  1.00  0.00     0.029 A 
ATOM     41  N   UNL A   1      39.855  29.935  29.318  1.00  0.00    -0.354 N 
ATOM     42  C   UNL A   1      43.748  28.327  30.285  1.00  0.00     0.074 A 
ATOM     43  C   UNL A   1      43.875  26.959  29.832  1.00  0.00     0.031 C 
ATOM     44  C   UNL A   1      37.769  29.890  28.511  1.00  0.00     0.029 A 
ATOM     45  C   UNL A   1      38.731  30.723  29.226  1.00  0.00     0.049 A 
ATOM     46  H   UNL A   1      40.688  30.234  29.748  1.00  0.00     0.167 HD
ATOM     47  C   UNL A   1      44.722  29.008  30.933  1.00  0.00     0.031 A 
ATOM     48  C   UNL A   1      38.500  31.973  29.669  1.00  0.00     0.031 A 
ATOM     49  C   UNL A   1      44.597  30.373  31.368  1.00  0.00     0.049 A 
ATOM     50  C   UNL A   1      39.600  32.713  30.379  1.00  0.00     0.074 A 
ATOM     51  C   UNL A   1      45.547  31.172  31.979  1.00  0.00     0.029 A 
ATOM     52  N   UNL A   1      43.452  31.144  31.234  1.00  0.00    -0.354 N 
ATOM     53  N   UNL A   1      40.812  32.304  30.669  1.00  0.00    -0.248 NA
ATOM     54  C   UNL A   1      39.306  34.086  30.811  1.00  0.00     0.031 C 
ATOM     55  C   UNL A   1      44.961  32.412  32.256  1.00  0.00     0.029 A 
ATOM     56  C   UNL A   1      43.664  32.402  31.770  1.00  0.00     0.049 A 
ATOM     57  H   UNL A   1      42.612  30.840  30.821  1.00  0.00     0.167 HD
ATOM     58  C   UNL A   1      41.434  33.379  31.295  1.00  0.00     0.074 A 
ATOM     59  C   UNL A   1      40.469  34.459  31.328  1.00  0.00     0.031 C 
ATOM     60  C   UNL A   1      42.691  33.465  31.794  1.00  0.00     0.031 A 
BRANCH  47  61
ATOM     61  C   UNL A   1      46.009  28.278  31.213  1.00  0.00    -0.014 A 
ATOM     62  C   UNL A   1      46.226  27.637  32.445  1.00  0.00     0.010 A 
ATOM     63  C   UNL A   1      47.004  28.208  30.221  1.00  0.00     0.010 A 
ATOM     64  C   UNL A   1      47.431  26.979  32.700  1.00  0.00     0.020 A 
ATOM     65  C   UNL A   1      48.201  27.527  30.460  1.00  0.00     0.020 A 
ATOM     66  C   UNL A   1      48.415  26.933  31.706  1.00  0.00     0.054 A 
BRANCH  66  67
ATOM     67  S   UNL A   1      49.965  26.060  32.057  1.00  0.00     0.124 S 
ATOM     68  O   UNL A   1      50.435  25.732  30.713  1.00  0.00    -0.237 OA
ATOM     69  O   UNL A   1      50.748  27.068  32.768  1.00  0.00    -0.237 OA
ATOM     70  O   UNL A   1      49.544  24.918  32.865  1.00  0.00    -0.744 OA
ENDBRANCH  66  67
ENDBRANCH  47  61
BRANCH  48  71
ATOM     71  C   UNL A   1      37.177  32.612  29.435  1.00  0.00    -0.014 A 
ATOM     72  C   UNL A   1      36.201  32.621  30.447  1.00  0.00     0.010 A 
ATOM     73  C   UNL A   1      36.891  33.231  28.204  1.00  0.00     0.010 A 
ATOM     74  C   UNL A   1      34.957  33.221  30.227  1.00  0.00     0.020 A 
ATOM     75  C   UNL A   1      35.659  33.854  27.989  1.00  0.00     0.020 A 
ATOM     76  C   UNL A   1      34.695  33.835  29.000  1.00  0.00     0.054 A 
BRANCH  76  77
ATOM     77  S   UNL A   1      33.094  34.655  28.754  1.00  0.00     0.124 S 
ATOM     78  O   UNL A   1      32.543  34.653  30.106  1.00  0.00    -0.237 OA
ATOM     79  O   UNL A   1      33.486  35.962  28.232  1.00  0.00    -0.237 OA
ATOM     80  O   UNL A   1      32.411  33.789  27.797  1.00  0.00    -0.744 OA
ENDBRANCH  76  77
ENDBRANCH  48  71
BRANCH  60  81
ATOM     81  C   UNL A   1      43.109  34.781  32.393  1.00  0.00    -0.014 A 
ATOM     82  C   UNL A   1      43.689  35.789  31.602  1.00  0.00     0.010 A 
ATOM     83  C   UNL A   1      42.865  35.031  33.756  1.00  0.00     0.010 A 
ATOM     84  C   UNL A   1      44.043  37.015  32.172  1.00  0.00     0.020 A 
ATOM     85  C   UNL A   1      43.194  36.264  34.323  1.00  0.00     0.020 A 
ATOM     86  C   UNL A   1      43.794  37.244  33.529  1.00  0.00     0.054 A 
BRANCH  86  87
ATOM     87  S   UNL A   1      44.219  38.859  34.235  1.00  0.00     0.124 S 
ATOM     88  O   UNL A   1      45.468  39.173  33.544  1.00  0.00    -0.237 OA
ATOM     89  O   UNL A   1      43.072  39.685  33.865  1.00  0.00    -0.237 OA
ATOM     90  O   UNL A   1      44.350  38.590  35.665  1.00  0.00    -0.744 OA
ENDBRANCH  86  87
ENDBRANCH  60  81
ENDBRANCH  34  35
ENDBRANCH  26  29
ENDBRANCH  24  25
ENDBRANCH  23  24
ENDBRANCH   1  23
TORSDOF 20
ENDMDL
MODEL 2
REMARK VINA RESULT:      -9.2      4.197      5.954
REMARK SMILES CCCN(CC(=O)NCCCCNC(=O)c1ccc(-c2c3nc(c(-c4ccc(S(=O)(=O)[O-])cc4)c4ccc([nH]4)c(-c4ccc(S(=O)(=O)[O-])cc4)c4nc(c(-c5ccc(S(=O)(=O)[O-])cc5)c5ccc2[nH]5)C=C4)C=C3)cc1)C(=O)C[C@@H]1CSCC[NH2+]1
REMARK SMILES IDX 10 1 9 2 8 3 6 4 7 5 5 7 4 8 3 9 2 10 1 11 76 12 77 13 78 14
REMARK SMILES IDX 79 15 80 16 84 17 81 18 83 19 82 22 11 23 12 24 13 25 14 26
REMARK SMILES IDX 15 28 16 29 17 30 75 31 18 32 74 33 19 34 20 35 21 36 68 37
REMARK SMILES IDX 22 38 73 39 67 40 69 41 23 42 72 43 66 44 65 45 24 47 54 48
REMARK SMILES IDX 35 49 53 50 36 51 39 52 52 53 70 54 37 55 38 56 51 58 71 59
REMARK SMILES IDX 40 60 25 61 26 62 34 63 27 64 33 65 28 66 29 67 30 68 31 69
REMARK SMILES IDX 32 70 55 71 56 72 64 73 57 74 63 75 58 76 59 77 60 78 61 79
REMARK SMILES IDX 62 80 41 81 42 82 50 83 43 84 49 85 44 86 45 87 46 88 47 89
REMARK SMILES IDX 48 90
REMARK H PARENT 8 6 84 20 84 21 13 27 69 46 39 57
REMARK Flexibility Score: inf
ROOT
ATOM      1  C   UNL A   1      39.062  22.966  26.410  1.00  0.00     0.023 C 
ENDROOT
BRANCH   1   2
ATOM      2  C   UNL A   1      37.700  23.521  26.002  1.00  0.00     0.116 C 
BRANCH   2   3
ATOM      3  N   UNL A   1      37.481  23.467  24.577  1.00  0.00    -0.355 N 
ATOM      4  C   UNL A   1      36.526  22.775  23.897  1.00  0.00     0.239 C 
ATOM      5  O   UNL A   1      36.376  23.020  22.696  1.00  0.00    -0.273 OA
ATOM      6  H   UNL A   1      38.101  23.998  24.027  1.00  0.00     0.163 HD
BRANCH   4   7
ATOM      7  C   UNL A   1      35.616  21.758  24.609  1.00  0.00     0.219 C 
BRANCH   7   8
ATOM      8  N   UNL A   1      34.195  22.130  24.716  1.00  0.00    -0.333 N 
BRANCH   8   9
ATOM      9  C   UNL A   1      33.199  21.145  24.264  1.00  0.00     0.120 C 
BRANCH   9  10
ATOM     10  C   UNL A   1      33.102  19.856  25.091  1.00  0.00     0.018 C 
ATOM     11  C   UNL A   1      33.539  18.604  24.346  1.00  0.00     0.006 C 
ENDBRANCH   9  10
ENDBRANCH   8   9
BRANCH   8  12
ATOM     12  C   UNL A   1      33.740  23.336  25.241  1.00  0.00     0.229 C 
ATOM     13  O   UNL A   1      34.155  23.744  26.331  1.00  0.00    -0.275 OA
BRANCH  12  14
ATOM     14  C   UNL A   1      32.645  24.138  24.542  1.00  0.00     0.166 C 
BRANCH  14  15
ATOM     15  C   UNL A   1      31.403  24.632  25.319  1.00  0.00     0.201 C 
ATOM     16  C   UNL A   1      30.340  25.402  24.518  1.00  0.00     0.135 C 
ATOM     17  N   UNL A   1      31.664  25.235  26.641  1.00  0.00    -0.342 N 
ATOM     18  S   UNL A   1      30.775  27.132  24.172  1.00  0.00    -0.150 SA
ATOM     19  C   UNL A   1      32.138  26.619  26.583  1.00  0.00     0.271 C 
ATOM     20  H   UNL A   1      32.371  24.673  27.115  1.00  0.00     0.346 HD
ATOM     21  H   UNL A   1      30.774  25.249  27.140  1.00  0.00     0.346 HD
ATOM     22  C   UNL A   1      31.221  27.615  25.866  1.00  0.00     0.131 C 
ENDBRANCH  14  15
ENDBRANCH  12  14
ENDBRANCH   8  12
ENDBRANCH   7   8
ENDBRANCH   4   7
ENDBRANCH   2   3
ENDBRANCH   1   2
BRANCH   1  23
ATOM     23  C   UNL A   1      39.358  21.553  25.909  1.00  0.00     0.023 C 
BRANCH  23  24
ATOM     24  C   UNL A   1      40.116  20.660  26.883  1.00  0.00     0.116 C 
BRANCH  24  25
ATOM     25  N   UNL A   1      40.998  19.703  26.231  1.00  0.00    -0.352 N 
ATOM     26  C   UNL A   1      42.289  19.892  25.803  1.00  0.00     0.251 C 
ATOM     27  H   UNL A   1      40.621  18.806  26.077  1.00  0.00     0.163 HD
ATOM     28  O   UNL A   1      42.880  19.004  25.197  1.00  0.00    -0.269 OA
BRANCH  26  29
ATOM     29  C   UNL A   1      42.935  21.198  26.043  1.00  0.00     0.039 A 
ATOM     30  C   UNL A   1      43.050  22.095  24.979  1.00  0.00     0.014 A 
ATOM     31  C   UNL A   1      43.359  21.555  27.325  1.00  0.00     0.014 A 
ATOM     32  C   UNL A   1      43.529  23.383  25.218  1.00  0.00     0.010 A 
ATOM     33  C   UNL A   1      43.769  22.860  27.573  1.00  0.00     0.010 A 
ATOM     34  C   UNL A   1      43.855  23.787  26.523  1.00  0.00    -0.014 A 
BRANCH  34  35
ATOM     35  C   UNL A   1      44.281  25.178  26.814  1.00  0.00     0.031 A 
ATOM     36  C   UNL A   1      45.720  25.577  26.630  1.00  0.00     0.074 A 
ATOM     37  C   UNL A   1      43.389  26.059  27.309  1.00  0.00     0.049 A 
ATOM     38  N   UNL A   1      46.296  26.722  26.890  1.00  0.00    -0.248 NA
ATOM     39  C   UNL A   1      46.635  24.546  26.113  1.00  0.00     0.031 C 
ATOM     40  C   UNL A   1      41.977  25.777  27.577  1.00  0.00     0.029 A 
ATOM     41  N   UNL A   1      43.543  27.370  27.684  1.00  0.00    -0.354 N 
ATOM     42  C   UNL A   1      47.640  26.545  26.588  1.00  0.00     0.074 A 
ATOM     43  C   UNL A   1      47.803  25.169  26.172  1.00  0.00     0.031 C 
ATOM     44  C   UNL A   1      41.388  26.888  28.048  1.00  0.00     0.029 A 
ATOM     45  C   UNL A   1      42.386  27.949  28.152  1.00  0.00     0.049 A 
ATOM     46  H   UNL A   1      44.399  27.851  27.623  1.00  0.00     0.167 HD
ATOM     47  C   UNL A   1      48.646  27.450  26.633  1.00  0.00     0.031 A 
ATOM     48  C   UNL A   1      42.155  29.192  28.616  1.00  0.00     0.031 A 
ATOM     49  C   UNL A   1      48.478  28.821  27.032  1.00  0.00     0.049 A 
ATOM     50  C   UNL A   1      43.286  30.183  28.649  1.00  0.00     0.074 A 
ATOM     51  C   UNL A   1      49.421  29.833  27.055  1.00  0.00     0.029 A 
ATOM     52  N   UNL A   1      47.286  29.375  27.476  1.00  0.00    -0.354 N 
ATOM     53  N   UNL A   1      44.537  30.014  28.296  1.00  0.00    -0.248 NA
ATOM     54  C   UNL A   1      42.971  31.534  29.132  1.00  0.00     0.031 C 
ATOM     55  C   UNL A   1      48.809  30.988  27.555  1.00  0.00     0.029 A 
ATOM     56  C   UNL A   1      47.474  30.708  27.794  1.00  0.00     0.049 A 
ATOM     57  H   UNL A   1      46.432  28.890  27.555  1.00  0.00     0.167 HD
ATOM     58  C   UNL A   1      45.153  31.246  28.489  1.00  0.00     0.074 A 
ATOM     59  C   UNL A   1      44.134  32.152  28.977  1.00  0.00     0.031 C 
ATOM     60  C   UNL A   1      46.447  31.596  28.279  1.00  0.00     0.031 A 
BRANCH  47  61
ATOM     61  C   UNL A   1      50.021  26.978  26.242  1.00  0.00    -0.014 A 
ATOM     62  C   UNL A   1      50.443  27.004  24.900  1.00  0.00     0.010 A 
ATOM     63  C   UNL A   1      50.914  26.527  27.231  1.00  0.00     0.010 A 
ATOM     64  C   UNL A   1      51.713  26.545  24.548  1.00  0.00     0.020 A 
ATOM     65  C   UNL A   1      52.198  26.094  26.887  1.00  0.00     0.020 A 
ATOM     66  C   UNL A   1      52.582  26.087  25.544  1.00  0.00     0.054 A 
BRANCH  66  67
ATOM     67  S   UNL A   1      54.233  25.511  25.061  1.00  0.00     0.124 S 
ATOM     68  O   UNL A   1      54.488  26.305  23.861  1.00  0.00    -0.237 OA
ATOM     69  O   UNL A   1      55.047  25.852  26.224  1.00  0.00    -0.237 OA
ATOM     70  O   UNL A   1      54.046  24.080  24.832  1.00  0.00    -0.744 OA
ENDBRANCH  66  67
ENDBRANCH  47  61
BRANCH  48  71
ATOM     71  C   UNL A   1      40.790  29.575  29.067  1.00  0.00    -0.014 A 
ATOM     72  C   UNL A   1      39.750  29.733  28.134  1.00  0.00     0.010 A 
ATOM     73  C   UNL A   1      40.517  29.766  30.433  1.00  0.00     0.010 A 
ATOM     74  C   UNL A   1      38.466  30.093  28.556  1.00  0.00     0.020 A 
ATOM     75  C   UNL A   1      39.229  30.101  30.863  1.00  0.00     0.020 A 
ATOM     76  C   UNL A   1      38.214  30.273  29.919  1.00  0.00     0.054 A 
BRANCH  76  77
ATOM     77  S   UNL A   1      36.529  30.687  30.451  1.00  0.00     0.124 S 
ATOM     78  O   UNL A   1      35.786  30.600  29.198  1.00  0.00    -0.237 OA
ATOM     79  O   UNL A   1      36.242  29.643  31.432  1.00  0.00    -0.237 OA
ATOM     80  O   UNL A   1      36.668  32.031  31.007  1.00  0.00    -0.744 OA
ENDBRANCH  76  77
ENDBRANCH  48  71
BRANCH  60  81
ATOM     81  C   UNL A   1      46.829  33.026  28.546  1.00  0.00    -0.014 A 
ATOM     82  C   UNL A   1      46.711  34.009  27.547  1.00  0.00     0.010 A 
ATOM     83  C   UNL A   1      47.257  33.401  29.833  1.00  0.00     0.010 A 
ATOM     84  C   UNL A   1      47.043  35.338  27.824  1.00  0.00     0.020 A 
ATOM     85  C   UNL A   1      47.565  34.732  30.120  1.00  0.00     0.020 A 
ATOM     86  C   UNL A   1      47.469  35.691  29.108  1.00  0.00     0.054 A 
BRANCH  86  87
ATOM     87  S   UNL A   1      47.848  37.429  29.457  1.00  0.00     0.124 S 
ATOM     88  O   UNL A   1      48.844  37.316  30.520  1.00  0.00    -0.237 OA
ATOM     89  O   UNL A   1      48.352  37.913  28.174  1.00  0.00    -0.237 OA
ATOM     90  O   UNL A   1      46.562  37.990  29.866  1.00  0.00    -0.744 OA
ENDBRANCH  86  87
ENDBRANCH  60  81
ENDBRANCH  34  35
ENDBRANCH  26  29
ENDBRANCH  24  25
ENDBRANCH  23  24
ENDBRANCH   1  23
TORSDOF 20
ENDMDL
MODEL 3
REMARK VINA RESULT:      -9.0      4.491      9.848
REMARK SMILES CCCN(CC(=O)NCCCCNC(=O)c1ccc(-c2c3nc(c(-c4ccc(S(=O)(=O)[O-])cc4)c4ccc([nH]4)c(-c4ccc(S(=O)(=O)[O-])cc4)c4nc(c(-c5ccc(S(=O)(=O)[O-])cc5)c5ccc2[nH]5)C=C4)C=C3)cc1)C(=O)C[C@@H]1CSCC[NH2+]1
REMARK SMILES IDX 10 1 9 2 8 3 6 4 7 5 5 7 4 8 3 9 2 10 1 11 76 12 77 13 78 14
REMARK SMILES IDX 79 15 80 16 84 17 81 18 83 19 82 22 11 23 12 24 13 25 14 26
REMARK SMILES IDX 15 28 16 29 17 30 75 31 18 32 74 33 19 34 20 35 21 36 68 37
REMARK SMILES IDX 22 38 73 39 67 40 69 41 23 42 72 43 66 44 65 45 24 47 54 48
REMARK SMILES IDX 35 49 53 50 36 51 39 52 52 53 70 54 37 55 38 56 51 58 71 59
REMARK SMILES IDX 40 60 25 61 26 62 34 63 27 64 33 65 28 66 29 67 30 68 31 69
REMARK SMILES IDX 32 70 55 71 56 72 64 73 57 74 63 75 58 76 59 77 60 78 61 79
REMARK SMILES IDX 62 80 41 81 42 82 50 83 43 84 49 85 44 86 45 87 46 88 47 89
REMARK SMILES IDX 48 90
REMARK H PARENT 8 6 84 20 84 21 13 27 69 46 39 57
REMARK Flexibility Score: inf
ROOT
ATOM      1  C   UNL A   1      38.186  23.159  25.874  1.00  0.00     0.023 C 
ENDROOT
BRANCH   1   2
ATOM      2  C   UNL A   1      36.724  23.467  25.564  1.00  0.00     0.116 C 
BRANCH   2   3
ATOM      3  N   UNL A   1      35.821  22.935  26.556  1.00  0.00    -0.355 N 
ATOM      4  C   UNL A   1      34.956  21.890  26.433  1.00  0.00     0.239 C 
ATOM      5  O   UNL A   1      34.417  21.459  27.457  1.00  0.00    -0.273 OA
ATOM      6  H   UNL A   1      35.831  23.383  27.432  1.00  0.00     0.163 HD
BRANCH   4   7
ATOM      7  C   UNL A   1      34.697  21.223  25.070  1.00  0.00     0.219 C 
BRANCH   7   8
ATOM      8  N   UNL A   1      33.291  20.907  24.766  1.00  0.00    -0.333 N 
BRANCH   8   9
ATOM      9  C   UNL A   1      32.807  19.561  25.114  1.00  0.00     0.120 C 
BRANCH   9  10
ATOM     10  C   UNL A   1      33.020  18.472  24.054  1.00  0.00     0.018 C 
ATOM     11  C   UNL A   1      34.324  17.704  24.203  1.00  0.00     0.006 C 
ENDBRANCH   9  10
ENDBRANCH   8   9
BRANCH   8  12
ATOM     12  C   UNL A   1      32.392  21.806  24.199  1.00  0.00     0.229 C 
ATOM     13  O   UNL A   1      31.413  22.204  24.839  1.00  0.00    -0.275 OA
BRANCH  12  14
ATOM     14  C   UNL A   1      32.528  22.247  22.743  1.00  0.00     0.166 C 
BRANCH  14  15
ATOM     15  C   UNL A   1      32.920  23.698  22.386  1.00  0.00     0.201 C 
ATOM     16  C   UNL A   1      33.942  24.391  23.302  1.00  0.00     0.135 C 
ATOM     17  N   UNL A   1      31.810  24.591  21.996  1.00  0.00    -0.342 N 
ATOM     18  S   UNL A   1      33.249  24.996  24.869  1.00  0.00    -0.150 SA
ATOM     19  C   UNL A   1      31.039  25.113  23.127  1.00  0.00     0.271 C 
ATOM     20  H   UNL A   1      31.177  24.070  21.389  1.00  0.00     0.346 HD
ATOM     21  H   UNL A   1      32.229  25.395  21.529  1.00  0.00     0.346 HD
ATOM     22  C   UNL A   1      31.831  25.898  24.177  1.00  0.00     0.131 C 
ENDBRANCH  14  15
ENDBRANCH  12  14
ENDBRANCH   8  12
ENDBRANCH   7   8
ENDBRANCH   4   7
ENDBRANCH   2   3
ENDBRANCH   1   2
BRANCH   1  23
ATOM     23  C   UNL A   1      38.590  21.697  25.687  1.00  0.00     0.023 C 
BRANCH  23  24
ATOM     24  C   UNL A   1      39.565  21.151  26.722  1.00  0.00     0.116 C 
BRANCH  24  25
ATOM     25  N   UNL A   1      40.400  20.068  26.222  1.00  0.00    -0.352 N 
ATOM     26  C   UNL A   1      41.740  20.099  25.923  1.00  0.00     0.251 C 
ATOM     27  H   UNL A   1      39.948  19.205  26.081  1.00  0.00     0.163 HD
ATOM     28  O   UNL A   1      42.291  19.118  25.434  1.00  0.00    -0.269 OA
BRANCH  26  29
ATOM     29  C   UNL A   1      42.494  21.347  26.154  1.00  0.00     0.039 A 
ATOM     30  C   UNL A   1      42.653  22.242  25.094  1.00  0.00     0.014 A 
ATOM     31  C   UNL A   1      42.979  21.659  27.427  1.00  0.00     0.014 A 
ATOM     32  C   UNL A   1      43.238  23.486  25.329  1.00  0.00     0.010 A 
ATOM     33  C   UNL A   1      43.497  22.925  27.672  1.00  0.00     0.010 A 
ATOM     34  C   UNL A   1      43.629  23.851  26.627  1.00  0.00    -0.014 A 
BRANCH  34  35
ATOM     35  C   UNL A   1      44.172  25.202  26.916  1.00  0.00     0.031 A 
ATOM     36  C   UNL A   1      43.279  26.262  27.497  1.00  0.00     0.074 A 
ATOM     37  C   UNL A   1      45.447  25.491  26.588  1.00  0.00     0.049 A 
ATOM     38  N   UNL A   1      43.550  27.514  27.759  1.00  0.00    -0.248 NA
ATOM     39  C   UNL A   1      41.891  25.872  27.797  1.00  0.00     0.031 C 
ATOM     40  C   UNL A   1      46.398  24.561  25.974  1.00  0.00     0.029 A 
ATOM     41  N   UNL A   1      46.160  26.656  26.720  1.00  0.00    -0.354 N 
ATOM     42  C   UNL A   1      42.367  28.065  28.236  1.00  0.00     0.074 A 
ATOM     43  C   UNL A   1      41.364  27.025  28.180  1.00  0.00     0.031 C 
ATOM     44  C   UNL A   1      47.576  25.184  25.806  1.00  0.00     0.029 A 
ATOM     45  C   UNL A   1      47.455  26.564  26.264  1.00  0.00     0.049 A 
ATOM     46  H   UNL A   1      45.782  27.479  27.105  1.00  0.00     0.167 HD
ATOM     47  C   UNL A   1      42.140  29.318  28.697  1.00  0.00     0.031 A 
ATOM     48  C   UNL A   1      48.433  27.489  26.217  1.00  0.00     0.031 A 
ATOM     49  C   UNL A   1      43.145  30.345  28.764  1.00  0.00     0.049 A 
ATOM     50  C   UNL A   1      48.161  28.871  26.742  1.00  0.00     0.074 A 
ATOM     51  C   UNL A   1      43.031  31.628  29.269  1.00  0.00     0.029 A 
ATOM     52  N   UNL A   1      44.449  30.206  28.315  1.00  0.00    -0.354 N 
ATOM     53  N   UNL A   1      47.052  29.354  27.250  1.00  0.00    -0.248 NA
ATOM     54  C   UNL A   1      49.273  29.830  26.697  1.00  0.00     0.031 C 
ATOM     55  C   UNL A   1      44.255  32.279  29.085  1.00  0.00     0.029 A 
ATOM     56  C   UNL A   1      45.145  31.385  28.513  1.00  0.00     0.049 A 
ATOM     57  H   UNL A   1      44.824  29.388  27.913  1.00  0.00     0.167 HD
ATOM     58  C   UNL A   1      47.342  30.665  27.611  1.00  0.00     0.074 A 
ATOM     59  C   UNL A   1      48.732  30.895  27.275  1.00  0.00     0.031 C 
ATOM     60  C   UNL A   1      46.530  31.595  28.172  1.00  0.00     0.031 A 
BRANCH  47  61
ATOM     61  C   UNL A   1      40.745  29.643  29.160  1.00  0.00    -0.014 A 
ATOM     62  C   UNL A   1      39.711  29.881  28.237  1.00  0.00     0.010 A 
ATOM     63  C   UNL A   1      40.456  29.686  30.536  1.00  0.00     0.010 A 
ATOM     64  C   UNL A   1      38.426  30.201  28.679  1.00  0.00     0.020 A 
ATOM     65  C   UNL A   1      39.165  29.977  30.984  1.00  0.00     0.020 A 
ATOM     66  C   UNL A   1      38.162  30.252  30.052  1.00  0.00     0.054 A 
BRANCH  66  67
ATOM     67  S   UNL A   1      36.480  30.655  30.599  1.00  0.00     0.124 S 
ATOM     68  O   UNL A   1      35.711  30.459  29.372  1.00  0.00    -0.237 OA
ATOM     69  O   UNL A   1      36.241  29.674  31.654  1.00  0.00    -0.237 OA
ATOM     70  O   UNL A   1      36.587  32.040  31.052  1.00  0.00    -0.744 OA
ENDBRANCH  66  67
ENDBRANCH  47  61
BRANCH  48  71
ATOM     71  C   UNL A   1      49.769  27.129  25.670  1.00  0.00    -0.014 A 
ATOM     72  C   UNL A   1      50.100  27.436  24.338  1.00  0.00     0.010 A 
ATOM     73  C   UNL A   1      50.725  26.492  26.481  1.00  0.00     0.010 A 
ATOM     74  C   UNL A   1      51.356  27.099  23.823  1.00  0.00     0.020 A 
ATOM     75  C   UNL A   1      51.991  26.175  25.979  1.00  0.00     0.020 A 
ATOM     76  C   UNL A   1      52.294  26.471  24.648  1.00  0.00     0.054 A 
BRANCH  76  77
ATOM     77  S   UNL A   1      53.935  26.090  23.975  1.00  0.00     0.124 S 
ATOM     78  O   UNL A   1      53.653  25.946  22.550  1.00  0.00    -0.237 OA
ATOM     79  O   UNL A   1      54.712  27.269  24.351  1.00  0.00    -0.237 OA
ATOM     80  O   UNL A   1      54.310  24.860  24.669  1.00  0.00    -0.744 OA
ENDBRANCH  76  77
ENDBRANCH  48  71
BRANCH  60  81
ATOM     81  C   UNL A   1      47.131  32.938  28.488  1.00  0.00    -0.014 A 
ATOM     82  C   UNL A   1      47.801  33.168  29.702  1.00  0.00     0.010 A 
ATOM     83  C   UNL A   1      47.072  33.966  27.529  1.00  0.00     0.010 A 
ATOM     84  C   UNL A   1      48.378  34.414  29.964  1.00  0.00     0.020 A 
ATOM     85  C   UNL A   1      47.670  35.204  27.777  1.00  0.00     0.020 A 
ATOM     86  C   UNL A   1      48.308  35.424  29.000  1.00  0.00     0.054 A 
BRANCH  86  87
ATOM     87  S   UNL A   1      49.105  37.016  29.342  1.00  0.00     0.124 S 
ATOM     88  O   UNL A   1      48.226  37.952  28.645  1.00  0.00    -0.237 OA
ATOM     89  O   UNL A   1      49.068  37.088  30.801  1.00  0.00    -0.237 OA
ATOM     90  O   UNL A   1      50.439  36.867  28.765  1.00  0.00    -0.744 OA
ENDBRANCH  86  87
ENDBRANCH  60  81
ENDBRANCH  34  35
ENDBRANCH  26  29
ENDBRANCH  24  25
ENDBRANCH  23  24
ENDBRANCH   1  23
TORSDOF 20
ENDMDL
