MODEL 1
REMARK VINA RESULT:     -10.1      0.000      0.000
REMARK SMILES COC(=O)c1ccc(C[N@@H+](CC(=O)NCCCCNC(=O)c2ccc(-c3c4nc(c(-c5ccc(S(=O)(=O)[O-])cc5)c5ccc([nH]5)c(-c5ccc(S(=O)(=O)[O-])cc5)c5nc(c(-c6ccc(S(=O)(=O)[O-])cc6)c6ccc3[nH]6)C=C5)C=C4)cc2)C(C)(C)C)cc1
REMARK SMILES IDX 15 1 14 2 12 3 13 4 11 6 10 7 9 9 8 10 5 11 6 12 87 13 7 14
REMARK SMILES IDX 86 15 3 16 4 17 2 18 1 19 82 20 83 21 84 22 85 23 16 24
REMARK SMILES IDX 17 25 18 26 19 27 20 28 21 30 22 31 23 32 81 33 24 34 80 35
REMARK SMILES IDX 25 36 26 37 27 38 74 39 28 40 79 41 73 42 75 43 29 44 78 45
REMARK SMILES IDX 72 46 71 47 30 49 60 50 41 51 59 52 42 53 45 54 58 55 76 56
REMARK SMILES IDX 43 57 44 58 57 60 77 61 46 62 31 63 32 64 40 65 33 66 39 67
REMARK SMILES IDX 34 68 35 69 36 70 37 71 38 72 61 73 62 74 70 75 63 76 69 77
REMARK SMILES IDX 64 78 65 79 66 80 67 81 68 82 47 83 48 84 56 85 49 86 55 87
REMARK SMILES IDX 50 88 51 89 52 90 53 91 54 92
REMARK H PARENT 14 5 10 8 19 29 75 48 45 59
REMARK Flexibility Score: inf
ROOT
ATOM      1  C   UNL A   1      33.503  21.217  26.239  1.00  0.00     0.116 C 
ENDROOT
BRANCH   1   2
ATOM      2  N   UNL A   1      32.525  22.028  26.939  1.00  0.00    -0.351 N 
ATOM      3  C   UNL A   1      31.533  22.850  26.488  1.00  0.00     0.275 C 
ATOM      4  O   UNL A   1      30.789  23.330  27.352  1.00  0.00    -0.269 OA
ATOM      5  H   UNL A   1      32.587  21.974  27.920  1.00  0.00     0.163 HD
BRANCH   3   6
ATOM      6  C   UNL A   1      31.271  23.137  24.998  1.00  0.00     0.364 C 
BRANCH   6   7
ATOM      7  N   UNL A   1      31.763  24.437  24.424  1.00  0.00    -0.319 N 
ATOM      8  H   UNL A   1      32.572  24.790  24.937  1.00  0.00     0.349 HD
BRANCH   7   9
ATOM      9  C   UNL A   1      30.735  25.455  24.639  1.00  0.00     0.299 C 
BRANCH   9  10
ATOM     10  C   UNL A   1      31.031  26.844  25.133  1.00  0.00     0.006 A 
ATOM     11  C   UNL A   1      31.764  29.387  26.083  1.00  0.00     0.060 A 
ATOM     12  C   UNL A   1      31.424  29.202  24.735  1.00  0.00     0.016 A 
ATOM     13  C   UNL A   1      31.748  28.295  26.955  1.00  0.00     0.016 A 
ATOM     14  C   UNL A   1      31.062  27.938  24.261  1.00  0.00     0.010 A 
ATOM     15  C   UNL A   1      31.390  27.036  26.480  1.00  0.00     0.010 A 
BRANCH  11  16
ATOM     16  C   UNL A   1      32.108  30.751  26.556  1.00  0.00     0.337 C 
ATOM     17  O   UNL A   1      31.269  31.597  26.853  1.00  0.00    -0.246 OA
BRANCH  16  18
ATOM     18  O   UNL A   1      33.451  30.906  26.612  1.00  0.00    -0.465 OA
ATOM     19  C   UNL A   1      33.997  30.965  27.928  1.00  0.00     0.282 C 
ENDBRANCH  16  18
ENDBRANCH  11  16
ENDBRANCH   9  10
ENDBRANCH   7   9
BRANCH   7  20
ATOM     20  C   UNL A   1      32.545  24.358  23.156  1.00  0.00     0.090 C 
ATOM     21  C   UNL A   1      32.810  22.935  22.622  1.00  0.00     0.078 C 
ATOM     22  C   UNL A   1      31.875  25.139  21.996  1.00  0.00     0.078 C 
ATOM     23  C   UNL A   1      33.910  25.069  23.357  1.00  0.00     0.078 C 
ENDBRANCH   7  20
ENDBRANCH   6   7
ENDBRANCH   3   6
ENDBRANCH   1   2
BRANCH   1  24
ATOM     24  C   UNL A   1      34.928  21.750  26.437  1.00  0.00     0.023 C 
BRANCH  24  25
ATOM     25  C   UNL A   1      35.543  22.522  25.289  1.00  0.00     0.023 C 
BRANCH  25  26
ATOM     26  C   UNL A   1      36.791  23.300  25.646  1.00  0.00     0.116 C 
BRANCH  26  27
ATOM     27  N   UNL A   1      37.984  22.477  25.817  1.00  0.00    -0.352 N 
ATOM     28  C   UNL A   1      39.188  22.828  26.386  1.00  0.00     0.251 C 
ATOM     29  H   UNL A   1      37.919  21.552  25.484  1.00  0.00     0.163 HD
ATOM     30  O   UNL A   1      40.128  22.040  26.401  1.00  0.00    -0.269 OA
BRANCH  28  31
ATOM     31  C   UNL A   1      39.337  24.194  26.928  1.00  0.00     0.039 A 
ATOM     32  C   UNL A   1      38.926  24.460  28.235  1.00  0.00     0.014 A 
ATOM     33  C   UNL A   1      40.006  25.166  26.182  1.00  0.00     0.014 A 
ATOM     34  C   UNL A   1      39.278  25.673  28.827  1.00  0.00     0.010 A 
ATOM     35  C   UNL A   1      40.465  26.311  26.814  1.00  0.00     0.010 A 
ATOM     36  C   UNL A   1      40.098  26.584  28.140  1.00  0.00    -0.014 A 
BRANCH  36  37
ATOM     37  C   UNL A   1      40.573  27.842  28.769  1.00  0.00     0.031 A 
ATOM     38  C   UNL A   1      41.970  27.910  29.326  1.00  0.00     0.074 A 
ATOM     39  C   UNL A   1      39.728  28.880  28.926  1.00  0.00     0.049 A 
ATOM     40  N   UNL A   1      42.544  28.871  30.001  1.00  0.00    -0.248 NA
ATOM     41  C   UNL A   1      42.818  26.720  29.138  1.00  0.00     0.031 C 
ATOM     42  C   UNL A   1      38.326  28.912  28.500  1.00  0.00     0.029 A 
ATOM     43  N   UNL A   1      39.924  30.112  29.502  1.00  0.00    -0.354 N 
ATOM     44  C   UNL A   1      43.800  28.387  30.348  1.00  0.00     0.074 A 
ATOM     45  C   UNL A   1      43.878  27.026  29.870  1.00  0.00     0.031 C 
ATOM     46  C   UNL A   1      37.799  30.111  28.802  1.00  0.00     0.029 A 
ATOM     47  C   UNL A   1      38.811  30.919  29.475  1.00  0.00     0.049 A 
ATOM     48  H   UNL A   1      40.781  30.390  29.897  1.00  0.00     0.167 HD
ATOM     49  C   UNL A   1      44.812  29.025  30.980  1.00  0.00     0.031 A 
ATOM     50  C   UNL A   1      38.625  32.169  29.943  1.00  0.00     0.031 A 
ATOM     51  C   UNL A   1      44.743  30.391  31.419  1.00  0.00     0.049 A 
ATOM     52  C   UNL A   1      39.776  32.879  30.599  1.00  0.00     0.074 A 
ATOM     53  C   UNL A   1      45.735  31.161  31.997  1.00  0.00     0.029 A 
ATOM     54  N   UNL A   1      43.616  31.193  31.321  1.00  0.00    -0.354 N 
ATOM     55  N   UNL A   1      40.985  32.433  30.846  1.00  0.00    -0.248 NA
ATOM     56  C   UNL A   1      39.545  34.267  31.025  1.00  0.00     0.031 C 
ATOM     57  C   UNL A   1      45.195  32.418  32.287  1.00  0.00     0.029 A 
ATOM     58  C   UNL A   1      43.882  32.446  31.842  1.00  0.00     0.049 A 
ATOM     59  H   UNL A   1      42.754  30.912  30.937  1.00  0.00     0.167 HD
ATOM     60  C   UNL A   1      41.666  33.491  31.437  1.00  0.00     0.074 A 
ATOM     61  C   UNL A   1      40.739  34.603  31.495  1.00  0.00     0.031 C 
ATOM     62  C   UNL A   1      42.942  33.538  31.892  1.00  0.00     0.031 A 
BRANCH  49  63
ATOM     63  C   UNL A   1      46.076  28.241  31.220  1.00  0.00    -0.014 A 
ATOM     64  C   UNL A   1      46.248  27.481  32.391  1.00  0.00     0.010 A 
ATOM     65  C   UNL A   1      47.110  28.272  30.267  1.00  0.00     0.010 A 
ATOM     66  C   UNL A   1      47.453  26.819  32.637  1.00  0.00     0.020 A 
ATOM     67  C   UNL A   1      48.306  27.584  30.494  1.00  0.00     0.020 A 
ATOM     68  C   UNL A   1      48.479  26.884  31.689  1.00  0.00     0.054 A 
BRANCH  68  69
ATOM     69  S   UNL A   1      50.037  26.023  32.036  1.00  0.00     0.124 S 
ATOM     70  O   UNL A   1      50.883  27.115  32.511  1.00  0.00    -0.237 OA
ATOM     71  O   UNL A   1      49.646  25.045  33.048  1.00  0.00    -0.237 OA
ATOM     72  O   UNL A   1      50.416  25.460  30.742  1.00  0.00    -0.744 OA
ENDBRANCH  68  69
ENDBRANCH  49  63
BRANCH  50  73
ATOM     73  C   UNL A   1      37.301  32.830  29.779  1.00  0.00    -0.014 A 
ATOM     74  C   UNL A   1      36.416  32.937  30.866  1.00  0.00     0.010 A 
ATOM     75  C   UNL A   1      36.935  33.391  28.541  1.00  0.00     0.010 A 
ATOM     76  C   UNL A   1      35.186  33.586  30.718  1.00  0.00     0.020 A 
ATOM     77  C   UNL A   1      35.716  34.061  28.396  1.00  0.00     0.020 A 
ATOM     78  C   UNL A   1      34.846  34.149  29.484  1.00  0.00     0.054 A 
BRANCH  78  79
ATOM     79  S   UNL A   1      33.278  35.050  29.335  1.00  0.00     0.124 S 
ATOM     80  O   UNL A   1      32.589  34.292  28.296  1.00  0.00    -0.237 OA
ATOM     81  O   UNL A   1      32.718  34.935  30.680  1.00  0.00    -0.237 OA
ATOM     82  O   UNL A   1      33.695  36.399  28.958  1.00  0.00    -0.744 OA
ENDBRANCH  78  79
ENDBRANCH  50  73
BRANCH  62  83
ATOM     83  C   UNL A   1      43.423  34.841  32.471  1.00  0.00    -0.014 A 
ATOM     84  C   UNL A   1      43.327  35.103  33.848  1.00  0.00     0.010 A 
ATOM     85  C   UNL A   1      44.038  35.786  31.630  1.00  0.00     0.010 A 
ATOM     86  C   UNL A   1      43.815  36.302  34.372  1.00  0.00     0.020 A 
ATOM     87  C   UNL A   1      44.551  36.975  32.155  1.00  0.00     0.020 A 
ATOM     88  C   UNL A   1      44.425  37.230  33.522  1.00  0.00     0.054 A 
BRANCH  88  89
ATOM     89  S   UNL A   1      45.095  38.758  34.232  1.00  0.00     0.124 S 
ATOM     90  O   UNL A   1      46.140  39.106  33.275  1.00  0.00    -0.237 OA
ATOM     91  O   UNL A   1      43.933  39.644  34.244  1.00  0.00    -0.237 OA
ATOM     92  O   UNL A   1      45.569  38.346  35.552  1.00  0.00    -0.744 OA
ENDBRANCH  88  89
ENDBRANCH  62  83
ENDBRANCH  36  37
ENDBRANCH  28  31
ENDBRANCH  26  27
ENDBRANCH  25  26
ENDBRANCH  24  25
ENDBRANCH   1  24
TORSDOF 20
ENDMDL
MODEL 2
REMARK VINA RESULT:      -9.9      4.391      9.288
REMARK SMILES COC(=O)c1ccc(C[N@@H+](CC(=O)NCCCCNC(=O)c2ccc(-c3c4nc(c(-c5ccc(S(=O)(=O)[O-])cc5)c5ccc([nH]5)c(-c5ccc(S(=O)(=O)[O-])cc5)c5nc(c(-c6ccc(S(=O)(=O)[O-])cc6)c6ccc3[nH]6)C=C5)C=C4)cc2)C(C)(C)C)cc1
REMARK SMILES IDX 15 1 14 2 12 3 13 4 11 6 10 7 9 9 8 10 5 11 6 12 87 13 7 14
REMARK SMILES IDX 86 15 3 16 4 17 2 18 1 19 82 20 83 21 84 22 85 23 16 24
REMARK SMILES IDX 17 25 18 26 19 27 20 28 21 30 22 31 23 32 81 33 24 34 80 35
REMARK SMILES IDX 25 36 26 37 27 38 74 39 28 40 79 41 73 42 75 43 29 44 78 45
REMARK SMILES IDX 72 46 71 47 30 49 60 50 41 51 59 52 42 53 45 54 58 55 76 56
REMARK SMILES IDX 43 57 44 58 57 60 77 61 46 62 31 63 32 64 40 65 33 66 39 67
REMARK SMILES IDX 34 68 35 69 36 70 37 71 38 72 61 73 62 74 70 75 63 76 69 77
REMARK SMILES IDX 64 78 65 79 66 80 67 81 68 82 47 83 48 84 56 85 49 86 55 87
REMARK SMILES IDX 50 88 51 89 52 90 53 91 54 92
REMARK H PARENT 14 5 10 8 19 29 75 48 45 59
REMARK Flexibility Score: inf
ROOT
ATOM      1  C   UNL A   1      34.117  28.892  27.096  1.00  0.00     0.116 C 
ENDROOT
BRANCH   1   2
ATOM      2  N   UNL A   1      32.757  28.703  27.564  1.00  0.00    -0.351 N 
ATOM      3  C   UNL A   1      31.801  27.785  27.238  1.00  0.00     0.275 C 
ATOM      4  O   UNL A   1      30.756  27.828  27.900  1.00  0.00    -0.269 OA
ATOM      5  H   UNL A   1      32.472  29.356  28.243  1.00  0.00     0.163 HD
BRANCH   3   6
ATOM      6  C   UNL A   1      31.991  26.695  26.166  1.00  0.00     0.364 C 
BRANCH   6   7
ATOM      7  N   UNL A   1      31.990  27.108  24.721  1.00  0.00    -0.319 N 
ATOM      8  H   UNL A   1      32.213  28.099  24.614  1.00  0.00     0.349 HD
BRANCH   7   9
ATOM      9  C   UNL A   1      30.624  26.995  24.209  1.00  0.00     0.299 C 
BRANCH   9  10
ATOM     10  C   UNL A   1      29.905  28.111  23.502  1.00  0.00     0.006 A 
ATOM     11  C   UNL A   1      28.616  30.120  22.017  1.00  0.00     0.060 A 
ATOM     12  C   UNL A   1      27.868  29.177  22.737  1.00  0.00     0.016 A 
ATOM     13  C   UNL A   1      30.012  30.051  22.032  1.00  0.00     0.016 A 
ATOM     14  C   UNL A   1      28.508  28.176  23.474  1.00  0.00     0.010 A 
ATOM     15  C   UNL A   1      30.647  29.051  22.765  1.00  0.00     0.010 A 
BRANCH  11  16
ATOM     16  C   UNL A   1      27.900  31.189  21.278  1.00  0.00     0.337 C 
ATOM     17  O   UNL A   1      27.645  31.130  20.079  1.00  0.00    -0.246 OA
BRANCH  16  18
ATOM     18  O   UNL A   1      27.579  32.204  22.112  1.00  0.00    -0.465 OA
ATOM     19  C   UNL A   1      28.686  32.970  22.585  1.00  0.00     0.282 C 
ENDBRANCH  16  18
ENDBRANCH  11  16
ENDBRANCH   9  10
ENDBRANCH   7   9
BRANCH   7  20
ATOM     20  C   UNL A   1      33.175  26.709  23.907  1.00  0.00     0.090 C 
ATOM     21  C   UNL A   1      32.863  25.939  22.606  1.00  0.00     0.078 C 
ATOM     22  C   UNL A   1      34.048  27.922  23.493  1.00  0.00     0.078 C 
ATOM     23  C   UNL A   1      34.120  25.839  24.778  1.00  0.00     0.078 C 
ENDBRANCH   7  20
ENDBRANCH   6   7
ENDBRANCH   3   6
ENDBRANCH   1   2
BRANCH   1  24
ATOM     24  C   UNL A   1      34.659  30.277  27.470  1.00  0.00     0.023 C 
BRANCH  24  25
ATOM     25  C   UNL A   1      33.647  31.388  27.657  1.00  0.00     0.023 C 
BRANCH  25  26
ATOM     26  C   UNL A   1      34.237  32.780  27.713  1.00  0.00     0.116 C 
BRANCH  26  27
ATOM     27  N   UNL A   1      33.373  33.774  28.341  1.00  0.00    -0.352 N 
ATOM     28  C   UNL A   1      33.471  34.313  29.606  1.00  0.00     0.251 C 
ATOM     29  H   UNL A   1      32.625  34.102  27.791  1.00  0.00     0.163 HD
ATOM     30  O   UNL A   1      32.624  35.098  30.020  1.00  0.00    -0.269 OA
BRANCH  28  31
ATOM     31  C   UNL A   1      34.588  33.879  30.469  1.00  0.00     0.039 A 
ATOM     32  C   UNL A   1      34.449  32.720  31.234  1.00  0.00     0.014 A 
ATOM     33  C   UNL A   1      35.810  34.549  30.410  1.00  0.00     0.014 A 
ATOM     34  C   UNL A   1      35.572  32.178  31.862  1.00  0.00     0.010 A 
ATOM     35  C   UNL A   1      36.944  33.941  30.924  1.00  0.00     0.010 A 
ATOM     36  C   UNL A   1      36.838  32.754  31.665  1.00  0.00    -0.014 A 
BRANCH  36  37
ATOM     37  C   UNL A   1      38.071  32.156  32.237  1.00  0.00     0.031 A 
ATOM     38  C   UNL A   1      38.469  32.489  33.649  1.00  0.00     0.074 A 
ATOM     39  C   UNL A   1      38.876  31.398  31.465  1.00  0.00     0.049 A 
ATOM     40  N   UNL A   1      39.552  32.159  34.303  1.00  0.00    -0.248 NA
ATOM     41  C   UNL A   1      37.548  33.349  34.414  1.00  0.00     0.031 C 
ATOM     42  C   UNL A   1      38.641  31.064  30.057  1.00  0.00     0.029 A 
ATOM     43  N   UNL A   1      40.066  30.779  31.756  1.00  0.00    -0.354 N 
ATOM     44  C   UNL A   1      39.459  32.798  35.533  1.00  0.00     0.074 A 
ATOM     45  C   UNL A   1      38.250  33.589  35.510  1.00  0.00     0.031 C 
ATOM     46  C   UNL A   1      39.639  30.279  29.617  1.00  0.00     0.029 A 
ATOM     47  C   UNL A   1      40.602  30.083  30.697  1.00  0.00     0.049 A 
ATOM     48  H   UNL A   1      40.497  30.828  32.639  1.00  0.00     0.167 HD
ATOM     49  C   UNL A   1      40.285  32.712  36.601  1.00  0.00     0.031 A 
ATOM     50  C   UNL A   1      41.741  29.370  30.605  1.00  0.00     0.031 A 
ATOM     51  C   UNL A   1      41.465  31.893  36.632  1.00  0.00     0.049 A 
ATOM     52  C   UNL A   1      42.622  29.246  31.817  1.00  0.00     0.074 A 
ATOM     53  C   UNL A   1      42.330  31.669  37.687  1.00  0.00     0.029 A 
ATOM     54  N   UNL A   1      41.941  31.158  35.557  1.00  0.00    -0.354 N 
ATOM     55  N   UNL A   1      42.475  29.792  33.001  1.00  0.00    -0.248 NA
ATOM     56  C   UNL A   1      43.814  28.397  31.688  1.00  0.00     0.031 C 
ATOM     57  C   UNL A   1      43.354  30.830  37.237  1.00  0.00     0.029 A 
ATOM     58  C   UNL A   1      43.098  30.491  35.918  1.00  0.00     0.049 A 
ATOM     59  H   UNL A   1      41.519  31.117  34.669  1.00  0.00     0.167 HD
ATOM     60  C   UNL A   1      43.543  29.337  33.764  1.00  0.00     0.074 A 
ATOM     61  C   UNL A   1      44.319  28.458  32.913  1.00  0.00     0.031 C 
ATOM     62  C   UNL A   1      43.855  29.622  35.052  1.00  0.00     0.031 A 
BRANCH  49  63
ATOM     63  C   UNL A   1      39.924  33.524  37.817  1.00  0.00    -0.014 A 
ATOM     64  C   UNL A   1      40.495  34.791  38.041  1.00  0.00     0.010 A 
ATOM     65  C   UNL A   1      39.009  33.012  38.754  1.00  0.00     0.010 A 
ATOM     66  C   UNL A   1      40.210  35.501  39.209  1.00  0.00     0.020 A 
ATOM     67  C   UNL A   1      38.695  33.735  39.909  1.00  0.00     0.020 A 
ATOM     68  C   UNL A   1      39.318  34.962  40.141  1.00  0.00     0.054 A 
BRANCH  68  69
ATOM     69  S   UNL A   1      38.972  35.901  41.654  1.00  0.00     0.124 S 
ATOM     70  O   UNL A   1      40.116  35.551  42.492  1.00  0.00    -0.237 OA
ATOM     71  O   UNL A   1      38.941  37.281  41.176  1.00  0.00    -0.237 OA
ATOM     72  O   UNL A   1      37.686  35.371  42.102  1.00  0.00    -0.744 OA
ENDBRANCH  68  69
ENDBRANCH  49  63
BRANCH  50  73
ATOM     73  C   UNL A   1      42.091  28.699  29.323  1.00  0.00    -0.014 A 
ATOM     74  C   UNL A   1      41.645  27.393  29.055  1.00  0.00     0.010 A 
ATOM     75  C   UNL A   1      42.842  29.379  28.346  1.00  0.00     0.010 A 
ATOM     76  C   UNL A   1      41.949  26.775  27.838  1.00  0.00     0.020 A 
ATOM     77  C   UNL A   1      43.127  28.773  27.118  1.00  0.00     0.020 A 
ATOM     78  C   UNL A   1      42.685  27.471  26.874  1.00  0.00     0.054 A 
BRANCH  78  79
ATOM     79  S   UNL A   1      43.004  26.678  25.273  1.00  0.00     0.124 S 
ATOM     80  O   UNL A   1      44.396  26.266  25.411  1.00  0.00    -0.237 OA
ATOM     81  O   UNL A   1      42.022  25.596  25.256  1.00  0.00    -0.237 OA
ATOM     82  O   UNL A   1      42.756  27.746  24.309  1.00  0.00    -0.744 OA
ENDBRANCH  78  79
ENDBRANCH  50  73
BRANCH  62  83
ATOM     83  C   UNL A   1      45.075  28.958  35.631  1.00  0.00    -0.014 A 
ATOM     84  C   UNL A   1      44.982  27.722  36.295  1.00  0.00     0.010 A 
ATOM     85  C   UNL A   1      46.338  29.550  35.449  1.00  0.00     0.010 A 
ATOM     86  C   UNL A   1      46.131  27.102  36.791  1.00  0.00     0.020 A 
ATOM     87  C   UNL A   1      47.492  28.920  35.922  1.00  0.00     0.020 A 
ATOM     88  C   UNL A   1      47.379  27.705  36.600  1.00  0.00     0.054 A 
BRANCH  88  89
ATOM     89  S   UNL A   1      48.861  26.857  37.210  1.00  0.00     0.124 S 
ATOM     90  O   UNL A   1      48.922  25.687  36.339  1.00  0.00    -0.237 OA
ATOM     91  O   UNL A   1      49.910  27.852  36.999  1.00  0.00    -0.237 OA
ATOM     92  O   UNL A   1      48.549  26.578  38.610  1.00  0.00    -0.744 OA
ENDBRANCH  88  89
ENDBRANCH  62  83
ENDBRANCH  36  37
ENDBRANCH  28  31
ENDBRANCH  26  27
ENDBRANCH  25  26
ENDBRANCH  24  25
ENDBRANCH   1  24
TORSDOF 20
ENDMDL
MODEL 3
REMARK VINA RESULT:      -9.7      0.828      8.228
REMARK SMILES COC(=O)c1ccc(C[N@@H+](CC(=O)NCCCCNC(=O)c2ccc(-c3c4nc(c(-c5ccc(S(=O)(=O)[O-])cc5)c5ccc([nH]5)c(-c5ccc(S(=O)(=O)[O-])cc5)c5nc(c(-c6ccc(S(=O)(=O)[O-])cc6)c6ccc3[nH]6)C=C5)C=C4)cc2)C(C)(C)C)cc1
REMARK SMILES IDX 15 1 14 2 12 3 13 4 11 6 10 7 9 9 8 10 5 11 6 12 87 13 7 14
REMARK SMILES IDX 86 15 3 16 4 17 2 18 1 19 82 20 83 21 84 22 85 23 16 24
REMARK SMILES IDX 17 25 18 26 19 27 20 28 21 30 22 31 23 32 81 33 24 34 80 35
REMARK SMILES IDX 25 36 26 37 27 38 74 39 28 40 79 41 73 42 75 43 29 44 78 45
REMARK SMILES IDX 72 46 71 47 30 49 60 50 41 51 59 52 42 53 45 54 58 55 76 56
REMARK SMILES IDX 43 57 44 58 57 60 77 61 46 62 31 63 32 64 40 65 33 66 39 67
REMARK SMILES IDX 34 68 35 69 36 70 37 71 38 72 61 73 62 74 70 75 63 76 69 77
REMARK SMILES IDX 64 78 65 79 66 80 67 81 68 82 47 83 48 84 56 85 49 86 55 87
REMARK SMILES IDX 50 88 51 89 52 90 53 91 54 92
REMARK H PARENT 14 5 10 8 19 29 75 48 45 59
REMARK Flexibility Score: inf
ROOT
ATOM      1  C   UNL A   1      33.581  21.436  26.233  1.00  0.00     0.116 C 
ENDROOT
BRANCH   1   2
ATOM      2  N   UNL A   1      32.543  22.148  26.953  1.00  0.00    -0.351 N 
ATOM      3  C   UNL A   1      31.485  22.895  26.524  1.00  0.00     0.275 C 
ATOM      4  O   UNL A   1      30.708  23.293  27.400  1.00  0.00    -0.269 OA
ATOM      5  H   UNL A   1      32.614  22.078  27.932  1.00  0.00     0.163 HD
BRANCH   3   6
ATOM      6  C   UNL A   1      31.193  23.192  25.041  1.00  0.00     0.364 C 
BRANCH   6   7
ATOM      7  N   UNL A   1      31.683  24.490  24.463  1.00  0.00    -0.319 N 
ATOM      8  H   UNL A   1      32.507  24.833  24.958  1.00  0.00     0.349 HD
BRANCH   7   9
ATOM      9  C   UNL A   1      30.669  25.516  24.706  1.00  0.00     0.299 C 
BRANCH   9  10
ATOM     10  C   UNL A   1      30.989  26.902  25.195  1.00  0.00     0.006 A 
ATOM     11  C   UNL A   1      31.768  29.438  26.124  1.00  0.00     0.060 A 
ATOM     12  C   UNL A   1      31.362  29.262  24.793  1.00  0.00     0.016 A 
ATOM     13  C   UNL A   1      31.794  28.341  26.989  1.00  0.00     0.016 A 
ATOM     14  C   UNL A   1      30.977  28.001  24.329  1.00  0.00     0.010 A 
ATOM     15  C   UNL A   1      31.412  27.085  26.524  1.00  0.00     0.010 A 
BRANCH  11  16
ATOM     16  C   UNL A   1      32.134  30.800  26.588  1.00  0.00     0.337 C 
ATOM     17  O   UNL A   1      31.310  31.651  26.909  1.00  0.00    -0.246 OA
BRANCH  16  18
ATOM     18  O   UNL A   1      33.479  30.945  26.606  1.00  0.00    -0.465 OA
ATOM     19  C   UNL A   1      34.061  31.005  27.907  1.00  0.00     0.282 C 
ENDBRANCH  16  18
ENDBRANCH  11  16
ENDBRANCH   9  10
ENDBRANCH   7   9
BRANCH   7  20
ATOM     20  C   UNL A   1      32.435  24.411  23.177  1.00  0.00     0.090 C 
ATOM     21  C   UNL A   1      32.770  22.988  22.685  1.00  0.00     0.078 C 
ATOM     22  C   UNL A   1      31.690  25.109  22.009  1.00  0.00     0.078 C 
ATOM     23  C   UNL A   1      33.760  25.208  23.314  1.00  0.00     0.078 C 
ENDBRANCH   7  20
ENDBRANCH   6   7
ENDBRANCH   3   6
ENDBRANCH   1   2
BRANCH   1  24
ATOM     24  C   UNL A   1      34.963  22.061  26.462  1.00  0.00     0.023 C 
BRANCH  24  25
ATOM     25  C   UNL A   1      35.443  23.071  25.442  1.00  0.00     0.023 C 
BRANCH  25  26
ATOM     26  C   UNL A   1      36.695  23.825  25.837  1.00  0.00     0.116 C 
BRANCH  26  27
ATOM     27  N   UNL A   1      37.920  23.037  25.760  1.00  0.00    -0.352 N 
ATOM     28  C   UNL A   1      39.166  23.345  26.263  1.00  0.00     0.251 C 
ATOM     29  H   UNL A   1      37.848  22.175  25.290  1.00  0.00     0.163 HD
ATOM     30  O   UNL A   1      40.124  22.606  26.061  1.00  0.00    -0.269 OA
BRANCH  28  31
ATOM     31  C   UNL A   1      39.330  24.614  27.002  1.00  0.00     0.039 A 
ATOM     32  C   UNL A   1      38.883  24.698  28.322  1.00  0.00     0.014 A 
ATOM     33  C   UNL A   1      40.047  25.664  26.426  1.00  0.00     0.014 A 
ATOM     34  C   UNL A   1      39.245  25.802  29.095  1.00  0.00     0.010 A 
ATOM     35  C   UNL A   1      40.512  26.691  27.231  1.00  0.00     0.010 A 
ATOM     36  C   UNL A   1      40.110  26.779  28.572  1.00  0.00    -0.014 A 
BRANCH  36  37
ATOM     37  C   UNL A   1      40.594  27.918  29.391  1.00  0.00     0.031 A 
ATOM     38  C   UNL A   1      39.712  29.122  29.580  1.00  0.00     0.074 A 
ATOM     39  C   UNL A   1      41.851  27.913  29.880  1.00  0.00     0.049 A 
ATOM     40  N   UNL A   1      39.979  30.259  30.168  1.00  0.00    -0.248 NA
ATOM     41  C   UNL A   1      38.364  29.058  28.987  1.00  0.00     0.031 C 
ATOM     42  C   UNL A   1      42.833  26.840  29.701  1.00  0.00     0.029 A 
ATOM     43  N   UNL A   1      42.524  28.854  30.620  1.00  0.00    -0.354 N 
ATOM     44  C   UNL A   1      38.853  31.051  29.983  1.00  0.00     0.074 A 
ATOM     45  C   UNL A   1      37.929  30.294  29.171  1.00  0.00     0.031 C 
ATOM     46  C   UNL A   1      43.969  27.169  30.338  1.00  0.00     0.029 A 
ATOM     47  C   UNL A   1      43.811  28.490  30.939  1.00  0.00     0.049 A 
ATOM     48  H   UNL A   1      42.123  29.709  30.897  1.00  0.00     0.167 HD
ATOM     49  C   UNL A   1      38.593  32.287  30.470  1.00  0.00     0.031 A 
ATOM     50  C   UNL A   1      44.760  29.147  31.634  1.00  0.00     0.031 A 
ATOM     51  C   UNL A   1      39.500  33.020  31.309  1.00  0.00     0.049 A 
ATOM     52  C   UNL A   1      44.436  30.498  32.209  1.00  0.00     0.074 A 
ATOM     53  C   UNL A   1      39.307  34.244  31.922  1.00  0.00     0.029 A 
ATOM     54  N   UNL A   1      40.772  32.592  31.656  1.00  0.00    -0.354 N 
ATOM     55  N   UNL A   1      43.333  31.199  32.092  1.00  0.00    -0.248 NA
ATOM     56  C   UNL A   1      45.477  31.142  33.022  1.00  0.00     0.031 C 
ATOM     57  C   UNL A   1      40.480  34.575  32.608  1.00  0.00     0.029 A 
ATOM     58  C   UNL A   1      41.384  33.533  32.464  1.00  0.00     0.049 A 
ATOM     59  H   UNL A   1      41.180  31.742  31.370  1.00  0.00     0.167 HD
ATOM     60  C   UNL A   1      43.539  32.356  32.834  1.00  0.00     0.074 A 
ATOM     61  C   UNL A   1      44.866  32.253  33.408  1.00  0.00     0.031 C 
ATOM     62  C   UNL A   1      42.707  33.410  33.022  1.00  0.00     0.031 A 
BRANCH  49  63
ATOM     63  C   UNL A   1      37.270  32.907  30.104  1.00  0.00    -0.014 A 
ATOM     64  C   UNL A   1      37.101  33.596  28.889  1.00  0.00     0.010 A 
ATOM     65  C   UNL A   1      36.182  32.807  30.991  1.00  0.00     0.010 A 
ATOM     66  C   UNL A   1      35.892  34.230  28.596  1.00  0.00     0.020 A 
ATOM     67  C   UNL A   1      34.959  33.412  30.685  1.00  0.00     0.020 A 
ATOM     68  C   UNL A   1      34.831  34.142  29.502  1.00  0.00     0.054 A 
BRANCH  68  69
ATOM     69  S   UNL A   1      33.274  34.981  29.101  1.00  0.00     0.124 S 
ATOM     70  O   UNL A   1      33.746  36.288  28.652  1.00  0.00    -0.237 OA
ATOM     71  O   UNL A   1      32.707  34.127  28.060  1.00  0.00    -0.237 OA
ATOM     72  O   UNL A   1      32.546  34.982  30.367  1.00  0.00    -0.744 OA
ENDBRANCH  68  69
ENDBRANCH  49  63
BRANCH  50  73
ATOM     73  C   UNL A   1      46.092  28.517  31.845  1.00  0.00    -0.014 A 
ATOM     74  C   UNL A   1      47.144  28.754  30.943  1.00  0.00     0.010 A 
ATOM     75  C   UNL A   1      46.326  27.707  32.971  1.00  0.00     0.010 A 
ATOM     76  C   UNL A   1      48.405  28.186  31.158  1.00  0.00     0.020 A 
ATOM     77  C   UNL A   1      47.591  27.157  33.202  1.00  0.00     0.020 A 
ATOM     78  C   UNL A   1      48.621  27.395  32.291  1.00  0.00     0.054 A 
BRANCH  78  79
ATOM     79  S   UNL A   1      50.283  26.729  32.590  1.00  0.00     0.124 S 
ATOM     80  O   UNL A   1      50.000  25.332  32.898  1.00  0.00    -0.237 OA
ATOM     81  O   UNL A   1      50.955  26.973  31.315  1.00  0.00    -0.237 OA
ATOM     82  O   UNL A   1      50.776  27.533  33.706  1.00  0.00    -0.744 OA
ENDBRANCH  78  79
ENDBRANCH  50  73
BRANCH  62  83
ATOM     83  C   UNL A   1      43.193  34.527  33.905  1.00  0.00    -0.014 A 
ATOM     84  C   UNL A   1      43.832  35.656  33.362  1.00  0.00     0.010 A 
ATOM     85  C   UNL A   1      42.948  34.472  35.289  1.00  0.00     0.010 A 
ATOM     86  C   UNL A   1      44.240  36.700  34.194  1.00  0.00     0.020 A 
ATOM     87  C   UNL A   1      43.333  35.527  36.120  1.00  0.00     0.020 A 
ATOM     88  C   UNL A   1      43.987  36.630  35.568  1.00  0.00     0.054 A 
BRANCH  88  89
ATOM     89  S   UNL A   1      44.484  38.020  36.621  1.00  0.00     0.124 S 
ATOM     90  O   UNL A   1      43.533  37.921  37.723  1.00  0.00    -0.237 OA
ATOM     91  O   UNL A   1      45.868  37.693  36.954  1.00  0.00    -0.237 OA
ATOM     92  O   UNL A   1      44.317  39.186  35.755  1.00  0.00    -0.744 OA
ENDBRANCH  88  89
ENDBRANCH  62  83
ENDBRANCH  36  37
ENDBRANCH  28  31
ENDBRANCH  26  27
ENDBRANCH  25  26
ENDBRANCH  24  25
ENDBRANCH   1  24
TORSDOF 20
ENDMDL
