MODEL 1
REMARK VINA RESULT:     -12.2      0.000      0.000
REMARK SMILES CC(C)(C)c1cc(Nc2ccccc2C(=O)NCCCCNC(=O)c2ccc(-c3c4nc(c(-c5ccc(S(=O)(=O)[O-])cc5)c5ccc([nH]5)c(-c5ccc(S(=O)(=O)[O-])cc5)c5nc(c(-c6ccc(S(=O)(=O)[O-])cc6)c6ccc3[nH]6)C=C5)C=C4)cc2)cc2c1OCC2(C)C
REMARK SMILES IDX 19 1 18 2 17 3 15 4 16 5 14 7 9 8 10 9 11 10 13 11 12 12
REMARK SMILES IDX 8 13 7 15 5 16 6 17 87 18 86 19 88 20 85 21 90 22 89 23
REMARK SMILES IDX 91 24 92 25 2 26 1 27 3 28 4 29 20 30 21 31 22 32 23 33
REMARK SMILES IDX 24 35 25 36 26 37 84 38 27 39 83 40 28 41 29 42 30 43 77 44
REMARK SMILES IDX 31 45 82 46 76 47 78 48 32 49 81 50 75 51 74 52 33 54 63 55
REMARK SMILES IDX 44 56 62 57 45 58 48 59 61 60 79 61 46 62 47 63 60 65 80 66
REMARK SMILES IDX 49 67 34 68 35 69 43 70 36 71 42 72 37 73 38 74 39 75 40 76
REMARK SMILES IDX 41 77 64 78 65 79 73 80 66 81 72 82 67 83 68 84 69 85 70 86
REMARK SMILES IDX 71 87 50 88 51 89 59 90 52 91 58 92 53 93 54 94 55 95 56 96
REMARK SMILES IDX 57 97
REMARK H PARENT 17 6 8 14 22 34 78 53 48 64
REMARK Flexibility Score: inf
ROOT
ATOM      1  C   UNL A   1      34.719  23.193  26.798  1.00  0.00     0.023 C 
ENDROOT
BRANCH   1   2
ATOM      2  C   UNL A   1      33.716  22.267  27.467  1.00  0.00     0.116 C 
BRANCH   2   3
ATOM      3  N   UNL A   1      32.400  22.778  27.719  1.00  0.00    -0.352 N 
ATOM      4  C   UNL A   1      31.357  22.956  26.841  1.00  0.00     0.253 C 
ATOM      5  O   UNL A   1      30.288  23.326  27.334  1.00  0.00    -0.269 OA
ATOM      6  H   UNL A   1      32.217  23.037  28.651  1.00  0.00     0.163 HD
BRANCH   4   7
ATOM      7  C   UNL A   1      31.423  22.817  25.345  1.00  0.00     0.063 A 
ATOM      8  C   UNL A   1      30.884  23.637  24.329  1.00  0.00     0.051 A 
ATOM      9  C   UNL A   1      31.234  23.363  22.981  1.00  0.00     0.027 A 
ATOM     10  C   UNL A   1      32.014  22.268  22.620  1.00  0.00     0.002 A 
ATOM     11  C   UNL A   1      32.213  21.706  24.946  1.00  0.00     0.016 A 
ATOM     12  C   UNL A   1      32.488  21.423  23.607  1.00  0.00     0.001 A 
BRANCH   8  13
ATOM     13  N   UNL A   1      29.947  24.678  24.514  1.00  0.00    -0.355 N 
ATOM     14  H   UNL A   1      28.994  24.430  24.530  1.00  0.00     0.167 HD
BRANCH  13  15
ATOM     15  C   UNL A   1      30.263  26.054  24.680  1.00  0.00     0.039 A 
ATOM     16  C   UNL A   1      30.012  28.408  23.901  1.00  0.00     0.002 A 
ATOM     17  C   UNL A   1      29.585  27.051  23.936  1.00  0.00     0.034 A 
ATOM     18  C   UNL A   1      31.072  28.728  24.747  1.00  0.00     0.127 A 
ATOM     19  C   UNL A   1      31.732  27.775  25.501  1.00  0.00     0.006 A 
ATOM     20  O   UNL A   1      31.569  29.987  24.943  1.00  0.00    -0.492 OA
ATOM     21  C   UNL A   1      31.350  26.447  25.468  1.00  0.00     0.034 A 
ATOM     22  C   UNL A   1      32.844  28.382  26.282  1.00  0.00     0.028 C 
ATOM     23  C   UNL A   1      32.707  29.846  25.822  1.00  0.00     0.240 C 
ATOM     24  C   UNL A   1      32.600  28.231  27.786  1.00  0.00     0.020 C 
ATOM     25  C   UNL A   1      34.209  27.800  25.899  1.00  0.00     0.020 C 
BRANCH  16  26
ATOM     26  C   UNL A   1      29.351  29.456  22.982  1.00  0.00    -0.009 C 
ATOM     27  C   UNL A   1      27.950  29.026  22.510  1.00  0.00     0.016 C 
ATOM     28  C   UNL A   1      30.144  29.721  21.676  1.00  0.00     0.016 C 
ATOM     29  C   UNL A   1      29.209  30.774  23.761  1.00  0.00     0.016 C 
ENDBRANCH  16  26
ENDBRANCH  13  15
ENDBRANCH   8  13
ENDBRANCH   4   7
ENDBRANCH   2   3
ENDBRANCH   1   2
BRANCH   1  30
ATOM     30  C   UNL A   1      35.637  22.597  25.732  1.00  0.00     0.023 C 
BRANCH  30  31
ATOM     31  C   UNL A   1      36.896  23.372  25.348  1.00  0.00     0.116 C 
BRANCH  31  32
ATOM     32  N   UNL A   1      38.150  22.632  25.435  1.00  0.00    -0.352 N 
ATOM     33  C   UNL A   1      39.335  22.929  26.076  1.00  0.00     0.251 C 
ATOM     34  H   UNL A   1      38.152  21.774  24.952  1.00  0.00     0.163 HD
ATOM     35  O   UNL A   1      40.275  22.140  26.050  1.00  0.00    -0.269 OA
BRANCH  33  36
ATOM     36  C   UNL A   1      39.495  24.222  26.761  1.00  0.00     0.039 A 
ATOM     37  C   UNL A   1      40.217  25.236  26.147  1.00  0.00     0.014 A 
ATOM     38  C   UNL A   1      38.954  24.409  28.038  1.00  0.00     0.014 A 
ATOM     39  C   UNL A   1      40.615  26.328  26.897  1.00  0.00     0.010 A 
ATOM     40  C   UNL A   1      39.246  25.579  28.746  1.00  0.00     0.010 A 
ATOM     41  C   UNL A   1      40.136  26.518  28.206  1.00  0.00    -0.014 A 
BRANCH  41  42
ATOM     42  C   UNL A   1      40.600  27.719  28.948  1.00  0.00     0.031 A 
ATOM     43  C   UNL A   1      39.689  28.894  29.176  1.00  0.00     0.074 A 
ATOM     44  C   UNL A   1      41.805  27.662  29.552  1.00  0.00     0.049 A 
ATOM     45  N   UNL A   1      39.877  29.935  29.947  1.00  0.00    -0.248 NA
ATOM     46  C   UNL A   1      38.405  28.915  28.454  1.00  0.00     0.031 C 
ATOM     47  C   UNL A   1      42.755  26.554  29.410  1.00  0.00     0.029 A 
ATOM     48  N   UNL A   1      42.400  28.491  30.468  1.00  0.00    -0.354 N 
ATOM     49  C   UNL A   1      38.749  30.734  29.797  1.00  0.00     0.074 A 
ATOM     50  C   UNL A   1      37.892  30.076  28.836  1.00  0.00     0.031 C 
ATOM     51  C   UNL A   1      43.738  26.701  30.305  1.00  0.00     0.029 A 
ATOM     52  C   UNL A   1      43.546  27.960  31.018  1.00  0.00     0.049 A 
ATOM     53  H   UNL A   1      42.044  29.378  30.709  1.00  0.00     0.167 HD
ATOM     54  C   UNL A   1      38.455  31.903  30.414  1.00  0.00     0.031 A 
ATOM     55  C   UNL A   1      44.349  28.419  31.998  1.00  0.00     0.031 A 
ATOM     56  C   UNL A   1      39.318  32.540  31.376  1.00  0.00     0.049 A 
ATOM     57  C   UNL A   1      44.014  29.726  32.648  1.00  0.00     0.074 A 
ATOM     58  C   UNL A   1      39.126  33.741  32.037  1.00  0.00     0.029 A 
ATOM     59  N   UNL A   1      40.526  32.026  31.825  1.00  0.00    -0.354 N 
ATOM     60  N   UNL A   1      42.962  30.486  32.461  1.00  0.00    -0.248 NA
ATOM     61  C   UNL A   1      44.974  30.250  33.627  1.00  0.00     0.031 C 
ATOM     62  C   UNL A   1      40.240  33.977  32.845  1.00  0.00     0.029 A 
ATOM     63  C   UNL A   1      41.097  32.892  32.740  1.00  0.00     0.049 A 
ATOM     64  H   UNL A   1      40.918  31.170  31.535  1.00  0.00     0.167 HD
ATOM     65  C   UNL A   1      43.137  31.585  33.290  1.00  0.00     0.074 A 
ATOM     66  C   UNL A   1      44.380  31.376  34.006  1.00  0.00     0.031 C 
ATOM     67  C   UNL A   1      42.344  32.675  33.433  1.00  0.00     0.031 A 
BRANCH  54  68
ATOM     68  C   UNL A   1      37.154  32.585  30.074  1.00  0.00    -0.014 A 
ATOM     69  C   UNL A   1      37.101  33.495  29.002  1.00  0.00     0.010 A 
ATOM     70  C   UNL A   1      36.010  32.407  30.874  1.00  0.00     0.010 A 
ATOM     71  C   UNL A   1      35.940  34.232  28.750  1.00  0.00     0.020 A 
ATOM     72  C   UNL A   1      34.838  33.124  30.609  1.00  0.00     0.020 A 
ATOM     73  C   UNL A   1      34.818  34.047  29.561  1.00  0.00     0.054 A 
BRANCH  73  74
ATOM     74  S   UNL A   1      33.321  35.017  29.224  1.00  0.00     0.124 S 
ATOM     75  O   UNL A   1      32.616  34.173  28.265  1.00  0.00    -0.237 OA
ATOM     76  O   UNL A   1      32.703  35.124  30.545  1.00  0.00    -0.237 OA
ATOM     77  O   UNL A   1      33.842  36.273  28.689  1.00  0.00    -0.744 OA
ENDBRANCH  73  74
ENDBRANCH  54  68
BRANCH  55  78
ATOM     78  C   UNL A   1      45.522  27.600  32.410  1.00  0.00    -0.014 A 
ATOM     79  C   UNL A   1      45.404  26.678  33.469  1.00  0.00     0.010 A 
ATOM     80  C   UNL A   1      46.788  27.829  31.843  1.00  0.00     0.010 A 
ATOM     81  C   UNL A   1      46.537  26.065  34.007  1.00  0.00     0.020 A 
ATOM     82  C   UNL A   1      47.921  27.189  32.358  1.00  0.00     0.020 A 
ATOM     83  C   UNL A   1      47.792  26.342  33.462  1.00  0.00     0.054 A 
BRANCH  83  84
ATOM     84  S   UNL A   1      49.258  25.599  34.228  1.00  0.00     0.124 S 
ATOM     85  O   UNL A   1      48.996  24.173  34.053  1.00  0.00    -0.237 OA
ATOM     86  O   UNL A   1      50.350  26.141  33.424  1.00  0.00    -0.237 OA
ATOM     87  O   UNL A   1      49.205  26.082  35.605  1.00  0.00    -0.744 OA
ENDBRANCH  83  84
ENDBRANCH  55  78
BRANCH  67  88
ATOM     88  C   UNL A   1      42.793  33.750  34.383  1.00  0.00    -0.014 A 
ATOM     89  C   UNL A   1      42.396  33.700  35.733  1.00  0.00     0.010 A 
ATOM     90  C   UNL A   1      43.497  34.871  33.913  1.00  0.00     0.010 A 
ATOM     91  C   UNL A   1      42.665  34.772  36.587  1.00  0.00     0.020 A 
ATOM     92  C   UNL A   1      43.789  35.934  34.772  1.00  0.00     0.020 A 
ATOM     93  C   UNL A   1      43.348  35.887  36.097  1.00  0.00     0.054 A 
BRANCH  93  94
ATOM     94  S   UNL A   1      43.656  37.285  37.212  1.00  0.00     0.124 S 
ATOM     95  O   UNL A   1      42.385  37.397  37.920  1.00  0.00    -0.237 OA
ATOM     96  O   UNL A   1      44.785  36.817  38.012  1.00  0.00    -0.237 OA
ATOM     97  O   UNL A   1      43.963  38.386  36.301  1.00  0.00    -0.744 OA
ENDBRANCH  93  94
ENDBRANCH  67  88
ENDBRANCH  41  42
ENDBRANCH  33  36
ENDBRANCH  31  32
ENDBRANCH  30  31
ENDBRANCH   1  30
TORSDOF 17
ENDMDL
MODEL 2
REMARK VINA RESULT:     -12.0      2.616      8.578
REMARK SMILES CC(C)(C)c1cc(Nc2ccccc2C(=O)NCCCCNC(=O)c2ccc(-c3c4nc(c(-c5ccc(S(=O)(=O)[O-])cc5)c5ccc([nH]5)c(-c5ccc(S(=O)(=O)[O-])cc5)c5nc(c(-c6ccc(S(=O)(=O)[O-])cc6)c6ccc3[nH]6)C=C5)C=C4)cc2)cc2c1OCC2(C)C
REMARK SMILES IDX 19 1 18 2 17 3 15 4 16 5 14 7 9 8 10 9 11 10 13 11 12 12
REMARK SMILES IDX 8 13 7 15 5 16 6 17 87 18 86 19 88 20 85 21 90 22 89 23
REMARK SMILES IDX 91 24 92 25 2 26 1 27 3 28 4 29 20 30 21 31 22 32 23 33
REMARK SMILES IDX 24 35 25 36 26 37 84 38 27 39 83 40 28 41 29 42 30 43 77 44
REMARK SMILES IDX 31 45 82 46 76 47 78 48 32 49 81 50 75 51 74 52 33 54 63 55
REMARK SMILES IDX 44 56 62 57 45 58 48 59 61 60 79 61 46 62 47 63 60 65 80 66
REMARK SMILES IDX 49 67 34 68 35 69 43 70 36 71 42 72 37 73 38 74 39 75 40 76
REMARK SMILES IDX 41 77 64 78 65 79 73 80 66 81 72 82 67 83 68 84 69 85 70 86
REMARK SMILES IDX 71 87 50 88 51 89 59 90 52 91 58 92 53 93 54 94 55 95 56 96
REMARK SMILES IDX 57 97
REMARK H PARENT 17 6 8 14 22 34 78 53 48 64
REMARK Flexibility Score: inf
ROOT
ATOM      1  C   UNL A   1      32.847  27.691  27.262  1.00  0.00     0.023 C 
ENDROOT
BRANCH   1   2
ATOM      2  C   UNL A   1      31.432  27.819  26.721  1.00  0.00     0.116 C 
BRANCH   2   3
ATOM      3  N   UNL A   1      30.548  26.704  26.897  1.00  0.00    -0.352 N 
ATOM      4  C   UNL A   1      30.337  25.626  26.070  1.00  0.00     0.253 C 
ATOM      5  O   UNL A   1      29.586  24.748  26.504  1.00  0.00    -0.269 OA
ATOM      6  H   UNL A   1      30.017  26.712  27.726  1.00  0.00     0.163 HD
BRANCH   4   7
ATOM      7  C   UNL A   1      30.872  25.460  24.676  1.00  0.00     0.063 A 
ATOM      8  C   UNL A   1      31.104  24.287  23.922  1.00  0.00     0.051 A 
ATOM      9  C   UNL A   1      31.467  24.420  22.557  1.00  0.00     0.027 A 
ATOM     10  C   UNL A   1      31.686  25.659  21.960  1.00  0.00     0.002 A 
ATOM     11  C   UNL A   1      31.106  26.708  24.041  1.00  0.00     0.016 A 
ATOM     12  C   UNL A   1      31.526  26.808  22.712  1.00  0.00     0.001 A 
BRANCH   8  13
ATOM     13  N   UNL A   1      31.091  22.965  24.422  1.00  0.00    -0.355 N 
ATOM     14  H   UNL A   1      30.215  22.580  24.655  1.00  0.00     0.167 HD
BRANCH  13  15
ATOM     15  C   UNL A   1      32.236  22.144  24.615  1.00  0.00     0.039 A 
ATOM     16  C   UNL A   1      34.717  21.939  24.723  1.00  0.00     0.002 A 
ATOM     17  C   UNL A   1      33.525  22.716  24.750  1.00  0.00     0.034 A 
ATOM     18  C   UNL A   1      34.535  20.558  24.678  1.00  0.00     0.127 A 
ATOM     19  C   UNL A   1      33.284  19.978  24.571  1.00  0.00     0.006 A 
ATOM     20  O   UNL A   1      35.537  19.630  24.746  1.00  0.00    -0.492 OA
ATOM     21  C   UNL A   1      32.140  20.752  24.526  1.00  0.00     0.034 A 
ATOM     22  C   UNL A   1      33.383  18.495  24.505  1.00  0.00     0.028 C 
ATOM     23  C   UNL A   1      34.913  18.339  24.575  1.00  0.00     0.240 C 
ATOM     24  C   UNL A   1      32.686  17.848  25.705  1.00  0.00     0.020 C 
ATOM     25  C   UNL A   1      32.823  17.933  23.193  1.00  0.00     0.020 C 
BRANCH  16  26
ATOM     26  C   UNL A   1      36.120  22.581  24.734  1.00  0.00    -0.009 C 
ATOM     27  C   UNL A   1      36.088  24.058  25.169  1.00  0.00     0.016 C 
ATOM     28  C   UNL A   1      36.805  22.594  23.343  1.00  0.00     0.016 C 
ATOM     29  C   UNL A   1      37.007  21.810  25.725  1.00  0.00     0.016 C 
ENDBRANCH  16  26
ENDBRANCH  13  15
ENDBRANCH   8  13
ENDBRANCH   4   7
ENDBRANCH   2   3
ENDBRANCH   1   2
BRANCH   1  30
ATOM     30  C   UNL A   1      33.996  28.154  26.366  1.00  0.00     0.023 C 
BRANCH  30  31
ATOM     31  C   UNL A   1      34.034  29.620  25.940  1.00  0.00     0.116 C 
BRANCH  31  32
ATOM     32  N   UNL A   1      33.825  30.598  27.003  1.00  0.00    -0.352 N 
ATOM     33  C   UNL A   1      34.651  31.012  28.028  1.00  0.00     0.251 C 
ATOM     34  H   UNL A   1      32.944  31.036  26.988  1.00  0.00     0.163 HD
ATOM     35  O   UNL A   1      34.287  31.886  28.810  1.00  0.00    -0.269 OA
BRANCH  33  36
ATOM     36  C   UNL A   1      35.962  30.372  28.218  1.00  0.00     0.039 A 
ATOM     37  C   UNL A   1      36.211  29.656  29.381  1.00  0.00     0.014 A 
ATOM     38  C   UNL A   1      36.961  30.520  27.249  1.00  0.00     0.014 A 
ATOM     39  C   UNL A   1      37.514  29.310  29.693  1.00  0.00     0.010 A 
ATOM     40  C   UNL A   1      38.251  30.046  27.509  1.00  0.00     0.010 A 
ATOM     41  C   UNL A   1      38.553  29.498  28.763  1.00  0.00    -0.014 A 
BRANCH  41  42
ATOM     42  C   UNL A   1      39.926  29.095  29.165  1.00  0.00     0.031 A 
ATOM     43  C   UNL A   1      40.687  29.861  30.213  1.00  0.00     0.074 A 
ATOM     44  C   UNL A   1      40.408  27.930  28.686  1.00  0.00     0.049 A 
ATOM     45  N   UNL A   1      41.812  29.542  30.800  1.00  0.00    -0.248 NA
ATOM     46  C   UNL A   1      40.126  31.146  30.663  1.00  0.00     0.031 C 
ATOM     47  C   UNL A   1      39.734  27.101  27.682  1.00  0.00     0.029 A 
ATOM     48  N   UNL A   1      41.513  27.195  29.034  1.00  0.00    -0.354 N 
ATOM     49  C   UNL A   1      42.098  30.583  31.676  1.00  0.00     0.074 A 
ATOM     50  C   UNL A   1      41.046  31.563  31.523  1.00  0.00     0.031 C 
ATOM     51  C   UNL A   1      40.358  25.920  27.597  1.00  0.00     0.029 A 
ATOM     52  C   UNL A   1      41.531  25.940  28.465  1.00  0.00     0.049 A 
ATOM     53  H   UNL A   1      42.221  27.529  29.630  1.00  0.00     0.167 HD
ATOM     54  C   UNL A   1      43.137  30.703  32.535  1.00  0.00     0.031 A 
ATOM     55  C   UNL A   1      42.383  24.909  28.629  1.00  0.00     0.031 A 
ATOM     56  C   UNL A   1      44.173  29.712  32.681  1.00  0.00     0.049 A 
ATOM     57  C   UNL A   1      43.539  25.075  29.568  1.00  0.00     0.074 A 
ATOM     58  C   UNL A   1      45.286  29.750  33.502  1.00  0.00     0.029 A 
ATOM     59  N   UNL A   1      44.218  28.501  32.004  1.00  0.00    -0.354 N 
ATOM     60  N   UNL A   1      43.812  26.086  30.357  1.00  0.00    -0.248 NA
ATOM     61  C   UNL A   1      44.509  23.976  29.632  1.00  0.00     0.031 C 
ATOM     62  C   UNL A   1      46.029  28.588  33.284  1.00  0.00     0.029 A 
ATOM     63  C   UNL A   1      45.347  27.793  32.376  1.00  0.00     0.049 A 
ATOM     64  H   UNL A   1      43.544  28.192  31.355  1.00  0.00     0.167 HD
ATOM     65  C   UNL A   1      44.993  25.752  31.005  1.00  0.00     0.074 A 
ATOM     66  C   UNL A   1      45.365  24.430  30.541  1.00  0.00     0.031 C 
ATOM     67  C   UNL A   1      45.710  26.483  31.892  1.00  0.00     0.031 A 
BRANCH  54  68
ATOM     68  C   UNL A   1      43.226  31.945  33.386  1.00  0.00    -0.014 A 
ATOM     69  C   UNL A   1      42.600  31.975  34.646  1.00  0.00     0.010 A 
ATOM     70  C   UNL A   1      43.837  33.115  32.900  1.00  0.00     0.010 A 
ATOM     71  C   UNL A   1      42.561  33.156  35.394  1.00  0.00     0.020 A 
ATOM     72  C   UNL A   1      43.823  34.292  33.657  1.00  0.00     0.020 A 
ATOM     73  C   UNL A   1      43.167  34.310  34.889  1.00  0.00     0.054 A 
BRANCH  73  74
ATOM     74  S   UNL A   1      43.102  35.836  35.870  1.00  0.00     0.124 S 
ATOM     75  O   UNL A   1      41.909  36.491  35.342  1.00  0.00    -0.237 OA
ATOM     76  O   UNL A   1      42.994  35.334  37.239  1.00  0.00    -0.237 OA
ATOM     77  O   UNL A   1      44.368  36.495  35.558  1.00  0.00    -0.744 OA
ENDBRANCH  73  74
ENDBRANCH  54  68
BRANCH  55  78
ATOM     78  C   UNL A   1      42.130  23.642  27.891  1.00  0.00    -0.014 A 
ATOM     79  C   UNL A   1      41.245  22.680  28.417  1.00  0.00     0.010 A 
ATOM     80  C   UNL A   1      42.867  23.329  26.735  1.00  0.00     0.010 A 
ATOM     81  C   UNL A   1      41.163  21.405  27.855  1.00  0.00     0.020 A 
ATOM     82  C   UNL A   1      42.761  22.063  26.147  1.00  0.00     0.020 A 
ATOM     83  C   UNL A   1      41.939  21.098  26.735  1.00  0.00     0.054 A 
BRANCH  83  84
ATOM     84  S   UNL A   1      41.879  19.412  26.070  1.00  0.00     0.124 S 
ATOM     85  O   UNL A   1      42.324  18.623  27.216  1.00  0.00    -0.237 OA
ATOM     86  O   UNL A   1      40.472  19.258  25.710  1.00  0.00    -0.237 OA
ATOM     87  O   UNL A   1      42.805  19.456  24.942  1.00  0.00    -0.744 OA
ENDBRANCH  83  84
ENDBRANCH  55  78
BRANCH  67  88
ATOM     88  C   UNL A   1      46.988  25.892  32.418  1.00  0.00    -0.014 A 
ATOM     89  C   UNL A   1      48.179  26.032  31.680  1.00  0.00     0.010 A 
ATOM     90  C   UNL A   1      46.984  25.091  33.572  1.00  0.00     0.010 A 
ATOM     91  C   UNL A   1      49.334  25.351  32.068  1.00  0.00     0.020 A 
ATOM     92  C   UNL A   1      48.146  24.428  33.978  1.00  0.00     0.020 A 
ATOM     93  C   UNL A   1      49.306  24.543  33.207  1.00  0.00     0.054 A 
BRANCH  93  94
ATOM     94  S   UNL A   1      50.806  23.638  33.676  1.00  0.00     0.124 S 
ATOM     95  O   UNL A   1      51.854  24.434  33.045  1.00  0.00    -0.237 OA
ATOM     96  O   UNL A   1      50.769  23.684  35.136  1.00  0.00    -0.237 OA
ATOM     97  O   UNL A   1      50.598  22.310  33.099  1.00  0.00    -0.744 OA
ENDBRANCH  93  94
ENDBRANCH  67  88
ENDBRANCH  41  42
ENDBRANCH  33  36
ENDBRANCH  31  32
ENDBRANCH  30  31
ENDBRANCH   1  30
TORSDOF 17
ENDMDL
MODEL 3
REMARK VINA RESULT:     -11.8      3.425      9.602
REMARK SMILES CC(C)(C)c1cc(Nc2ccccc2C(=O)NCCCCNC(=O)c2ccc(-c3c4nc(c(-c5ccc(S(=O)(=O)[O-])cc5)c5ccc([nH]5)c(-c5ccc(S(=O)(=O)[O-])cc5)c5nc(c(-c6ccc(S(=O)(=O)[O-])cc6)c6ccc3[nH]6)C=C5)C=C4)cc2)cc2c1OCC2(C)C
REMARK SMILES IDX 19 1 18 2 17 3 15 4 16 5 14 7 9 8 10 9 11 10 13 11 12 12
REMARK SMILES IDX 8 13 7 15 5 16 6 17 87 18 86 19 88 20 85 21 90 22 89 23
REMARK SMILES IDX 91 24 92 25 2 26 1 27 3 28 4 29 20 30 21 31 22 32 23 33
REMARK SMILES IDX 24 35 25 36 26 37 84 38 27 39 83 40 28 41 29 42 30 43 77 44
REMARK SMILES IDX 31 45 82 46 76 47 78 48 32 49 81 50 75 51 74 52 33 54 63 55
REMARK SMILES IDX 44 56 62 57 45 58 48 59 61 60 79 61 46 62 47 63 60 65 80 66
REMARK SMILES IDX 49 67 34 68 35 69 43 70 36 71 42 72 37 73 38 74 39 75 40 76
REMARK SMILES IDX 41 77 64 78 65 79 73 80 66 81 72 82 67 83 68 84 69 85 70 86
REMARK SMILES IDX 71 87 50 88 51 89 59 90 52 91 58 92 53 93 54 94 55 95 56 96
REMARK SMILES IDX 57 97
REMARK H PARENT 17 6 8 14 22 34 78 53 48 64
REMARK Flexibility Score: inf
ROOT
ATOM      1  C   UNL A   1      33.263  27.514  26.625  1.00  0.00     0.023 C 
ENDROOT
BRANCH   1   2
ATOM      2  C   UNL A   1      31.793  27.903  26.656  1.00  0.00     0.116 C 
BRANCH   2   3
ATOM      3  N   UNL A   1      30.832  26.862  26.880  1.00  0.00    -0.352 N 
ATOM      4  C   UNL A   1      30.517  25.788  26.083  1.00  0.00     0.253 C 
ATOM      5  O   UNL A   1      29.714  24.978  26.556  1.00  0.00    -0.269 OA
ATOM      6  H   UNL A   1      30.328  26.926  27.724  1.00  0.00     0.163 HD
BRANCH   4   7
ATOM      7  C   UNL A   1      30.997  25.555  24.678  1.00  0.00     0.063 A 
ATOM      8  C   UNL A   1      31.180  24.348  23.966  1.00  0.00     0.051 A 
ATOM      9  C   UNL A   1      31.493  24.418  22.584  1.00  0.00     0.027 A 
ATOM     10  C   UNL A   1      31.712  25.627  21.928  1.00  0.00     0.002 A 
ATOM     11  C   UNL A   1      31.228  26.771  23.983  1.00  0.00     0.016 A 
ATOM     12  C   UNL A   1      31.600  26.809  22.638  1.00  0.00     0.001 A 
BRANCH   8  13
ATOM     13  N   UNL A   1      31.163  23.048  24.520  1.00  0.00    -0.355 N 
ATOM     14  H   UNL A   1      30.292  22.695  24.815  1.00  0.00     0.167 HD
BRANCH  13  15
ATOM     15  C   UNL A   1      32.297  22.206  24.686  1.00  0.00     0.039 A 
ATOM     16  C   UNL A   1      34.776  21.955  24.731  1.00  0.00     0.002 A 
ATOM     17  C   UNL A   1      33.599  22.754  24.787  1.00  0.00     0.034 A 
ATOM     18  C   UNL A   1      34.567  20.578  24.694  1.00  0.00     0.127 A 
ATOM     19  C   UNL A   1      33.303  20.021  24.620  1.00  0.00     0.006 A 
ATOM     20  O   UNL A   1      35.553  19.632  24.739  1.00  0.00    -0.492 OA
ATOM     21  C   UNL A   1      32.173  20.816  24.603  1.00  0.00     0.034 A 
ATOM     22  C   UNL A   1      33.372  18.536  24.556  1.00  0.00     0.028 C 
ATOM     23  C   UNL A   1      34.901  18.352  24.588  1.00  0.00     0.240 C 
ATOM     24  C   UNL A   1      32.695  17.905  25.775  1.00  0.00     0.020 C 
ATOM     25  C   UNL A   1      32.769  17.982  23.260  1.00  0.00     0.020 C 
BRANCH  16  26
ATOM     26  C   UNL A   1      36.190  22.571  24.704  1.00  0.00    -0.009 C 
ATOM     27  C   UNL A   1      36.627  22.982  23.285  1.00  0.00     0.016 C 
ATOM     28  C   UNL A   1      37.296  21.601  25.192  1.00  0.00     0.016 C 
ATOM     29  C   UNL A   1      36.196  23.828  25.589  1.00  0.00     0.016 C 
ENDBRANCH  16  26
ENDBRANCH  13  15
ENDBRANCH   8  13
ENDBRANCH   4   7
ENDBRANCH   2   3
ENDBRANCH   1   2
BRANCH   1  30
ATOM     30  C   UNL A   1      34.280  28.533  27.136  1.00  0.00     0.023 C 
BRANCH  30  31
ATOM     31  C   UNL A   1      34.033  30.011  26.840  1.00  0.00     0.116 C 
BRANCH  31  32
ATOM     32  N   UNL A   1      33.933  30.885  28.004  1.00  0.00    -0.352 N 
ATOM     33  C   UNL A   1      34.856  31.207  28.977  1.00  0.00     0.251 C 
ATOM     34  H   UNL A   1      33.056  31.319  28.115  1.00  0.00     0.163 HD
ATOM     35  O   UNL A   1      34.574  32.004  29.868  1.00  0.00    -0.269 OA
BRANCH  33  36
ATOM     36  C   UNL A   1      36.177  30.559  28.979  1.00  0.00     0.039 A 
ATOM     37  C   UNL A   1      36.629  29.930  30.131  1.00  0.00     0.014 A 
ATOM     38  C   UNL A   1      36.985  30.611  27.837  1.00  0.00     0.014 A 
ATOM     39  C   UNL A   1      37.964  29.585  30.230  1.00  0.00     0.010 A 
ATOM     40  C   UNL A   1      38.298  30.134  27.898  1.00  0.00     0.010 A 
ATOM     41  C   UNL A   1      38.819  29.679  29.117  1.00  0.00    -0.014 A 
BRANCH  41  42
ATOM     42  C   UNL A   1      40.240  29.281  29.297  1.00  0.00     0.031 A 
ATOM     43  C   UNL A   1      40.733  27.931  28.851  1.00  0.00     0.074 A 
ATOM     44  C   UNL A   1      41.110  30.221  29.720  1.00  0.00     0.049 A 
ATOM     45  N   UNL A   1      41.965  27.498  28.773  1.00  0.00    -0.248 NA
ATOM     46  C   UNL A   1      39.727  26.937  28.440  1.00  0.00     0.031 C 
ATOM     47  C   UNL A   1      40.733  31.569  30.154  1.00  0.00     0.029 A 
ATOM     48  N   UNL A   1      42.481  30.230  29.768  1.00  0.00    -0.354 N 
ATOM     49  C   UNL A   1      41.884  26.187  28.318  1.00  0.00     0.074 A 
ATOM     50  C   UNL A   1      40.480  25.880  28.166  1.00  0.00     0.031 C 
ATOM     51  C   UNL A   1      41.837  32.313  30.290  1.00  0.00     0.029 A 
ATOM     52  C   UNL A   1      43.006  31.473  30.048  1.00  0.00     0.049 A 
ATOM     53  H   UNL A   1      43.035  29.430  29.617  1.00  0.00     0.167 HD
ATOM     54  C   UNL A   1      42.892  25.325  28.043  1.00  0.00     0.031 A 
ATOM     55  C   UNL A   1      44.282  31.901  30.094  1.00  0.00     0.031 A 
ATOM     56  C   UNL A   1      44.287  25.651  28.192  1.00  0.00     0.049 A 
ATOM     57  C   UNL A   1      45.380  30.922  29.808  1.00  0.00     0.074 A 
ATOM     58  C   UNL A   1      45.385  24.839  27.969  1.00  0.00     0.029 A 
ATOM     59  N   UNL A   1      44.778  26.887  28.588  1.00  0.00    -0.354 N 
ATOM     60  N   UNL A   1      45.280  29.674  29.419  1.00  0.00    -0.248 NA
ATOM     61  C   UNL A   1      46.758  31.396  29.981  1.00  0.00     0.031 C 
ATOM     62  C   UNL A   1      46.536  25.567  28.278  1.00  0.00     0.029 A 
ATOM     63  C   UNL A   1      46.160  26.855  28.631  1.00  0.00     0.049 A 
ATOM     64  H   UNL A   1      44.224  27.671  28.805  1.00  0.00     0.167 HD
ATOM     65  C   UNL A   1      46.582  29.206  29.310  1.00  0.00     0.074 A 
ATOM     66  C   UNL A   1      47.454  30.316  29.642  1.00  0.00     0.031 C 
ATOM     67  C   UNL A   1      47.013  27.965  28.978  1.00  0.00     0.031 A 
BRANCH  54  68
ATOM     68  C   UNL A   1      42.539  23.941  27.560  1.00  0.00    -0.014 A 
ATOM     69  C   UNL A   1      42.285  22.918  28.492  1.00  0.00     0.010 A 
ATOM     70  C   UNL A   1      42.558  23.624  26.189  1.00  0.00     0.010 A 
ATOM     71  C   UNL A   1      42.083  21.601  28.067  1.00  0.00     0.020 A 
ATOM     72  C   UNL A   1      42.329  22.313  25.758  1.00  0.00     0.020 A 
ATOM     73  C   UNL A   1      42.114  21.306  26.702  1.00  0.00     0.054 A 
BRANCH  73  74
ATOM     74  S   UNL A   1      41.855  19.591  26.168  1.00  0.00     0.124 S 
ATOM     75  O   UNL A   1      42.729  19.495  25.002  1.00  0.00    -0.237 OA
ATOM     76  O   UNL A   1      42.276  18.822  27.338  1.00  0.00    -0.237 OA
ATOM     77  O   UNL A   1      40.423  19.536  25.883  1.00  0.00    -0.744 OA
ENDBRANCH  73  74
ENDBRANCH  54  68
BRANCH  55  78
ATOM     78  C   UNL A   1      44.551  33.333  30.401  1.00  0.00    -0.014 A 
ATOM     79  C   UNL A   1      44.619  33.769  31.739  1.00  0.00     0.010 A 
ATOM     80  C   UNL A   1      44.606  34.287  29.370  1.00  0.00     0.010 A 
ATOM     81  C   UNL A   1      44.653  35.131  32.043  1.00  0.00     0.020 A 
ATOM     82  C   UNL A   1      44.676  35.652  29.670  1.00  0.00     0.020 A 
ATOM     83  C   UNL A   1      44.659  36.065  31.005  1.00  0.00     0.054 A 
BRANCH  83  84
ATOM     84  S   UNL A   1      44.620  37.830  31.422  1.00  0.00     0.124 S 
ATOM     85  O   UNL A   1      43.841  37.827  32.658  1.00  0.00    -0.237 OA
ATOM     86  O   UNL A   1      46.036  38.156  31.572  1.00  0.00    -0.237 OA
ATOM     87  O   UNL A   1      43.963  38.439  30.269  1.00  0.00    -0.744 OA
ENDBRANCH  83  84
ENDBRANCH  55  78
BRANCH  67  88
ATOM     88  C   UNL A   1      48.496  27.715  28.974  1.00  0.00    -0.014 A 
ATOM     89  C   UNL A   1      49.139  27.299  30.155  1.00  0.00     0.010 A 
ATOM     90  C   UNL A   1      49.268  28.017  27.839  1.00  0.00     0.010 A 
ATOM     91  C   UNL A   1      50.531  27.223  30.211  1.00  0.00     0.020 A 
ATOM     92  C   UNL A   1      50.662  27.918  27.885  1.00  0.00     0.020 A 
ATOM     93  C   UNL A   1      51.284  27.546  29.079  1.00  0.00     0.054 A 
BRANCH  93  94
ATOM     94  S   UNL A   1      53.093  27.476  29.182  1.00  0.00     0.124 S 
ATOM     95  O   UNL A   1      53.376  26.127  28.705  1.00  0.00    -0.237 OA
ATOM     96  O   UNL A   1      53.510  28.560  28.294  1.00  0.00    -0.237 OA
ATOM     97  O   UNL A   1      53.364  27.707  30.600  1.00  0.00    -0.744 OA
ENDBRANCH  93  94
ENDBRANCH  67  88
ENDBRANCH  41  42
ENDBRANCH  33  36
ENDBRANCH  31  32
ENDBRANCH  30  31
ENDBRANCH   1  30
TORSDOF 17
ENDMDL
