MODEL 1
REMARK VINA RESULT:     -11.7      0.000      0.000
REMARK SMILES C[C@H]1OCC[C@H]1c1nnnn1CCC(=O)NCCCCNC(=O)c1ccc(-c2c3nc(c(-c4ccc(S(=O)(=O)[O-])cc4)c4ccc([nH]4)c(-c4ccc(S(=O)(=O)[O-])cc4)c4nc(c(-c5ccc(S(=O)(=O)[O-])cc5)c5ccc2[nH]5)C=C4)C=C3)cc1
REMARK SMILES IDX 18 1 17 2 16 3 14 4 15 5 13 7 12 8 11 9 7 10 8 11 9 12 10 13
REMARK SMILES IDX 6 14 1 15 2 16 3 17 4 18 5 19 19 20 20 21 21 22 22 23 23 25
REMARK SMILES IDX 24 26 25 27 83 28 26 29 82 30 27 31 28 32 29 33 76 34 30 35
REMARK SMILES IDX 81 36 75 37 77 38 31 39 80 40 74 41 73 42 32 44 62 45 43 46
REMARK SMILES IDX 61 47 44 48 47 49 60 50 78 51 45 52 46 53 59 55 79 56 48 57
REMARK SMILES IDX 33 58 34 59 42 60 35 61 41 62 36 63 37 64 38 65 39 66 40 67
REMARK SMILES IDX 63 68 64 69 72 70 65 71 71 72 66 73 67 74 68 75 69 76 70 77
REMARK SMILES IDX 49 78 50 79 58 80 51 81 57 82 52 83 53 84 54 85 55 86 56 87
REMARK H PARENT 16 6 21 24 77 43 47 54
REMARK Flexibility Score: inf
ROOT
ATOM      1  C   UNL A   1      35.831  23.599  25.748  1.00  0.00     0.023 C 
ENDROOT
BRANCH   1   2
ATOM      2  C   UNL A   1      34.324  23.396  25.908  1.00  0.00     0.116 C 
BRANCH   2   3
ATOM      3  N   UNL A   1      33.936  22.072  25.449  1.00  0.00    -0.356 N 
ATOM      4  C   UNL A   1      33.358  21.693  24.275  1.00  0.00     0.221 C 
ATOM      5  O   UNL A   1      32.872  20.566  24.182  1.00  0.00    -0.275 OA
ATOM      6  H   UNL A   1      34.118  21.340  26.081  1.00  0.00     0.163 HD
BRANCH   4   7
ATOM      7  C   UNL A   1      33.336  22.627  23.084  1.00  0.00     0.124 C 
BRANCH   7   8
ATOM      8  C   UNL A   1      32.193  23.628  23.153  1.00  0.00     0.158 C 
BRANCH   8   9
ATOM      9  N   UNL A   1      32.515  24.937  22.633  1.00  0.00    -0.229 N 
ATOM     10  C   UNL A   1      31.889  26.150  22.805  1.00  0.00     0.157 A 
ATOM     11  N   UNL A   1      32.537  27.034  22.071  1.00  0.00    -0.113 NA
ATOM     12  N   UNL A   1      33.673  26.409  21.637  1.00  0.00    -0.024 NA
ATOM     13  N   UNL A   1      33.705  25.150  22.051  1.00  0.00    -0.045 NA
BRANCH  10  14
ATOM     14  C   UNL A   1      30.840  26.441  23.826  1.00  0.00     0.090 C 
ATOM     15  C   UNL A   1      32.914  26.814  25.401  1.00  0.00     0.039 C 
ATOM     16  C   UNL A   1      31.433  27.052  25.118  1.00  0.00     0.126 C 
ATOM     17  O   UNL A   1      31.218  28.478  25.076  1.00  0.00    -0.378 OA
ATOM     18  C   UNL A   1      30.602  28.804  23.826  1.00  0.00     0.161 C 
ATOM     19  C   UNL A   1      29.887  27.545  23.384  1.00  0.00     0.043 C 
ENDBRANCH  10  14
ENDBRANCH   8   9
ENDBRANCH   7   8
ENDBRANCH   4   7
ENDBRANCH   2   3
ENDBRANCH   1   2
BRANCH   1  20
ATOM     20  C   UNL A   1      36.677  22.364  25.455  1.00  0.00     0.023 C 
BRANCH  20  21
ATOM     21  C   UNL A   1      38.172  22.613  25.502  1.00  0.00     0.116 C 
BRANCH  21  22
ATOM     22  N   UNL A   1      38.865  21.776  26.481  1.00  0.00    -0.352 N 
ATOM     23  C   UNL A   1      39.972  22.127  27.226  1.00  0.00     0.251 C 
ATOM     24  H   UNL A   1      38.506  20.870  26.622  1.00  0.00     0.163 HD
ATOM     25  O   UNL A   1      40.667  21.291  27.794  1.00  0.00    -0.269 OA
BRANCH  23  26
ATOM     26  C   UNL A   1      40.292  23.559  27.302  1.00  0.00     0.039 A 
ATOM     27  C   UNL A   1      39.284  24.512  27.162  1.00  0.00     0.014 A 
ATOM     28  C   UNL A   1      41.571  23.907  27.737  1.00  0.00     0.014 A 
ATOM     29  C   UNL A   1      39.537  25.815  27.582  1.00  0.00     0.010 A 
ATOM     30  C   UNL A   1      41.779  25.172  28.248  1.00  0.00     0.010 A 
ATOM     31  C   UNL A   1      40.770  26.136  28.175  1.00  0.00    -0.014 A 
BRANCH  31  32
ATOM     32  C   UNL A   1      40.934  27.435  28.842  1.00  0.00     0.031 A 
ATOM     33  C   UNL A   1      41.998  28.337  28.297  1.00  0.00     0.074 A 
ATOM     34  C   UNL A   1      40.069  27.941  29.746  1.00  0.00     0.049 A 
ATOM     35  N   UNL A   1      43.073  28.750  28.887  1.00  0.00    -0.248 NA
ATOM     36  C   UNL A   1      41.884  28.783  26.899  1.00  0.00     0.031 C 
ATOM     37  C   UNL A   1      38.785  27.386  30.187  1.00  0.00     0.029 A 
ATOM     38  N   UNL A   1      40.112  29.147  30.380  1.00  0.00    -0.354 N 
ATOM     39  C   UNL A   1      43.683  29.653  28.016  1.00  0.00     0.074 A 
ATOM     40  C   UNL A   1      42.980  29.533  26.762  1.00  0.00     0.031 C 
ATOM     41  C   UNL A   1      38.067  28.350  30.804  1.00  0.00     0.029 A 
ATOM     42  C   UNL A   1      38.913  29.515  30.974  1.00  0.00     0.049 A 
ATOM     43  H   UNL A   1      40.922  29.706  30.414  1.00  0.00     0.167 HD
ATOM     44  C   UNL A   1      44.596  30.574  28.441  1.00  0.00     0.031 A 
ATOM     45  C   UNL A   1      38.619  30.699  31.557  1.00  0.00     0.031 A 
ATOM     46  C   UNL A   1      45.057  30.295  29.776  1.00  0.00     0.049 A 
ATOM     47  C   UNL A   1      39.899  31.337  31.936  1.00  0.00     0.074 A 
ATOM     48  C   UNL A   1      45.722  29.257  30.393  1.00  0.00     0.029 A 
ATOM     49  N   UNL A   1      44.516  31.054  30.787  1.00  0.00    -0.354 N 
ATOM     50  N   UNL A   1      40.708  30.849  32.835  1.00  0.00    -0.248 NA
ATOM     51  C   UNL A   1      40.482  32.334  31.053  1.00  0.00     0.031 C 
ATOM     52  C   UNL A   1      45.156  29.181  31.701  1.00  0.00     0.029 A 
ATOM     53  C   UNL A   1      44.214  30.207  31.820  1.00  0.00     0.049 A 
ATOM     54  H   UNL A   1      44.371  32.028  30.771  1.00  0.00     0.167 HD
ATOM     55  C   UNL A   1      41.979  31.148  32.373  1.00  0.00     0.074 A 
ATOM     56  C   UNL A   1      41.773  32.174  31.356  1.00  0.00     0.031 C 
ATOM     57  C   UNL A   1      43.044  30.344  32.664  1.00  0.00     0.031 A 
BRANCH  44  58
ATOM     58  C   UNL A   1      44.807  31.938  27.815  1.00  0.00    -0.014 A 
ATOM     59  C   UNL A   1      46.039  32.216  27.180  1.00  0.00     0.010 A 
ATOM     60  C   UNL A   1      43.967  33.039  28.079  1.00  0.00     0.010 A 
ATOM     61  C   UNL A   1      46.446  33.530  26.913  1.00  0.00     0.020 A 
ATOM     62  C   UNL A   1      44.345  34.350  27.773  1.00  0.00     0.020 A 
ATOM     63  C   UNL A   1      45.601  34.592  27.232  1.00  0.00     0.054 A 
BRANCH  63  64
ATOM     64  S   UNL A   1      46.189  36.291  27.018  1.00  0.00     0.124 S 
ATOM     65  O   UNL A   1      46.953  36.499  28.244  1.00  0.00    -0.237 OA
ATOM     66  O   UNL A   1      46.972  36.199  25.789  1.00  0.00    -0.237 OA
ATOM     67  O   UNL A   1      44.955  37.066  26.908  1.00  0.00    -0.744 OA
ENDBRANCH  63  64
ENDBRANCH  44  58
BRANCH  45  68
ATOM     68  C   UNL A   1      37.318  31.403  31.582  1.00  0.00    -0.014 A 
ATOM     69  C   UNL A   1      36.558  31.479  32.761  1.00  0.00     0.010 A 
ATOM     70  C   UNL A   1      36.956  32.240  30.505  1.00  0.00     0.010 A 
ATOM     71  C   UNL A   1      35.514  32.410  32.884  1.00  0.00     0.020 A 
ATOM     72  C   UNL A   1      35.911  33.162  30.617  1.00  0.00     0.020 A 
ATOM     73  C   UNL A   1      35.212  33.262  31.818  1.00  0.00     0.054 A 
BRANCH  73  74
ATOM     74  S   UNL A   1      33.996  34.590  32.055  1.00  0.00     0.124 S 
ATOM     75  O   UNL A   1      34.828  35.690  32.533  1.00  0.00    -0.237 OA
ATOM     76  O   UNL A   1      33.438  34.752  30.715  1.00  0.00    -0.237 OA
ATOM     77  O   UNL A   1      33.072  34.036  33.044  1.00  0.00    -0.744 OA
ENDBRANCH  73  74
ENDBRANCH  45  68
BRANCH  57  78
ATOM     78  C   UNL A   1      42.901  29.335  33.781  1.00  0.00    -0.014 A 
ATOM     79  C   UNL A   1      43.179  29.619  35.133  1.00  0.00     0.010 A 
ATOM     80  C   UNL A   1      42.321  28.094  33.464  1.00  0.00     0.010 A 
ATOM     81  C   UNL A   1      42.909  28.675  36.134  1.00  0.00     0.020 A 
ATOM     82  C   UNL A   1      42.032  27.156  34.458  1.00  0.00     0.020 A 
ATOM     83  C   UNL A   1      42.335  27.447  35.789  1.00  0.00     0.054 A 
BRANCH  83  84
ATOM     84  S   UNL A   1      41.936  26.251  37.094  1.00  0.00     0.124 S 
ATOM     85  O   UNL A   1      40.626  26.707  37.553  1.00  0.00    -0.237 OA
ATOM     86  O   UNL A   1      41.942  24.976  36.380  1.00  0.00    -0.237 OA
ATOM     87  O   UNL A   1      43.021  26.414  38.061  1.00  0.00    -0.744 OA
ENDBRANCH  83  84
ENDBRANCH  57  78
ENDBRANCH  31  32
ENDBRANCH  23  26
ENDBRANCH  21  22
ENDBRANCH  20  21
ENDBRANCH   1  20
TORSDOF 17
ENDMDL
MODEL 2
REMARK VINA RESULT:     -11.7      1.801      2.412
REMARK SMILES C[C@H]1OCC[C@H]1c1nnnn1CCC(=O)NCCCCNC(=O)c1ccc(-c2c3nc(c(-c4ccc(S(=O)(=O)[O-])cc4)c4ccc([nH]4)c(-c4ccc(S(=O)(=O)[O-])cc4)c4nc(c(-c5ccc(S(=O)(=O)[O-])cc5)c5ccc2[nH]5)C=C4)C=C3)cc1
REMARK SMILES IDX 18 1 17 2 16 3 14 4 15 5 13 7 12 8 11 9 7 10 8 11 9 12 10 13
REMARK SMILES IDX 6 14 1 15 2 16 3 17 4 18 5 19 19 20 20 21 21 22 22 23 23 25
REMARK SMILES IDX 24 26 25 27 83 28 26 29 82 30 27 31 28 32 29 33 76 34 30 35
REMARK SMILES IDX 81 36 75 37 77 38 31 39 80 40 74 41 73 42 32 44 62 45 43 46
REMARK SMILES IDX 61 47 44 48 47 49 60 50 78 51 45 52 46 53 59 55 79 56 48 57
REMARK SMILES IDX 33 58 34 59 42 60 35 61 41 62 36 63 37 64 38 65 39 66 40 67
REMARK SMILES IDX 63 68 64 69 72 70 65 71 71 72 66 73 67 74 68 75 69 76 70 77
REMARK SMILES IDX 49 78 50 79 58 80 51 81 57 82 52 83 53 84 54 85 55 86 56 87
REMARK H PARENT 16 6 21 24 77 43 47 54
REMARK Flexibility Score: inf
ROOT
ATOM      1  C   UNL A   1      37.579  21.665  25.082  1.00  0.00     0.023 C 
ENDROOT
BRANCH   1   2
ATOM      2  C   UNL A   1      36.117  21.225  25.005  1.00  0.00     0.116 C 
BRANCH   2   3
ATOM      3  N   UNL A   1      35.456  21.424  26.285  1.00  0.00    -0.356 N 
ATOM      4  C   UNL A   1      34.593  22.403  26.675  1.00  0.00     0.221 C 
ATOM      5  O   UNL A   1      34.346  22.543  27.873  1.00  0.00    -0.275 OA
ATOM      6  H   UNL A   1      35.662  20.751  26.972  1.00  0.00     0.163 HD
BRANCH   4   7
ATOM      7  C   UNL A   1      33.916  23.292  25.655  1.00  0.00     0.124 C 
BRANCH   7   8
ATOM      8  C   UNL A   1      34.194  24.768  25.896  1.00  0.00     0.158 C 
BRANCH   8   9
ATOM      9  N   UNL A   1      33.041  25.531  26.315  1.00  0.00    -0.229 N 
ATOM     10  C   UNL A   1      32.899  26.874  26.575  1.00  0.00     0.157 A 
ATOM     11  N   UNL A   1      31.661  27.067  26.986  1.00  0.00    -0.113 NA
ATOM     12  N   UNL A   1      30.999  25.891  26.766  1.00  0.00    -0.024 NA
ATOM     13  N   UNL A   1      31.820  24.974  26.274  1.00  0.00    -0.045 NA
BRANCH  10  14
ATOM     14  C   UNL A   1      33.889  27.931  26.211  1.00  0.00     0.090 C 
ATOM     15  C   UNL A   1      32.897  27.595  23.798  1.00  0.00     0.039 C 
ATOM     16  C   UNL A   1      33.667  28.474  24.779  1.00  0.00     0.126 C 
ATOM     17  O   UNL A   1      32.967  29.732  24.884  1.00  0.00    -0.378 OA
ATOM     18  C   UNL A   1      32.677  29.972  26.265  1.00  0.00     0.161 C 
ATOM     19  C   UNL A   1      33.720  29.198  27.040  1.00  0.00     0.043 C 
ENDBRANCH  10  14
ENDBRANCH   8   9
ENDBRANCH   7   8
ENDBRANCH   4   7
ENDBRANCH   2   3
ENDBRANCH   1   2
BRANCH   1  20
ATOM     20  C   UNL A   1      37.859  23.084  25.567  1.00  0.00     0.023 C 
BRANCH  20  21
ATOM     21  C   UNL A   1      39.026  23.190  26.529  1.00  0.00     0.116 C 
BRANCH  21  22
ATOM     22  N   UNL A   1      40.122  22.275  26.208  1.00  0.00    -0.352 N 
ATOM     23  C   UNL A   1      41.440  22.617  25.988  1.00  0.00     0.251 C 
ATOM     24  H   UNL A   1      39.895  21.319  26.143  1.00  0.00     0.163 HD
ATOM     25  O   UNL A   1      42.228  21.854  25.441  1.00  0.00    -0.269 OA
BRANCH  23  26
ATOM     26  C   UNL A   1      41.860  23.953  26.432  1.00  0.00     0.039 A 
ATOM     27  C   UNL A   1      41.525  25.080  25.683  1.00  0.00     0.014 A 
ATOM     28  C   UNL A   1      42.394  24.061  27.717  1.00  0.00     0.014 A 
ATOM     29  C   UNL A   1      41.618  26.332  26.286  1.00  0.00     0.010 A 
ATOM     30  C   UNL A   1      42.382  25.292  28.341  1.00  0.00     0.010 A 
ATOM     31  C   UNL A   1      41.998  26.437  27.635  1.00  0.00    -0.014 A 
BRANCH  31  32
ATOM     32  C   UNL A   1      41.847  27.722  28.330  1.00  0.00     0.031 A 
ATOM     33  C   UNL A   1      42.928  28.734  28.106  1.00  0.00     0.074 A 
ATOM     34  C   UNL A   1      40.723  28.117  28.964  1.00  0.00     0.049 A 
ATOM     35  N   UNL A   1      43.754  29.223  28.973  1.00  0.00    -0.248 NA
ATOM     36  C   UNL A   1      43.158  29.214  26.734  1.00  0.00     0.031 C 
ATOM     37  C   UNL A   1      39.426  27.434  29.029  1.00  0.00     0.029 A 
ATOM     38  N   UNL A   1      40.474  29.300  29.593  1.00  0.00    -0.354 N 
ATOM     39  C   UNL A   1      44.490  30.206  28.310  1.00  0.00     0.074 A 
ATOM     40  C   UNL A   1      44.173  30.064  26.910  1.00  0.00     0.031 C 
ATOM     41  C   UNL A   1      38.478  28.308  29.430  1.00  0.00     0.029 A 
ATOM     42  C   UNL A   1      39.129  29.539  29.835  1.00  0.00     0.049 A 
ATOM     43  H   UNL A   1      41.185  29.930  29.853  1.00  0.00     0.167 HD
ATOM     44  C   UNL A   1      45.159  31.192  28.977  1.00  0.00     0.031 A 
ATOM     45  C   UNL A   1      38.573  30.672  30.322  1.00  0.00     0.031 A 
ATOM     46  C   UNL A   1      45.260  30.912  30.385  1.00  0.00     0.049 A 
ATOM     47  C   UNL A   1      39.633  31.410  31.044  1.00  0.00     0.074 A 
ATOM     48  C   UNL A   1      45.828  29.918  31.156  1.00  0.00     0.029 A 
ATOM     49  N   UNL A   1      44.392  31.585  31.213  1.00  0.00    -0.354 N 
ATOM     50  N   UNL A   1      40.207  30.968  32.128  1.00  0.00    -0.248 NA
ATOM     51  C   UNL A   1      40.336  32.484  30.363  1.00  0.00     0.031 C 
ATOM     52  C   UNL A   1      44.935  29.749  32.255  1.00  0.00     0.029 A 
ATOM     53  C   UNL A   1      43.902  30.681  32.117  1.00  0.00     0.049 A 
ATOM     54  H   UNL A   1      44.165  32.542  31.164  1.00  0.00     0.167 HD
ATOM     55  C   UNL A   1      41.521  31.397  32.037  1.00  0.00     0.074 A 
ATOM     56  C   UNL A   1      41.504  32.433  31.009  1.00  0.00     0.031 C 
ATOM     57  C   UNL A   1      42.538  30.683  32.606  1.00  0.00     0.031 A 
BRANCH  44  58
ATOM     58  C   UNL A   1      45.401  32.589  28.442  1.00  0.00    -0.014 A 
ATOM     59  C   UNL A   1      46.668  33.185  28.637  1.00  0.00     0.010 A 
ATOM     60  C   UNL A   1      44.358  33.439  28.023  1.00  0.00     0.010 A 
ATOM     61  C   UNL A   1      46.854  34.569  28.510  1.00  0.00     0.020 A 
ATOM     62  C   UNL A   1      44.545  34.813  27.849  1.00  0.00     0.020 A 
ATOM     63  C   UNL A   1      45.782  35.377  28.136  1.00  0.00     0.054 A 
BRANCH  63  64
ATOM     64  S   UNL A   1      45.990  37.176  28.113  1.00  0.00     0.124 S 
ATOM     65  O   UNL A   1      45.019  37.575  27.098  1.00  0.00    -0.237 OA
ATOM     66  O   UNL A   1      45.662  37.547  29.486  1.00  0.00    -0.237 OA
ATOM     67  O   UNL A   1      47.393  37.351  27.743  1.00  0.00    -0.744 OA
ENDBRANCH  63  64
ENDBRANCH  44  58
BRANCH  45  68
ATOM     68  C   UNL A   1      37.254  31.254  29.992  1.00  0.00    -0.014 A 
ATOM     69  C   UNL A   1      36.453  31.844  30.984  1.00  0.00     0.010 A 
ATOM     70  C   UNL A   1      36.905  31.472  28.643  1.00  0.00     0.010 A 
ATOM     71  C   UNL A   1      35.381  32.682  30.638  1.00  0.00     0.020 A 
ATOM     72  C   UNL A   1      35.833  32.298  28.290  1.00  0.00     0.020 A 
ATOM     73  C   UNL A   1      35.092  32.921  29.292  1.00  0.00     0.054 A 
BRANCH  73  74
ATOM     74  S   UNL A   1      33.833  34.157  28.856  1.00  0.00     0.124 S 
ATOM     75  O   UNL A   1      33.224  34.446  30.151  1.00  0.00    -0.237 OA
ATOM     76  O   UNL A   1      34.632  35.233  28.277  1.00  0.00    -0.237 OA
ATOM     77  O   UNL A   1      32.972  33.450  27.909  1.00  0.00    -0.744 OA
ENDBRANCH  73  74
ENDBRANCH  45  68
BRANCH  57  78
ATOM     78  C   UNL A   1      42.192  29.629  33.633  1.00  0.00    -0.014 A 
ATOM     79  C   UNL A   1      41.643  28.373  33.312  1.00  0.00     0.010 A 
ATOM     80  C   UNL A   1      42.578  29.869  34.965  1.00  0.00     0.010 A 
ATOM     81  C   UNL A   1      41.460  27.395  34.301  1.00  0.00     0.020 A 
ATOM     82  C   UNL A   1      42.415  28.894  35.951  1.00  0.00     0.020 A 
ATOM     83  C   UNL A   1      41.849  27.663  35.616  1.00  0.00     0.054 A 
BRANCH  83  84
ATOM     84  S   UNL A   1      41.661  26.376  36.882  1.00  0.00     0.124 S 
ATOM     85  O   UNL A   1      41.663  25.149  36.089  1.00  0.00    -0.237 OA
ATOM     86  O   UNL A   1      42.834  26.578  37.729  1.00  0.00    -0.237 OA
ATOM     87  O   UNL A   1      40.384  26.697  37.520  1.00  0.00    -0.744 OA
ENDBRANCH  83  84
ENDBRANCH  57  78
ENDBRANCH  31  32
ENDBRANCH  23  26
ENDBRANCH  21  22
ENDBRANCH  20  21
ENDBRANCH   1  20
TORSDOF 17
ENDMDL
MODEL 3
REMARK VINA RESULT:     -11.6      2.626      9.163
REMARK SMILES C[C@H]1OCC[C@H]1c1nnnn1CCC(=O)NCCCCNC(=O)c1ccc(-c2c3nc(c(-c4ccc(S(=O)(=O)[O-])cc4)c4ccc([nH]4)c(-c4ccc(S(=O)(=O)[O-])cc4)c4nc(c(-c5ccc(S(=O)(=O)[O-])cc5)c5ccc2[nH]5)C=C4)C=C3)cc1
REMARK SMILES IDX 18 1 17 2 16 3 14 4 15 5 13 7 12 8 11 9 7 10 8 11 9 12 10 13
REMARK SMILES IDX 6 14 1 15 2 16 3 17 4 18 5 19 19 20 20 21 21 22 22 23 23 25
REMARK SMILES IDX 24 26 25 27 83 28 26 29 82 30 27 31 28 32 29 33 76 34 30 35
REMARK SMILES IDX 81 36 75 37 77 38 31 39 80 40 74 41 73 42 32 44 62 45 43 46
REMARK SMILES IDX 61 47 44 48 47 49 60 50 78 51 45 52 46 53 59 55 79 56 48 57
REMARK SMILES IDX 33 58 34 59 42 60 35 61 41 62 36 63 37 64 38 65 39 66 40 67
REMARK SMILES IDX 63 68 64 69 72 70 65 71 71 72 66 73 67 74 68 75 69 76 70 77
REMARK SMILES IDX 49 78 50 79 58 80 51 81 57 82 52 83 53 84 54 85 55 86 56 87
REMARK H PARENT 16 6 21 24 77 43 47 54
REMARK Flexibility Score: inf
ROOT
ATOM      1  C   UNL A   1      34.943  30.232  27.613  1.00  0.00     0.023 C 
ENDROOT
BRANCH   1   2
ATOM      2  C   UNL A   1      34.338  28.996  26.947  1.00  0.00     0.116 C 
BRANCH   2   3
ATOM      3  N   UNL A   1      33.113  28.599  27.624  1.00  0.00    -0.356 N 
ATOM      4  C   UNL A   1      32.069  27.854  27.167  1.00  0.00     0.221 C 
ATOM      5  O   UNL A   1      31.015  27.846  27.803  1.00  0.00    -0.275 OA
ATOM      6  H   UNL A   1      33.027  28.916  28.552  1.00  0.00     0.163 HD
BRANCH   4   7
ATOM      7  C   UNL A   1      32.203  27.017  25.914  1.00  0.00     0.124 C 
BRANCH   7   8
ATOM      8  C   UNL A   1      30.927  26.256  25.585  1.00  0.00     0.158 C 
BRANCH   8   9
ATOM      9  N   UNL A   1      30.969  24.851  25.920  1.00  0.00    -0.229 N 
ATOM     10  C   UNL A   1      31.374  23.764  25.181  1.00  0.00     0.157 A 
ATOM     11  N   UNL A   1      31.160  22.689  25.914  1.00  0.00    -0.113 NA
ATOM     12  N   UNL A   1      30.836  23.138  27.164  1.00  0.00    -0.024 NA
ATOM     13  N   UNL A   1      30.802  24.463  27.194  1.00  0.00    -0.045 NA
BRANCH  10  14
ATOM     14  C   UNL A   1      32.143  23.829  23.903  1.00  0.00     0.090 C 
ATOM     15  C   UNL A   1      34.218  23.949  25.516  1.00  0.00     0.039 C 
ATOM     16  C   UNL A   1      33.664  23.654  24.124  1.00  0.00     0.126 C 
ATOM     17  O   UNL A   1      34.008  22.293  23.794  1.00  0.00    -0.378 OA
ATOM     18  C   UNL A   1      32.806  21.593  23.455  1.00  0.00     0.161 C 
ATOM     19  C   UNL A   1      31.838  22.656  22.980  1.00  0.00     0.043 C 
ENDBRANCH  10  14
ENDBRANCH   8   9
ENDBRANCH   7   8
ENDBRANCH   4   7
ENDBRANCH   2   3
ENDBRANCH   1   2
BRANCH   1  20
ATOM     20  C   UNL A   1      34.065  31.475  27.715  1.00  0.00     0.023 C 
BRANCH  20  21
ATOM     21  C   UNL A   1      34.841  32.775  27.797  1.00  0.00     0.116 C 
BRANCH  21  22
ATOM     22  N   UNL A   1      34.230  33.754  28.696  1.00  0.00    -0.352 N 
ATOM     23  C   UNL A   1      34.459  33.883  30.050  1.00  0.00     0.251 C 
ATOM     24  H   UNL A   1      33.591  34.386  28.293  1.00  0.00     0.163 HD
ATOM     25  O   UNL A   1      33.705  34.516  30.781  1.00  0.00    -0.269 OA
BRANCH  23  26
ATOM     26  C   UNL A   1      35.652  33.212  30.586  1.00  0.00     0.039 A 
ATOM     27  C   UNL A   1      35.561  31.918  31.096  1.00  0.00     0.014 A 
ATOM     28  C   UNL A   1      36.885  33.822  30.357  1.00  0.00     0.014 A 
ATOM     29  C   UNL A   1      36.732  31.184  31.264  1.00  0.00     0.010 A 
ATOM     30  C   UNL A   1      38.030  33.054  30.425  1.00  0.00     0.010 A 
ATOM     31  C   UNL A   1      37.967  31.734  30.880  1.00  0.00    -0.014 A 
BRANCH  31  32
ATOM     32  C   UNL A   1      39.155  30.871  30.820  1.00  0.00     0.031 A 
ATOM     33  C   UNL A   1      39.855  30.607  32.117  1.00  0.00     0.074 A 
ATOM     34  C   UNL A   1      39.515  30.147  29.740  1.00  0.00     0.049 A 
ATOM     35  N   UNL A   1      41.054  30.950  32.460  1.00  0.00    -0.248 NA
ATOM     36  C   UNL A   1      39.105  29.932  33.188  1.00  0.00     0.031 C 
ATOM     37  C   UNL A   1      38.800  29.987  28.470  1.00  0.00     0.029 A 
ATOM     38  N   UNL A   1      40.566  29.288  29.605  1.00  0.00    -0.354 N 
ATOM     39  C   UNL A   1      41.287  30.383  33.714  1.00  0.00     0.074 A 
ATOM     40  C   UNL A   1      40.012  29.882  34.166  1.00  0.00     0.031 C 
ATOM     41  C   UNL A   1      39.288  28.915  27.810  1.00  0.00     0.029 A 
ATOM     42  C   UNL A   1      40.467  28.442  28.510  1.00  0.00     0.049 A 
ATOM     43  H   UNL A   1      41.328  29.271  30.229  1.00  0.00     0.167 HD
ATOM     44  C   UNL A   1      42.546  30.192  34.206  1.00  0.00     0.031 A 
ATOM     45  C   UNL A   1      41.283  27.411  28.196  1.00  0.00     0.031 A 
ATOM     46  C   UNL A   1      43.535  30.905  33.440  1.00  0.00     0.049 A 
ATOM     47  C   UNL A   1      42.574  27.643  28.881  1.00  0.00     0.074 A 
ATOM     48  C   UNL A   1      43.784  32.228  33.139  1.00  0.00     0.029 A 
ATOM     49  N   UNL A   1      44.276  30.166  32.548  1.00  0.00    -0.354 N 
ATOM     50  N   UNL A   1      43.368  28.640  28.601  1.00  0.00    -0.248 NA
ATOM     51  C   UNL A   1      42.832  26.982  30.149  1.00  0.00     0.031 C 
ATOM     52  C   UNL A   1      44.281  32.214  31.802  1.00  0.00     0.029 A 
ATOM     53  C   UNL A   1      44.350  30.882  31.384  1.00  0.00     0.049 A 
ATOM     54  H   UNL A   1      44.679  29.284  32.717  1.00  0.00     0.167 HD
ATOM     55  C   UNL A   1      43.932  28.998  29.814  1.00  0.00     0.074 A 
ATOM     56  C   UNL A   1      43.674  27.863  30.695  1.00  0.00     0.031 C 
ATOM     57  C   UNL A   1      44.313  30.286  30.063  1.00  0.00     0.031 A 
BRANCH  44  58
ATOM     58  C   UNL A   1      42.948  29.073  35.145  1.00  0.00    -0.014 A 
ATOM     59  C   UNL A   1      43.844  29.356  36.202  1.00  0.00     0.010 A 
ATOM     60  C   UNL A   1      42.716  27.713  34.858  1.00  0.00     0.010 A 
ATOM     61  C   UNL A   1      44.537  28.337  36.868  1.00  0.00     0.020 A 
ATOM     62  C   UNL A   1      43.369  26.687  35.548  1.00  0.00     0.020 A 
ATOM     63  C   UNL A   1      44.309  27.007  36.520  1.00  0.00     0.054 A 
BRANCH  63  64
ATOM     64  S   UNL A   1      45.310  25.704  37.281  1.00  0.00     0.124 S 
ATOM     65  O   UNL A   1      46.628  26.331  37.331  1.00  0.00    -0.237 OA
ATOM     66  O   UNL A   1      44.649  25.514  38.569  1.00  0.00    -0.237 OA
ATOM     67  O   UNL A   1      45.181  24.587  36.348  1.00  0.00    -0.744 OA
ENDBRANCH  63  64
ENDBRANCH  44  58
BRANCH  45  68
ATOM     68  C   UNL A   1      40.926  26.134  27.541  1.00  0.00    -0.014 A 
ATOM     69  C   UNL A   1      41.827  25.484  26.680  1.00  0.00     0.010 A 
ATOM     70  C   UNL A   1      39.796  25.414  27.983  1.00  0.00     0.010 A 
ATOM     71  C   UNL A   1      41.641  24.137  26.330  1.00  0.00     0.020 A 
ATOM     72  C   UNL A   1      39.599  24.075  27.630  1.00  0.00     0.020 A 
ATOM     73  C   UNL A   1      40.539  23.435  26.826  1.00  0.00     0.054 A 
BRANCH  73  74
ATOM     74  S   UNL A   1      40.413  21.647  26.528  1.00  0.00     0.124 S 
ATOM     75  O   UNL A   1      40.531  21.100  27.876  1.00  0.00    -0.237 OA
ATOM     76  O   UNL A   1      39.098  21.521  25.905  1.00  0.00    -0.237 OA
ATOM     77  O   UNL A   1      41.544  21.367  25.643  1.00  0.00    -0.744 OA
ENDBRANCH  73  74
ENDBRANCH  45  68
BRANCH  57  78
ATOM     78  C   UNL A   1      44.450  31.236  28.895  1.00  0.00    -0.014 A 
ATOM     79  C   UNL A   1      45.352  31.044  27.830  1.00  0.00     0.010 A 
ATOM     80  C   UNL A   1      43.521  32.288  28.802  1.00  0.00     0.010 A 
ATOM     81  C   UNL A   1      45.342  31.897  26.718  1.00  0.00     0.020 A 
ATOM     82  C   UNL A   1      43.493  33.131  27.688  1.00  0.00     0.020 A 
ATOM     83  C   UNL A   1      44.410  32.937  26.654  1.00  0.00     0.054 A 
BRANCH  83  84
ATOM     84  S   UNL A   1      44.363  34.006  25.188  1.00  0.00     0.124 S 
ATOM     85  O   UNL A   1      44.132  33.051  24.107  1.00  0.00    -0.237 OA
ATOM     86  O   UNL A   1      43.251  34.908  25.477  1.00  0.00    -0.237 OA
ATOM     87  O   UNL A   1      45.680  34.642  25.178  1.00  0.00    -0.744 OA
ENDBRANCH  83  84
ENDBRANCH  57  78
ENDBRANCH  31  32
ENDBRANCH  23  26
ENDBRANCH  21  22
ENDBRANCH  20  21
ENDBRANCH   1  20
TORSDOF 17
ENDMDL
