MODEL 1
REMARK VINA RESULT:     -12.5      0.000      0.000
REMARK SMILES O=C(NCCCCNC(=O)c1nn(Cc2ccc(F)cc2)c2c1CN(C(=O)[C@H]1CC1(F)F)CC2)c1ccc(-c2c3nc(c(-c4ccc(S(=O)(=O)[O-])cc4)c4ccc([nH]4)c(-c4ccc(S(=O)(=O)[O-])cc4)c4nc(c(-c5ccc(S(=O)(=O)[O-])cc5)c5ccc2[nH]5)C=C4)C=C3)cc1
REMARK SMILES IDX 5 1 4 2 3 3 1 4 2 5 35 7 36 8 94 9 37 10 93 11 38 12 39 13
REMARK SMILES IDX 40 14 87 15 41 16 92 17 86 18 88 19 42 20 91 21 85 22 84 23
REMARK SMILES IDX 43 25 73 26 54 27 72 28 55 29 58 30 71 31 89 32 56 33 57 34
REMARK SMILES IDX 70 36 90 37 59 38 44 39 45 40 53 41 46 42 52 43 47 44 48 45
REMARK SMILES IDX 49 46 50 47 51 48 74 49 75 50 83 51 76 52 82 53 77 54 78 55
REMARK SMILES IDX 79 56 80 57 81 58 60 59 61 60 69 61 62 62 68 63 63 64 64 65
REMARK SMILES IDX 65 66 66 67 67 68 6 69 7 70 8 71 9 72 10 74 11 75 12 76
REMARK SMILES IDX 23 77 13 78 22 79 24 80 34 81 25 82 33 83 14 84 15 85 16 86
REMARK SMILES IDX 21 87 17 88 20 89 18 90 19 91 26 92 27 93 28 94 29 95 30 96
REMARK SMILES IDX 31 97 32 98
REMARK H PARENT 3 6 88 24 58 35 8 73
REMARK Flexibility Score: inf
ROOT
ATOM      1  C   UNL A   1      33.178  28.862  25.603  1.00  0.00     0.023 C 
ENDROOT
BRANCH   1   2
ATOM      2  C   UNL A   1      33.157  29.030  27.120  1.00  0.00     0.116 C 
BRANCH   2   3
ATOM      3  N   UNL A   1      33.369  30.382  27.596  1.00  0.00    -0.352 N 
ATOM      4  O   UNL A   1      34.252  32.341  28.087  1.00  0.00    -0.269 OA
ATOM      5  C   UNL A   1      34.467  31.140  27.900  1.00  0.00     0.251 C 
ATOM      6  H   UNL A   1      32.526  30.870  27.730  1.00  0.00     0.163 HD
BRANCH   5   7
ATOM      7  C   UNL A   1      35.851  30.625  28.090  1.00  0.00     0.039 A 
ATOM      8  C   UNL A   1      36.309  29.347  27.762  1.00  0.00     0.014 A 
ATOM      9  C   UNL A   1      36.761  31.533  28.668  1.00  0.00     0.014 A 
ATOM     10  C   UNL A   1      37.617  28.965  28.072  1.00  0.00     0.010 A 
ATOM     11  C   UNL A   1      38.065  31.159  28.974  1.00  0.00     0.010 A 
ATOM     12  C   UNL A   1      38.485  29.860  28.704  1.00  0.00    -0.014 A 
BRANCH  12  13
ATOM     13  C   UNL A   1      39.869  29.454  28.952  1.00  0.00     0.031 A 
ATOM     14  C   UNL A   1      40.222  29.213  30.382  1.00  0.00     0.074 A 
ATOM     15  C   UNL A   1      40.738  29.125  27.973  1.00  0.00     0.049 A 
ATOM     16  N   UNL A   1      41.111  29.815  31.103  1.00  0.00    -0.248 NA
ATOM     17  C   UNL A   1      39.425  28.221  31.123  1.00  0.00     0.031 C 
ATOM     18  C   UNL A   1      40.462  28.987  26.540  1.00  0.00     0.029 A 
ATOM     19  N   UNL A   1      42.037  28.718  28.076  1.00  0.00    -0.354 N 
ATOM     20  C   UNL A   1      41.115  29.168  32.339  1.00  0.00     0.074 A 
ATOM     21  C   UNL A   1      39.972  28.289  32.337  1.00  0.00     0.031 C 
ATOM     22  C   UNL A   1      41.478  28.311  25.955  1.00  0.00     0.029 A 
ATOM     23  C   UNL A   1      42.527  28.088  26.937  1.00  0.00     0.049 A 
ATOM     24  H   UNL A   1      42.579  28.858  28.886  1.00  0.00     0.167 HD
ATOM     25  C   UNL A   1      42.159  29.252  33.211  1.00  0.00     0.031 A 
ATOM     26  C   UNL A   1      43.676  27.373  26.828  1.00  0.00     0.031 A 
ATOM     27  C   UNL A   1      43.069  30.309  32.868  1.00  0.00     0.049 A 
ATOM     28  C   UNL A   1      44.554  27.758  27.959  1.00  0.00     0.074 A 
ATOM     29  C   UNL A   1      42.979  31.682  32.757  1.00  0.00     0.029 A 
ATOM     30  N   UNL A   1      44.235  29.953  32.235  1.00  0.00    -0.354 N 
ATOM     31  N   UNL A   1      45.093  28.937  28.087  1.00  0.00    -0.248 NA
ATOM     32  C   UNL A   1      44.505  26.960  29.173  1.00  0.00     0.031 C 
ATOM     33  C   UNL A   1      43.824  32.015  31.660  1.00  0.00     0.029 A 
ATOM     34  C   UNL A   1      44.418  30.836  31.203  1.00  0.00     0.049 A 
ATOM     35  H   UNL A   1      44.828  29.205  32.477  1.00  0.00     0.167 HD
ATOM     36  C   UNL A   1      45.055  29.199  29.448  1.00  0.00     0.074 A 
ATOM     37  C   UNL A   1      44.780  27.907  30.074  1.00  0.00     0.031 C 
ATOM     38  C   UNL A   1      44.981  30.477  29.920  1.00  0.00     0.031 A 
BRANCH  25  39
ATOM     39  C   UNL A   1      42.560  28.153  34.165  1.00  0.00    -0.014 A 
ATOM     40  C   UNL A   1      42.850  28.483  35.506  1.00  0.00     0.010 A 
ATOM     41  C   UNL A   1      42.940  26.868  33.727  1.00  0.00     0.010 A 
ATOM     42  C   UNL A   1      43.554  27.602  36.339  1.00  0.00     0.020 A 
ATOM     43  C   UNL A   1      43.602  25.965  34.563  1.00  0.00     0.020 A 
ATOM     44  C   UNL A   1      43.940  26.353  35.853  1.00  0.00     0.054 A 
BRANCH  44  45
ATOM     45  S   UNL A   1      44.958  25.275  36.892  1.00  0.00     0.124 S 
ATOM     46  O   UNL A   1      44.150  25.176  38.103  1.00  0.00    -0.237 OA
ATOM     47  O   UNL A   1      45.045  24.060  36.086  1.00  0.00    -0.237 OA
ATOM     48  O   UNL A   1      46.209  26.016  37.031  1.00  0.00    -0.744 OA
ENDBRANCH  44  45
ENDBRANCH  25  39
BRANCH  26  49
ATOM     49  C   UNL A   1      43.930  26.165  26.002  1.00  0.00    -0.014 A 
ATOM     50  C   UNL A   1      45.229  25.836  25.567  1.00  0.00     0.010 A 
ATOM     51  C   UNL A   1      42.932  25.176  25.880  1.00  0.00     0.010 A 
ATOM     52  C   UNL A   1      45.528  24.547  25.088  1.00  0.00     0.020 A 
ATOM     53  C   UNL A   1      43.219  23.895  25.397  1.00  0.00     0.020 A 
ATOM     54  C   UNL A   1      44.524  23.577  25.026  1.00  0.00     0.054 A 
BRANCH  54  55
ATOM     55  S   UNL A   1      44.951  21.866  24.586  1.00  0.00     0.124 S 
ATOM     56  O   UNL A   1      44.501  21.779  23.201  1.00  0.00    -0.237 OA
ATOM     57  O   UNL A   1      46.397  21.837  24.785  1.00  0.00    -0.237 OA
ATOM     58  O   UNL A   1      44.185  21.064  25.539  1.00  0.00    -0.744 OA
ENDBRANCH  54  55
ENDBRANCH  26  49
BRANCH  38  59
ATOM     59  C   UNL A   1      45.252  31.618  28.969  1.00  0.00    -0.014 A 
ATOM     60  C   UNL A   1      46.469  32.326  28.924  1.00  0.00     0.010 A 
ATOM     61  C   UNL A   1      44.288  31.876  27.977  1.00  0.00     0.010 A 
ATOM     62  C   UNL A   1      46.702  33.284  27.926  1.00  0.00     0.020 A 
ATOM     63  C   UNL A   1      44.522  32.814  26.971  1.00  0.00     0.020 A 
ATOM     64  C   UNL A   1      45.726  33.520  26.954  1.00  0.00     0.054 A 
BRANCH  64  65
ATOM     65  S   UNL A   1      46.055  34.720  25.633  1.00  0.00     0.124 S 
ATOM     66  O   UNL A   1      47.456  34.464  25.313  1.00  0.00    -0.237 OA
ATOM     67  O   UNL A   1      45.093  34.338  24.600  1.00  0.00    -0.237 OA
ATOM     68  O   UNL A   1      45.790  36.013  26.263  1.00  0.00    -0.744 OA
ENDBRANCH  64  65
ENDBRANCH  38  59
ENDBRANCH  12  13
ENDBRANCH   5   7
ENDBRANCH   2   3
ENDBRANCH   1   2
BRANCH   1  69
ATOM     69  C   UNL A   1      33.591  27.477  25.089  1.00  0.00     0.023 C 
BRANCH  69  70
ATOM     70  C   UNL A   1      32.486  26.615  24.472  1.00  0.00     0.116 C 
BRANCH  70  71
ATOM     71  N   UNL A   1      32.827  26.131  23.142  1.00  0.00    -0.351 N 
ATOM     72  C   UNL A   1      33.253  24.879  22.742  1.00  0.00     0.272 C 
ATOM     73  H   UNL A   1      32.740  26.794  22.420  1.00  0.00     0.163 HD
ATOM     74  O   UNL A   1      33.636  24.743  21.579  1.00  0.00    -0.267 OA
BRANCH  72  75
ATOM     75  C   UNL A   1      33.283  23.751  23.692  1.00  0.00     0.155 A 
ATOM     76  N   UNL A   1      32.370  22.755  23.687  1.00  0.00    -0.167 NA
ATOM     77  C   UNL A   1      34.275  23.502  24.683  1.00  0.00     0.026 A 
ATOM     78  N   UNL A   1      32.690  21.977  24.744  1.00  0.00    -0.264 N 
ATOM     79  C   UNL A   1      33.805  22.412  25.390  1.00  0.00     0.046 A 
ATOM     80  C   UNL A   1      35.531  24.243  25.030  1.00  0.00     0.159 C 
ATOM     81  C   UNL A   1      34.442  21.858  26.612  1.00  0.00     0.078 C 
ATOM     82  N   UNL A   1      36.229  23.510  26.116  1.00  0.00    -0.337 N 
ATOM     83  C   UNL A   1      35.378  22.946  27.182  1.00  0.00     0.126 C 
BRANCH  78  84
ATOM     84  C   UNL A   1      31.934  20.756  24.995  1.00  0.00     0.180 C 
BRANCH  84  85
ATOM     85  C   UNL A   1      32.573  19.541  24.368  1.00  0.00    -0.026 A 
ATOM     86  C   UNL A   1      32.183  19.124  23.083  1.00  0.00     0.008 A 
ATOM     87  C   UNL A   1      33.565  18.816  25.047  1.00  0.00     0.008 A 
ATOM     88  C   UNL A   1      32.779  18.014  22.486  1.00  0.00     0.039 A 
ATOM     89  C   UNL A   1      34.164  17.708  24.444  1.00  0.00     0.039 A 
ATOM     90  C   UNL A   1      33.767  17.320  23.169  1.00  0.00     0.123 A 
ATOM     91  F   UNL A   1      34.353  16.263  22.592  1.00  0.00    -0.207 F 
ENDBRANCH  84  85
ENDBRANCH  78  84
BRANCH  82  92
ATOM     92  C   UNL A   1      37.616  23.391  26.063  1.00  0.00     0.232 C 
ATOM     93  O   UNL A   1      38.221  22.872  25.145  1.00  0.00    -0.274 OA
BRANCH  92  94
ATOM     94  C   UNL A   1      38.372  23.979  27.193  1.00  0.00     0.154 C 
ATOM     95  C   UNL A   1      39.836  23.619  27.401  1.00  0.00     0.097 C 
ATOM     96  C   UNL A   1      39.442  24.977  26.959  1.00  0.00     0.260 C 
ATOM     97  F   UNL A   1      39.840  25.404  25.716  1.00  0.00    -0.206 F 
ATOM     98  F   UNL A   1      39.632  26.029  27.830  1.00  0.00    -0.206 F 
ENDBRANCH  92  94
ENDBRANCH  82  92
ENDBRANCH  72  75
ENDBRANCH  70  71
ENDBRANCH  69  70
ENDBRANCH   1  69
TORSDOF 18
ENDMDL
MODEL 2
REMARK VINA RESULT:     -12.4      2.561      9.357
REMARK SMILES O=C(NCCCCNC(=O)c1nn(Cc2ccc(F)cc2)c2c1CN(C(=O)[C@H]1CC1(F)F)CC2)c1ccc(-c2c3nc(c(-c4ccc(S(=O)(=O)[O-])cc4)c4ccc([nH]4)c(-c4ccc(S(=O)(=O)[O-])cc4)c4nc(c(-c5ccc(S(=O)(=O)[O-])cc5)c5ccc2[nH]5)C=C4)C=C3)cc1
REMARK SMILES IDX 5 1 4 2 3 3 1 4 2 5 35 7 36 8 94 9 37 10 93 11 38 12 39 13
REMARK SMILES IDX 40 14 87 15 41 16 92 17 86 18 88 19 42 20 91 21 85 22 84 23
REMARK SMILES IDX 43 25 73 26 54 27 72 28 55 29 58 30 71 31 89 32 56 33 57 34
REMARK SMILES IDX 70 36 90 37 59 38 44 39 45 40 53 41 46 42 52 43 47 44 48 45
REMARK SMILES IDX 49 46 50 47 51 48 74 49 75 50 83 51 76 52 82 53 77 54 78 55
REMARK SMILES IDX 79 56 80 57 81 58 60 59 61 60 69 61 62 62 68 63 63 64 64 65
REMARK SMILES IDX 65 66 66 67 67 68 6 69 7 70 8 71 9 72 10 74 11 75 12 76
REMARK SMILES IDX 23 77 13 78 22 79 24 80 34 81 25 82 33 83 14 84 15 85 16 86
REMARK SMILES IDX 21 87 17 88 20 89 18 90 19 91 26 92 27 93 28 94 29 95 30 96
REMARK SMILES IDX 31 97 32 98
REMARK H PARENT 3 6 88 24 58 35 8 73
REMARK Flexibility Score: inf
ROOT
ATOM      1  C   UNL A   1      39.161  21.124  26.010  1.00  0.00     0.023 C 
ENDROOT
BRANCH   1   2
ATOM      2  C   UNL A   1      40.517  20.578  26.447  1.00  0.00     0.116 C 
BRANCH   2   3
ATOM      3  N   UNL A   1      41.630  20.923  25.586  1.00  0.00    -0.352 N 
ATOM      4  O   UNL A   1      43.509  21.746  24.779  1.00  0.00    -0.269 OA
ATOM      5  C   UNL A   1      42.588  21.899  25.588  1.00  0.00     0.251 C 
ATOM      6  H   UNL A   1      41.717  20.311  24.820  1.00  0.00     0.163 HD
BRANCH   5   7
ATOM      7  C   UNL A   1      42.567  23.135  26.418  1.00  0.00     0.039 A 
ATOM      8  C   UNL A   1      42.949  23.237  27.757  1.00  0.00     0.014 A 
ATOM      9  C   UNL A   1      42.101  24.295  25.765  1.00  0.00     0.014 A 
ATOM     10  C   UNL A   1      42.799  24.444  28.444  1.00  0.00     0.010 A 
ATOM     11  C   UNL A   1      41.954  25.500  26.443  1.00  0.00     0.010 A 
ATOM     12  C   UNL A   1      42.275  25.567  27.796  1.00  0.00    -0.014 A 
BRANCH  12  13
ATOM     13  C   UNL A   1      42.195  26.836  28.522  1.00  0.00     0.031 A 
ATOM     14  C   UNL A   1      43.336  27.773  28.307  1.00  0.00     0.074 A 
ATOM     15  C   UNL A   1      41.097  27.244  29.193  1.00  0.00     0.049 A 
ATOM     16  N   UNL A   1      44.165  28.243  29.180  1.00  0.00    -0.248 NA
ATOM     17  C   UNL A   1      43.635  28.177  26.923  1.00  0.00     0.031 C 
ATOM     18  C   UNL A   1      39.780  26.602  29.231  1.00  0.00     0.029 A 
ATOM     19  N   UNL A   1      40.895  28.401  29.888  1.00  0.00    -0.354 N 
ATOM     20  C   UNL A   1      44.986  29.140  28.496  1.00  0.00     0.074 A 
ATOM     21  C   UNL A   1      44.701  28.959  27.094  1.00  0.00     0.031 C 
ATOM     22  C   UNL A   1      38.870  27.483  29.705  1.00  0.00     0.029 A 
ATOM     23  C   UNL A   1      39.556  28.694  30.126  1.00  0.00     0.049 A 
ATOM     24  H   UNL A   1      41.632  28.977  30.195  1.00  0.00     0.167 HD
ATOM     25  C   UNL A   1      45.709  30.107  29.129  1.00  0.00     0.031 A 
ATOM     26  C   UNL A   1      39.042  29.871  30.566  1.00  0.00     0.031 A 
ATOM     27  C   UNL A   1      45.785  29.887  30.547  1.00  0.00     0.049 A 
ATOM     28  C   UNL A   1      40.143  30.632  31.203  1.00  0.00     0.074 A 
ATOM     29  C   UNL A   1      46.296  28.894  31.358  1.00  0.00     0.029 A 
ATOM     30  N   UNL A   1      44.959  30.641  31.344  1.00  0.00    -0.354 N 
ATOM     31  N   UNL A   1      40.727  30.271  32.309  1.00  0.00    -0.248 NA
ATOM     32  C   UNL A   1      40.884  31.584  30.390  1.00  0.00     0.031 C 
ATOM     33  C   UNL A   1      45.386  28.812  32.451  1.00  0.00     0.029 A 
ATOM     34  C   UNL A   1      44.407  29.792  32.268  1.00  0.00     0.049 A 
ATOM     35  H   UNL A   1      44.794  31.609  31.267  1.00  0.00     0.167 HD
ATOM     36  C   UNL A   1      42.063  30.599  32.131  1.00  0.00     0.074 A 
ATOM     37  C   UNL A   1      42.080  31.497  30.977  1.00  0.00     0.031 C 
ATOM     38  C   UNL A   1      43.052  29.903  32.761  1.00  0.00     0.031 A 
BRANCH  25  39
ATOM     39  C   UNL A   1      46.044  31.449  28.526  1.00  0.00    -0.014 A 
ATOM     40  C   UNL A   1      45.056  32.457  28.506  1.00  0.00     0.010 A 
ATOM     41  C   UNL A   1      47.186  31.658  27.726  1.00  0.00     0.010 A 
ATOM     42  C   UNL A   1      45.171  33.574  27.668  1.00  0.00     0.020 A 
ATOM     43  C   UNL A   1      47.332  32.792  26.923  1.00  0.00     0.020 A 
ATOM     44  C   UNL A   1      46.303  33.724  26.868  1.00  0.00     0.054 A 
BRANCH  44  45
ATOM     45  S   UNL A   1      46.385  35.103  25.698  1.00  0.00     0.124 S 
ATOM     46  O   UNL A   1      45.693  34.553  24.537  1.00  0.00    -0.237 OA
ATOM     47  O   UNL A   1      45.679  36.161  26.415  1.00  0.00    -0.237 OA
ATOM     48  O   UNL A   1      47.819  35.322  25.528  1.00  0.00    -0.744 OA
ENDBRANCH  44  45
ENDBRANCH  25  39
BRANCH  26  49
ATOM     49  C   UNL A   1      37.750  30.505  30.195  1.00  0.00    -0.014 A 
ATOM     50  C   UNL A   1      36.955  31.161  31.155  1.00  0.00     0.010 A 
ATOM     51  C   UNL A   1      37.436  30.712  28.836  1.00  0.00     0.010 A 
ATOM     52  C   UNL A   1      35.926  32.039  30.766  1.00  0.00     0.020 A 
ATOM     53  C   UNL A   1      36.410  31.576  28.441  1.00  0.00     0.020 A 
ATOM     54  C   UNL A   1      35.674  32.257  29.409  1.00  0.00     0.054 A 
BRANCH  54  55
ATOM     55  S   UNL A   1      34.475  33.529  28.910  1.00  0.00     0.124 S 
ATOM     56  O   UNL A   1      35.340  34.594  28.413  1.00  0.00    -0.237 OA
ATOM     57  O   UNL A   1      33.679  32.838  27.899  1.00  0.00    -0.237 OA
ATOM     58  O   UNL A   1      33.762  33.835  30.149  1.00  0.00    -0.744 OA
ENDBRANCH  54  55
ENDBRANCH  26  49
BRANCH  38  59
ATOM     59  C   UNL A   1      42.678  28.975  33.893  1.00  0.00    -0.014 A 
ATOM     60  C   UNL A   1      41.907  27.808  33.724  1.00  0.00     0.010 A 
ATOM     61  C   UNL A   1      43.263  29.217  35.148  1.00  0.00     0.010 A 
ATOM     62  C   UNL A   1      41.709  26.921  34.792  1.00  0.00     0.020 A 
ATOM     63  C   UNL A   1      43.086  28.329  36.210  1.00  0.00     0.020 A 
ATOM     64  C   UNL A   1      42.303  27.187  36.030  1.00  0.00     0.054 A 
BRANCH  64  65
ATOM     65  S   UNL A   1      42.091  26.009  37.393  1.00  0.00     0.124 S 
ATOM     66  O   UNL A   1      43.000  26.530  38.409  1.00  0.00    -0.237 OA
ATOM     67  O   UNL A   1      40.667  26.124  37.703  1.00  0.00    -0.237 OA
ATOM     68  O   UNL A   1      42.486  24.727  36.810  1.00  0.00    -0.744 OA
ENDBRANCH  64  65
ENDBRANCH  38  59
ENDBRANCH  12  13
ENDBRANCH   5   7
ENDBRANCH   2   3
ENDBRANCH   1   2
BRANCH   1  69
ATOM     69  C   UNL A   1      38.861  22.573  26.418  1.00  0.00     0.023 C 
BRANCH  69  70
ATOM     70  C   UNL A   1      37.613  23.216  25.805  1.00  0.00     0.116 C 
BRANCH  70  71
ATOM     71  N   UNL A   1      37.617  23.179  24.351  1.00  0.00    -0.351 N 
ATOM     72  C   UNL A   1      36.556  23.122  23.467  1.00  0.00     0.272 C 
ATOM     73  H   UNL A   1      38.508  23.197  23.933  1.00  0.00     0.163 HD
ATOM     74  O   UNL A   1      36.806  22.939  22.274  1.00  0.00    -0.267 OA
BRANCH  72  75
ATOM     75  C   UNL A   1      35.166  23.241  23.946  1.00  0.00     0.155 A 
ATOM     76  N   UNL A   1      34.426  24.362  23.799  1.00  0.00    -0.167 NA
ATOM     77  C   UNL A   1      34.387  22.216  24.555  1.00  0.00     0.026 A 
ATOM     78  N   UNL A   1      33.262  24.103  24.433  1.00  0.00    -0.264 N 
ATOM     79  C   UNL A   1      33.213  22.838  24.932  1.00  0.00     0.046 A 
ATOM     80  C   UNL A   1      34.705  20.782  24.854  1.00  0.00     0.159 C 
ATOM     81  C   UNL A   1      32.133  22.197  25.725  1.00  0.00     0.078 C 
ATOM     82  N   UNL A   1      33.504  20.144  25.448  1.00  0.00    -0.337 N 
ATOM     83  C   UNL A   1      32.739  20.955  26.415  1.00  0.00     0.126 C 
BRANCH  78  84
ATOM     84  C   UNL A   1      32.192  25.093  24.409  1.00  0.00     0.180 C 
BRANCH  84  85
ATOM     85  C   UNL A   1      32.643  26.444  24.909  1.00  0.00    -0.026 A 
ATOM     86  C   UNL A   1      33.156  26.577  26.211  1.00  0.00     0.008 A 
ATOM     87  C   UNL A   1      32.568  27.579  24.086  1.00  0.00     0.008 A 
ATOM     88  C   UNL A   1      33.594  27.816  26.678  1.00  0.00     0.039 A 
ATOM     89  C   UNL A   1      33.012  28.818  24.555  1.00  0.00     0.039 A 
ATOM     90  C   UNL A   1      33.523  28.923  25.844  1.00  0.00     0.123 A 
ATOM     91  F   UNL A   1      33.957  30.112  26.283  1.00  0.00    -0.207 F 
ENDBRANCH  84  85
ENDBRANCH  78  84
BRANCH  82  92
ATOM     92  C   UNL A   1      33.169  18.849  25.061  1.00  0.00     0.232 C 
ATOM     93  O   UNL A   1      32.126  18.298  25.353  1.00  0.00    -0.274 OA
BRANCH  92  94
ATOM     94  C   UNL A   1      34.153  18.140  24.209  1.00  0.00     0.154 C 
ATOM     95  C   UNL A   1      35.027  17.044  24.802  1.00  0.00     0.097 C 
ATOM     96  C   UNL A   1      33.954  16.721  23.833  1.00  0.00     0.260 C 
ATOM     97  F   UNL A   1      32.898  15.951  24.256  1.00  0.00    -0.206 F 
ATOM     98  F   UNL A   1      34.318  16.262  22.585  1.00  0.00    -0.206 F 
ENDBRANCH  92  94
ENDBRANCH  82  92
ENDBRANCH  72  75
ENDBRANCH  70  71
ENDBRANCH  69  70
ENDBRANCH   1  69
TORSDOF 18
ENDMDL
MODEL 3
REMARK VINA RESULT:     -12.4      2.465      8.747
REMARK SMILES O=C(NCCCCNC(=O)c1nn(Cc2ccc(F)cc2)c2c1CN(C(=O)[C@H]1CC1(F)F)CC2)c1ccc(-c2c3nc(c(-c4ccc(S(=O)(=O)[O-])cc4)c4ccc([nH]4)c(-c4ccc(S(=O)(=O)[O-])cc4)c4nc(c(-c5ccc(S(=O)(=O)[O-])cc5)c5ccc2[nH]5)C=C4)C=C3)cc1
REMARK SMILES IDX 5 1 4 2 3 3 1 4 2 5 35 7 36 8 94 9 37 10 93 11 38 12 39 13
REMARK SMILES IDX 40 14 87 15 41 16 92 17 86 18 88 19 42 20 91 21 85 22 84 23
REMARK SMILES IDX 43 25 73 26 54 27 72 28 55 29 58 30 71 31 89 32 56 33 57 34
REMARK SMILES IDX 70 36 90 37 59 38 44 39 45 40 53 41 46 42 52 43 47 44 48 45
REMARK SMILES IDX 49 46 50 47 51 48 74 49 75 50 83 51 76 52 82 53 77 54 78 55
REMARK SMILES IDX 79 56 80 57 81 58 60 59 61 60 69 61 62 62 68 63 63 64 64 65
REMARK SMILES IDX 65 66 66 67 67 68 6 69 7 70 8 71 9 72 10 74 11 75 12 76
REMARK SMILES IDX 23 77 13 78 22 79 24 80 34 81 25 82 33 83 14 84 15 85 16 86
REMARK SMILES IDX 21 87 17 88 20 89 18 90 19 91 26 92 27 93 28 94 29 95 30 96
REMARK SMILES IDX 31 97 32 98
REMARK H PARENT 3 6 88 24 58 35 8 73
REMARK Flexibility Score: inf
ROOT
ATOM      1  C   UNL A   1      39.488  21.284  26.074  1.00  0.00     0.023 C 
ENDROOT
BRANCH   1   2
ATOM      2  C   UNL A   1      40.897  20.815  26.428  1.00  0.00     0.116 C 
BRANCH   2   3
ATOM      3  N   UNL A   1      41.939  21.247  25.519  1.00  0.00    -0.352 N 
ATOM      4  O   UNL A   1      43.664  22.271  24.606  1.00  0.00    -0.269 OA
ATOM      5  C   UNL A   1      42.734  22.355  25.414  1.00  0.00     0.251 C 
ATOM      6  H   UNL A   1      42.116  20.588  24.810  1.00  0.00     0.163 HD
BRANCH   5   7
ATOM      7  C   UNL A   1      42.525  23.644  26.129  1.00  0.00     0.039 A 
ATOM      8  C   UNL A   1      41.965  24.805  25.592  1.00  0.00     0.014 A 
ATOM      9  C   UNL A   1      42.954  23.668  27.472  1.00  0.00     0.014 A 
ATOM     10  C   UNL A   1      41.905  25.976  26.351  1.00  0.00     0.010 A 
ATOM     11  C   UNL A   1      42.891  24.830  28.233  1.00  0.00     0.010 A 
ATOM     12  C   UNL A   1      42.394  25.997  27.661  1.00  0.00    -0.014 A 
BRANCH  12  13
ATOM     13  C   UNL A   1      42.252  27.219  28.454  1.00  0.00     0.031 A 
ATOM     14  C   UNL A   1      43.384  28.186  28.353  1.00  0.00     0.074 A 
ATOM     15  C   UNL A   1      41.114  27.569  29.090  1.00  0.00     0.049 A 
ATOM     16  N   UNL A   1      44.159  28.618  29.293  1.00  0.00    -0.248 NA
ATOM     17  C   UNL A   1      43.744  28.676  27.011  1.00  0.00     0.031 C 
ATOM     18  C   UNL A   1      39.810  26.904  29.023  1.00  0.00     0.029 A 
ATOM     19  N   UNL A   1      40.854  28.680  29.840  1.00  0.00    -0.354 N 
ATOM     20  C   UNL A   1      44.995  29.567  28.705  1.00  0.00     0.074 A 
ATOM     21  C   UNL A   1      44.785  29.464  27.282  1.00  0.00     0.031 C 
ATOM     22  C   UNL A   1      38.860  27.741  29.500  1.00  0.00     0.029 A 
ATOM     23  C   UNL A   1      39.500  28.936  30.024  1.00  0.00     0.049 A 
ATOM     24  H   UNL A   1      41.563  29.249  30.216  1.00  0.00     0.167 HD
ATOM     25  C   UNL A   1      45.666  30.507  29.429  1.00  0.00     0.031 A 
ATOM     26  C   UNL A   1      38.941  30.076  30.505  1.00  0.00     0.031 A 
ATOM     27  C   UNL A   1      45.675  30.206  30.833  1.00  0.00     0.049 A 
ATOM     28  C   UNL A   1      39.994  30.817  31.240  1.00  0.00     0.074 A 
ATOM     29  C   UNL A   1      46.164  29.176  31.612  1.00  0.00     0.029 A 
ATOM     30  N   UNL A   1      44.795  30.898  31.629  1.00  0.00    -0.354 N 
ATOM     31  N   UNL A   1      40.528  30.401  32.353  1.00  0.00    -0.248 NA
ATOM     32  C   UNL A   1      40.755  31.827  30.523  1.00  0.00     0.031 C 
ATOM     33  C   UNL A   1      45.201  29.015  32.650  1.00  0.00     0.029 A 
ATOM     34  C   UNL A   1      44.214  29.987  32.473  1.00  0.00     0.049 A 
ATOM     35  H   UNL A   1      44.615  31.866  31.600  1.00  0.00     0.167 HD
ATOM     36  C   UNL A   1      41.864  30.762  32.262  1.00  0.00     0.074 A 
ATOM     37  C   UNL A   1      41.922  31.726  31.165  1.00  0.00     0.031 C 
ATOM     38  C   UNL A   1      42.834  30.046  32.902  1.00  0.00     0.031 A 
BRANCH  25  39
ATOM     39  C   UNL A   1      46.005  31.888  28.923  1.00  0.00    -0.014 A 
ATOM     40  C   UNL A   1      44.956  32.782  28.619  1.00  0.00     0.010 A 
ATOM     41  C   UNL A   1      47.292  32.233  28.463  1.00  0.00     0.010 A 
ATOM     42  C   UNL A   1      45.173  33.920  27.829  1.00  0.00     0.020 A 
ATOM     43  C   UNL A   1      47.527  33.389  27.714  1.00  0.00     0.020 A 
ATOM     44  C   UNL A   1      46.457  34.206  27.368  1.00  0.00     0.054 A 
BRANCH  44  45
ATOM     45  S   UNL A   1      46.705  35.605  26.246  1.00  0.00     0.124 S 
ATOM     46  O   UNL A   1      46.905  34.932  24.967  1.00  0.00    -0.237 OA
ATOM     47  O   UNL A   1      45.452  36.340  26.386  1.00  0.00    -0.237 OA
ATOM     48  O   UNL A   1      47.882  36.276  26.793  1.00  0.00    -0.744 OA
ENDBRANCH  44  45
ENDBRANCH  25  39
BRANCH  26  49
ATOM     49  C   UNL A   1      37.658  30.709  30.105  1.00  0.00    -0.014 A 
ATOM     50  C   UNL A   1      36.721  31.135  31.067  1.00  0.00     0.010 A 
ATOM     51  C   UNL A   1      37.479  31.154  28.779  1.00  0.00     0.010 A 
ATOM     52  C   UNL A   1      35.684  32.023  30.725  1.00  0.00     0.020 A 
ATOM     53  C   UNL A   1      36.446  32.030  28.429  1.00  0.00     0.020 A 
ATOM     54  C   UNL A   1      35.566  32.481  29.410  1.00  0.00     0.054 A 
BRANCH  54  55
ATOM     55  S   UNL A   1      34.345  33.769  29.012  1.00  0.00     0.124 S 
ATOM     56  O   UNL A   1      33.712  34.007  30.305  1.00  0.00    -0.237 OA
ATOM     57  O   UNL A   1      35.180  34.854  28.507  1.00  0.00    -0.237 OA
ATOM     58  O   UNL A   1      33.490  33.134  28.011  1.00  0.00    -0.744 OA
ENDBRANCH  54  55
ENDBRANCH  26  49
BRANCH  38  59
ATOM     59  C   UNL A   1      42.421  29.048  33.957  1.00  0.00    -0.014 A 
ATOM     60  C   UNL A   1      41.890  27.777  33.664  1.00  0.00     0.010 A 
ATOM     61  C   UNL A   1      42.732  29.355  35.294  1.00  0.00     0.010 A 
ATOM     62  C   UNL A   1      41.653  26.848  34.689  1.00  0.00     0.020 A 
ATOM     63  C   UNL A   1      42.517  28.427  36.315  1.00  0.00     0.020 A 
ATOM     64  C   UNL A   1      41.971  27.180  36.009  1.00  0.00     0.054 A 
BRANCH  64  65
ATOM     65  S   UNL A   1      41.716  25.955  37.323  1.00  0.00     0.124 S 
ATOM     66  O   UNL A   1      42.746  26.310  38.294  1.00  0.00    -0.237 OA
ATOM     67  O   UNL A   1      40.340  26.212  37.744  1.00  0.00    -0.237 OA
ATOM     68  O   UNL A   1      41.917  24.673  36.648  1.00  0.00    -0.744 OA
ENDBRANCH  64  65
ENDBRANCH  38  59
ENDBRANCH  12  13
ENDBRANCH   5   7
ENDBRANCH   2   3
ENDBRANCH   1   2
BRANCH   1  69
ATOM     69  C   UNL A   1      39.086  22.661  26.618  1.00  0.00     0.023 C 
BRANCH  69  70
ATOM     70  C   UNL A   1      37.706  23.186  26.209  1.00  0.00     0.116 C 
BRANCH  70  71
ATOM     71  N   UNL A   1      37.601  23.438  24.780  1.00  0.00    -0.351 N 
ATOM     72  C   UNL A   1      36.530  23.250  23.927  1.00  0.00     0.272 C 
ATOM     73  H   UNL A   1      38.414  23.798  24.357  1.00  0.00     0.163 HD
ATOM     74  O   UNL A   1      36.722  23.386  22.718  1.00  0.00    -0.267 OA
BRANCH  72  75
ATOM     75  C   UNL A   1      35.207  22.861  24.450  1.00  0.00     0.155 A 
ATOM     76  N   UNL A   1      34.865  21.582  24.722  1.00  0.00    -0.167 NA
ATOM     77  C   UNL A   1      34.141  23.738  24.803  1.00  0.00     0.026 A 
ATOM     78  N   UNL A   1      33.568  21.634  25.095  1.00  0.00    -0.264 N 
ATOM     79  C   UNL A   1      33.086  22.906  25.121  1.00  0.00     0.046 A 
ATOM     80  C   UNL A   1      34.048  25.234  24.782  1.00  0.00     0.159 C 
ATOM     81  C   UNL A   1      31.709  23.367  25.431  1.00  0.00     0.078 C 
ATOM     82  N   UNL A   1      32.720  25.633  25.311  1.00  0.00    -0.337 N 
ATOM     83  C   UNL A   1      31.570  24.808  24.892  1.00  0.00     0.126 C 
BRANCH  78  84
ATOM     84  C   UNL A   1      32.893  20.417  25.527  1.00  0.00     0.180 C 
BRANCH  84  85
ATOM     85  C   UNL A   1      33.290  19.212  24.709  1.00  0.00    -0.026 A 
ATOM     86  C   UNL A   1      32.531  18.844  23.585  1.00  0.00     0.008 A 
ATOM     87  C   UNL A   1      34.420  18.450  25.048  1.00  0.00     0.008 A 
ATOM     88  C   UNL A   1      32.898  17.745  22.809  1.00  0.00     0.039 A 
ATOM     89  C   UNL A   1      34.788  17.353  24.266  1.00  0.00     0.039 A 
ATOM     90  C   UNL A   1      34.026  17.014  23.154  1.00  0.00     0.123 A 
ATOM     91  F   UNL A   1      34.391  15.967  22.402  1.00  0.00    -0.207 F 
ENDBRANCH  84  85
ENDBRANCH  78  84
BRANCH  82  92
ATOM     92  C   UNL A   1      32.637  26.733  26.161  1.00  0.00     0.232 C 
ATOM     93  O   UNL A   1      31.623  27.075  26.737  1.00  0.00    -0.274 OA
BRANCH  92  94
ATOM     94  C   UNL A   1      33.892  27.490  26.384  1.00  0.00     0.154 C 
ATOM     95  C   UNL A   1      34.117  28.819  25.677  1.00  0.00     0.097 C 
ATOM     96  C   UNL A   1      33.890  28.764  27.140  1.00  0.00     0.260 C 
ATOM     97  F   UNL A   1      32.761  29.357  27.651  1.00  0.00    -0.206 F 
ATOM     98  F   UNL A   1      34.936  29.092  27.977  1.00  0.00    -0.206 F 
ENDBRANCH  92  94
ENDBRANCH  82  92
ENDBRANCH  72  75
ENDBRANCH  70  71
ENDBRANCH  69  70
ENDBRANCH   1  69
TORSDOF 18
ENDMDL
