MODEL 1
REMARK VINA RESULT:     -10.7      0.000      0.000
REMARK SMILES C[C@@H]1CCC[C@]1(Sc1ccc(F)cc1)C(=O)NCCCCNC(=O)c1ccc(-c2c3nc(c(-c4ccc(S(=O)(=O)[O-])cc4)c4ccc([nH]4)c(-c4ccc(S(=O)(=O)[O-])cc4)c4nc(c(-c5ccc(S(=O)(=O)[O-])cc5)c5ccc2[nH]5)C=C4)C=C3)cc1
REMARK SMILES IDX 20 1 19 2 18 3 17 4 15 5 16 6 6 8 1 9 2 10 3 11 4 12 5 13
REMARK SMILES IDX 7 14 8 15 9 16 14 17 10 18 13 19 11 20 12 21 21 22 22 23
REMARK SMILES IDX 23 24 24 26 25 27 26 28 84 29 27 30 83 31 28 32 29 33 30 34
REMARK SMILES IDX 77 35 31 36 82 37 76 38 78 39 32 40 81 41 75 42 74 43 33 45
REMARK SMILES IDX 63 46 44 47 62 48 45 49 48 50 61 51 79 52 46 53 47 54 60 56
REMARK SMILES IDX 80 57 49 58 34 59 35 60 43 61 36 62 42 63 37 64 38 65 39 66
REMARK SMILES IDX 40 67 41 68 64 69 65 70 73 71 66 72 72 73 67 74 68 75 69 76
REMARK SMILES IDX 70 77 71 78 50 79 51 80 59 81 52 82 58 83 53 84 54 85 55 86
REMARK SMILES IDX 56 87 57 88
REMARK H PARENT 17 7 22 25 78 44 48 55
REMARK Flexibility Score: inf
ROOT
ATOM      1  C   UNL A   1      32.237  27.681  26.885  1.00  0.00     0.023 C 
ENDROOT
BRANCH   1   2
ATOM      2  C   UNL A   1      32.139  27.100  25.475  1.00  0.00     0.023 C 
BRANCH   2   3
ATOM      3  C   UNL A   1      33.255  26.128  25.103  1.00  0.00     0.116 C 
BRANCH   3   4
ATOM      4  N   UNL A   1      33.416  25.055  26.069  1.00  0.00    -0.355 N 
ATOM      5  C   UNL A   1      33.506  23.699  25.886  1.00  0.00     0.236 C 
ATOM      6  O   UNL A   1      33.747  23.017  26.887  1.00  0.00    -0.273 OA
ATOM      7  H   UNL A   1      33.469  25.348  27.008  1.00  0.00     0.163 HD
BRANCH   5   8
ATOM      8  C   UNL A   1      33.296  23.057  24.481  1.00  0.00     0.102 C 
ATOM      9  C   UNL A   1      30.771  23.312  25.019  1.00  0.00     0.009 C 
ATOM     10  C   UNL A   1      31.865  23.307  23.931  1.00  0.00     0.012 C 
ATOM     11  C   UNL A   1      31.570  22.126  22.994  1.00  0.00     0.005 C 
ATOM     12  C   UNL A   1      32.480  20.986  23.429  1.00  0.00     0.002 C 
ATOM     13  C   UNL A   1      33.344  21.516  24.568  1.00  0.00     0.028 C 
BRANCH   8  14
ATOM     14  S   UNL A   1      34.810  23.652  23.504  1.00  0.00    -0.109 SA
BRANCH  14  15
ATOM     15  C   UNL A   1      36.254  23.159  24.399  1.00  0.00     0.008 A 
ATOM     16  C   UNL A   1      36.836  23.983  25.368  1.00  0.00     0.018 A 
ATOM     17  C   UNL A   1      36.713  21.844  24.255  1.00  0.00     0.018 A 
ATOM     18  C   UNL A   1      37.913  23.525  26.129  1.00  0.00     0.040 A 
ATOM     19  C   UNL A   1      37.776  21.376  25.031  1.00  0.00     0.040 A 
ATOM     20  C   UNL A   1      38.374  22.226  25.952  1.00  0.00     0.123 A 
ATOM     21  F   UNL A   1      39.395  21.780  26.695  1.00  0.00    -0.207 F 
ENDBRANCH  14  15
ENDBRANCH   8  14
ENDBRANCH   5   8
ENDBRANCH   3   4
ENDBRANCH   2   3
ENDBRANCH   1   2
BRANCH   1  22
ATOM     22  C   UNL A   1      33.581  28.311  27.231  1.00  0.00     0.116 C 
BRANCH  22  23
ATOM     23  N   UNL A   1      33.474  29.719  27.585  1.00  0.00    -0.352 N 
ATOM     24  C   UNL A   1      34.431  30.539  28.135  1.00  0.00     0.251 C 
ATOM     25  H   UNL A   1      32.602  30.140  27.407  1.00  0.00     0.163 HD
ATOM     26  O   UNL A   1      34.140  31.676  28.494  1.00  0.00    -0.269 OA
BRANCH  24  27
ATOM     27  C   UNL A   1      35.802  30.022  28.317  1.00  0.00     0.039 A 
ATOM     28  C   UNL A   1      36.702  30.084  27.250  1.00  0.00     0.014 A 
ATOM     29  C   UNL A   1      36.206  29.517  29.556  1.00  0.00     0.014 A 
ATOM     30  C   UNL A   1      38.031  29.705  27.446  1.00  0.00     0.010 A 
ATOM     31  C   UNL A   1      37.544  29.207  29.768  1.00  0.00     0.010 A 
ATOM     32  C   UNL A   1      38.469  29.297  28.716  1.00  0.00    -0.014 A 
BRANCH  32  33
ATOM     33  C   UNL A   1      39.883  28.931  28.978  1.00  0.00     0.031 A 
ATOM     34  C   UNL A   1      40.827  29.966  29.526  1.00  0.00     0.074 A 
ATOM     35  C   UNL A   1      40.340  27.709  28.641  1.00  0.00     0.049 A 
ATOM     36  N   UNL A   1      42.122  29.896  29.696  1.00  0.00    -0.248 NA
ATOM     37  C   UNL A   1      40.236  31.261  29.902  1.00  0.00     0.031 C 
ATOM     38  C   UNL A   1      39.530  26.624  28.082  1.00  0.00     0.029 A 
ATOM     39  N   UNL A   1      41.604  27.181  28.707  1.00  0.00    -0.354 N 
ATOM     40  C   UNL A   1      42.505  31.146  30.168  1.00  0.00     0.074 A 
ATOM     41  C   UNL A   1      41.313  31.966  30.214  1.00  0.00     0.031 C 
ATOM     42  C   UNL A   1      40.315  25.552  27.881  1.00  0.00     0.029 A 
ATOM     43  C   UNL A   1      41.687  25.887  28.251  1.00  0.00     0.049 A 
ATOM     44  H   UNL A   1      42.380  27.681  29.049  1.00  0.00     0.167 HD
ATOM     45  C   UNL A   1      43.734  31.572  30.543  1.00  0.00     0.031 A 
ATOM     46  C   UNL A   1      42.749  25.066  28.135  1.00  0.00     0.031 A 
ATOM     47  C   UNL A   1      44.914  30.751  30.509  1.00  0.00     0.049 A 
ATOM     48  C   UNL A   1      44.108  25.558  28.548  1.00  0.00     0.074 A 
ATOM     49  C   UNL A   1      46.200  31.073  30.905  1.00  0.00     0.029 A 
ATOM     50  N   UNL A   1      44.950  29.440  30.056  1.00  0.00    -0.354 N 
ATOM     51  N   UNL A   1      44.448  26.734  29.022  1.00  0.00    -0.248 NA
ATOM     52  C   UNL A   1      45.225  24.612  28.420  1.00  0.00     0.031 C 
ATOM     53  C   UNL A   1      47.022  29.967  30.657  1.00  0.00     0.029 A 
ATOM     54  C   UNL A   1      46.236  28.942  30.153  1.00  0.00     0.049 A 
ATOM     55  H   UNL A   1      44.174  28.939  29.716  1.00  0.00     0.167 HD
ATOM     56  C   UNL A   1      45.811  26.657  29.281  1.00  0.00     0.074 A 
ATOM     57  C   UNL A   1      46.234  25.321  28.910  1.00  0.00     0.031 C 
ATOM     58  C   UNL A   1      46.636  27.605  29.789  1.00  0.00     0.031 A 
BRANCH  45  59
ATOM     59  C   UNL A   1      43.852  33.000  31.005  1.00  0.00    -0.014 A 
ATOM     60  C   UNL A   1      44.158  34.033  30.100  1.00  0.00     0.010 A 
ATOM     61  C   UNL A   1      43.674  33.312  32.365  1.00  0.00     0.010 A 
ATOM     62  C   UNL A   1      44.355  35.338  30.556  1.00  0.00     0.020 A 
ATOM     63  C   UNL A   1      43.841  34.623  32.821  1.00  0.00     0.020 A 
ATOM     64  C   UNL A   1      44.209  35.622  31.918  1.00  0.00     0.054 A 
BRANCH  64  65
ATOM     65  S   UNL A   1      44.499  37.318  32.493  1.00  0.00     0.124 S 
ATOM     66  O   UNL A   1      45.935  37.300  32.760  1.00  0.00    -0.237 OA
ATOM     67  O   UNL A   1      44.084  38.123  31.347  1.00  0.00    -0.237 OA
ATOM     68  O   UNL A   1      43.646  37.433  33.672  1.00  0.00    -0.744 OA
ENDBRANCH  64  65
ENDBRANCH  45  59
BRANCH  46  69
ATOM     69  C   UNL A   1      42.554  23.676  27.640  1.00  0.00    -0.014 A 
ATOM     70  C   UNL A   1      42.659  23.398  26.267  1.00  0.00     0.010 A 
ATOM     71  C   UNL A   1      42.305  22.621  28.537  1.00  0.00     0.010 A 
ATOM     72  C   UNL A   1      42.519  22.089  25.797  1.00  0.00     0.020 A 
ATOM     73  C   UNL A   1      42.186  21.308  28.073  1.00  0.00     0.020 A 
ATOM     74  C   UNL A   1      42.290  21.051  26.704  1.00  0.00     0.054 A 
BRANCH  74  75
ATOM     75  S   UNL A   1      42.190  19.350  26.078  1.00  0.00     0.124 S 
ATOM     76  O   UNL A   1      40.773  19.228  25.751  1.00  0.00    -0.237 OA
ATOM     77  O   UNL A   1      43.103  19.380  24.939  1.00  0.00    -0.237 OA
ATOM     78  O   UNL A   1      42.645  18.544  27.209  1.00  0.00    -0.744 OA
ENDBRANCH  74  75
ENDBRANCH  46  69
BRANCH  58  79
ATOM     79  C   UNL A   1      48.072  27.224  30.027  1.00  0.00    -0.014 A 
ATOM     80  C   UNL A   1      49.081  27.570  29.112  1.00  0.00     0.010 A 
ATOM     81  C   UNL A   1      48.423  26.582  31.229  1.00  0.00     0.010 A 
ATOM     82  C   UNL A   1      50.417  27.266  29.390  1.00  0.00     0.020 A 
ATOM     83  C   UNL A   1      49.758  26.297  31.519  1.00  0.00     0.020 A 
ATOM     84  C   UNL A   1      50.747  26.634  30.593  1.00  0.00     0.054 A 
BRANCH  84  85
ATOM     85  S   UNL A   1      52.494  26.312  30.964  1.00  0.00     0.124 S 
ATOM     86  O   UNL A   1      53.030  25.990  29.645  1.00  0.00    -0.237 OA
ATOM     87  O   UNL A   1      52.941  27.583  31.531  1.00  0.00    -0.237 OA
ATOM     88  O   UNL A   1      52.448  25.199  31.908  1.00  0.00    -0.744 OA
ENDBRANCH  84  85
ENDBRANCH  58  79
ENDBRANCH  32  33
ENDBRANCH  24  27
ENDBRANCH  22  23
ENDBRANCH   1  22
TORSDOF 16
ENDMDL
MODEL 2
REMARK VINA RESULT:     -10.6      2.943      9.383
REMARK SMILES C[C@@H]1CCC[C@]1(Sc1ccc(F)cc1)C(=O)NCCCCNC(=O)c1ccc(-c2c3nc(c(-c4ccc(S(=O)(=O)[O-])cc4)c4ccc([nH]4)c(-c4ccc(S(=O)(=O)[O-])cc4)c4nc(c(-c5ccc(S(=O)(=O)[O-])cc5)c5ccc2[nH]5)C=C4)C=C3)cc1
REMARK SMILES IDX 20 1 19 2 18 3 17 4 15 5 16 6 6 8 1 9 2 10 3 11 4 12 5 13
REMARK SMILES IDX 7 14 8 15 9 16 14 17 10 18 13 19 11 20 12 21 21 22 22 23
REMARK SMILES IDX 23 24 24 26 25 27 26 28 84 29 27 30 83 31 28 32 29 33 30 34
REMARK SMILES IDX 77 35 31 36 82 37 76 38 78 39 32 40 81 41 75 42 74 43 33 45
REMARK SMILES IDX 63 46 44 47 62 48 45 49 48 50 61 51 79 52 46 53 47 54 60 56
REMARK SMILES IDX 80 57 49 58 34 59 35 60 43 61 36 62 42 63 37 64 38 65 39 66
REMARK SMILES IDX 40 67 41 68 64 69 65 70 73 71 66 72 72 73 67 74 68 75 69 76
REMARK SMILES IDX 70 77 71 78 50 79 51 80 59 81 52 82 58 83 53 84 54 85 55 86
REMARK SMILES IDX 56 87 57 88
REMARK H PARENT 17 7 22 25 78 44 48 55
REMARK Flexibility Score: inf
ROOT
ATOM      1  C   UNL A   1      35.316  22.763  25.859  1.00  0.00     0.023 C 
ENDROOT
BRANCH   1   2
ATOM      2  C   UNL A   1      34.217  23.604  26.506  1.00  0.00     0.023 C 
BRANCH   2   3
ATOM      3  C   UNL A   1      33.669  24.727  25.631  1.00  0.00     0.116 C 
BRANCH   3   4
ATOM      4  N   UNL A   1      33.330  24.284  24.289  1.00  0.00    -0.355 N 
ATOM      5  C   UNL A   1      32.737  24.957  23.253  1.00  0.00     0.236 C 
ATOM      6  O   UNL A   1      32.661  24.363  22.173  1.00  0.00    -0.273 OA
ATOM      7  H   UNL A   1      33.565  23.348  24.092  1.00  0.00     0.163 HD
BRANCH   5   8
ATOM      8  C   UNL A   1      32.173  26.398  23.443  1.00  0.00     0.102 C 
ATOM      9  C   UNL A   1      30.203  25.200  24.631  1.00  0.00     0.009 C 
ATOM     10  C   UNL A   1      31.088  26.461  24.553  1.00  0.00     0.012 C 
ATOM     11  C   UNL A   1      30.175  27.636  24.173  1.00  0.00     0.005 C 
ATOM     12  C   UNL A   1      30.337  27.849  22.675  1.00  0.00     0.002 C 
ATOM     13  C   UNL A   1      31.384  26.848  22.195  1.00  0.00     0.028 C 
BRANCH   8  14
ATOM     14  S   UNL A   1      33.739  27.461  23.580  1.00  0.00    -0.109 SA
BRANCH  14  15
ATOM     15  C   UNL A   1      33.587  28.455  25.036  1.00  0.00     0.008 A 
ATOM     16  C   UNL A   1      34.337  28.193  26.188  1.00  0.00     0.018 A 
ATOM     17  C   UNL A   1      32.829  29.631  24.966  1.00  0.00     0.018 A 
ATOM     18  C   UNL A   1      34.269  29.056  27.284  1.00  0.00     0.040 A 
ATOM     19  C   UNL A   1      32.778  30.506  26.052  1.00  0.00     0.040 A 
ATOM     20  C   UNL A   1      33.489  30.203  27.207  1.00  0.00     0.123 A 
ATOM     21  F   UNL A   1      33.439  31.039  28.251  1.00  0.00    -0.207 F 
ENDBRANCH  14  15
ENDBRANCH   8  14
ENDBRANCH   5   8
ENDBRANCH   3   4
ENDBRANCH   2   3
ENDBRANCH   1   2
BRANCH   1  22
ATOM     22  C   UNL A   1      36.668  23.455  25.733  1.00  0.00     0.116 C 
BRANCH  22  23
ATOM     23  N   UNL A   1      37.790  22.547  25.922  1.00  0.00    -0.352 N 
ATOM     24  C   UNL A   1      39.041  22.824  26.422  1.00  0.00     0.251 C 
ATOM     25  H   UNL A   1      37.634  21.612  25.657  1.00  0.00     0.163 HD
ATOM     26  O   UNL A   1      39.921  21.969  26.397  1.00  0.00    -0.269 OA
BRANCH  24  27
ATOM     27  C   UNL A   1      39.319  24.172  26.958  1.00  0.00     0.039 A 
ATOM     28  C   UNL A   1      38.969  24.466  28.278  1.00  0.00     0.014 A 
ATOM     29  C   UNL A   1      39.964  25.126  26.166  1.00  0.00     0.014 A 
ATOM     30  C   UNL A   1      39.330  25.697  28.829  1.00  0.00     0.010 A 
ATOM     31  C   UNL A   1      40.385  26.321  26.738  1.00  0.00     0.010 A 
ATOM     32  C   UNL A   1      40.071  26.619  28.073  1.00  0.00    -0.014 A 
BRANCH  32  33
ATOM     33  C   UNL A   1      40.516  27.917  28.637  1.00  0.00     0.031 A 
ATOM     34  C   UNL A   1      41.921  28.058  29.155  1.00  0.00     0.074 A 
ATOM     35  C   UNL A   1      39.642  28.934  28.768  1.00  0.00     0.049 A 
ATOM     36  N   UNL A   1      42.466  29.053  29.806  1.00  0.00    -0.248 NA
ATOM     37  C   UNL A   1      42.820  26.912  28.938  1.00  0.00     0.031 C 
ATOM     38  C   UNL A   1      38.246  28.916  28.322  1.00  0.00     0.029 A 
ATOM     39  N   UNL A   1      39.797  30.177  29.327  1.00  0.00    -0.354 N 
ATOM     40  C   UNL A   1      43.760  28.640  30.104  1.00  0.00     0.074 A 
ATOM     41  C   UNL A   1      43.901  27.291  29.602  1.00  0.00     0.031 C 
ATOM     42  C   UNL A   1      37.682  30.103  28.605  1.00  0.00     0.029 A 
ATOM     43  C   UNL A   1      38.658  30.945  29.290  1.00  0.00     0.049 A 
ATOM     44  H   UNL A   1      40.644  30.489  29.719  1.00  0.00     0.167 HD
ATOM     45  C   UNL A   1      44.747  29.326  30.727  1.00  0.00     0.031 A 
ATOM     46  C   UNL A   1      38.423  32.185  29.763  1.00  0.00     0.031 A 
ATOM     47  C   UNL A   1      44.608  30.672  31.213  1.00  0.00     0.049 A 
ATOM     48  C   UNL A   1      39.528  32.928  30.459  1.00  0.00     0.074 A 
ATOM     49  C   UNL A   1      45.558  31.471  31.823  1.00  0.00     0.029 A 
ATOM     50  N   UNL A   1      43.442  31.420  31.140  1.00  0.00    -0.354 N 
ATOM     51  N   UNL A   1      40.756  32.536  30.705  1.00  0.00    -0.248 NA
ATOM     52  C   UNL A   1      39.221  34.285  30.934  1.00  0.00     0.031 C 
ATOM     53  C   UNL A   1      44.956  32.692  32.151  1.00  0.00     0.029 A 
ATOM     54  C   UNL A   1      43.644  32.668  31.701  1.00  0.00     0.049 A 
ATOM     55  H   UNL A   1      42.595  31.108  30.746  1.00  0.00     0.167 HD
ATOM     56  C   UNL A   1      41.378  33.609  31.333  1.00  0.00     0.074 A 
ATOM     57  C   UNL A   1      40.391  34.666  31.430  1.00  0.00     0.031 C 
ATOM     58  C   UNL A   1      42.653  33.713  31.779  1.00  0.00     0.031 A 
BRANCH  45  59
ATOM     59  C   UNL A   1      46.056  28.610  30.926  1.00  0.00    -0.014 A 
ATOM     60  C   UNL A   1      47.063  28.651  29.945  1.00  0.00     0.010 A 
ATOM     61  C   UNL A   1      46.275  27.868  32.101  1.00  0.00     0.010 A 
ATOM     62  C   UNL A   1      48.235  27.907  30.101  1.00  0.00     0.020 A 
ATOM     63  C   UNL A   1      47.460  27.146  32.275  1.00  0.00     0.020 A 
ATOM     64  C   UNL A   1      48.419  27.147  31.261  1.00  0.00     0.054 A 
BRANCH  64  65
ATOM     65  S   UNL A   1      49.935  26.165  31.430  1.00  0.00     0.124 S 
ATOM     66  O   UNL A   1      50.806  27.085  32.158  1.00  0.00    -0.237 OA
ATOM     67  O   UNL A   1      49.483  24.999  32.184  1.00  0.00    -0.237 OA
ATOM     68  O   UNL A   1      50.327  25.896  30.049  1.00  0.00    -0.744 OA
ENDBRANCH  64  65
ENDBRANCH  45  59
BRANCH  46  69
ATOM     69  C   UNL A   1      37.090  32.812  29.552  1.00  0.00    -0.014 A 
ATOM     70  C   UNL A   1      36.147  32.825  30.593  1.00  0.00     0.010 A 
ATOM     71  C   UNL A   1      36.773  33.435  28.331  1.00  0.00     0.010 A 
ATOM     72  C   UNL A   1      34.907  33.448  30.419  1.00  0.00     0.020 A 
ATOM     73  C   UNL A   1      35.543  34.078  28.160  1.00  0.00     0.020 A 
ATOM     74  C   UNL A   1      34.616  34.076  29.205  1.00  0.00     0.054 A 
BRANCH  74  75
ATOM     75  S   UNL A   1      33.033  34.947  29.031  1.00  0.00     0.124 S 
ATOM     76  O   UNL A   1      33.458  36.256  28.545  1.00  0.00    -0.237 OA
ATOM     77  O   UNL A   1      32.320  34.114  28.066  1.00  0.00    -0.237 OA
ATOM     78  O   UNL A   1      32.482  34.927  30.384  1.00  0.00    -0.744 OA
ENDBRANCH  74  75
ENDBRANCH  46  69
BRANCH  58  79
ATOM     79  C   UNL A   1      43.081  35.029  32.368  1.00  0.00    -0.014 A 
ATOM     80  C   UNL A   1      43.608  36.053  31.564  1.00  0.00     0.010 A 
ATOM     81  C   UNL A   1      42.870  35.268  33.739  1.00  0.00     0.010 A 
ATOM     82  C   UNL A   1      43.933  37.292  32.125  1.00  0.00     0.020 A 
ATOM     83  C   UNL A   1      43.174  36.511  34.298  1.00  0.00     0.020 A 
ATOM     84  C   UNL A   1      43.711  37.513  33.488  1.00  0.00     0.054 A 
BRANCH  84  85
ATOM     85  S   UNL A   1      44.074  39.151  34.180  1.00  0.00     0.124 S 
ATOM     86  O   UNL A   1      44.059  38.885  35.615  1.00  0.00    -0.237 OA
ATOM     87  O   UNL A   1      45.384  39.458  33.610  1.00  0.00    -0.237 OA
ATOM     88  O   UNL A   1      42.979  39.985  33.689  1.00  0.00    -0.744 OA
ENDBRANCH  84  85
ENDBRANCH  58  79
ENDBRANCH  32  33
ENDBRANCH  24  27
ENDBRANCH  22  23
ENDBRANCH   1  22
TORSDOF 16
ENDMDL
MODEL 3
REMARK VINA RESULT:     -10.5      3.330      9.701
REMARK SMILES C[C@@H]1CCC[C@]1(Sc1ccc(F)cc1)C(=O)NCCCCNC(=O)c1ccc(-c2c3nc(c(-c4ccc(S(=O)(=O)[O-])cc4)c4ccc([nH]4)c(-c4ccc(S(=O)(=O)[O-])cc4)c4nc(c(-c5ccc(S(=O)(=O)[O-])cc5)c5ccc2[nH]5)C=C4)C=C3)cc1
REMARK SMILES IDX 20 1 19 2 18 3 17 4 15 5 16 6 6 8 1 9 2 10 3 11 4 12 5 13
REMARK SMILES IDX 7 14 8 15 9 16 14 17 10 18 13 19 11 20 12 21 21 22 22 23
REMARK SMILES IDX 23 24 24 26 25 27 26 28 84 29 27 30 83 31 28 32 29 33 30 34
REMARK SMILES IDX 77 35 31 36 82 37 76 38 78 39 32 40 81 41 75 42 74 43 33 45
REMARK SMILES IDX 63 46 44 47 62 48 45 49 48 50 61 51 79 52 46 53 47 54 60 56
REMARK SMILES IDX 80 57 49 58 34 59 35 60 43 61 36 62 42 63 37 64 38 65 39 66
REMARK SMILES IDX 40 67 41 68 64 69 65 70 73 71 66 72 72 73 67 74 68 75 69 76
REMARK SMILES IDX 70 77 71 78 50 79 51 80 59 81 52 82 58 83 53 84 54 85 55 86
REMARK SMILES IDX 56 87 57 88
REMARK H PARENT 17 7 22 25 78 44 48 55
REMARK Flexibility Score: inf
ROOT
ATOM      1  C   UNL A   1      35.766  23.824  25.757  1.00  0.00     0.023 C 
ENDROOT
BRANCH   1   2
ATOM      2  C   UNL A   1      34.500  23.363  25.038  1.00  0.00     0.023 C 
BRANCH   2   3
ATOM      3  C   UNL A   1      33.541  24.482  24.645  1.00  0.00     0.116 C 
BRANCH   3   4
ATOM      4  N   UNL A   1      32.581  24.797  25.689  1.00  0.00    -0.355 N 
ATOM      5  C   UNL A   1      31.823  25.922  25.892  1.00  0.00     0.236 C 
ATOM      6  O   UNL A   1      31.001  25.881  26.813  1.00  0.00    -0.273 OA
ATOM      7  H   UNL A   1      32.453  24.088  26.360  1.00  0.00     0.163 HD
BRANCH   5   8
ATOM      8  C   UNL A   1      32.009  27.192  25.008  1.00  0.00     0.102 C 
ATOM      9  C   UNL A   1      34.094  27.613  26.493  1.00  0.00     0.009 C 
ATOM     10  C   UNL A   1      33.451  27.762  25.098  1.00  0.00     0.012 C 
ATOM     11  C   UNL A   1      33.319  29.266  24.815  1.00  0.00     0.005 C 
ATOM     12  C   UNL A   1      31.882  29.648  25.140  1.00  0.00     0.002 C 
ATOM     13  C   UNL A   1      31.163  28.365  25.547  1.00  0.00     0.028 C 
BRANCH   8  14
ATOM     14  S   UNL A   1      31.298  26.659  23.331  1.00  0.00    -0.109 SA
BRANCH  14  15
ATOM     15  C   UNL A   1      30.085  27.857  22.858  1.00  0.00     0.008 A 
ATOM     16  C   UNL A   1      28.757  27.771  23.291  1.00  0.00     0.018 A 
ATOM     17  C   UNL A   1      30.510  29.008  22.182  1.00  0.00     0.018 A 
ATOM     18  C   UNL A   1      27.848  28.785  22.984  1.00  0.00     0.040 A 
ATOM     19  C   UNL A   1      29.608  30.034  21.894  1.00  0.00     0.040 A 
ATOM     20  C   UNL A   1      28.282  29.907  22.288  1.00  0.00     0.123 A 
ATOM     21  F   UNL A   1      27.414  30.888  22.010  1.00  0.00    -0.207 F 
ENDBRANCH  14  15
ENDBRANCH   8  14
ENDBRANCH   5   8
ENDBRANCH   3   4
ENDBRANCH   2   3
ENDBRANCH   1   2
BRANCH   1  22
ATOM     22  C   UNL A   1      37.050  23.696  24.947  1.00  0.00     0.116 C 
BRANCH  22  23
ATOM     23  N   UNL A   1      37.955  22.683  25.472  1.00  0.00    -0.352 N 
ATOM     24  C   UNL A   1      39.042  22.849  26.298  1.00  0.00     0.251 C 
ATOM     25  H   UNL A   1      37.763  21.756  25.201  1.00  0.00     0.163 HD
ATOM     26  O   UNL A   1      39.781  21.902  26.548  1.00  0.00    -0.269 OA
BRANCH  24  27
ATOM     27  C   UNL A   1      39.324  24.189  26.853  1.00  0.00     0.039 A 
ATOM     28  C   UNL A   1      38.917  24.487  28.155  1.00  0.00     0.014 A 
ATOM     29  C   UNL A   1      40.029  25.130  26.097  1.00  0.00     0.014 A 
ATOM     30  C   UNL A   1      39.280  25.708  28.728  1.00  0.00     0.010 A 
ATOM     31  C   UNL A   1      40.450  26.313  26.693  1.00  0.00     0.010 A 
ATOM     32  C   UNL A   1      40.079  26.614  28.013  1.00  0.00    -0.014 A 
BRANCH  32  33
ATOM     33  C   UNL A   1      40.526  27.900  28.602  1.00  0.00     0.031 A 
ATOM     34  C   UNL A   1      41.928  28.025  29.133  1.00  0.00     0.074 A 
ATOM     35  C   UNL A   1      39.656  28.919  28.745  1.00  0.00     0.049 A 
ATOM     36  N   UNL A   1      42.473  29.004  29.806  1.00  0.00    -0.248 NA
ATOM     37  C   UNL A   1      42.822  26.878  28.903  1.00  0.00     0.031 C 
ATOM     38  C   UNL A   1      38.264  28.916  28.289  1.00  0.00     0.029 A 
ATOM     39  N   UNL A   1      39.813  30.151  29.327  1.00  0.00    -0.354 N 
ATOM     40  C   UNL A   1      43.762  28.580  30.106  1.00  0.00     0.074 A 
ATOM     41  C   UNL A   1      43.901  27.239  29.581  1.00  0.00     0.031 C 
ATOM     42  C   UNL A   1      37.703  30.101  28.588  1.00  0.00     0.029 A 
ATOM     43  C   UNL A   1      38.678  30.926  29.295  1.00  0.00     0.049 A 
ATOM     44  H   UNL A   1      40.659  30.452  29.730  1.00  0.00     0.167 HD
ATOM     45  C   UNL A   1      44.748  29.250  30.748  1.00  0.00     0.031 A 
ATOM     46  C   UNL A   1      38.446  32.158  29.788  1.00  0.00     0.031 A 
ATOM     47  C   UNL A   1      44.612  30.588  31.257  1.00  0.00     0.049 A 
ATOM     48  C   UNL A   1      39.550  32.883  30.506  1.00  0.00     0.074 A 
ATOM     49  C   UNL A   1      45.562  31.371  31.887  1.00  0.00     0.029 A 
ATOM     50  N   UNL A   1      43.450  31.343  31.189  1.00  0.00    -0.354 N 
ATOM     51  N   UNL A   1      40.774  32.480  30.754  1.00  0.00    -0.248 NA
ATOM     52  C   UNL A   1      39.246  34.233  31.002  1.00  0.00     0.031 C 
ATOM     53  C   UNL A   1      44.963  32.589  32.232  1.00  0.00     0.029 A 
ATOM     54  C   UNL A   1      43.655  32.580  31.773  1.00  0.00     0.049 A 
ATOM     55  H   UNL A   1      42.605  31.043  30.783  1.00  0.00     0.167 HD
ATOM     56  C   UNL A   1      41.396  33.539  31.405  1.00  0.00     0.074 A 
ATOM     57  C   UNL A   1      40.414  34.599  31.513  1.00  0.00     0.031 C 
ATOM     58  C   UNL A   1      42.669  33.628  31.862  1.00  0.00     0.031 A 
BRANCH  45  59
ATOM     59  C   UNL A   1      46.053  28.523  30.945  1.00  0.00    -0.014 A 
ATOM     60  C   UNL A   1      46.287  27.751  32.096  1.00  0.00     0.010 A 
ATOM     61  C   UNL A   1      47.065  28.632  29.975  1.00  0.00     0.010 A 
ATOM     62  C   UNL A   1      47.534  27.158  32.309  1.00  0.00     0.020 A 
ATOM     63  C   UNL A   1      48.304  28.015  30.170  1.00  0.00     0.020 A 
ATOM     64  C   UNL A   1      48.540  27.307  31.349  1.00  0.00     0.054 A 
BRANCH  64  65
ATOM     65  S   UNL A   1      50.161  26.554  31.660  1.00  0.00     0.124 S 
ATOM     66  O   UNL A   1      50.939  27.042  30.524  1.00  0.00    -0.237 OA
ATOM     67  O   UNL A   1      50.532  27.109  32.960  1.00  0.00    -0.237 OA
ATOM     68  O   UNL A   1      49.882  25.121  31.656  1.00  0.00    -0.744 OA
ENDBRANCH  64  65
ENDBRANCH  45  59
BRANCH  46  69
ATOM     69  C   UNL A   1      37.118  32.796  29.579  1.00  0.00    -0.014 A 
ATOM     70  C   UNL A   1      36.184  32.836  30.628  1.00  0.00     0.010 A 
ATOM     71  C   UNL A   1      36.796  33.401  28.350  1.00  0.00     0.010 A 
ATOM     72  C   UNL A   1      34.950  33.470  30.454  1.00  0.00     0.020 A 
ATOM     73  C   UNL A   1      35.572  34.054  28.180  1.00  0.00     0.020 A 
ATOM     74  C   UNL A   1      34.655  34.080  29.233  1.00  0.00     0.054 A 
BRANCH  74  75
ATOM     75  S   UNL A   1      33.079  34.965  29.057  1.00  0.00     0.124 S 
ATOM     76  O   UNL A   1      32.386  34.157  28.058  1.00  0.00    -0.237 OA
ATOM     77  O   UNL A   1      32.532  34.905  30.411  1.00  0.00    -0.237 OA
ATOM     78  O   UNL A   1      33.484  36.298  28.617  1.00  0.00    -0.744 OA
ENDBRANCH  74  75
ENDBRANCH  46  69
BRANCH  58  79
ATOM     79  C   UNL A   1      43.099  34.931  32.478  1.00  0.00    -0.014 A 
ATOM     80  C   UNL A   1      43.636  35.967  31.695  1.00  0.00     0.010 A 
ATOM     81  C   UNL A   1      42.881  35.147  33.851  1.00  0.00     0.010 A 
ATOM     82  C   UNL A   1      43.963  37.194  32.280  1.00  0.00     0.020 A 
ATOM     83  C   UNL A   1      43.186  36.379  34.434  1.00  0.00     0.020 A 
ATOM     84  C   UNL A   1      43.733  37.392  33.646  1.00  0.00     0.054 A 
BRANCH  84  85
ATOM     85  S   UNL A   1      44.099  39.016  34.369  1.00  0.00     0.124 S 
ATOM     86  O   UNL A   1      45.438  39.283  33.853  1.00  0.00    -0.237 OA
ATOM     87  O   UNL A   1      43.036  39.858  33.825  1.00  0.00    -0.237 OA
ATOM     88  O   UNL A   1      44.021  38.779  35.808  1.00  0.00    -0.744 OA
ENDBRANCH  84  85
ENDBRANCH  58  79
ENDBRANCH  32  33
ENDBRANCH  24  27
ENDBRANCH  22  23
ENDBRANCH   1  22
TORSDOF 16
ENDMDL
