MODEL 1
REMARK VINA RESULT:     -11.4      0.000      0.000
REMARK SMILES CCc1ccccc1NC(=O)c1cc(S(=O)(=O)N2CCC[C@H](C(=O)NCCCCNC(=O)c3ccc(-c4c5nc(c(-c6ccc(S(=O)(=O)[O-])cc6)c6ccc([nH]6)c(-c6ccc(S(=O)(=O)[O-])cc6)c6nc(c(-c7ccc(S(=O)(=O)[O-])cc7)c7ccc4[nH]7)C=C6)C=C5)cc3)C2)ccc1F
REMARK SMILES IDX 26 1 25 2 23 3 24 4 22 6 18 7 19 8 93 9 20 10 21 11 15 12
REMARK SMILES IDX 16 13 17 14 14 15 12 16 13 17 96 18 95 19 97 20 94 21 10 22
REMARK SMILES IDX 9 23 11 25 8 26 3 27 4 28 5 29 7 30 6 31 2 32 1 33 27 34
REMARK SMILES IDX 28 35 29 36 30 37 31 38 32 40 33 41 34 42 92 43 35 44 91 45
REMARK SMILES IDX 36 46 37 47 38 48 85 49 39 50 90 51 84 52 86 53 40 54 89 55
REMARK SMILES IDX 83 56 82 57 41 59 71 60 52 61 70 62 53 63 56 64 69 65 87 66
REMARK SMILES IDX 54 67 55 68 68 70 88 71 57 72 42 73 43 74 51 75 44 76 50 77
REMARK SMILES IDX 45 78 46 79 47 80 48 81 49 82 72 83 73 84 81 85 74 86 80 87
REMARK SMILES IDX 75 88 76 89 77 90 78 91 79 92 58 93 59 94 67 95 60 96 66 97
REMARK SMILES IDX 61 98 62 99 63 100 64 101 65 102
REMARK H PARENT 25 5 9 24 30 39 86 58 56 69
REMARK Flexibility Score: inf
ROOT
ATOM      1  C   UNL A   1      39.876  21.750  26.818  1.00  0.00     0.116 C 
ENDROOT
BRANCH   1   2
ATOM      2  N   UNL A   1      39.110  20.833  26.002  1.00  0.00    -0.356 N 
ATOM      3  C   UNL A   1      37.947  20.974  25.323  1.00  0.00     0.224 C 
ATOM      4  O   UNL A   1      37.558  19.989  24.684  1.00  0.00    -0.275 OA
ATOM      5  H   UNL A   1      39.509  19.937  25.925  1.00  0.00     0.163 HD
BRANCH   3   6
ATOM      6  C   UNL A   1      37.087  22.238  25.319  1.00  0.00     0.093 C 
ATOM      7  N   UNL A   1      34.733  22.054  24.408  1.00  0.00    -0.197 NA
ATOM      8  C   UNL A   1      35.034  22.968  23.286  1.00  0.00     0.102 C 
ATOM      9  C   UNL A   1      35.611  22.024  25.604  1.00  0.00     0.116 C 
ATOM     10  C   UNL A   1      36.516  23.055  22.973  1.00  0.00     0.018 C 
ATOM     11  C   UNL A   1      37.390  23.225  24.199  1.00  0.00     0.016 C 
BRANCH   7  12
ATOM     12  S   UNL A   1      33.100  21.651  24.664  1.00  0.00     0.243 S 
ATOM     13  O   UNL A   1      33.051  20.680  25.732  1.00  0.00    -0.207 OA
ATOM     14  O   UNL A   1      32.496  21.399  23.372  1.00  0.00    -0.207 OA
BRANCH  12  15
ATOM     15  C   UNL A   1      32.314  23.121  25.293  1.00  0.00     0.083 A 
ATOM     16  C   UNL A   1      32.484  25.485  25.706  1.00  0.00     0.077 A 
ATOM     17  C   UNL A   1      33.038  24.311  25.189  1.00  0.00     0.038 A 
ATOM     18  C   UNL A   1      31.191  25.495  26.228  1.00  0.00     0.136 A 
ATOM     19  C   UNL A   1      30.476  24.311  26.338  1.00  0.00     0.041 A 
ATOM     20  F   UNL A   1      30.635  26.626  26.683  1.00  0.00    -0.206 F 
ATOM     21  C   UNL A   1      31.045  23.119  25.888  1.00  0.00     0.025 A 
BRANCH  16  22
ATOM     22  C   UNL A   1      33.306  26.693  25.753  1.00  0.00     0.258 C 
ATOM     23  N   UNL A   1      33.007  27.786  24.974  1.00  0.00    -0.322 N 
ATOM     24  H   UNL A   1      33.715  28.471  24.968  1.00  0.00     0.170 HD
ATOM     25  O   UNL A   1      34.298  26.692  26.477  1.00  0.00    -0.269 OA
BRANCH  23  26
ATOM     26  C   UNL A   1      31.885  28.126  24.183  1.00  0.00     0.044 A 
ATOM     27  C   UNL A   1      31.117  29.253  24.540  1.00  0.00    -0.025 A 
ATOM     28  C   UNL A   1      30.120  29.710  23.654  1.00  0.00     0.006 A 
ATOM     29  C   UNL A   1      29.835  29.030  22.471  1.00  0.00     0.000 A 
ATOM     30  C   UNL A   1      31.502  27.393  23.051  1.00  0.00     0.026 A 
ATOM     31  C   UNL A   1      30.503  27.850  22.188  1.00  0.00     0.002 A 
BRANCH  27  32
ATOM     32  C   UNL A   1      31.302  30.011  25.839  1.00  0.00     0.034 C 
ATOM     33  C   UNL A   1      32.727  30.524  26.032  1.00  0.00     0.009 C 
ENDBRANCH  27  32
ENDBRANCH  23  26
ENDBRANCH  16  22
ENDBRANCH  12  15
ENDBRANCH   7  12
ENDBRANCH   3   6
ENDBRANCH   1   2
BRANCH   1  34
ATOM     34  C   UNL A   1      41.346  21.786  26.407  1.00  0.00     0.023 C 
BRANCH  34  35
ATOM     35  C   UNL A   1      42.319  21.928  27.568  1.00  0.00     0.023 C 
BRANCH  35  36
ATOM     36  C   UNL A   1      42.967  23.300  27.689  1.00  0.00     0.116 C 
BRANCH  36  37
ATOM     37  N   UNL A   1      43.388  23.880  26.419  1.00  0.00    -0.352 N 
ATOM     38  C   UNL A   1      43.245  25.189  26.014  1.00  0.00     0.251 C 
ATOM     39  H   UNL A   1      43.823  23.269  25.781  1.00  0.00     0.163 HD
ATOM     40  O   UNL A   1      43.565  25.547  24.887  1.00  0.00    -0.269 OA
BRANCH  38  41
ATOM     41  C   UNL A   1      42.640  26.140  26.969  1.00  0.00     0.039 A 
ATOM     42  C   UNL A   1      41.737  25.661  27.918  1.00  0.00     0.014 A 
ATOM     43  C   UNL A   1      43.099  27.458  27.012  1.00  0.00     0.014 A 
ATOM     44  C   UNL A   1      41.361  26.491  28.975  1.00  0.00     0.010 A 
ATOM     45  C   UNL A   1      42.797  28.246  28.116  1.00  0.00     0.010 A 
ATOM     46  C   UNL A   1      41.929  27.769  29.112  1.00  0.00    -0.014 A 
BRANCH  46  47
ATOM     47  C   UNL A   1      41.636  28.626  30.288  1.00  0.00     0.031 A 
ATOM     48  C   UNL A   1      42.466  28.488  31.536  1.00  0.00     0.074 A 
ATOM     49  C   UNL A   1      40.581  29.466  30.264  1.00  0.00     0.049 A 
ATOM     50  N   UNL A   1      42.326  29.089  32.688  1.00  0.00    -0.248 NA
ATOM     51  C   UNL A   1      43.575  27.520  31.494  1.00  0.00     0.031 C 
ATOM     52  C   UNL A   1      39.663  29.649  29.136  1.00  0.00     0.029 A 
ATOM     53  N   UNL A   1      40.099  30.323  31.222  1.00  0.00    -0.354 N 
ATOM     54  C   UNL A   1      43.309  28.553  33.513  1.00  0.00     0.074 A 
ATOM     55  C   UNL A   1      43.999  27.539  32.747  1.00  0.00     0.031 C 
ATOM     56  C   UNL A   1      38.754  30.585  29.455  1.00  0.00     0.029 A 
ATOM     57  C   UNL A   1      38.998  31.043  30.819  1.00  0.00     0.049 A 
ATOM     58  H   UNL A   1      40.504  30.414  32.115  1.00  0.00     0.167 HD
ATOM     59  C   UNL A   1      43.626  28.889  34.785  1.00  0.00     0.031 A 
ATOM     60  C   UNL A   1      38.269  31.968  31.474  1.00  0.00     0.031 A 
ATOM     61  C   UNL A   1      42.959  29.920  35.532  1.00  0.00     0.049 A 
ATOM     62  C   UNL A   1      38.655  32.343  32.879  1.00  0.00     0.074 A 
ATOM     63  C   UNL A   1      43.252  30.389  36.800  1.00  0.00     0.029 A 
ATOM     64  N   UNL A   1      41.868  30.645  35.077  1.00  0.00    -0.354 N 
ATOM     65  N   UNL A   1      39.635  31.877  33.616  1.00  0.00    -0.248 NA
ATOM     66  C   UNL A   1      37.844  33.378  33.535  1.00  0.00     0.031 C 
ATOM     67  C   UNL A   1      42.311  31.370  37.129  1.00  0.00     0.029 A 
ATOM     68  C   UNL A   1      41.463  31.545  36.046  1.00  0.00     0.049 A 
ATOM     69  H   UNL A   1      41.444  30.533  34.196  1.00  0.00     0.167 HD
ATOM     70  C   UNL A   1      39.575  32.580  34.813  1.00  0.00     0.074 A 
ATOM     71  C   UNL A   1      38.472  33.512  34.697  1.00  0.00     0.031 C 
ATOM     72  C   UNL A   1      40.364  32.467  35.909  1.00  0.00     0.031 A 
BRANCH  59  73
ATOM     73  C   UNL A   1      44.750  28.132  35.440  1.00  0.00    -0.014 A 
ATOM     74  C   UNL A   1      46.080  28.581  35.344  1.00  0.00     0.010 A 
ATOM     75  C   UNL A   1      44.472  26.965  36.174  1.00  0.00     0.010 A 
ATOM     76  C   UNL A   1      47.117  27.848  35.927  1.00  0.00     0.020 A 
ATOM     77  C   UNL A   1      45.504  26.246  36.784  1.00  0.00     0.020 A 
ATOM     78  C   UNL A   1      46.823  26.682  36.639  1.00  0.00     0.054 A 
BRANCH  78  79
ATOM     79  S   UNL A   1      48.187  25.758  37.396  1.00  0.00     0.124 S 
ATOM     80  O   UNL A   1      48.814  26.779  38.232  1.00  0.00    -0.237 OA
ATOM     81  O   UNL A   1      47.493  24.695  38.117  1.00  0.00    -0.237 OA
ATOM     82  O   UNL A   1      48.982  25.315  36.253  1.00  0.00    -0.744 OA
ENDBRANCH  78  79
ENDBRANCH  59  73
BRANCH  60  83
ATOM     83  C   UNL A   1      37.120  32.629  30.796  1.00  0.00    -0.014 A 
ATOM     84  C   UNL A   1      35.800  32.284  31.138  1.00  0.00     0.010 A 
ATOM     85  C   UNL A   1      37.336  33.612  29.814  1.00  0.00     0.010 A 
ATOM     86  C   UNL A   1      34.718  32.896  30.499  1.00  0.00     0.020 A 
ATOM     87  C   UNL A   1      36.256  34.244  29.190  1.00  0.00     0.020 A 
ATOM     88  C   UNL A   1      34.953  33.873  29.528  1.00  0.00     0.054 A 
BRANCH  88  89
ATOM     89  S   UNL A   1      33.533  34.692  28.748  1.00  0.00     0.124 S 
ATOM     90  O   UNL A   1      32.617  34.849  29.874  1.00  0.00    -0.237 OA
ATOM     91  O   UNL A   1      34.122  35.926  28.235  1.00  0.00    -0.237 OA
ATOM     92  O   UNL A   1      33.112  33.739  27.724  1.00  0.00    -0.744 OA
ENDBRANCH  88  89
ENDBRANCH  60  83
BRANCH  72  93
ATOM     93  C   UNL A   1      40.088  33.396  37.060  1.00  0.00    -0.014 A 
ATOM     94  C   UNL A   1      40.876  34.539  37.278  1.00  0.00     0.010 A 
ATOM     95  C   UNL A   1      38.986  33.151  37.898  1.00  0.00     0.010 A 
ATOM     96  C   UNL A   1      40.582  35.408  38.332  1.00  0.00     0.020 A 
ATOM     97  C   UNL A   1      38.673  34.030  38.938  1.00  0.00     0.020 A 
ATOM     98  C   UNL A   1      39.483  35.147  39.156  1.00  0.00     0.054 A 
BRANCH  98  99
ATOM     99  S   UNL A   1      39.091  36.314  40.488  1.00  0.00     0.124 S 
ATOM    100  O   UNL A   1      38.180  35.532  41.317  1.00  0.00    -0.237 OA
ATOM    101  O   UNL A   1      40.402  36.583  41.075  1.00  0.00    -0.237 OA
ATOM    102  O   UNL A   1      38.485  37.446  39.790  1.00  0.00    -0.744 OA
ENDBRANCH  98  99
ENDBRANCH  72  93
ENDBRANCH  46  47
ENDBRANCH  38  41
ENDBRANCH  36  37
ENDBRANCH  35  36
ENDBRANCH  34  35
ENDBRANCH   1  34
TORSDOF 19
ENDMDL
MODEL 2
REMARK VINA RESULT:     -11.3      5.332     10.748
REMARK SMILES CCc1ccccc1NC(=O)c1cc(S(=O)(=O)N2CCC[C@H](C(=O)NCCCCNC(=O)c3ccc(-c4c5nc(c(-c6ccc(S(=O)(=O)[O-])cc6)c6ccc([nH]6)c(-c6ccc(S(=O)(=O)[O-])cc6)c6nc(c(-c7ccc(S(=O)(=O)[O-])cc7)c7ccc4[nH]7)C=C6)C=C5)cc3)C2)ccc1F
REMARK SMILES IDX 26 1 25 2 23 3 24 4 22 6 18 7 19 8 93 9 20 10 21 11 15 12
REMARK SMILES IDX 16 13 17 14 14 15 12 16 13 17 96 18 95 19 97 20 94 21 10 22
REMARK SMILES IDX 9 23 11 25 8 26 3 27 4 28 5 29 7 30 6 31 2 32 1 33 27 34
REMARK SMILES IDX 28 35 29 36 30 37 31 38 32 40 33 41 34 42 92 43 35 44 91 45
REMARK SMILES IDX 36 46 37 47 38 48 85 49 39 50 90 51 84 52 86 53 40 54 89 55
REMARK SMILES IDX 83 56 82 57 41 59 71 60 52 61 70 62 53 63 56 64 69 65 87 66
REMARK SMILES IDX 54 67 55 68 68 70 88 71 57 72 42 73 43 74 51 75 44 76 50 77
REMARK SMILES IDX 45 78 46 79 47 80 48 81 49 82 72 83 73 84 81 85 74 86 80 87
REMARK SMILES IDX 75 88 76 89 77 90 78 91 79 92 58 93 59 94 67 95 60 96 66 97
REMARK SMILES IDX 61 98 62 99 63 100 64 101 65 102
REMARK H PARENT 25 5 9 24 30 39 86 58 56 69
REMARK Flexibility Score: inf
ROOT
ATOM      1  C   UNL A   1      36.067  30.693  28.868  1.00  0.00     0.116 C 
ENDROOT
BRANCH   1   2
ATOM      2  N   UNL A   1      37.511  30.791  28.849  1.00  0.00    -0.356 N 
ATOM      3  C   UNL A   1      38.454  30.501  29.775  1.00  0.00     0.224 C 
ATOM      4  O   UNL A   1      39.631  30.672  29.436  1.00  0.00    -0.275 OA
ATOM      5  H   UNL A   1      37.876  31.134  28.002  1.00  0.00     0.163 HD
BRANCH   3   6
ATOM      6  C   UNL A   1      38.162  30.012  31.193  1.00  0.00     0.093 C 
ATOM      7  N   UNL A   1      40.055  28.923  32.473  1.00  0.00    -0.197 NA
ATOM      8  C   UNL A   1      39.357  27.622  32.516  1.00  0.00     0.102 C 
ATOM      9  C   UNL A   1      39.301  30.168  32.186  1.00  0.00     0.116 C 
ATOM     10  C   UNL A   1      38.307  27.477  31.429  1.00  0.00     0.018 C 
ATOM     11  C   UNL A   1      37.410  28.690  31.282  1.00  0.00     0.016 C 
BRANCH   7  12
ATOM     12  S   UNL A   1      41.441  29.092  33.447  1.00  0.00     0.243 S 
ATOM     13  O   UNL A   1      41.484  27.963  34.347  1.00  0.00    -0.207 OA
ATOM     14  O   UNL A   1      41.482  30.457  33.929  1.00  0.00    -0.207 OA
BRANCH  12  15
ATOM     15  C   UNL A   1      42.842  28.914  32.360  1.00  0.00     0.083 A 
ATOM     16  C   UNL A   1      43.934  27.594  30.671  1.00  0.00     0.077 A 
ATOM     17  C   UNL A   1      42.839  27.803  31.513  1.00  0.00     0.038 A 
ATOM     18  C   UNL A   1      44.969  28.527  30.600  1.00  0.00     0.136 A 
ATOM     19  C   UNL A   1      44.973  29.626  31.448  1.00  0.00     0.041 A 
ATOM     20  F   UNL A   1      45.999  28.358  29.761  1.00  0.00    -0.206 F 
ATOM     21  C   UNL A   1      43.919  29.809  32.342  1.00  0.00     0.025 A 
BRANCH  16  22
ATOM     22  C   UNL A   1      44.012  26.348  29.911  1.00  0.00     0.258 C 
ATOM     23  N   UNL A   1      43.276  26.168  28.764  1.00  0.00    -0.322 N 
ATOM     24  H   UNL A   1      43.285  25.241  28.431  1.00  0.00     0.170 HD
ATOM     25  O   UNL A   1      44.725  25.447  30.345  1.00  0.00    -0.269 OA
BRANCH  23  26
ATOM     26  C   UNL A   1      42.509  27.047  27.965  1.00  0.00     0.044 A 
ATOM     27  C   UNL A   1      41.121  26.824  27.848  1.00  0.00    -0.025 A 
ATOM     28  C   UNL A   1      40.322  27.800  27.217  1.00  0.00     0.006 A 
ATOM     29  C   UNL A   1      40.886  28.940  26.648  1.00  0.00     0.000 A 
ATOM     30  C   UNL A   1      43.065  28.138  27.283  1.00  0.00     0.026 A 
ATOM     31  C   UNL A   1      42.263  29.090  26.650  1.00  0.00     0.002 A 
BRANCH  27  32
ATOM     32  C   UNL A   1      40.429  25.581  28.368  1.00  0.00     0.034 C 
ATOM     33  C   UNL A   1      39.120  25.279  27.642  1.00  0.00     0.009 C 
ENDBRANCH  27  32
ENDBRANCH  23  26
ENDBRANCH  16  22
ENDBRANCH  12  15
ENDBRANCH   7  12
ENDBRANCH   3   6
ENDBRANCH   1   2
BRANCH   1  34
ATOM     34  C   UNL A   1      35.438  31.306  27.620  1.00  0.00     0.023 C 
BRANCH  34  35
ATOM     35  C   UNL A   1      34.210  32.163  27.892  1.00  0.00     0.023 C 
BRANCH  35  36
ATOM     36  C   UNL A   1      34.514  33.617  28.227  1.00  0.00     0.116 C 
BRANCH  36  37
ATOM     37  N   UNL A   1      33.370  34.369  28.728  1.00  0.00    -0.352 N 
ATOM     38  C   UNL A   1      33.150  34.785  30.024  1.00  0.00     0.251 C 
ATOM     39  H   UNL A   1      32.678  34.607  28.069  1.00  0.00     0.163 HD
ATOM     40  O   UNL A   1      32.109  35.344  30.346  1.00  0.00    -0.269 OA
BRANCH  38  41
ATOM     41  C   UNL A   1      34.193  34.485  31.026  1.00  0.00     0.039 A 
ATOM     42  C   UNL A   1      34.753  33.208  31.056  1.00  0.00     0.014 A 
ATOM     43  C   UNL A   1      34.712  35.517  31.811  1.00  0.00     0.014 A 
ATOM     44  C   UNL A   1      35.904  32.990  31.815  1.00  0.00     0.010 A 
ATOM     45  C   UNL A   1      35.909  35.320  32.486  1.00  0.00     0.010 A 
ATOM     46  C   UNL A   1      36.521  34.056  32.492  1.00  0.00    -0.014 A 
BRANCH  46  47
ATOM     47  C   UNL A   1      37.807  33.878  33.210  1.00  0.00     0.031 A 
ATOM     48  C   UNL A   1      39.092  33.804  32.430  1.00  0.00     0.074 A 
ATOM     49  C   UNL A   1      37.815  33.701  34.547  1.00  0.00     0.049 A 
ATOM     50  N   UNL A   1      40.306  33.581  32.861  1.00  0.00    -0.248 NA
ATOM     51  C   UNL A   1      38.994  33.966  30.969  1.00  0.00     0.031 C 
ATOM     52  C   UNL A   1      36.631  33.692  35.412  1.00  0.00     0.029 A 
ATOM     53  N   UNL A   1      38.858  33.492  35.416  1.00  0.00    -0.354 N 
ATOM     54  C   UNL A   1      41.108  33.548  31.726  1.00  0.00     0.074 A 
ATOM     55  C   UNL A   1      40.236  33.717  30.585  1.00  0.00     0.031 C 
ATOM     56  C   UNL A   1      37.018  33.524  36.687  1.00  0.00     0.029 A 
ATOM     57  C   UNL A   1      38.469  33.376  36.730  1.00  0.00     0.049 A 
ATOM     58  H   UNL A   1      39.795  33.430  35.124  1.00  0.00     0.167 HD
ATOM     59  C   UNL A   1      42.452  33.415  31.639  1.00  0.00     0.031 A 
ATOM     60  C   UNL A   1      39.200  33.175  37.844  1.00  0.00     0.031 A 
ATOM     61  C   UNL A   1      43.320  33.280  32.777  1.00  0.00     0.049 A 
ATOM     62  C   UNL A   1      40.695  33.054  37.727  1.00  0.00     0.074 A 
ATOM     63  C   UNL A   1      44.701  33.213  32.802  1.00  0.00     0.029 A 
ATOM     64  N   UNL A   1      42.889  33.196  34.093  1.00  0.00    -0.354 N 
ATOM     65  N   UNL A   1      41.442  33.100  36.650  1.00  0.00    -0.248 NA
ATOM     66  C   UNL A   1      41.445  32.865  38.976  1.00  0.00     0.031 C 
ATOM     67  C   UNL A   1      45.105  33.047  34.131  1.00  0.00     0.029 A 
ATOM     68  C   UNL A   1      43.977  33.059  34.937  1.00  0.00     0.049 A 
ATOM     69  H   UNL A   1      41.949  33.227  34.382  1.00  0.00     0.167 HD
ATOM     70  C   UNL A   1      42.753  32.973  37.093  1.00  0.00     0.074 A 
ATOM     71  C   UNL A   1      42.698  32.861  38.537  1.00  0.00     0.031 C 
ATOM     72  C   UNL A   1      43.900  32.953  36.372  1.00  0.00     0.031 A 
BRANCH  59  73
ATOM     73  C   UNL A   1      43.059  33.414  30.262  1.00  0.00    -0.014 A 
ATOM     74  C   UNL A   1      43.437  34.616  29.635  1.00  0.00     0.010 A 
ATOM     75  C   UNL A   1      43.269  32.196  29.591  1.00  0.00     0.010 A 
ATOM     76  C   UNL A   1      43.965  34.603  28.342  1.00  0.00     0.020 A 
ATOM     77  C   UNL A   1      43.826  32.177  28.309  1.00  0.00     0.020 A 
ATOM     78  C   UNL A   1      44.152  33.383  27.685  1.00  0.00     0.054 A 
BRANCH  78  79
ATOM     79  S   UNL A   1      44.852  33.395  26.012  1.00  0.00     0.124 S 
ATOM     80  O   UNL A   1      45.137  34.814  25.816  1.00  0.00    -0.237 OA
ATOM     81  O   UNL A   1      46.023  32.533  26.149  1.00  0.00    -0.237 OA
ATOM     82  O   UNL A   1      43.778  32.854  25.183  1.00  0.00    -0.744 OA
ENDBRANCH  78  79
ENDBRANCH  59  73
BRANCH  60  83
ATOM     83  C   UNL A   1      38.532  33.110  39.174  1.00  0.00    -0.014 A 
ATOM     84  C   UNL A   1      38.526  34.234  40.020  1.00  0.00     0.010 A 
ATOM     85  C   UNL A   1      37.892  31.932  39.598  1.00  0.00     0.010 A 
ATOM     86  C   UNL A   1      37.908  34.176  41.272  1.00  0.00     0.020 A 
ATOM     87  C   UNL A   1      37.251  31.878  40.840  1.00  0.00     0.020 A 
ATOM     88  C   UNL A   1      37.273  32.998  41.675  1.00  0.00     0.054 A 
BRANCH  88  89
ATOM     89  S   UNL A   1      36.432  32.960  43.283  1.00  0.00     0.124 S 
ATOM     90  O   UNL A   1      35.615  31.757  43.170  1.00  0.00    -0.237 OA
ATOM     91  O   UNL A   1      37.549  32.881  44.222  1.00  0.00    -0.237 OA
ATOM     92  O   UNL A   1      35.694  34.221  43.310  1.00  0.00    -0.744 OA
ENDBRANCH  88  89
ENDBRANCH  60  83
BRANCH  72  93
ATOM     93  C   UNL A   1      45.194  32.841  37.130  1.00  0.00    -0.014 A 
ATOM     94  C   UNL A   1      45.789  31.591  37.375  1.00  0.00     0.010 A 
ATOM     95  C   UNL A   1      45.853  34.010  37.552  1.00  0.00     0.010 A 
ATOM     96  C   UNL A   1      47.008  31.510  38.052  1.00  0.00     0.020 A 
ATOM     97  C   UNL A   1      47.085  33.935  38.207  1.00  0.00     0.020 A 
ATOM     98  C   UNL A   1      47.648  32.683  38.464  1.00  0.00     0.054 A 
BRANCH  98  99
ATOM     99  S   UNL A   1      49.253  32.557  39.298  1.00  0.00     0.124 S 
ATOM    100  O   UNL A   1      50.185  32.789  38.199  1.00  0.00    -0.237 OA
ATOM    101  O   UNL A   1      49.181  33.622  40.296  1.00  0.00    -0.237 OA
ATOM    102  O   UNL A   1      49.255  31.202  39.844  1.00  0.00    -0.744 OA
ENDBRANCH  98  99
ENDBRANCH  72  93
ENDBRANCH  46  47
ENDBRANCH  38  41
ENDBRANCH  36  37
ENDBRANCH  35  36
ENDBRANCH  34  35
ENDBRANCH   1  34
TORSDOF 19
ENDMDL
MODEL 3
REMARK VINA RESULT:     -11.0      6.548     13.927
REMARK SMILES CCc1ccccc1NC(=O)c1cc(S(=O)(=O)N2CCC[C@H](C(=O)NCCCCNC(=O)c3ccc(-c4c5nc(c(-c6ccc(S(=O)(=O)[O-])cc6)c6ccc([nH]6)c(-c6ccc(S(=O)(=O)[O-])cc6)c6nc(c(-c7ccc(S(=O)(=O)[O-])cc7)c7ccc4[nH]7)C=C6)C=C5)cc3)C2)ccc1F
REMARK SMILES IDX 26 1 25 2 23 3 24 4 22 6 18 7 19 8 93 9 20 10 21 11 15 12
REMARK SMILES IDX 16 13 17 14 14 15 12 16 13 17 96 18 95 19 97 20 94 21 10 22
REMARK SMILES IDX 9 23 11 25 8 26 3 27 4 28 5 29 7 30 6 31 2 32 1 33 27 34
REMARK SMILES IDX 28 35 29 36 30 37 31 38 32 40 33 41 34 42 92 43 35 44 91 45
REMARK SMILES IDX 36 46 37 47 38 48 85 49 39 50 90 51 84 52 86 53 40 54 89 55
REMARK SMILES IDX 83 56 82 57 41 59 71 60 52 61 70 62 53 63 56 64 69 65 87 66
REMARK SMILES IDX 54 67 55 68 68 70 88 71 57 72 42 73 43 74 51 75 44 76 50 77
REMARK SMILES IDX 45 78 46 79 47 80 48 81 49 82 72 83 73 84 81 85 74 86 80 87
REMARK SMILES IDX 75 88 76 89 77 90 78 91 79 92 58 93 59 94 67 95 60 96 66 97
REMARK SMILES IDX 61 98 62 99 63 100 64 101 65 102
REMARK H PARENT 25 5 9 24 30 39 86 58 56 69
REMARK Flexibility Score: inf
ROOT
ATOM      1  C   UNL A   1      39.859  28.116  33.360  1.00  0.00     0.116 C 
ENDROOT
BRANCH   1   2
ATOM      2  N   UNL A   1      41.237  28.550  33.437  1.00  0.00    -0.356 N 
ATOM      3  C   UNL A   1      41.812  29.772  33.345  1.00  0.00     0.224 C 
ATOM      4  O   UNL A   1      43.041  29.815  33.485  1.00  0.00    -0.275 OA
ATOM      5  H   UNL A   1      41.878  27.818  33.585  1.00  0.00     0.163 HD
BRANCH   3   6
ATOM      6  C   UNL A   1      41.060  31.071  33.058  1.00  0.00     0.093 C 
ATOM      7  N   UNL A   1      42.370  33.234  33.153  1.00  0.00    -0.197 NA
ATOM      8  C   UNL A   1      41.586  33.727  34.304  1.00  0.00     0.102 C 
ATOM      9  C   UNL A   1      41.847  32.131  32.309  1.00  0.00     0.116 C 
ATOM     10  C   UNL A   1      40.911  32.612  35.083  1.00  0.00     0.018 C 
ATOM     11  C   UNL A   1      40.209  31.595  34.208  1.00  0.00     0.016 C 
BRANCH   7  12
ATOM     12  S   UNL A   1      43.399  34.348  32.381  1.00  0.00     0.243 S 
ATOM     13  O   UNL A   1      44.618  33.653  32.037  1.00  0.00    -0.207 OA
ATOM     14  O   UNL A   1      43.408  35.564  33.167  1.00  0.00    -0.207 OA
BRANCH  12  15
ATOM     15  C   UNL A   1      42.615  34.768  30.837  1.00  0.00     0.083 A 
ATOM     16  C   UNL A   1      42.879  35.618  28.603  1.00  0.00     0.077 A 
ATOM     17  C   UNL A   1      43.449  35.235  29.819  1.00  0.00     0.038 A 
ATOM     18  C   UNL A   1      41.514  35.447  28.368  1.00  0.00     0.136 A 
ATOM     19  C   UNL A   1      40.686  34.990  29.384  1.00  0.00     0.041 A 
ATOM     20  F   UNL A   1      40.967  35.768  27.188  1.00  0.00    -0.206 F 
ATOM     21  C   UNL A   1      41.233  34.669  30.626  1.00  0.00     0.025 A 
BRANCH  16  22
ATOM     22  C   UNL A   1      43.722  36.264  27.599  1.00  0.00     0.258 C 
ATOM     23  N   UNL A   1      43.850  37.632  27.551  1.00  0.00    -0.322 N 
ATOM     24  H   UNL A   1      44.308  37.957  26.742  1.00  0.00     0.170 HD
ATOM     25  O   UNL A   1      44.285  35.553  26.770  1.00  0.00    -0.269 OA
BRANCH  23  26
ATOM     26  C   UNL A   1      43.457  38.666  28.432  1.00  0.00     0.044 A 
ATOM     27  C   UNL A   1      42.333  39.450  28.101  1.00  0.00    -0.025 A 
ATOM     28  C   UNL A   1      41.821  40.349  29.059  1.00  0.00     0.006 A 
ATOM     29  C   UNL A   1      42.444  40.526  30.293  1.00  0.00     0.000 A 
ATOM     30  C   UNL A   1      44.133  38.946  29.627  1.00  0.00     0.026 A 
ATOM     31  C   UNL A   1      43.622  39.849  30.562  1.00  0.00     0.002 A 
BRANCH  27  32
ATOM     32  C   UNL A   1      41.635  39.384  26.758  1.00  0.00     0.034 C 
ATOM     33  C   UNL A   1      41.161  40.749  26.264  1.00  0.00     0.009 C 
ENDBRANCH  27  32
ENDBRANCH  23  26
ENDBRANCH  16  22
ENDBRANCH  12  15
ENDBRANCH   7  12
ENDBRANCH   3   6
ENDBRANCH   1   2
BRANCH   1  34
ATOM     34  C   UNL A   1      39.331  28.148  31.928  1.00  0.00     0.023 C 
BRANCH  34  35
ATOM     35  C   UNL A   1      37.841  28.438  31.814  1.00  0.00     0.023 C 
BRANCH  35  36
ATOM     36  C   UNL A   1      37.461  29.897  32.026  1.00  0.00     0.116 C 
BRANCH  36  37
ATOM     37  N   UNL A   1      36.480  30.407  31.076  1.00  0.00    -0.352 N 
ATOM     38  C   UNL A   1      36.701  30.769  29.765  1.00  0.00     0.251 C 
ATOM     39  H   UNL A   1      35.557  30.502  31.407  1.00  0.00     0.163 HD
ATOM     40  O   UNL A   1      35.812  31.264  29.082  1.00  0.00    -0.269 OA
BRANCH  38  41
ATOM     41  C   UNL A   1      38.064  30.593  29.226  1.00  0.00     0.039 A 
ATOM     42  C   UNL A   1      39.144  31.126  29.930  1.00  0.00     0.014 A 
ATOM     43  C   UNL A   1      38.265  29.765  28.119  1.00  0.00     0.014 A 
ATOM     44  C   UNL A   1      40.439  30.750  29.573  1.00  0.00     0.010 A 
ATOM     45  C   UNL A   1      39.548  29.320  27.829  1.00  0.00     0.010 A 
ATOM     46  C   UNL A   1      40.649  29.803  28.556  1.00  0.00    -0.014 A 
BRANCH  46  47
ATOM     47  C   UNL A   1      42.007  29.298  28.234  1.00  0.00     0.031 A 
ATOM     48  C   UNL A   1      43.163  30.259  28.164  1.00  0.00     0.074 A 
ATOM     49  C   UNL A   1      42.187  27.997  27.926  1.00  0.00     0.049 A 
ATOM     50  N   UNL A   1      44.406  30.030  27.830  1.00  0.00    -0.248 NA
ATOM     51  C   UNL A   1      42.874  31.670  28.475  1.00  0.00     0.031 C 
ATOM     52  C   UNL A   1      41.137  26.974  27.899  1.00  0.00     0.029 A 
ATOM     53  N   UNL A   1      43.323  27.311  27.572  1.00  0.00    -0.354 N 
ATOM     54  C   UNL A   1      45.038  31.268  27.863  1.00  0.00     0.074 A 
ATOM     55  C   UNL A   1      44.030  32.250  28.194  1.00  0.00     0.031 C 
ATOM     56  C   UNL A   1      41.684  25.789  27.584  1.00  0.00     0.029 A 
ATOM     57  C   UNL A   1      43.113  25.970  27.349  1.00  0.00     0.049 A 
ATOM     58  H   UNL A   1      44.204  27.740  27.485  1.00  0.00     0.167 HD
ATOM     59  C   UNL A   1      46.344  31.560  27.662  1.00  0.00     0.031 A 
ATOM     60  C   UNL A   1      43.975  24.996  26.997  1.00  0.00     0.031 A 
ATOM     61  C   UNL A   1      47.349  30.577  27.366  1.00  0.00     0.049 A 
ATOM     62  C   UNL A   1      45.427  25.340  26.802  1.00  0.00     0.074 A 
ATOM     63  C   UNL A   1      48.712  30.758  27.217  1.00  0.00     0.029 A 
ATOM     64  N   UNL A   1      47.100  29.226  27.177  1.00  0.00    -0.354 N 
ATOM     65  N   UNL A   1      46.019  26.505  26.911  1.00  0.00    -0.248 NA
ATOM     66  C   UNL A   1      46.328  24.235  26.448  1.00  0.00     0.031 C 
ATOM     67  C   UNL A   1      49.283  29.522  26.897  1.00  0.00     0.029 A 
ATOM     68  C   UNL A   1      48.282  28.564  26.895  1.00  0.00     0.049 A 
ATOM     69  H   UNL A   1      46.214  28.801  27.233  1.00  0.00     0.167 HD
ATOM     70  C   UNL A   1      47.366  26.269  26.666  1.00  0.00     0.074 A 
ATOM     71  C   UNL A   1      47.504  24.848  26.415  1.00  0.00     0.031 C 
ATOM     72  C   UNL A   1      48.398  27.148  26.652  1.00  0.00     0.031 A 
BRANCH  59  73
ATOM     73  C   UNL A   1      46.752  33.005  27.762  1.00  0.00    -0.014 A 
ATOM     74  C   UNL A   1      47.084  33.746  26.612  1.00  0.00     0.010 A 
ATOM     75  C   UNL A   1      46.790  33.636  29.018  1.00  0.00     0.010 A 
ATOM     76  C   UNL A   1      47.496  35.077  26.723  1.00  0.00     0.020 A 
ATOM     77  C   UNL A   1      47.172  34.977  29.130  1.00  0.00     0.020 A 
ATOM     78  C   UNL A   1      47.542  35.682  27.982  1.00  0.00     0.054 A 
BRANCH  78  79
ATOM     79  S   UNL A   1      48.068  37.414  28.096  1.00  0.00     0.124 S 
ATOM     80  O   UNL A   1      48.094  37.626  29.541  1.00  0.00    -0.237 OA
ATOM     81  O   UNL A   1      49.372  37.397  27.440  1.00  0.00    -0.237 OA
ATOM     82  O   UNL A   1      47.023  38.140  27.378  1.00  0.00    -0.744 OA
ENDBRANCH  78  79
ENDBRANCH  59  73
BRANCH  60  83
ATOM     83  C   UNL A   1      43.495  23.595  26.840  1.00  0.00    -0.014 A 
ATOM     84  C   UNL A   1      43.113  23.114  25.574  1.00  0.00     0.010 A 
ATOM     85  C   UNL A   1      43.425  22.732  27.948  1.00  0.00     0.010 A 
ATOM     86  C   UNL A   1      42.654  21.803  25.422  1.00  0.00     0.020 A 
ATOM     87  C   UNL A   1      42.989  21.412  27.796  1.00  0.00     0.020 A 
ATOM     88  C   UNL A   1      42.596  20.959  26.535  1.00  0.00     0.054 A 
BRANCH  88  89
ATOM     89  S   UNL A   1      42.045  19.245  26.306  1.00  0.00     0.124 S 
ATOM     90  O   UNL A   1      42.991  18.753  25.309  1.00  0.00    -0.237 OA
ATOM     91  O   UNL A   1      42.191  18.684  27.647  1.00  0.00    -0.237 OA
ATOM     92  O   UNL A   1      40.666  19.389  25.847  1.00  0.00    -0.744 OA
ENDBRANCH  88  89
ENDBRANCH  60  83
BRANCH  72  93
ATOM     93  C   UNL A   1      49.773  26.598  26.391  1.00  0.00    -0.014 A 
ATOM     94  C   UNL A   1      50.560  26.079  27.434  1.00  0.00     0.010 A 
ATOM     95  C   UNL A   1      50.259  26.545  25.072  1.00  0.00     0.010 A 
ATOM     96  C   UNL A   1      51.821  25.542  27.165  1.00  0.00     0.020 A 
ATOM     97  C   UNL A   1      51.509  25.985  24.796  1.00  0.00     0.020 A 
ATOM     98  C   UNL A   1      52.288  25.498  25.848  1.00  0.00     0.054 A 
BRANCH  98  99
ATOM     99  S   UNL A   1      53.907  24.752  25.517  1.00  0.00     0.124 S 
ATOM    100  O   UNL A   1      54.564  24.864  26.815  1.00  0.00    -0.237 OA
ATOM    101  O   UNL A   1      53.557  23.395  25.104  1.00  0.00    -0.237 OA
ATOM    102  O   UNL A   1      54.466  25.592  24.460  1.00  0.00    -0.744 OA
ENDBRANCH  98  99
ENDBRANCH  72  93
ENDBRANCH  46  47
ENDBRANCH  38  41
ENDBRANCH  36  37
ENDBRANCH  35  36
ENDBRANCH  34  35
ENDBRANCH   1  34
TORSDOF 19
ENDMDL
