MODEL 1
REMARK VINA RESULT:     -10.2      0.000      0.000
REMARK SMILES CS(=O)(=O)CC(=O)N1CCO[C@@H](CC(=O)NCCCCNC(=O)c2ccc(-c3c4nc(c(-c5ccc(S(=O)(=O)[O-])cc5)c5ccc([nH]5)c(-c5ccc(S(=O)(=O)[O-])cc5)c5nc(c(-c6ccc(S(=O)(=O)[O-])cc6)c6ccc3[nH]6)C=C5)C=C4)cc2)C1
REMARK SMILES IDX 18 1 17 2 16 3 14 4 15 5 13 7 12 8 8 9 9 10 84 11 10 12
REMARK SMILES IDX 11 13 6 14 7 15 5 16 2 17 1 18 3 19 4 20 19 21 20 22 21 23
REMARK SMILES IDX 22 24 23 26 24 27 25 28 83 29 26 30 82 31 27 32 28 33 29 34
REMARK SMILES IDX 76 35 30 36 81 37 75 38 77 39 31 40 80 41 74 42 73 43 32 45
REMARK SMILES IDX 62 46 43 47 61 48 44 49 47 50 60 51 78 52 45 53 46 54 59 56
REMARK SMILES IDX 79 57 48 58 33 59 34 60 42 61 35 62 41 63 36 64 37 65 38 66
REMARK SMILES IDX 39 67 40 68 63 69 64 70 72 71 65 72 71 73 66 74 67 75 68 76
REMARK SMILES IDX 69 77 70 78 49 79 50 80 58 81 51 82 57 83 52 84 53 85 54 86
REMARK SMILES IDX 55 87 56 88
REMARK H PARENT 16 6 21 25 77 44 47 55
REMARK Flexibility Score: inf
ROOT
ATOM      1  C   UNL A   1      34.319  26.909  25.808  1.00  0.00     0.023 C 
ENDROOT
BRANCH   1   2
ATOM      2  C   UNL A   1      33.811  25.472  25.658  1.00  0.00     0.116 C 
BRANCH   2   3
ATOM      3  N   UNL A   1      34.335  24.849  24.451  1.00  0.00    -0.356 N 
ATOM      4  C   UNL A   1      33.712  24.505  23.286  1.00  0.00     0.222 C 
ATOM      5  O   UNL A   1      34.349  23.876  22.441  1.00  0.00    -0.275 OA
ATOM      6  H   UNL A   1      35.297  24.642  24.479  1.00  0.00     0.163 HD
BRANCH   4   7
ATOM      7  C   UNL A   1      32.262  24.864  23.046  1.00  0.00     0.133 C 
BRANCH   7   8
ATOM      8  C   UNL A   1      32.087  26.205  22.324  1.00  0.00     0.147 C 
ATOM      9  N   UNL A   1      30.607  28.250  22.334  1.00  0.00    -0.337 N 
ATOM     10  C   UNL A   1      31.771  29.026  22.747  1.00  0.00     0.148 C 
ATOM     11  C   UNL A   1      30.739  26.846  22.682  1.00  0.00     0.152 C 
ATOM     12  C   UNL A   1      33.050  28.382  22.225  1.00  0.00     0.182 C 
ATOM     13  O   UNL A   1      33.184  27.049  22.742  1.00  0.00    -0.374 OA
BRANCH   9  14
ATOM     14  C   UNL A   1      29.357  28.808  22.587  1.00  0.00     0.237 C 
ATOM     15  O   UNL A   1      28.461  28.183  23.151  1.00  0.00    -0.274 OA
BRANCH  14  16
ATOM     16  C   UNL A   1      29.139  30.179  22.035  1.00  0.00     0.236 C 
BRANCH  16  17
ATOM     17  S   UNL A   1      28.620  31.305  23.294  1.00  0.00     0.156 S 
ATOM     18  C   UNL A   1      28.759  32.935  22.593  1.00  0.00     0.158 C 
ATOM     19  O   UNL A   1      29.584  31.217  24.376  1.00  0.00    -0.229 OA
ATOM     20  O   UNL A   1      27.215  31.064  23.571  1.00  0.00    -0.229 OA
ENDBRANCH  16  17
ENDBRANCH  14  16
ENDBRANCH   9  14
ENDBRANCH   7   8
ENDBRANCH   4   7
ENDBRANCH   2   3
ENDBRANCH   1   2
BRANCH   1  21
ATOM     21  C   UNL A   1      33.244  27.957  26.038  1.00  0.00     0.023 C 
BRANCH  21  22
ATOM     22  C   UNL A   1      33.190  28.485  27.457  1.00  0.00     0.116 C 
BRANCH  22  23
ATOM     23  N   UNL A   1      33.227  29.940  27.539  1.00  0.00    -0.352 N 
ATOM     24  C   UNL A   1      34.283  30.754  27.890  1.00  0.00     0.251 C 
ATOM     25  H   UNL A   1      32.387  30.403  27.315  1.00  0.00     0.163 HD
ATOM     26  O   UNL A   1      34.132  31.962  27.995  1.00  0.00    -0.269 OA
BRANCH  24  27
ATOM     27  C   UNL A   1      35.587  30.125  28.186  1.00  0.00     0.039 A 
ATOM     28  C   UNL A   1      36.573  30.111  27.198  1.00  0.00     0.014 A 
ATOM     29  C   UNL A   1      35.858  29.647  29.469  1.00  0.00     0.014 A 
ATOM     30  C   UNL A   1      37.864  29.693  27.528  1.00  0.00     0.010 A 
ATOM     31  C   UNL A   1      37.164  29.345  29.821  1.00  0.00     0.010 A 
ATOM     32  C   UNL A   1      38.179  29.351  28.852  1.00  0.00    -0.014 A 
BRANCH  32  33
ATOM     33  C   UNL A   1      39.553  28.962  29.255  1.00  0.00     0.031 A 
ATOM     34  C   UNL A   1      40.409  29.951  30.002  1.00  0.00     0.074 A 
ATOM     35  C   UNL A   1      40.058  27.771  28.880  1.00  0.00     0.049 A 
ATOM     36  N   UNL A   1      41.666  29.859  30.348  1.00  0.00    -0.248 NA
ATOM     37  C   UNL A   1      39.780  31.232  30.367  1.00  0.00     0.031 C 
ATOM     38  C   UNL A   1      39.349  26.750  28.104  1.00  0.00     0.029 A 
ATOM     39  N   UNL A   1      41.295  27.218  29.099  1.00  0.00    -0.354 N 
ATOM     40  C   UNL A   1      41.984  31.080  30.932  1.00  0.00     0.074 A 
ATOM     41  C   UNL A   1      40.809  31.915  30.840  1.00  0.00     0.031 C 
ATOM     42  C   UNL A   1      40.150  25.683  27.944  1.00  0.00     0.029 A 
ATOM     43  C   UNL A   1      41.438  25.957  28.571  1.00  0.00     0.049 A 
ATOM     44  H   UNL A   1      42.013  27.682  29.588  1.00  0.00     0.167 HD
ATOM     45  C   UNL A   1      43.141  31.463  31.521  1.00  0.00     0.031 A 
ATOM     46  C   UNL A   1      42.491  25.115  28.593  1.00  0.00     0.031 A 
ATOM     47  C   UNL A   1      44.290  30.611  31.653  1.00  0.00     0.049 A 
ATOM     48  C   UNL A   1      43.751  25.543  29.294  1.00  0.00     0.074 A 
ATOM     49  C   UNL A   1      45.488  30.873  32.294  1.00  0.00     0.029 A 
ATOM     50  N   UNL A   1      44.376  29.323  31.148  1.00  0.00    -0.354 N 
ATOM     51  N   UNL A   1      44.014  26.682  29.892  1.00  0.00    -0.248 NA
ATOM     52  C   UNL A   1      44.849  24.568  29.337  1.00  0.00     0.031 C 
ATOM     53  C   UNL A   1      46.312  29.752  32.148  1.00  0.00     0.029 A 
ATOM     54  C   UNL A   1      45.609  28.777  31.456  1.00  0.00     0.049 A 
ATOM     55  H   UNL A   1      43.666  28.864  30.644  1.00  0.00     0.167 HD
ATOM     56  C   UNL A   1      45.299  26.549  30.407  1.00  0.00     0.074 A 
ATOM     57  C   UNL A   1      45.753  25.217  30.059  1.00  0.00     0.031 C 
ATOM     58  C   UNL A   1      46.035  27.447  31.105  1.00  0.00     0.031 A 
BRANCH  45  59
ATOM     59  C   UNL A   1      43.204  32.863  32.070  1.00  0.00    -0.014 A 
ATOM     60  C   UNL A   1      43.718  33.922  31.299  1.00  0.00     0.010 A 
ATOM     61  C   UNL A   1      42.742  33.126  33.372  1.00  0.00     0.010 A 
ATOM     62  C   UNL A   1      43.824  35.205  31.840  1.00  0.00     0.020 A 
ATOM     63  C   UNL A   1      42.819  34.415  33.907  1.00  0.00     0.020 A 
ATOM     64  C   UNL A   1      43.381  35.442  33.145  1.00  0.00     0.054 A 
BRANCH  64  65
ATOM     65  S   UNL A   1      43.529  37.117  33.824  1.00  0.00     0.124 S 
ATOM     66  O   UNL A   1      44.810  37.044  34.524  1.00  0.00    -0.237 OA
ATOM     67  O   UNL A   1      43.515  37.952  32.626  1.00  0.00    -0.237 OA
ATOM     68  O   UNL A   1      42.355  37.246  34.684  1.00  0.00    -0.744 OA
ENDBRANCH  64  65
ENDBRANCH  45  59
BRANCH  46  69
ATOM     69  C   UNL A   1      42.381  23.770  27.967  1.00  0.00    -0.014 A 
ATOM     70  C   UNL A   1      42.802  23.570  26.641  1.00  0.00     0.010 A 
ATOM     71  C   UNL A   1      41.879  22.677  28.698  1.00  0.00     0.010 A 
ATOM     72  C   UNL A   1      42.708  22.306  26.050  1.00  0.00     0.020 A 
ATOM     73  C   UNL A   1      41.806  21.408  28.118  1.00  0.00     0.020 A 
ATOM     74  C   UNL A   1      42.213  21.232  26.792  1.00  0.00     0.054 A 
BRANCH  74  75
ATOM     75  S   UNL A   1      42.156  19.589  26.025  1.00  0.00     0.124 S 
ATOM     76  O   UNL A   1      40.745  19.465  25.676  1.00  0.00    -0.237 OA
ATOM     77  O   UNL A   1      43.076  19.733  24.899  1.00  0.00    -0.237 OA
ATOM     78  O   UNL A   1      42.620  18.701  27.088  1.00  0.00    -0.744 OA
ENDBRANCH  74  75
ENDBRANCH  46  69
BRANCH  58  79
ATOM     79  C   UNL A   1      47.394  27.009  31.576  1.00  0.00    -0.014 A 
ATOM     80  C   UNL A   1      47.566  26.391  32.826  1.00  0.00     0.010 A 
ATOM     81  C   UNL A   1      48.503  27.160  30.722  1.00  0.00     0.010 A 
ATOM     82  C   UNL A   1      48.832  25.956  33.227  1.00  0.00     0.020 A 
ATOM     83  C   UNL A   1      49.764  26.704  31.111  1.00  0.00     0.020 A 
ATOM     84  C   UNL A   1      49.922  26.115  32.366  1.00  0.00     0.054 A 
BRANCH  84  85
ATOM     85  S   UNL A   1      51.546  25.496  32.887  1.00  0.00     0.124 S 
ATOM     86  O   UNL A   1      51.817  24.474  31.880  1.00  0.00    -0.237 OA
ATOM     87  O   UNL A   1      52.384  26.690  32.812  1.00  0.00    -0.237 OA
ATOM     88  O   UNL A   1      51.308  24.994  34.238  1.00  0.00    -0.744 OA
ENDBRANCH  84  85
ENDBRANCH  58  79
ENDBRANCH  32  33
ENDBRANCH  24  27
ENDBRANCH  22  23
ENDBRANCH  21  22
ENDBRANCH   1  21
TORSDOF 18
ENDMDL
MODEL 2
REMARK VINA RESULT:      -9.8      2.545      8.952
REMARK SMILES CS(=O)(=O)CC(=O)N1CCO[C@@H](CC(=O)NCCCCNC(=O)c2ccc(-c3c4nc(c(-c5ccc(S(=O)(=O)[O-])cc5)c5ccc([nH]5)c(-c5ccc(S(=O)(=O)[O-])cc5)c5nc(c(-c6ccc(S(=O)(=O)[O-])cc6)c6ccc3[nH]6)C=C5)C=C4)cc2)C1
REMARK SMILES IDX 18 1 17 2 16 3 14 4 15 5 13 7 12 8 8 9 9 10 84 11 10 12
REMARK SMILES IDX 11 13 6 14 7 15 5 16 2 17 1 18 3 19 4 20 19 21 20 22 21 23
REMARK SMILES IDX 22 24 23 26 24 27 25 28 83 29 26 30 82 31 27 32 28 33 29 34
REMARK SMILES IDX 76 35 30 36 81 37 75 38 77 39 31 40 80 41 74 42 73 43 32 45
REMARK SMILES IDX 62 46 43 47 61 48 44 49 47 50 60 51 78 52 45 53 46 54 59 56
REMARK SMILES IDX 79 57 48 58 33 59 34 60 42 61 35 62 41 63 36 64 37 65 38 66
REMARK SMILES IDX 39 67 40 68 63 69 64 70 72 71 65 72 71 73 66 74 67 75 68 76
REMARK SMILES IDX 69 77 70 78 49 79 50 80 58 81 51 82 57 83 52 84 53 85 54 86
REMARK SMILES IDX 55 87 56 88
REMARK H PARENT 16 6 21 25 77 44 47 55
REMARK Flexibility Score: inf
ROOT
ATOM      1  C   UNL A   1      34.799  22.988  24.728  1.00  0.00     0.023 C 
ENDROOT
BRANCH   1   2
ATOM      2  C   UNL A   1      34.300  24.089  25.669  1.00  0.00     0.116 C 
BRANCH   2   3
ATOM      3  N   UNL A   1      33.069  23.695  26.338  1.00  0.00    -0.356 N 
ATOM      4  C   UNL A   1      31.937  24.408  26.608  1.00  0.00     0.222 C 
ATOM      5  O   UNL A   1      31.062  23.885  27.298  1.00  0.00    -0.275 OA
ATOM      6  H   UNL A   1      33.050  22.760  26.648  1.00  0.00     0.163 HD
BRANCH   4   7
ATOM      7  C   UNL A   1      31.768  25.821  26.095  1.00  0.00     0.133 C 
BRANCH   7   8
ATOM      8  C   UNL A   1      31.113  25.883  24.711  1.00  0.00     0.147 C 
ATOM      9  N   UNL A   1      30.564  27.535  22.881  1.00  0.00    -0.337 N 
ATOM     10  C   UNL A   1      31.492  26.810  22.021  1.00  0.00     0.148 C 
ATOM     11  C   UNL A   1      30.863  27.338  24.289  1.00  0.00     0.152 C 
ATOM     12  C   UNL A   1      31.565  25.344  22.434  1.00  0.00     0.182 C 
ATOM     13  O   UNL A   1      32.019  25.231  23.792  1.00  0.00    -0.374 OA
BRANCH   9  14
ATOM     14  C   UNL A   1      30.259  28.843  22.518  1.00  0.00     0.237 C 
ATOM     15  O   UNL A   1      30.770  29.390  21.542  1.00  0.00    -0.274 OA
BRANCH  14  16
ATOM     16  C   UNL A   1      29.351  29.576  23.450  1.00  0.00     0.236 C 
BRANCH  16  17
ATOM     17  S   UNL A   1      27.910  30.167  22.615  1.00  0.00     0.156 S 
ATOM     18  C   UNL A   1      27.942  31.941  22.758  1.00  0.00     0.158 C 
ATOM     19  O   UNL A   1      26.756  29.694  23.358  1.00  0.00    -0.229 OA
ATOM     20  O   UNL A   1      28.032  29.837  21.206  1.00  0.00    -0.229 OA
ENDBRANCH  16  17
ENDBRANCH  14  16
ENDBRANCH   9  14
ENDBRANCH   7   8
ENDBRANCH   4   7
ENDBRANCH   2   3
ENDBRANCH   1   2
BRANCH   1  21
ATOM     21  C   UNL A   1      36.212  23.171  24.205  1.00  0.00     0.023 C 
BRANCH  21  22
ATOM     22  C   UNL A   1      37.180  23.735  25.227  1.00  0.00     0.116 C 
BRANCH  22  23
ATOM     23  N   UNL A   1      38.243  22.807  25.596  1.00  0.00    -0.352 N 
ATOM     24  C   UNL A   1      39.363  23.047  26.363  1.00  0.00     0.251 C 
ATOM     25  H   UNL A   1      38.149  21.890  25.252  1.00  0.00     0.163 HD
ATOM     26  O   UNL A   1      40.213  22.181  26.514  1.00  0.00    -0.269 OA
BRANCH  24  27
ATOM     27  C   UNL A   1      39.536  24.389  26.955  1.00  0.00     0.039 A 
ATOM     28  C   UNL A   1      39.089  24.619  28.257  1.00  0.00     0.014 A 
ATOM     29  C   UNL A   1      40.229  25.378  26.256  1.00  0.00     0.014 A 
ATOM     30  C   UNL A   1      39.417  25.820  28.890  1.00  0.00     0.010 A 
ATOM     31  C   UNL A   1      40.651  26.517  26.925  1.00  0.00     0.010 A 
ATOM     32  C   UNL A   1      40.239  26.757  28.245  1.00  0.00    -0.014 A 
BRANCH  32  33
ATOM     33  C   UNL A   1      40.661  28.016  28.906  1.00  0.00     0.031 A 
ATOM     34  C   UNL A   1      42.045  28.112  29.491  1.00  0.00     0.074 A 
ATOM     35  C   UNL A   1      39.785  29.029  29.058  1.00  0.00     0.049 A 
ATOM     36  N   UNL A   1      42.575  29.070  30.206  1.00  0.00    -0.248 NA
ATOM     37  C   UNL A   1      42.935  26.957  29.286  1.00  0.00     0.031 C 
ATOM     38  C   UNL A   1      38.397  29.035  28.586  1.00  0.00     0.029 A 
ATOM     39  N   UNL A   1      39.934  30.253  29.659  1.00  0.00    -0.354 N 
ATOM     40  C   UNL A   1      43.839  28.616  30.564  1.00  0.00     0.074 A 
ATOM     41  C   UNL A   1      43.973  27.276  30.042  1.00  0.00     0.031 C 
ATOM     42  C   UNL A   1      37.836  30.219  28.885  1.00  0.00     0.029 A 
ATOM     43  C   UNL A   1      38.807  31.039  29.600  1.00  0.00     0.049 A 
ATOM     44  H   UNL A   1      40.769  30.542  30.093  1.00  0.00     0.167 HD
ATOM     45  C   UNL A   1      44.814  29.266  31.242  1.00  0.00     0.031 A 
ATOM     46  C   UNL A   1      38.585  32.283  30.068  1.00  0.00     0.031 A 
ATOM     47  C   UNL A   1      44.693  30.615  31.716  1.00  0.00     0.049 A 
ATOM     48  C   UNL A   1      39.698  33.005  30.776  1.00  0.00     0.074 A 
ATOM     49  C   UNL A   1      45.643  31.394  32.352  1.00  0.00     0.029 A 
ATOM     50  N   UNL A   1      43.552  31.393  31.592  1.00  0.00    -0.354 N 
ATOM     51  N   UNL A   1      40.907  32.579  31.056  1.00  0.00    -0.248 NA
ATOM     52  C   UNL A   1      39.422  34.379  31.218  1.00  0.00     0.031 C 
ATOM     53  C   UNL A   1      45.065  32.635  32.640  1.00  0.00     0.029 A 
ATOM     54  C   UNL A   1      43.770  32.642  32.144  1.00  0.00     0.049 A 
ATOM     55  H   UNL A   1      42.710  31.100  31.173  1.00  0.00     0.167 HD
ATOM     56  C   UNL A   1      41.546  33.644  31.682  1.00  0.00     0.074 A 
ATOM     57  C   UNL A   1      40.593  34.735  31.730  1.00  0.00     0.031 C 
ATOM     58  C   UNL A   1      42.808  33.713  32.173  1.00  0.00     0.031 A 
BRANCH  45  59
ATOM     59  C   UNL A   1      46.094  28.515  31.494  1.00  0.00    -0.014 A 
ATOM     60  C   UNL A   1      47.125  28.497  30.537  1.00  0.00     0.010 A 
ATOM     61  C   UNL A   1      46.270  27.818  32.703  1.00  0.00     0.010 A 
ATOM     62  C   UNL A   1      48.284  27.748  30.759  1.00  0.00     0.020 A 
ATOM     63  C   UNL A   1      47.441  27.093  32.941  1.00  0.00     0.020 A 
ATOM     64  C   UNL A   1      48.430  27.044  31.957  1.00  0.00     0.054 A 
BRANCH  64  65
ATOM     65  S   UNL A   1      49.944  26.081  32.221  1.00  0.00     0.124 S 
ATOM     66  O   UNL A   1      50.597  26.834  33.289  1.00  0.00    -0.237 OA
ATOM     67  O   UNL A   1      49.428  24.768  32.603  1.00  0.00    -0.237 OA
ATOM     68  O   UNL A   1      50.615  26.130  30.923  1.00  0.00    -0.744 OA
ENDBRANCH  64  65
ENDBRANCH  45  59
BRANCH  46  69
ATOM     69  C   UNL A   1      37.268  32.938  29.843  1.00  0.00    -0.014 A 
ATOM     70  C   UNL A   1      37.022  33.641  28.650  1.00  0.00     0.010 A 
ATOM     71  C   UNL A   1      36.245  32.843  30.804  1.00  0.00     0.010 A 
ATOM     72  C   UNL A   1      35.783  34.252  28.430  1.00  0.00     0.020 A 
ATOM     73  C   UNL A   1      34.998  33.432  30.576  1.00  0.00     0.020 A 
ATOM     74  C   UNL A   1      34.778  34.142  29.393  1.00  0.00     0.054 A 
BRANCH  74  75
ATOM     75  S   UNL A   1      33.159  34.891  29.060  1.00  0.00     0.124 S 
ATOM     76  O   UNL A   1      32.620  34.004  28.035  1.00  0.00    -0.237 OA
ATOM     77  O   UNL A   1      32.504  34.822  30.365  1.00  0.00    -0.237 OA
ATOM     78  O   UNL A   1      33.494  36.240  28.612  1.00  0.00    -0.744 OA
ENDBRANCH  74  75
ENDBRANCH  46  69
BRANCH  58  79
ATOM     79  C   UNL A   1      43.247  35.022  32.767  1.00  0.00    -0.014 A 
ATOM     80  C   UNL A   1      43.905  35.990  31.989  1.00  0.00     0.010 A 
ATOM     81  C   UNL A   1      42.935  35.311  34.109  1.00  0.00     0.010 A 
ATOM     82  C   UNL A   1      44.270  37.216  32.552  1.00  0.00     0.020 A 
ATOM     83  C   UNL A   1      43.276  36.545  34.667  1.00  0.00     0.020 A 
ATOM     84  C   UNL A   1      43.951  37.485  33.887  1.00  0.00     0.054 A 
BRANCH  84  85
ATOM     85  S   UNL A   1      44.388  39.103  34.581  1.00  0.00     0.124 S 
ATOM     86  O   UNL A   1      43.279  39.937  34.126  1.00  0.00    -0.237 OA
ATOM     87  O   UNL A   1      44.426  38.837  36.018  1.00  0.00    -0.237 OA
ATOM     88  O   UNL A   1      45.683  39.401  33.976  1.00  0.00    -0.744 OA
ENDBRANCH  84  85
ENDBRANCH  58  79
ENDBRANCH  32  33
ENDBRANCH  24  27
ENDBRANCH  22  23
ENDBRANCH  21  22
ENDBRANCH   1  21
TORSDOF 18
ENDMDL
MODEL 3
REMARK VINA RESULT:      -9.7      2.815      9.145
REMARK SMILES CS(=O)(=O)CC(=O)N1CCO[C@@H](CC(=O)NCCCCNC(=O)c2ccc(-c3c4nc(c(-c5ccc(S(=O)(=O)[O-])cc5)c5ccc([nH]5)c(-c5ccc(S(=O)(=O)[O-])cc5)c5nc(c(-c6ccc(S(=O)(=O)[O-])cc6)c6ccc3[nH]6)C=C5)C=C4)cc2)C1
REMARK SMILES IDX 18 1 17 2 16 3 14 4 15 5 13 7 12 8 8 9 9 10 84 11 10 12
REMARK SMILES IDX 11 13 6 14 7 15 5 16 2 17 1 18 3 19 4 20 19 21 20 22 21 23
REMARK SMILES IDX 22 24 23 26 24 27 25 28 83 29 26 30 82 31 27 32 28 33 29 34
REMARK SMILES IDX 76 35 30 36 81 37 75 38 77 39 31 40 80 41 74 42 73 43 32 45
REMARK SMILES IDX 62 46 43 47 61 48 44 49 47 50 60 51 78 52 45 53 46 54 59 56
REMARK SMILES IDX 79 57 48 58 33 59 34 60 42 61 35 62 41 63 36 64 37 65 38 66
REMARK SMILES IDX 39 67 40 68 63 69 64 70 72 71 65 72 71 73 66 74 67 75 68 76
REMARK SMILES IDX 69 77 70 78 49 79 50 80 58 81 51 82 57 83 52 84 53 85 54 86
REMARK SMILES IDX 55 87 56 88
REMARK H PARENT 16 6 21 25 77 44 47 55
REMARK Flexibility Score: inf
ROOT
ATOM      1  C   UNL A   1      35.796  21.666  24.484  1.00  0.00     0.023 C 
ENDROOT
BRANCH   1   2
ATOM      2  C   UNL A   1      35.011  21.339  25.758  1.00  0.00     0.116 C 
BRANCH   2   3
ATOM      3  N   UNL A   1      34.083  20.239  25.540  1.00  0.00    -0.356 N 
ATOM      4  C   UNL A   1      32.720  20.224  25.477  1.00  0.00     0.222 C 
ATOM      5  O   UNL A   1      32.145  19.139  25.398  1.00  0.00    -0.275 OA
ATOM      6  H   UNL A   1      34.509  19.359  25.418  1.00  0.00     0.163 HD
BRANCH   4   7
ATOM      7  C   UNL A   1      31.927  21.512  25.530  1.00  0.00     0.133 C 
BRANCH   7   8
ATOM      8  C   UNL A   1      31.727  22.151  24.152  1.00  0.00     0.147 C 
ATOM      9  N   UNL A   1      32.533  24.104  22.768  1.00  0.00    -0.337 N 
ATOM     10  C   UNL A   1      33.120  23.140  21.845  1.00  0.00     0.148 C 
ATOM     11  C   UNL A   1      32.364  23.547  24.099  1.00  0.00     0.152 C 
ATOM     12  C   UNL A   1      32.333  21.834  21.869  1.00  0.00     0.182 C 
ATOM     13  O   UNL A   1      32.346  21.269  23.189  1.00  0.00    -0.374 OA
BRANCH   9  14
ATOM     14  C   UNL A   1      33.036  25.401  22.728  1.00  0.00     0.237 C 
ATOM     15  O   UNL A   1      33.959  25.725  21.983  1.00  0.00    -0.274 OA
BRANCH  14  16
ATOM     16  C   UNL A   1      32.452  26.349  23.724  1.00  0.00     0.236 C 
BRANCH  16  17
ATOM     17  S   UNL A   1      30.968  27.090  23.114  1.00  0.00     0.156 S 
ATOM     18  C   UNL A   1      31.093  28.829  23.475  1.00  0.00     0.158 C 
ATOM     19  O   UNL A   1      29.869  26.564  23.903  1.00  0.00    -0.229 OA
ATOM     20  O   UNL A   1      30.943  26.941  21.670  1.00  0.00    -0.229 OA
ENDBRANCH  16  17
ENDBRANCH  14  16
ENDBRANCH   9  14
ENDBRANCH   7   8
ENDBRANCH   4   7
ENDBRANCH   2   3
ENDBRANCH   1   2
BRANCH   1  21
ATOM     21  C   UNL A   1      36.096  23.138  24.265  1.00  0.00     0.023 C 
BRANCH  21  22
ATOM     22  C   UNL A   1      37.129  23.706  25.219  1.00  0.00     0.116 C 
BRANCH  22  23
ATOM     23  N   UNL A   1      38.194  22.767  25.550  1.00  0.00    -0.352 N 
ATOM     24  C   UNL A   1      39.338  22.991  26.285  1.00  0.00     0.251 C 
ATOM     25  H   UNL A   1      38.081  21.852  25.204  1.00  0.00     0.163 HD
ATOM     26  O   UNL A   1      40.184  22.117  26.406  1.00  0.00    -0.269 OA
BRANCH  24  27
ATOM     27  C   UNL A   1      39.541  24.328  26.880  1.00  0.00     0.039 A 
ATOM     28  C   UNL A   1      39.171  24.543  28.208  1.00  0.00     0.014 A 
ATOM     29  C   UNL A   1      40.188  25.327  26.151  1.00  0.00     0.014 A 
ATOM     30  C   UNL A   1      39.531  25.739  28.833  1.00  0.00     0.010 A 
ATOM     31  C   UNL A   1      40.645  26.460  26.806  1.00  0.00     0.010 A 
ATOM     32  C   UNL A   1      40.310  26.686  28.150  1.00  0.00    -0.014 A 
BRANCH  32  33
ATOM     33  C   UNL A   1      40.766  27.940  28.799  1.00  0.00     0.031 A 
ATOM     34  C   UNL A   1      42.169  28.021  29.339  1.00  0.00     0.074 A 
ATOM     35  C   UNL A   1      39.906  28.961  28.980  1.00  0.00     0.049 A 
ATOM     36  N   UNL A   1      42.732  28.973  30.036  1.00  0.00    -0.248 NA
ATOM     37  C   UNL A   1      43.041  26.857  29.103  1.00  0.00     0.031 C 
ATOM     38  C   UNL A   1      38.504  28.981  28.554  1.00  0.00     0.029 A 
ATOM     39  N   UNL A   1      40.086  30.183  29.577  1.00  0.00    -0.354 N 
ATOM     40  C   UNL A   1      44.002  28.506  30.353  1.00  0.00     0.074 A 
ATOM     41  C   UNL A   1      44.106  27.165  29.825  1.00  0.00     0.031 C 
ATOM     42  C   UNL A   1      37.964  30.170  28.871  1.00  0.00     0.029 A 
ATOM     43  C   UNL A   1      38.966  30.980  29.555  1.00  0.00     0.049 A 
ATOM     44  H   UNL A   1      40.938  30.463  29.984  1.00  0.00     0.167 HD
ATOM     45  C   UNL A   1      45.005  29.145  30.999  1.00  0.00     0.031 A 
ATOM     46  C   UNL A   1      38.772  32.226  30.031  1.00  0.00     0.031 A 
ATOM     47  C   UNL A   1      44.913  30.495  31.478  1.00  0.00     0.049 A 
ATOM     48  C   UNL A   1      39.914  32.936  30.703  1.00  0.00     0.074 A 
ATOM     49  C   UNL A   1      45.892  31.264  32.083  1.00  0.00     0.029 A 
ATOM     50  N   UNL A   1      43.777  31.285  31.392  1.00  0.00    -0.354 N 
ATOM     51  N   UNL A   1      41.128  32.498  30.943  1.00  0.00    -0.248 NA
ATOM     52  C   UNL A   1      39.667  34.312  31.155  1.00  0.00     0.031 C 
ATOM     53  C   UNL A   1      45.336  32.510  32.391  1.00  0.00     0.029 A 
ATOM     54  C   UNL A   1      44.025  32.531  31.938  1.00  0.00     0.049 A 
ATOM     55  H   UNL A   1      42.919  31.001  31.001  1.00  0.00     0.167 HD
ATOM     56  C   UNL A   1      41.797  33.556  31.549  1.00  0.00     0.074 A 
ATOM     57  C   UNL A   1      40.857  34.655  31.629  1.00  0.00     0.031 C 
ATOM     58  C   UNL A   1      43.075  33.612  31.998  1.00  0.00     0.031 A 
BRANCH  45  59
ATOM     59  C   UNL A   1      46.285  28.381  31.209  1.00  0.00    -0.014 A 
ATOM     60  C   UNL A   1      46.480  27.593  32.358  1.00  0.00     0.010 A 
ATOM     61  C   UNL A   1      47.308  28.452  30.245  1.00  0.00     0.010 A 
ATOM     62  C   UNL A   1      47.695  26.936  32.568  1.00  0.00     0.020 A 
ATOM     63  C   UNL A   1      48.514  27.771  30.438  1.00  0.00     0.020 A 
ATOM     64  C   UNL A   1      48.707  27.036  31.610  1.00  0.00     0.054 A 
BRANCH  64  65
ATOM     65  S   UNL A   1      50.275  26.174  31.908  1.00  0.00     0.124 S 
ATOM     66  O   UNL A   1      51.072  26.597  30.759  1.00  0.00    -0.237 OA
ATOM     67  O   UNL A   1      50.698  26.711  33.198  1.00  0.00    -0.237 OA
ATOM     68  O   UNL A   1      49.896  24.763  31.918  1.00  0.00    -0.744 OA
ENDBRANCH  64  65
ENDBRANCH  45  59
BRANCH  46  69
ATOM     69  C   UNL A   1      37.455  32.894  29.849  1.00  0.00    -0.014 A 
ATOM     70  C   UNL A   1      37.156  33.554  28.645  1.00  0.00     0.010 A 
ATOM     71  C   UNL A   1      36.483  32.854  30.866  1.00  0.00     0.010 A 
ATOM     72  C   UNL A   1      35.917  34.178  28.466  1.00  0.00     0.020 A 
ATOM     73  C   UNL A   1      35.235  33.455  30.681  1.00  0.00     0.020 A 
ATOM     74  C   UNL A   1      34.963  34.122  29.484  1.00  0.00     0.054 A 
BRANCH  74  75
ATOM     75  S   UNL A   1      33.340  34.886  29.207  1.00  0.00     0.124 S 
ATOM     76  O   UNL A   1      32.743  33.982  28.229  1.00  0.00    -0.237 OA
ATOM     77  O   UNL A   1      32.745  34.857  30.541  1.00  0.00    -0.237 OA
ATOM     78  O   UNL A   1      33.672  36.219  28.711  1.00  0.00    -0.744 OA
ENDBRANCH  74  75
ENDBRANCH  46  69
BRANCH  58  79
ATOM     79  C   UNL A   1      43.546  34.916  32.579  1.00  0.00    -0.014 A 
ATOM     80  C   UNL A   1      44.122  35.908  31.768  1.00  0.00     0.010 A 
ATOM     81  C   UNL A   1      43.348  35.174  33.949  1.00  0.00     0.010 A 
ATOM     82  C   UNL A   1      44.517  37.128  32.322  1.00  0.00     0.020 A 
ATOM     83  C   UNL A   1      43.719  36.402  34.500  1.00  0.00     0.020 A 
ATOM     84  C   UNL A   1      44.312  37.367  33.685  1.00  0.00     0.054 A 
BRANCH  84  85
ATOM     85  S   UNL A   1      44.785  38.977  34.371  1.00  0.00     0.124 S 
ATOM     86  O   UNL A   1      45.657  39.507  33.327  1.00  0.00    -0.237 OA
ATOM     87  O   UNL A   1      43.499  39.654  34.520  1.00  0.00    -0.237 OA
ATOM     88  O   UNL A   1      45.450  38.636  35.626  1.00  0.00    -0.744 OA
ENDBRANCH  84  85
ENDBRANCH  58  79
ENDBRANCH  32  33
ENDBRANCH  24  27
ENDBRANCH  22  23
ENDBRANCH  21  22
ENDBRANCH   1  21
TORSDOF 18
ENDMDL
