MODEL 1
REMARK VINA RESULT:     -11.3      0.000      0.000
REMARK SMILES CC[NH+]1CC[NH+]([C@@H]2CC(=O)N(c3ccc(C(=O)NCCCCNC(=O)c4ccc(-c5c6nc(c(-c7ccc(S(=O)(=O)[O-])cc7)c7ccc([nH]7)c(-c7ccc(S(=O)(=O)[O-])cc7)c7nc(c(-c8ccc(S(=O)(=O)[O-])cc8)c8ccc5[nH]8)C=C7)C=C6)cc4)cc3)C2=O)CC1
REMARK SMILES IDX 20 1 19 2 18 3 16 4 17 5 15 7 12 8 13 9 87 10 14 11 86 12
REMARK SMILES IDX 11 13 7 14 8 15 88 16 9 17 89 18 10 19 6 20 3 21 4 22 91 23
REMARK SMILES IDX 5 25 90 26 2 28 1 29 21 30 22 31 23 32 24 33 25 35 26 36
REMARK SMILES IDX 27 37 85 38 28 39 84 40 29 41 30 42 31 43 78 44 32 45 83 46
REMARK SMILES IDX 77 47 79 48 33 49 82 50 76 51 75 52 34 54 64 55 45 56 63 57
REMARK SMILES IDX 46 58 49 59 62 60 80 61 47 62 48 63 61 65 81 66 50 67 35 68
REMARK SMILES IDX 36 69 44 70 37 71 43 72 38 73 39 74 40 75 41 76 42 77 65 78
REMARK SMILES IDX 66 79 74 80 67 81 73 82 68 83 69 84 70 85 71 86 72 87 51 88
REMARK SMILES IDX 52 89 60 90 53 91 59 92 54 93 55 94 56 95 57 96 58 97
REMARK H PARENT 18 6 3 24 6 27 23 34 79 53 49 64
REMARK Flexibility Score: inf
ROOT
ATOM      1  C   UNL A   1      35.836  21.313  25.766  1.00  0.00     0.023 C 
ENDROOT
BRANCH   1   2
ATOM      2  C   UNL A   1      35.617  20.146  24.799  1.00  0.00     0.116 C 
BRANCH   2   3
ATOM      3  N   UNL A   1      34.424  19.402  25.149  1.00  0.00    -0.352 N 
ATOM      4  C   UNL A   1      33.131  19.793  25.384  1.00  0.00     0.251 C 
ATOM      5  O   UNL A   1      32.310  18.906  25.626  1.00  0.00    -0.269 OA
ATOM      6  H   UNL A   1      34.569  18.433  25.236  1.00  0.00     0.163 HD
BRANCH   4   7
ATOM      7  C   UNL A   1      32.660  21.211  25.327  1.00  0.00     0.039 A 
ATOM      8  C   UNL A   1      31.773  23.880  25.012  1.00  0.00     0.052 A 
ATOM      9  C   UNL A   1      31.753  22.994  23.929  1.00  0.00     0.027 A 
ATOM     10  C   UNL A   1      32.202  23.416  26.252  1.00  0.00     0.027 A 
ATOM     11  C   UNL A   1      32.222  21.684  24.080  1.00  0.00     0.016 A 
ATOM     12  C   UNL A   1      32.592  22.085  26.413  1.00  0.00     0.016 A 
BRANCH   8  13
ATOM     13  N   UNL A   1      31.388  25.224  24.852  1.00  0.00    -0.245 N 
ATOM     14  C   UNL A   1      31.476  27.493  24.264  1.00  0.00     0.285 C 
ATOM     15  C   UNL A   1      30.287  27.257  25.186  1.00  0.00     0.176 C 
ATOM     16  C   UNL A   1      32.003  26.092  23.984  1.00  0.00     0.292 C 
ATOM     17  C   UNL A   1      30.366  25.809  25.554  1.00  0.00     0.240 C 
ATOM     18  O   UNL A   1      32.840  25.826  23.130  1.00  0.00    -0.267 OA
ATOM     19  O   UNL A   1      29.621  25.300  26.381  1.00  0.00    -0.274 OA
BRANCH  14  20
ATOM     20  N   UNL A   1      32.569  28.381  24.698  1.00  0.00    -0.315 N 
ATOM     21  N   UNL A   1      32.704  29.829  27.325  1.00  0.00    -0.326 N 
ATOM     22  C   UNL A   1      31.830  30.298  26.231  1.00  0.00     0.324 C 
ATOM     23  C   UNL A   1      32.933  28.386  27.207  1.00  0.00     0.324 C 
ATOM     24  H   UNL A   1      32.237  29.931  28.226  1.00  0.00     0.348 HD
ATOM     25  C   UNL A   1      32.228  29.804  24.816  1.00  0.00     0.325 C 
ATOM     26  C   UNL A   1      33.406  27.929  25.816  1.00  0.00     0.325 C 
ATOM     27  H   UNL A   1      33.170  28.293  23.878  1.00  0.00     0.349 HD
BRANCH  21  28
ATOM     28  C   UNL A   1      33.883  30.690  27.494  1.00  0.00     0.259 C 
ATOM     29  C   UNL A   1      35.133  30.136  28.175  1.00  0.00     0.071 C 
ENDBRANCH  21  28
ENDBRANCH  14  20
ENDBRANCH   8  13
ENDBRANCH   4   7
ENDBRANCH   2   3
ENDBRANCH   1   2
BRANCH   1  30
ATOM     30  C   UNL A   1      35.960  22.678  25.088  1.00  0.00     0.023 C 
BRANCH  30  31
ATOM     31  C   UNL A   1      37.259  23.418  25.379  1.00  0.00     0.116 C 
BRANCH  31  32
ATOM     32  N   UNL A   1      38.386  22.531  25.625  1.00  0.00    -0.352 N 
ATOM     33  C   UNL A   1      39.572  22.823  26.257  1.00  0.00     0.251 C 
ATOM     34  H   UNL A   1      38.287  21.606  25.301  1.00  0.00     0.163 HD
ATOM     35  O   UNL A   1      40.473  21.997  26.305  1.00  0.00    -0.269 OA
BRANCH  33  36
ATOM     36  C   UNL A   1      39.755  24.173  26.827  1.00  0.00     0.039 A 
ATOM     37  C   UNL A   1      39.313  24.415  28.129  1.00  0.00     0.014 A 
ATOM     38  C   UNL A   1      40.425  25.163  26.105  1.00  0.00     0.014 A 
ATOM     39  C   UNL A   1      39.617  25.633  28.739  1.00  0.00     0.010 A 
ATOM     40  C   UNL A   1      40.780  26.351  26.736  1.00  0.00     0.010 A 
ATOM     41  C   UNL A   1      40.391  26.590  28.063  1.00  0.00    -0.014 A 
BRANCH  41  42
ATOM     42  C   UNL A   1      40.839  27.830  28.739  1.00  0.00     0.031 A 
ATOM     43  C   UNL A   1      42.209  27.909  29.347  1.00  0.00     0.074 A 
ATOM     44  C   UNL A   1      39.976  28.857  28.873  1.00  0.00     0.049 A 
ATOM     45  N   UNL A   1      42.751  28.883  30.031  1.00  0.00    -0.248 NA
ATOM     46  C   UNL A   1      43.078  26.732  29.185  1.00  0.00     0.031 C 
ATOM     47  C   UNL A   1      38.600  28.880  28.368  1.00  0.00     0.029 A 
ATOM     48  N   UNL A   1      40.123  30.077  29.484  1.00  0.00    -0.354 N 
ATOM     49  C   UNL A   1      44.014  28.433  30.395  1.00  0.00     0.074 A 
ATOM     50  C   UNL A   1      44.144  27.083  29.890  1.00  0.00     0.031 C 
ATOM     51  C   UNL A   1      38.038  30.061  28.673  1.00  0.00     0.029 A 
ATOM     52  C   UNL A   1      38.998  30.864  29.423  1.00  0.00     0.049 A 
ATOM     53  H   UNL A   1      40.957  30.360  29.924  1.00  0.00     0.167 HD
ATOM     54  C   UNL A   1      44.984  29.090  31.074  1.00  0.00     0.031 A 
ATOM     55  C   UNL A   1      38.761  32.092  29.924  1.00  0.00     0.031 A 
ATOM     56  C   UNL A   1      44.855  30.436  31.566  1.00  0.00     0.049 A 
ATOM     57  C   UNL A   1      39.853  32.800  30.674  1.00  0.00     0.074 A 
ATOM     58  C   UNL A   1      45.802  31.211  32.210  1.00  0.00     0.029 A 
ATOM     59  N   UNL A   1      43.705  31.206  31.472  1.00  0.00    -0.354 N 
ATOM     60  N   UNL A   1      41.067  32.384  30.947  1.00  0.00    -0.248 NA
ATOM     61  C   UNL A   1      39.547  34.146  31.178  1.00  0.00     0.031 C 
ATOM     62  C   UNL A   1      45.212  32.434  32.546  1.00  0.00     0.029 A 
ATOM     63  C   UNL A   1      43.911  32.439  32.068  1.00  0.00     0.049 A 
ATOM     64  H   UNL A   1      42.866  30.918  31.045  1.00  0.00     0.167 HD
ATOM     65  C   UNL A   1      41.675  33.425  31.638  1.00  0.00     0.074 A 
ATOM     66  C   UNL A   1      40.702  34.495  31.727  1.00  0.00     0.031 C 
ATOM     67  C   UNL A   1      42.928  33.489  32.154  1.00  0.00     0.031 A 
BRANCH  54  68
ATOM     68  C   UNL A   1      46.273  28.356  31.325  1.00  0.00    -0.014 A 
ATOM     69  C   UNL A   1      46.485  27.658  32.528  1.00  0.00     0.010 A 
ATOM     70  C   UNL A   1      47.270  28.334  30.335  1.00  0.00     0.010 A 
ATOM     71  C   UNL A   1      47.688  26.985  32.753  1.00  0.00     0.020 A 
ATOM     72  C   UNL A   1      48.466  27.641  30.546  1.00  0.00     0.020 A 
ATOM     73  C   UNL A   1      48.673  26.985  31.762  1.00  0.00     0.054 A 
BRANCH  73  74
ATOM     74  S   UNL A   1      50.219  26.087  32.071  1.00  0.00     0.124 S 
ATOM     75  O   UNL A   1      51.166  27.181  32.271  1.00  0.00    -0.237 OA
ATOM     76  O   UNL A   1      49.904  25.304  33.263  1.00  0.00    -0.237 OA
ATOM     77  O   UNL A   1      50.417  25.307  30.852  1.00  0.00    -0.744 OA
ENDBRANCH  73  74
ENDBRANCH  54  68
BRANCH  55  78
ATOM     78  C   UNL A   1      37.436  32.733  29.717  1.00  0.00    -0.014 A 
ATOM     79  C   UNL A   1      36.472  32.721  30.741  1.00  0.00     0.010 A 
ATOM     80  C   UNL A   1      37.138  33.376  28.502  1.00  0.00     0.010 A 
ATOM     81  C   UNL A   1      35.228  33.329  30.548  1.00  0.00     0.020 A 
ATOM     82  C   UNL A   1      35.904  34.006  28.315  1.00  0.00     0.020 A 
ATOM     83  C   UNL A   1      34.952  33.970  29.337  1.00  0.00     0.054 A 
BRANCH  83  84
ATOM     84  S   UNL A   1      33.354  34.802  29.130  1.00  0.00     0.124 S 
ATOM     85  O   UNL A   1      32.683  33.937  28.165  1.00  0.00    -0.237 OA
ATOM     86  O   UNL A   1      32.807  34.784  30.485  1.00  0.00    -0.237 OA
ATOM     87  O   UNL A   1      33.722  36.127  28.635  1.00  0.00    -0.744 OA
ENDBRANCH  83  84
ENDBRANCH  55  78
BRANCH  67  88
ATOM     88  C   UNL A   1      43.324  34.765  32.844  1.00  0.00    -0.014 A 
ATOM     89  C   UNL A   1      43.901  35.828  32.126  1.00  0.00     0.010 A 
ATOM     90  C   UNL A   1      43.072  34.920  34.219  1.00  0.00     0.010 A 
ATOM     91  C   UNL A   1      44.245  37.014  32.778  1.00  0.00     0.020 A 
ATOM     92  C   UNL A   1      43.392  36.115  34.869  1.00  0.00     0.020 A 
ATOM     93  C   UNL A   1      43.990  37.149  34.147  1.00  0.00     0.054 A 
BRANCH  93  94
ATOM     94  S   UNL A   1      44.406  38.714  34.963  1.00  0.00     0.124 S 
ATOM     95  O   UNL A   1      45.810  38.882  34.600  1.00  0.00    -0.237 OA
ATOM     96  O   UNL A   1      43.478  39.658  34.344  1.00  0.00    -0.237 OA
ATOM     97  O   UNL A   1      44.156  38.444  36.378  1.00  0.00    -0.744 OA
ENDBRANCH  93  94
ENDBRANCH  67  88
ENDBRANCH  41  42
ENDBRANCH  33  36
ENDBRANCH  31  32
ENDBRANCH  30  31
ENDBRANCH   1  30
TORSDOF 17
ENDMDL
MODEL 2
REMARK VINA RESULT:     -11.3      3.423      8.727
REMARK SMILES CC[NH+]1CC[NH+]([C@@H]2CC(=O)N(c3ccc(C(=O)NCCCCNC(=O)c4ccc(-c5c6nc(c(-c7ccc(S(=O)(=O)[O-])cc7)c7ccc([nH]7)c(-c7ccc(S(=O)(=O)[O-])cc7)c7nc(c(-c8ccc(S(=O)(=O)[O-])cc8)c8ccc5[nH]8)C=C7)C=C6)cc4)cc3)C2=O)CC1
REMARK SMILES IDX 20 1 19 2 18 3 16 4 17 5 15 7 12 8 13 9 87 10 14 11 86 12
REMARK SMILES IDX 11 13 7 14 8 15 88 16 9 17 89 18 10 19 6 20 3 21 4 22 91 23
REMARK SMILES IDX 5 25 90 26 2 28 1 29 21 30 22 31 23 32 24 33 25 35 26 36
REMARK SMILES IDX 27 37 85 38 28 39 84 40 29 41 30 42 31 43 78 44 32 45 83 46
REMARK SMILES IDX 77 47 79 48 33 49 82 50 76 51 75 52 34 54 64 55 45 56 63 57
REMARK SMILES IDX 46 58 49 59 62 60 80 61 47 62 48 63 61 65 81 66 50 67 35 68
REMARK SMILES IDX 36 69 44 70 37 71 43 72 38 73 39 74 40 75 41 76 42 77 65 78
REMARK SMILES IDX 66 79 74 80 67 81 73 82 68 83 69 84 70 85 71 86 72 87 51 88
REMARK SMILES IDX 52 89 60 90 53 91 59 92 54 93 55 94 56 95 57 96 58 97
REMARK H PARENT 18 6 3 24 6 27 23 34 79 53 49 64
REMARK Flexibility Score: inf
ROOT
ATOM      1  C   UNL A   1      39.561  21.373  26.387  1.00  0.00     0.023 C 
ENDROOT
BRANCH   1   2
ATOM      2  C   UNL A   1      38.331  21.895  25.638  1.00  0.00     0.116 C 
BRANCH   2   3
ATOM      3  N   UNL A   1      37.433  20.808  25.301  1.00  0.00    -0.352 N 
ATOM      4  C   UNL A   1      36.079  20.763  25.095  1.00  0.00     0.251 C 
ATOM      5  O   UNL A   1      35.594  19.676  24.774  1.00  0.00    -0.269 OA
ATOM      6  H   UNL A   1      37.881  19.937  25.203  1.00  0.00     0.163 HD
BRANCH   4   7
ATOM      7  C   UNL A   1      35.174  21.949  25.199  1.00  0.00     0.039 A 
ATOM      8  C   UNL A   1      33.418  24.169  25.194  1.00  0.00     0.052 A 
ATOM      9  C   UNL A   1      33.408  23.255  24.134  1.00  0.00     0.027 A 
ATOM     10  C   UNL A   1      34.280  23.948  26.264  1.00  0.00     0.027 A 
ATOM     11  C   UNL A   1      34.299  22.176  24.124  1.00  0.00     0.016 A 
ATOM     12  C   UNL A   1      35.110  22.824  26.283  1.00  0.00     0.016 A 
BRANCH   8  13
ATOM     13  N   UNL A   1      32.590  25.306  25.174  1.00  0.00    -0.245 N 
ATOM     14  C   UNL A   1      31.808  27.463  24.683  1.00  0.00     0.285 C 
ATOM     15  C   UNL A   1      30.974  26.868  25.810  1.00  0.00     0.176 C 
ATOM     16  C   UNL A   1      32.698  26.308  24.241  1.00  0.00     0.292 C 
ATOM     17  C   UNL A   1      31.596  25.537  26.089  1.00  0.00     0.240 C 
ATOM     18  O   UNL A   1      33.386  26.313  23.227  1.00  0.00    -0.267 OA
ATOM     19  O   UNL A   1      31.242  24.829  27.023  1.00  0.00    -0.274 OA
BRANCH  14  20
ATOM     20  N   UNL A   1      32.612  28.671  24.931  1.00  0.00    -0.315 N 
ATOM     21  N   UNL A   1      33.108  29.917  27.618  1.00  0.00    -0.326 N 
ATOM     22  C   UNL A   1      31.818  30.081  26.920  1.00  0.00     0.324 C 
ATOM     23  C   UNL A   1      33.760  28.675  27.192  1.00  0.00     0.324 C 
ATOM     24  H   UNL A   1      32.960  29.785  28.619  1.00  0.00     0.348 HD
ATOM     25  C   UNL A   1      31.869  29.852  25.387  1.00  0.00     0.325 C 
ATOM     26  C   UNL A   1      33.873  28.507  25.667  1.00  0.00     0.325 C 
ATOM     27  H   UNL A   1      32.901  28.861  23.971  1.00  0.00     0.349 HD
BRANCH  21  28
ATOM     28  C   UNL A   1      33.911  31.147  27.589  1.00  0.00     0.259 C 
ATOM     29  C   UNL A   1      35.421  31.072  27.802  1.00  0.00     0.071 C 
ENDBRANCH  21  28
ENDBRANCH  14  20
ENDBRANCH   8  13
ENDBRANCH   4   7
ENDBRANCH   2   3
ENDBRANCH   1   2
BRANCH   1  30
ATOM     30  C   UNL A   1      40.454  22.469  26.969  1.00  0.00     0.023 C 
BRANCH  30  31
ATOM     31  C   UNL A   1      39.903  23.883  26.827  1.00  0.00     0.116 C 
BRANCH  31  32
ATOM     32  N   UNL A   1      40.609  24.681  25.836  1.00  0.00    -0.352 N 
ATOM     33  C   UNL A   1      41.176  25.923  25.996  1.00  0.00     0.251 C 
ATOM     34  H   UNL A   1      40.691  24.282  24.939  1.00  0.00     0.163 HD
ATOM     35  O   UNL A   1      41.655  26.518  25.041  1.00  0.00    -0.269 OA
BRANCH  33  36
ATOM     36  C   UNL A   1      41.146  26.546  27.336  1.00  0.00     0.039 A 
ATOM     37  C   UNL A   1      42.155  27.447  27.678  1.00  0.00     0.014 A 
ATOM     38  C   UNL A   1      40.088  26.294  28.211  1.00  0.00     0.014 A 
ATOM     39  C   UNL A   1      42.059  28.162  28.872  1.00  0.00     0.010 A 
ATOM     40  C   UNL A   1      39.961  27.051  29.370  1.00  0.00     0.010 A 
ATOM     41  C   UNL A   1      40.939  28.002  29.704  1.00  0.00    -0.014 A 
BRANCH  41  42
ATOM     42  C   UNL A   1      40.749  28.847  30.907  1.00  0.00     0.031 A 
ATOM     43  C   UNL A   1      39.691  29.911  30.925  1.00  0.00     0.074 A 
ATOM     44  C   UNL A   1      41.589  28.704  31.951  1.00  0.00     0.049 A 
ATOM     45  N   UNL A   1      39.421  30.786  31.859  1.00  0.00    -0.248 NA
ATOM     46  C   UNL A   1      38.838  30.022  29.732  1.00  0.00     0.031 C 
ATOM     47  C   UNL A   1      42.690  27.739  32.030  1.00  0.00     0.029 A 
ATOM     48  N   UNL A   1      41.657  29.380  33.144  1.00  0.00    -0.354 N 
ATOM     49  C   UNL A   1      38.380  31.561  31.362  1.00  0.00     0.074 A 
ATOM     50  C   UNL A   1      38.095  31.079  30.028  1.00  0.00     0.031 C 
ATOM     51  C   UNL A   1      43.308  27.872  33.214  1.00  0.00     0.029 A 
ATOM     52  C   UNL A   1      42.674  28.952  33.964  1.00  0.00     0.049 A 
ATOM     53  H   UNL A   1      41.036  30.103  33.388  1.00  0.00     0.167 HD
ATOM     54  C   UNL A   1      37.714  32.572  31.967  1.00  0.00     0.031 A 
ATOM     55  C   UNL A   1      43.060  29.386  35.178  1.00  0.00     0.031 A 
ATOM     56  C   UNL A   1      37.995  33.043  33.298  1.00  0.00     0.049 A 
ATOM     57  C   UNL A   1      42.305  30.510  35.829  1.00  0.00     0.074 A 
ATOM     58  C   UNL A   1      37.335  34.018  34.023  1.00  0.00     0.029 A 
ATOM     59  N   UNL A   1      39.023  32.573  34.102  1.00  0.00    -0.354 N 
ATOM     60  N   UNL A   1      41.277  31.184  35.370  1.00  0.00    -0.248 NA
ATOM     61  C   UNL A   1      42.755  30.927  37.164  1.00  0.00     0.031 C 
ATOM     62  C   UNL A   1      37.991  34.171  35.249  1.00  0.00     0.029 A 
ATOM     63  C   UNL A   1      39.031  33.256  35.306  1.00  0.00     0.049 A 
ATOM     64  H   UNL A   1      39.654  31.861  33.852  1.00  0.00     0.167 HD
ATOM     65  C   UNL A   1      40.947  32.092  36.368  1.00  0.00     0.074 A 
ATOM     66  C   UNL A   1      41.872  31.870  37.461  1.00  0.00     0.031 C 
ATOM     67  C   UNL A   1      39.965  33.028  36.379  1.00  0.00     0.031 A 
BRANCH  54  68
ATOM     68  C   UNL A   1      36.612  33.240  31.189  1.00  0.00    -0.014 A 
ATOM     69  C   UNL A   1      35.267  33.100  31.575  1.00  0.00     0.010 A 
ATOM     70  C   UNL A   1      36.928  34.043  30.080  1.00  0.00     0.010 A 
ATOM     71  C   UNL A   1      34.253  33.719  30.840  1.00  0.00     0.020 A 
ATOM     72  C   UNL A   1      35.917  34.685  29.357  1.00  0.00     0.020 A 
ATOM     73  C   UNL A   1      34.585  34.504  29.733  1.00  0.00     0.054 A 
BRANCH  73  74
ATOM     74  S   UNL A   1      33.249  35.313  28.808  1.00  0.00     0.124 S 
ATOM     75  O   UNL A   1      33.995  36.211  27.929  1.00  0.00    -0.237 OA
ATOM     76  O   UNL A   1      32.590  34.191  28.146  1.00  0.00    -0.237 OA
ATOM     77  O   UNL A   1      32.460  35.972  29.845  1.00  0.00    -0.744 OA
ENDBRANCH  73  74
ENDBRANCH  54  68
BRANCH  55  78
ATOM     78  C   UNL A   1      44.213  28.743  35.863  1.00  0.00    -0.014 A 
ATOM     79  C   UNL A   1      44.002  27.708  36.791  1.00  0.00     0.010 A 
ATOM     80  C   UNL A   1      45.529  29.148  35.576  1.00  0.00     0.010 A 
ATOM     81  C   UNL A   1      45.086  27.100  37.431  1.00  0.00     0.020 A 
ATOM     82  C   UNL A   1      46.616  28.526  36.196  1.00  0.00     0.020 A 
ATOM     83  C   UNL A   1      46.387  27.511  37.128  1.00  0.00     0.054 A 
BRANCH  83  84
ATOM     84  S   UNL A   1      47.781  26.669  37.926  1.00  0.00     0.124 S 
ATOM     85  O   UNL A   1      47.103  25.685  38.763  1.00  0.00    -0.237 OA
ATOM     86  O   UNL A   1      48.521  26.129  36.787  1.00  0.00    -0.237 OA
ATOM     87  O   UNL A   1      48.461  27.744  38.645  1.00  0.00    -0.744 OA
ENDBRANCH  83  84
ENDBRANCH  55  78
BRANCH  67  88
ATOM     88  C   UNL A   1      39.829  33.869  37.618  1.00  0.00    -0.014 A 
ATOM     89  C   UNL A   1      40.518  35.088  37.745  1.00  0.00     0.010 A 
ATOM     90  C   UNL A   1      38.965  33.456  38.648  1.00  0.00     0.010 A 
ATOM     91  C   UNL A   1      40.366  35.868  38.894  1.00  0.00     0.020 A 
ATOM     92  C   UNL A   1      38.792  34.246  39.789  1.00  0.00     0.020 A 
ATOM     93  C   UNL A   1      39.506  35.440  39.910  1.00  0.00     0.054 A 
BRANCH  93  94
ATOM     94  S   UNL A   1      39.291  36.489  41.374  1.00  0.00     0.124 S 
ATOM     95  O   UNL A   1      38.845  37.747  40.782  1.00  0.00    -0.237 OA
ATOM     96  O   UNL A   1      38.284  35.765  42.146  1.00  0.00    -0.237 OA
ATOM     97  O   UNL A   1      40.623  36.521  41.975  1.00  0.00    -0.744 OA
ENDBRANCH  93  94
ENDBRANCH  67  88
ENDBRANCH  41  42
ENDBRANCH  33  36
ENDBRANCH  31  32
ENDBRANCH  30  31
ENDBRANCH   1  30
TORSDOF 17
ENDMDL
MODEL 3
REMARK VINA RESULT:     -11.2      3.336      4.171
REMARK SMILES CC[NH+]1CC[NH+]([C@@H]2CC(=O)N(c3ccc(C(=O)NCCCCNC(=O)c4ccc(-c5c6nc(c(-c7ccc(S(=O)(=O)[O-])cc7)c7ccc([nH]7)c(-c7ccc(S(=O)(=O)[O-])cc7)c7nc(c(-c8ccc(S(=O)(=O)[O-])cc8)c8ccc5[nH]8)C=C7)C=C6)cc4)cc3)C2=O)CC1
REMARK SMILES IDX 20 1 19 2 18 3 16 4 17 5 15 7 12 8 13 9 87 10 14 11 86 12
REMARK SMILES IDX 11 13 7 14 8 15 88 16 9 17 89 18 10 19 6 20 3 21 4 22 91 23
REMARK SMILES IDX 5 25 90 26 2 28 1 29 21 30 22 31 23 32 24 33 25 35 26 36
REMARK SMILES IDX 27 37 85 38 28 39 84 40 29 41 30 42 31 43 78 44 32 45 83 46
REMARK SMILES IDX 77 47 79 48 33 49 82 50 76 51 75 52 34 54 64 55 45 56 63 57
REMARK SMILES IDX 46 58 49 59 62 60 80 61 47 62 48 63 61 65 81 66 50 67 35 68
REMARK SMILES IDX 36 69 44 70 37 71 43 72 38 73 39 74 40 75 41 76 42 77 65 78
REMARK SMILES IDX 66 79 74 80 67 81 73 82 68 83 69 84 70 85 71 86 72 87 51 88
REMARK SMILES IDX 52 89 60 90 53 91 59 92 54 93 55 94 56 95 57 96 58 97
REMARK H PARENT 18 6 3 24 6 27 23 34 79 53 49 64
REMARK Flexibility Score: inf
ROOT
ATOM      1  C   UNL A   1      37.419  22.410  24.724  1.00  0.00     0.023 C 
ENDROOT
BRANCH   1   2
ATOM      2  C   UNL A   1      37.198  21.289  25.744  1.00  0.00     0.116 C 
BRANCH   2   3
ATOM      3  N   UNL A   1      36.179  20.368  25.285  1.00  0.00    -0.352 N 
ATOM      4  C   UNL A   1      34.874  20.551  24.905  1.00  0.00     0.251 C 
ATOM      5  O   UNL A   1      34.256  19.558  24.515  1.00  0.00    -0.269 OA
ATOM      6  H   UNL A   1      36.480  19.432  25.236  1.00  0.00     0.163 HD
BRANCH   4   7
ATOM      7  C   UNL A   1      34.180  21.875  24.904  1.00  0.00     0.039 A 
ATOM      8  C   UNL A   1      32.797  24.338  25.092  1.00  0.00     0.052 A 
ATOM      9  C   UNL A   1      33.022  23.563  26.235  1.00  0.00     0.027 A 
ATOM     10  C   UNL A   1      33.295  23.895  23.870  1.00  0.00     0.027 A 
ATOM     11  C   UNL A   1      33.678  22.331  26.134  1.00  0.00     0.016 A 
ATOM     12  C   UNL A   1      34.019  22.703  23.792  1.00  0.00     0.016 A 
BRANCH   8  13
ATOM     13  N   UNL A   1      32.062  25.535  25.165  1.00  0.00    -0.245 N 
ATOM     14  C   UNL A   1      30.398  27.137  24.751  1.00  0.00     0.285 C 
ATOM     15  C   UNL A   1      31.539  27.783  25.524  1.00  0.00     0.176 C 
ATOM     16  C   UNL A   1      30.765  25.658  24.730  1.00  0.00     0.292 C 
ATOM     17  C   UNL A   1      32.566  26.705  25.671  1.00  0.00     0.240 C 
ATOM     18  O   UNL A   1      30.011  24.763  24.369  1.00  0.00    -0.267 OA
ATOM     19  O   UNL A   1      33.673  26.914  26.150  1.00  0.00    -0.274 OA
BRANCH  14  20
ATOM     20  N   UNL A   1      30.077  27.610  23.394  1.00  0.00    -0.315 N 
ATOM     21  N   UNL A   1      28.976  30.317  22.704  1.00  0.00    -0.326 N 
ATOM     22  C   UNL A   1      28.120  29.264  23.285  1.00  0.00     0.324 C 
ATOM     23  C   UNL A   1      30.372  30.111  23.098  1.00  0.00     0.324 C 
ATOM     24  H   UNL A   1      28.741  31.228  23.099  1.00  0.00     0.348 HD
ATOM     25  C   UNL A   1      28.651  27.816  23.109  1.00  0.00     0.325 C 
ATOM     26  C   UNL A   1      30.903  28.690  22.839  1.00  0.00     0.325 C 
ATOM     27  H   UNL A   1      30.360  26.779  22.872  1.00  0.00     0.349 HD
BRANCH  21  28
ATOM     28  C   UNL A   1      28.699  30.525  21.276  1.00  0.00     0.259 C 
ATOM     29  C   UNL A   1      28.031  31.818  20.814  1.00  0.00     0.071 C 
ENDBRANCH  21  28
ENDBRANCH  14  20
ENDBRANCH   8  13
ENDBRANCH   4   7
ENDBRANCH   2   3
ENDBRANCH   1   2
BRANCH   1  30
ATOM     30  C   UNL A   1      37.401  23.817  25.323  1.00  0.00     0.023 C 
BRANCH  30  31
ATOM     31  C   UNL A   1      38.337  24.016  26.509  1.00  0.00     0.116 C 
BRANCH  31  32
ATOM     32  N   UNL A   1      39.743  23.863  26.167  1.00  0.00    -0.352 N 
ATOM     33  C   UNL A   1      40.800  24.653  26.553  1.00  0.00     0.251 C 
ATOM     34  H   UNL A   1      39.966  23.097  25.588  1.00  0.00     0.163 HD
ATOM     35  O   UNL A   1      41.922  24.456  26.105  1.00  0.00    -0.269 OA
BRANCH  33  36
ATOM     36  C   UNL A   1      40.542  25.776  27.477  1.00  0.00     0.039 A 
ATOM     37  C   UNL A   1      39.606  25.601  28.498  1.00  0.00     0.014 A 
ATOM     38  C   UNL A   1      41.276  26.960  27.377  1.00  0.00     0.014 A 
ATOM     39  C   UNL A   1      39.464  26.590  29.472  1.00  0.00     0.010 A 
ATOM     40  C   UNL A   1      41.178  27.915  28.382  1.00  0.00     0.010 A 
ATOM     41  C   UNL A   1      40.280  27.733  29.445  1.00  0.00    -0.014 A 
BRANCH  41  42
ATOM     42  C   UNL A   1      40.241  28.729  30.542  1.00  0.00     0.031 A 
ATOM     43  C   UNL A   1      41.136  28.575  31.737  1.00  0.00     0.074 A 
ATOM     44  C   UNL A   1      39.337  29.728  30.493  1.00  0.00     0.049 A 
ATOM     45  N   UNL A   1      41.197  29.308  32.819  1.00  0.00    -0.248 NA
ATOM     46  C   UNL A   1      42.071  27.439  31.727  1.00  0.00     0.031 C 
ATOM     47  C   UNL A   1      38.378  29.952  29.407  1.00  0.00     0.029 A 
ATOM     48  N   UNL A   1      39.068  30.736  31.384  1.00  0.00    -0.354 N 
ATOM     49  C   UNL A   1      42.161  28.715  33.624  1.00  0.00     0.074 A 
ATOM     50  C   UNL A   1      42.631  27.538  32.924  1.00  0.00     0.031 C 
ATOM     51  C   UNL A   1      37.642  31.040  29.687  1.00  0.00     0.029 A 
ATOM     52  C   UNL A   1      38.050  31.569  30.984  1.00  0.00     0.049 A 
ATOM     53  H   UNL A   1      39.560  30.852  32.229  1.00  0.00     0.167 HD
ATOM     54  C   UNL A   1      42.624  29.121  34.830  1.00  0.00     0.031 A 
ATOM     55  C   UNL A   1      37.499  32.634  31.597  1.00  0.00     0.031 A 
ATOM     56  C   UNL A   1      42.161  30.297  35.518  1.00  0.00     0.049 A 
ATOM     57  C   UNL A   1      38.030  33.065  32.935  1.00  0.00     0.074 A 
ATOM     58  C   UNL A   1      42.612  30.827  36.713  1.00  0.00     0.029 A 
ATOM     59  N   UNL A   1      41.139  31.122  35.074  1.00  0.00    -0.354 N 
ATOM     60  N   UNL A   1      38.992  32.530  33.649  1.00  0.00    -0.248 NA
ATOM     61  C   UNL A   1      37.407  34.246  33.547  1.00  0.00     0.031 C 
ATOM     62  C   UNL A   1      41.832  31.949  37.015  1.00  0.00     0.029 A 
ATOM     63  C   UNL A   1      40.928  32.145  35.983  1.00  0.00     0.049 A 
ATOM     64  H   UNL A   1      40.637  30.999  34.236  1.00  0.00     0.167 HD
ATOM     65  C   UNL A   1      39.102  33.322  34.786  1.00  0.00     0.074 A 
ATOM     66  C   UNL A   1      38.121  34.380  34.657  1.00  0.00     0.031 C 
ATOM     67  C   UNL A   1      39.941  33.185  35.843  1.00  0.00     0.031 A 
BRANCH  54  68
ATOM     68  C   UNL A   1      43.689  28.282  35.482  1.00  0.00    -0.014 A 
ATOM     69  C   UNL A   1      43.357  27.317  36.450  1.00  0.00     0.010 A 
ATOM     70  C   UNL A   1      45.033  28.435  35.099  1.00  0.00     0.010 A 
ATOM     71  C   UNL A   1      44.355  26.547  37.053  1.00  0.00     0.020 A 
ATOM     72  C   UNL A   1      46.032  27.649  35.682  1.00  0.00     0.020 A 
ATOM     73  C   UNL A   1      45.687  26.722  36.668  1.00  0.00     0.054 A 
BRANCH  73  74
ATOM     74  S   UNL A   1      46.961  25.696  37.453  1.00  0.00     0.124 S 
ATOM     75  O   UNL A   1      48.158  26.516  37.274  1.00  0.00    -0.237 OA
ATOM     76  O   UNL A   1      46.480  25.580  38.827  1.00  0.00    -0.237 OA
ATOM     77  O   UNL A   1      46.933  24.458  36.680  1.00  0.00    -0.744 OA
ENDBRANCH  73  74
ENDBRANCH  54  68
BRANCH  55  78
ATOM     78  C   UNL A   1      36.389  33.374  30.941  1.00  0.00    -0.014 A 
ATOM     79  C   UNL A   1      35.183  33.601  31.627  1.00  0.00     0.010 A 
ATOM     80  C   UNL A   1      36.540  33.873  29.635  1.00  0.00     0.010 A 
ATOM     81  C   UNL A   1      34.140  34.301  31.012  1.00  0.00     0.020 A 
ATOM     82  C   UNL A   1      35.509  34.595  29.026  1.00  0.00     0.020 A 
ATOM     83  C   UNL A   1      34.311  34.796  29.716  1.00  0.00     0.054 A 
BRANCH  83  84
ATOM     84  S   UNL A   1      32.968  35.753  28.959  1.00  0.00     0.124 S 
ATOM     85  O   UNL A   1      33.698  36.829  28.296  1.00  0.00    -0.237 OA
ATOM     86  O   UNL A   1      32.340  34.775  28.074  1.00  0.00    -0.237 OA
ATOM     87  O   UNL A   1      32.153  36.159  30.102  1.00  0.00    -0.744 OA
ENDBRANCH  83  84
ENDBRANCH  55  78
BRANCH  67  88
ATOM     88  C   UNL A   1      39.846  34.214  36.934  1.00  0.00    -0.014 A 
ATOM     89  C   UNL A   1      40.476  35.465  36.807  1.00  0.00     0.010 A 
ATOM     90  C   UNL A   1      39.077  33.945  38.080  1.00  0.00     0.010 A 
ATOM     91  C   UNL A   1      40.363  36.418  37.822  1.00  0.00     0.020 A 
ATOM     92  C   UNL A   1      38.941  34.906  39.087  1.00  0.00     0.020 A 
ATOM     93  C   UNL A   1      39.597  36.131  38.956  1.00  0.00     0.054 A 
BRANCH  93  94
ATOM     94  S   UNL A   1      39.428  37.400  40.241  1.00  0.00     0.124 S 
ATOM     95  O   UNL A   1      38.691  38.446  39.539  1.00  0.00    -0.237 OA
ATOM     96  O   UNL A   1      38.686  36.703  41.289  1.00  0.00    -0.237 OA
ATOM     97  O   UNL A   1      40.810  37.734  40.582  1.00  0.00    -0.744 OA
ENDBRANCH  93  94
ENDBRANCH  67  88
ENDBRANCH  41  42
ENDBRANCH  33  36
ENDBRANCH  31  32
ENDBRANCH  30  31
ENDBRANCH   1  30
TORSDOF 17
ENDMDL
