MODEL 1
REMARK VINA RESULT:     -13.2      0.000      0.000
REMARK SMILES CC(C)c1cc(C#N)cc2nc(-c3ccc(C(=O)NCCCCNC(=O)c4ccc(-c5c6nc(c(-c7ccc(S(=O)(=O)[O-])cc7)c7ccc([nH]7)c(-c7ccc(S(=O)(=O)[O-])cc7)c7nc(c(-c8ccc(S(=O)(=O)[O-])cc8)c8ccc5[nH]8)C=C7)C=C6)cc4)cc3)oc12
REMARK SMILES IDX 22 1 21 2 20 3 19 4 17 5 18 6 16 8 13 9 14 10 88 11 15 12
REMARK SMILES IDX 87 13 12 14 4 15 5 16 90 17 6 18 10 19 89 20 9 21 11 22 2 23
REMARK SMILES IDX 1 24 3 25 7 26 8 27 23 28 24 29 25 30 26 32 27 33 28 34
REMARK SMILES IDX 86 35 29 36 85 37 30 38 31 39 32 40 79 41 33 42 84 43 78 44
REMARK SMILES IDX 80 45 34 46 83 47 77 48 76 49 35 51 65 52 46 53 64 54 47 55
REMARK SMILES IDX 50 56 63 57 81 58 48 59 49 60 62 62 82 63 51 64 36 65 37 66
REMARK SMILES IDX 45 67 38 68 44 69 39 70 40 71 41 72 42 73 43 74 66 75 67 76
REMARK SMILES IDX 75 77 68 78 74 79 69 80 70 81 71 82 72 83 73 84 52 85 53 86
REMARK SMILES IDX 61 87 54 88 60 89 55 90 56 91 57 92 58 93 59 94
REMARK H PARENT 19 7 24 31 80 50 50 61
REMARK Flexibility Score: inf
ROOT
ATOM      1  C   UNL A   1      40.853  21.348  26.276  1.00  0.00     0.023 C 
ENDROOT
BRANCH   1   2
ATOM      2  C   UNL A   1      39.966  22.440  26.873  1.00  0.00     0.023 C 
BRANCH   2   3
ATOM      3  C   UNL A   1      38.644  22.736  26.175  1.00  0.00     0.116 C 
BRANCH   3   4
ATOM      4  N   UNL A   1      37.838  21.568  25.848  1.00  0.00    -0.352 N 
ATOM      5  C   UNL A   1      36.578  21.456  25.296  1.00  0.00     0.251 C 
ATOM      6  O   UNL A   1      36.124  20.330  25.093  1.00  0.00    -0.269 OA
ATOM      7  H   UNL A   1      38.268  20.707  26.056  1.00  0.00     0.163 HD
BRANCH   5   8
ATOM      8  C   UNL A   1      35.726  22.639  24.978  1.00  0.00     0.039 A 
ATOM      9  C   UNL A   1      33.940  24.734  24.318  1.00  0.00     0.037 A 
ATOM     10  C   UNL A   1      34.363  23.837  23.332  1.00  0.00     0.014 A 
ATOM     11  C   UNL A   1      34.482  24.613  25.606  1.00  0.00     0.014 A 
ATOM     12  C   UNL A   1      35.250  22.796  23.663  1.00  0.00     0.014 A 
ATOM     13  C   UNL A   1      35.399  23.611  25.919  1.00  0.00     0.014 A 
BRANCH   9  14
ATOM     14  C   UNL A   1      33.014  25.833  24.086  1.00  0.00     0.227 A 
ATOM     15  C   UNL A   1      31.525  28.901  25.045  1.00  0.00     0.001 A 
ATOM     16  C   UNL A   1      30.662  29.620  24.180  1.00  0.00     0.027 A 
ATOM     17  C   UNL A   1      32.014  27.709  24.490  1.00  0.00     0.158 A 
ATOM     18  C   UNL A   1      30.360  29.192  22.873  1.00  0.00     0.055 A 
ATOM     19  C   UNL A   1      31.740  27.268  23.204  1.00  0.00     0.111 A 
ATOM     20  O   UNL A   1      32.831  26.770  25.076  1.00  0.00    -0.436 OA
ATOM     21  C   UNL A   1      30.909  28.013  22.365  1.00  0.00     0.052 A 
ATOM     22  N   UNL A   1      32.379  26.092  22.958  1.00  0.00    -0.209 NA
BRANCH  15  23
ATOM     23  C   UNL A   1      31.868  29.366  26.445  1.00  0.00     0.017 C 
ATOM     24  C   UNL A   1      31.567  28.341  27.547  1.00  0.00     0.012 C 
ATOM     25  C   UNL A   1      33.335  29.791  26.513  1.00  0.00     0.012 C 
ENDBRANCH  15  23
BRANCH  18  26
ATOM     26  C   UNL A   1      29.471  29.956  22.054  1.00  0.00     0.099 C 
ATOM     27  N   UNL A   1      28.744  30.590  21.395  1.00  0.00    -0.192 NA
ENDBRANCH  18  26
ENDBRANCH   9  14
ENDBRANCH   5   8
ENDBRANCH   3   4
ENDBRANCH   2   3
ENDBRANCH   1   2
BRANCH   1  28
ATOM     28  C   UNL A   1      42.350  21.450  26.572  1.00  0.00     0.116 C 
BRANCH  28  29
ATOM     29  N   UNL A   1      43.109  22.251  25.634  1.00  0.00    -0.352 N 
ATOM     30  C   UNL A   1      43.434  23.576  25.538  1.00  0.00     0.251 C 
ATOM     31  H   UNL A   1      43.474  21.717  24.892  1.00  0.00     0.163 HD
ATOM     32  O   UNL A   1      44.348  23.841  24.751  1.00  0.00    -0.269 OA
BRANCH  30  33
ATOM     33  C   UNL A   1      42.733  24.699  26.221  1.00  0.00     0.039 A 
ATOM     34  C   UNL A   1      41.732  25.492  25.665  1.00  0.00     0.014 A 
ATOM     35  C   UNL A   1      43.230  25.043  27.496  1.00  0.00     0.014 A 
ATOM     36  C   UNL A   1      41.344  26.670  26.301  1.00  0.00     0.010 A 
ATOM     37  C   UNL A   1      42.833  26.209  28.142  1.00  0.00     0.010 A 
ATOM     38  C   UNL A   1      41.938  27.060  27.509  1.00  0.00    -0.014 A 
BRANCH  38  39
ATOM     39  C   UNL A   1      41.519  28.320  28.121  1.00  0.00     0.031 A 
ATOM     40  C   UNL A   1      42.485  29.438  27.934  1.00  0.00     0.074 A 
ATOM     41  C   UNL A   1      40.351  28.519  28.771  1.00  0.00     0.049 A 
ATOM     42  N   UNL A   1      43.215  29.991  28.844  1.00  0.00    -0.248 NA
ATOM     43  C   UNL A   1      42.783  29.891  26.569  1.00  0.00     0.031 C 
ATOM     44  C   UNL A   1      39.188  27.635  28.879  1.00  0.00     0.029 A 
ATOM     45  N   UNL A   1      39.938  29.631  29.446  1.00  0.00    -0.354 N 
ATOM     46  C   UNL A   1      43.955  30.980  28.206  1.00  0.00     0.074 A 
ATOM     47  C   UNL A   1      43.741  30.793  26.791  1.00  0.00     0.031 C 
ATOM     48  C   UNL A   1      38.133  28.330  29.373  1.00  0.00     0.029 A 
ATOM     49  C   UNL A   1      38.585  29.653  29.769  1.00  0.00     0.049 A 
ATOM     50  H   UNL A   1      40.552  30.362  29.687  1.00  0.00     0.167 HD
ATOM     51  C   UNL A   1      44.568  31.978  28.902  1.00  0.00     0.031 A 
ATOM     52  C   UNL A   1      37.888  30.681  30.326  1.00  0.00     0.031 A 
ATOM     53  C   UNL A   1      44.654  31.671  30.305  1.00  0.00     0.049 A 
ATOM     54  C   UNL A   1      38.878  31.534  31.029  1.00  0.00     0.074 A 
ATOM     55  C   UNL A   1      45.308  30.705  31.041  1.00  0.00     0.029 A 
ATOM     56  N   UNL A   1      43.677  32.181  31.125  1.00  0.00    -0.354 N 
ATOM     57  N   UNL A   1      39.537  31.144  32.083  1.00  0.00    -0.248 NA
ATOM     58  C   UNL A   1      39.470  32.635  30.286  1.00  0.00     0.031 C 
ATOM     59  C   UNL A   1      44.386  30.342  32.062  1.00  0.00     0.029 A 
ATOM     60  C   UNL A   1      43.263  31.164  31.946  1.00  0.00     0.049 A 
ATOM     61  H   UNL A   1      43.337  33.105  31.123  1.00  0.00     0.167 HD
ATOM     62  C   UNL A   1      40.821  31.628  31.890  1.00  0.00     0.074 A 
ATOM     63  C   UNL A   1      40.701  32.599  30.800  1.00  0.00     0.031 C 
ATOM     64  C   UNL A   1      41.907  31.010  32.438  1.00  0.00     0.031 A 
BRANCH  51  65
ATOM     65  C   UNL A   1      44.829  33.358  28.365  1.00  0.00    -0.014 A 
ATOM     66  C   UNL A   1      43.832  34.142  27.753  1.00  0.00     0.010 A 
ATOM     67  C   UNL A   1      46.044  34.000  28.687  1.00  0.00     0.010 A 
ATOM     68  C   UNL A   1      44.035  35.491  27.453  1.00  0.00     0.020 A 
ATOM     69  C   UNL A   1      46.244  35.362  28.426  1.00  0.00     0.020 A 
ATOM     70  C   UNL A   1      45.240  36.096  27.800  1.00  0.00     0.054 A 
BRANCH  70  71
ATOM     71  S   UNL A   1      45.440  37.861  27.455  1.00  0.00     0.124 S 
ATOM     72  O   UNL A   1      44.113  38.223  26.966  1.00  0.00    -0.237 OA
ATOM     73  O   UNL A   1      45.797  38.397  28.765  1.00  0.00    -0.237 OA
ATOM     74  O   UNL A   1      46.505  37.897  26.456  1.00  0.00    -0.744 OA
ENDBRANCH  70  71
ENDBRANCH  51  65
BRANCH  52  75
ATOM     75  C   UNL A   1      36.585  31.243  29.863  1.00  0.00    -0.014 A 
ATOM     76  C   UNL A   1      36.418  31.601  28.511  1.00  0.00     0.010 A 
ATOM     77  C   UNL A   1      35.646  31.743  30.791  1.00  0.00     0.010 A 
ATOM     78  C   UNL A   1      35.420  32.499  28.113  1.00  0.00     0.020 A 
ATOM     79  C   UNL A   1      34.638  32.645  30.397  1.00  0.00     0.020 A 
ATOM     80  C   UNL A   1      34.561  33.049  29.065  1.00  0.00     0.054 A 
BRANCH  80  81
ATOM     81  S   UNL A   1      33.425  34.369  28.538  1.00  0.00     0.124 S 
ATOM     82  O   UNL A   1      32.833  34.783  29.807  1.00  0.00    -0.237 OA
ATOM     83  O   UNL A   1      34.328  35.338  27.923  1.00  0.00    -0.237 OA
ATOM     84  O   UNL A   1      32.515  33.697  27.614  1.00  0.00    -0.744 OA
ENDBRANCH  80  81
ENDBRANCH  52  75
BRANCH  64  85
ATOM     85  C   UNL A   1      41.699  29.914  33.464  1.00  0.00    -0.014 A 
ATOM     86  C   UNL A   1      41.937  30.248  34.810  1.00  0.00     0.010 A 
ATOM     87  C   UNL A   1      41.499  28.555  33.139  1.00  0.00     0.010 A 
ATOM     88  C   UNL A   1      42.028  29.264  35.794  1.00  0.00     0.020 A 
ATOM     89  C   UNL A   1      41.561  27.562  34.133  1.00  0.00     0.020 A 
ATOM     90  C   UNL A   1      41.853  27.924  35.450  1.00  0.00     0.054 A 
BRANCH  90  91
ATOM     91  S   UNL A   1      42.052  26.680  36.756  1.00  0.00     0.124 S 
ATOM     92  O   UNL A   1      40.761  26.739  37.439  1.00  0.00    -0.237 OA
ATOM     93  O   UNL A   1      42.298  25.455  35.999  1.00  0.00    -0.237 OA
ATOM     94  O   UNL A   1      43.188  27.163  37.537  1.00  0.00    -0.744 OA
ENDBRANCH  90  91
ENDBRANCH  64  85
ENDBRANCH  38  39
ENDBRANCH  30  33
ENDBRANCH  28  29
ENDBRANCH   1  28
TORSDOF 17
ENDMDL
MODEL 2
REMARK VINA RESULT:     -12.9      2.050      2.839
REMARK SMILES CC(C)c1cc(C#N)cc2nc(-c3ccc(C(=O)NCCCCNC(=O)c4ccc(-c5c6nc(c(-c7ccc(S(=O)(=O)[O-])cc7)c7ccc([nH]7)c(-c7ccc(S(=O)(=O)[O-])cc7)c7nc(c(-c8ccc(S(=O)(=O)[O-])cc8)c8ccc5[nH]8)C=C7)C=C6)cc4)cc3)oc12
REMARK SMILES IDX 22 1 21 2 20 3 19 4 17 5 18 6 16 8 13 9 14 10 88 11 15 12
REMARK SMILES IDX 87 13 12 14 4 15 5 16 90 17 6 18 10 19 89 20 9 21 11 22 2 23
REMARK SMILES IDX 1 24 3 25 7 26 8 27 23 28 24 29 25 30 26 32 27 33 28 34
REMARK SMILES IDX 86 35 29 36 85 37 30 38 31 39 32 40 79 41 33 42 84 43 78 44
REMARK SMILES IDX 80 45 34 46 83 47 77 48 76 49 35 51 65 52 46 53 64 54 47 55
REMARK SMILES IDX 50 56 63 57 81 58 48 59 49 60 62 62 82 63 51 64 36 65 37 66
REMARK SMILES IDX 45 67 38 68 44 69 39 70 40 71 41 72 42 73 43 74 66 75 67 76
REMARK SMILES IDX 75 77 68 78 74 79 69 80 70 81 71 82 72 83 73 84 52 85 53 86
REMARK SMILES IDX 61 87 54 88 60 89 55 90 56 91 57 92 58 93 59 94
REMARK H PARENT 19 7 24 31 80 50 50 61
REMARK Flexibility Score: inf
ROOT
ATOM      1  C   UNL A   1      36.205  22.808  25.790  1.00  0.00     0.023 C 
ENDROOT
BRANCH   1   2
ATOM      2  C   UNL A   1      35.577  21.453  26.114  1.00  0.00     0.023 C 
BRANCH   2   3
ATOM      3  C   UNL A   1      35.467  20.437  24.983  1.00  0.00     0.116 C 
BRANCH   3   4
ATOM      4  N   UNL A   1      34.307  19.560  25.047  1.00  0.00    -0.352 N 
ATOM      5  C   UNL A   1      32.959  19.818  24.899  1.00  0.00     0.251 C 
ATOM      6  O   UNL A   1      32.169  18.877  24.974  1.00  0.00    -0.269 OA
ATOM      7  H   UNL A   1      34.522  18.616  25.226  1.00  0.00     0.163 HD
BRANCH   5   8
ATOM      8  C   UNL A   1      32.416  21.193  24.698  1.00  0.00     0.039 A 
ATOM      9  C   UNL A   1      31.524  23.871  24.491  1.00  0.00     0.037 A 
ATOM     10  C   UNL A   1      31.273  23.138  25.654  1.00  0.00     0.014 A 
ATOM     11  C   UNL A   1      32.151  23.224  23.416  1.00  0.00     0.014 A 
ATOM     12  C   UNL A   1      31.719  21.807  25.755  1.00  0.00     0.014 A 
ATOM     13  C   UNL A   1      32.547  21.891  23.500  1.00  0.00     0.014 A 
BRANCH   9  14
ATOM     14  C   UNL A   1      31.122  25.257  24.290  1.00  0.00     0.227 A 
ATOM     15  C   UNL A   1      31.322  28.701  25.092  1.00  0.00     0.001 A 
ATOM     16  C   UNL A   1      30.674  29.692  24.314  1.00  0.00     0.027 A 
ATOM     17  C   UNL A   1      31.125  27.396  24.620  1.00  0.00     0.158 A 
ATOM     18  C   UNL A   1      29.935  29.392  23.154  1.00  0.00     0.055 A 
ATOM     19  C   UNL A   1      30.410  27.070  23.476  1.00  0.00     0.111 A 
ATOM     20  O   UNL A   1      31.578  26.215  25.164  1.00  0.00    -0.436 OA
ATOM     21  C   UNL A   1      29.806  28.073  22.714  1.00  0.00     0.052 A 
ATOM     22  N   UNL A   1      30.421  25.725  23.275  1.00  0.00    -0.209 NA
BRANCH  15  23
ATOM     23  C   UNL A   1      32.134  29.022  26.331  1.00  0.00     0.017 C 
ATOM     24  C   UNL A   1      31.589  28.402  27.625  1.00  0.00     0.012 C 
ATOM     25  C   UNL A   1      33.591  28.608  26.126  1.00  0.00     0.012 C 
ENDBRANCH  15  23
BRANCH  18  26
ATOM     26  C   UNL A   1      29.292  30.436  22.419  1.00  0.00     0.099 C 
ATOM     27  N   UNL A   1      28.775  31.285  21.806  1.00  0.00    -0.192 NA
ENDBRANCH  18  26
ENDBRANCH   9  14
ENDBRANCH   5   8
ENDBRANCH   3   4
ENDBRANCH   2   3
ENDBRANCH   1   2
BRANCH   1  28
ATOM     28  C   UNL A   1      37.572  22.779  25.107  1.00  0.00     0.116 C 
BRANCH  28  29
ATOM     29  N   UNL A   1      38.588  22.014  25.800  1.00  0.00    -0.352 N 
ATOM     30  C   UNL A   1      39.541  22.299  26.739  1.00  0.00     0.251 C 
ATOM     31  H   UNL A   1      38.595  21.067  25.531  1.00  0.00     0.163 HD
ATOM     32  O   UNL A   1      40.033  21.320  27.309  1.00  0.00    -0.269 OA
BRANCH  30  33
ATOM     33  C   UNL A   1      40.078  23.652  27.053  1.00  0.00     0.039 A 
ATOM     34  C   UNL A   1      41.170  23.924  27.874  1.00  0.00     0.014 A 
ATOM     35  C   UNL A   1      39.323  24.738  26.561  1.00  0.00     0.014 A 
ATOM     36  C   UNL A   1      41.411  25.229  28.303  1.00  0.00     0.010 A 
ATOM     37  C   UNL A   1      39.570  26.044  26.973  1.00  0.00     0.010 A 
ATOM     38  C   UNL A   1      40.574  26.280  27.901  1.00  0.00    -0.014 A 
BRANCH  38  39
ATOM     39  C   UNL A   1      40.850  27.625  28.404  1.00  0.00     0.031 A 
ATOM     40  C   UNL A   1      42.167  28.175  27.978  1.00  0.00     0.074 A 
ATOM     41  C   UNL A   1      40.005  28.364  29.156  1.00  0.00     0.049 A 
ATOM     42  N   UNL A   1      43.197  28.387  28.726  1.00  0.00    -0.248 NA
ATOM     43  C   UNL A   1      42.418  28.370  26.543  1.00  0.00     0.031 C 
ATOM     44  C   UNL A   1      38.604  28.106  29.499  1.00  0.00     0.029 A 
ATOM     45  N   UNL A   1      40.232  29.577  29.738  1.00  0.00    -0.354 N 
ATOM     46  C   UNL A   1      44.187  28.901  27.896  1.00  0.00     0.074 A 
ATOM     47  C   UNL A   1      43.696  28.754  26.547  1.00  0.00     0.031 C 
ATOM     48  C   UNL A   1      38.052  29.228  30.025  1.00  0.00     0.029 A 
ATOM     49  C   UNL A   1      39.094  30.224  30.209  1.00  0.00     0.049 A 
ATOM     50  H   UNL A   1      41.133  29.965  29.819  1.00  0.00     0.167 HD
ATOM     51  C   UNL A   1      45.275  29.551  28.395  1.00  0.00     0.031 A 
ATOM     52  C   UNL A   1      39.014  31.485  30.716  1.00  0.00     0.031 A 
ATOM     53  C   UNL A   1      45.434  29.315  29.805  1.00  0.00     0.049 A 
ATOM     54  C   UNL A   1      40.373  31.836  31.196  1.00  0.00     0.074 A 
ATOM     55  C   UNL A   1      45.704  28.199  30.570  1.00  0.00     0.029 A 
ATOM     56  N   UNL A   1      44.920  30.254  30.666  1.00  0.00    -0.354 N 
ATOM     57  N   UNL A   1      40.948  31.248  32.206  1.00  0.00    -0.248 NA
ATOM     58  C   UNL A   1      41.265  32.510  30.266  1.00  0.00     0.031 C 
ATOM     59  C   UNL A   1      44.887  28.346  31.726  1.00  0.00     0.029 A 
ATOM     60  C   UNL A   1      44.234  29.579  31.643  1.00  0.00     0.049 A 
ATOM     61  H   UNL A   1      45.024  31.231  30.594  1.00  0.00     0.167 HD
ATOM     62  C   UNL A   1      42.268  31.091  31.812  1.00  0.00     0.074 A 
ATOM     63  C   UNL A   1      42.418  31.950  30.637  1.00  0.00     0.031 C 
ATOM     64  C   UNL A   1      43.043  30.080  32.301  1.00  0.00     0.031 A 
BRANCH  51  65
ATOM     65  C   UNL A   1      46.028  30.633  27.672  1.00  0.00    -0.014 A 
ATOM     66  C   UNL A   1      45.471  31.897  27.392  1.00  0.00     0.010 A 
ATOM     67  C   UNL A   1      47.417  30.485  27.472  1.00  0.00     0.010 A 
ATOM     68  C   UNL A   1      46.247  32.954  26.913  1.00  0.00     0.020 A 
ATOM     69  C   UNL A   1      48.211  31.552  27.029  1.00  0.00     0.020 A 
ATOM     70  C   UNL A   1      47.616  32.778  26.742  1.00  0.00     0.054 A 
BRANCH  70  71
ATOM     71  S   UNL A   1      48.598  34.192  26.184  1.00  0.00     0.124 S 
ATOM     72  O   UNL A   1      49.660  33.537  25.426  1.00  0.00    -0.237 OA
ATOM     73  O   UNL A   1      47.633  34.950  25.393  1.00  0.00    -0.237 OA
ATOM     74  O   UNL A   1      49.022  34.829  27.429  1.00  0.00    -0.744 OA
ENDBRANCH  70  71
ENDBRANCH  51  65
BRANCH  52  75
ATOM     75  C   UNL A   1      38.035  32.547  30.343  1.00  0.00    -0.014 A 
ATOM     76  C   UNL A   1      37.207  33.115  31.331  1.00  0.00     0.010 A 
ATOM     77  C   UNL A   1      37.673  32.751  28.993  1.00  0.00     0.010 A 
ATOM     78  C   UNL A   1      36.017  33.772  30.995  1.00  0.00     0.020 A 
ATOM     79  C   UNL A   1      36.479  33.413  28.648  1.00  0.00     0.020 A 
ATOM     80  C   UNL A   1      35.638  33.881  29.657  1.00  0.00     0.054 A 
BRANCH  80  81
ATOM     81  S   UNL A   1      33.988  34.549  29.282  1.00  0.00     0.124 S 
ATOM     82  O   UNL A   1      34.312  35.849  28.700  1.00  0.00    -0.237 OA
ATOM     83  O   UNL A   1      33.451  33.562  28.348  1.00  0.00    -0.237 OA
ATOM     84  O   UNL A   1      33.326  34.595  30.583  1.00  0.00    -0.744 OA
ENDBRANCH  80  81
ENDBRANCH  52  75
BRANCH  64  85
ATOM     85  C   UNL A   1      42.538  29.252  33.466  1.00  0.00    -0.014 A 
ATOM     86  C   UNL A   1      43.128  29.491  34.721  1.00  0.00     0.010 A 
ATOM     87  C   UNL A   1      41.688  28.134  33.331  1.00  0.00     0.010 A 
ATOM     88  C   UNL A   1      42.927  28.621  35.792  1.00  0.00     0.020 A 
ATOM     89  C   UNL A   1      41.459  27.269  34.416  1.00  0.00     0.020 A 
ATOM     90  C   UNL A   1      42.105  27.506  35.632  1.00  0.00     0.054 A 
BRANCH  90  91
ATOM     91  S   UNL A   1      41.935  26.370  37.037  1.00  0.00     0.124 S 
ATOM     92  O   UNL A   1      42.081  25.064  36.397  1.00  0.00    -0.237 OA
ATOM     93  O   UNL A   1      43.042  26.764  37.905  1.00  0.00    -0.237 OA
ATOM     94  O   UNL A   1      40.603  26.655  37.565  1.00  0.00    -0.744 OA
ENDBRANCH  90  91
ENDBRANCH  64  85
ENDBRANCH  38  39
ENDBRANCH  30  33
ENDBRANCH  28  29
ENDBRANCH   1  28
TORSDOF 17
ENDMDL
MODEL 3
REMARK VINA RESULT:     -12.7      3.069      9.993
REMARK SMILES CC(C)c1cc(C#N)cc2nc(-c3ccc(C(=O)NCCCCNC(=O)c4ccc(-c5c6nc(c(-c7ccc(S(=O)(=O)[O-])cc7)c7ccc([nH]7)c(-c7ccc(S(=O)(=O)[O-])cc7)c7nc(c(-c8ccc(S(=O)(=O)[O-])cc8)c8ccc5[nH]8)C=C7)C=C6)cc4)cc3)oc12
REMARK SMILES IDX 22 1 21 2 20 3 19 4 17 5 18 6 16 8 13 9 14 10 88 11 15 12
REMARK SMILES IDX 87 13 12 14 4 15 5 16 90 17 6 18 10 19 89 20 9 21 11 22 2 23
REMARK SMILES IDX 1 24 3 25 7 26 8 27 23 28 24 29 25 30 26 32 27 33 28 34
REMARK SMILES IDX 86 35 29 36 85 37 30 38 31 39 32 40 79 41 33 42 84 43 78 44
REMARK SMILES IDX 80 45 34 46 83 47 77 48 76 49 35 51 65 52 46 53 64 54 47 55
REMARK SMILES IDX 50 56 63 57 81 58 48 59 49 60 62 62 82 63 51 64 36 65 37 66
REMARK SMILES IDX 45 67 38 68 44 69 39 70 40 71 41 72 42 73 43 74 66 75 67 76
REMARK SMILES IDX 75 77 68 78 74 79 69 80 70 81 71 82 72 83 73 84 52 85 53 86
REMARK SMILES IDX 61 87 54 88 60 89 55 90 56 91 57 92 58 93 59 94
REMARK H PARENT 19 7 24 31 80 50 50 61
REMARK Flexibility Score: inf
ROOT
ATOM      1  C   UNL A   1      34.482  33.357  28.181  1.00  0.00     0.023 C 
ENDROOT
BRANCH   1   2
ATOM      2  C   UNL A   1      34.945  31.970  27.734  1.00  0.00     0.023 C 
BRANCH   2   3
ATOM      3  C   UNL A   1      33.900  30.862  27.674  1.00  0.00     0.116 C 
BRANCH   3   4
ATOM      4  N   UNL A   1      32.785  31.107  26.772  1.00  0.00    -0.352 N 
ATOM      5  C   UNL A   1      32.029  30.245  26.002  1.00  0.00     0.251 C 
ATOM      6  O   UNL A   1      31.107  30.711  25.332  1.00  0.00    -0.269 OA
ATOM      7  H   UNL A   1      32.523  32.052  26.696  1.00  0.00     0.163 HD
BRANCH   5   8
ATOM      8  C   UNL A   1      32.309  28.782  25.914  1.00  0.00     0.039 A 
ATOM      9  C   UNL A   1      32.619  25.978  25.683  1.00  0.00     0.037 A 
ATOM     10  C   UNL A   1      31.753  26.510  26.642  1.00  0.00     0.014 A 
ATOM     11  C   UNL A   1      33.378  26.864  24.904  1.00  0.00     0.014 A 
ATOM     12  C   UNL A   1      31.599  27.904  26.754  1.00  0.00     0.014 A 
ATOM     13  C   UNL A   1      33.261  28.245  25.051  1.00  0.00     0.014 A 
BRANCH   9  14
ATOM     14  C   UNL A   1      32.837  24.553  25.473  1.00  0.00     0.227 A 
ATOM     15  C   UNL A   1      34.964  21.793  24.839  1.00  0.00     0.001 A 
ATOM     16  C   UNL A   1      34.497  20.456  24.899  1.00  0.00     0.027 A 
ATOM     17  C   UNL A   1      33.976  22.748  25.117  1.00  0.00     0.158 A 
ATOM     18  C   UNL A   1      33.174  20.122  25.244  1.00  0.00     0.055 A 
ATOM     19  C   UNL A   1      32.667  22.449  25.469  1.00  0.00     0.111 A 
ATOM     20  O   UNL A   1      34.088  24.119  25.103  1.00  0.00    -0.436 OA
ATOM     21  C   UNL A   1      32.245  21.120  25.547  1.00  0.00     0.052 A 
ATOM     22  N   UNL A   1      31.964  23.590  25.697  1.00  0.00    -0.209 NA
BRANCH  15  23
ATOM     23  C   UNL A   1      36.392  22.156  24.486  1.00  0.00     0.017 C 
ATOM     24  C   UNL A   1      36.544  22.930  23.170  1.00  0.00     0.012 C 
ATOM     25  C   UNL A   1      37.033  22.941  25.631  1.00  0.00     0.012 C 
ENDBRANCH  15  23
BRANCH  18  26
ATOM     26  C   UNL A   1      32.761  18.754  25.274  1.00  0.00     0.099 C 
ATOM     27  N   UNL A   1      32.413  17.639  25.288  1.00  0.00    -0.192 NA
ENDBRANCH  18  26
ENDBRANCH   9  14
ENDBRANCH   5   8
ENDBRANCH   3   4
ENDBRANCH   2   3
ENDBRANCH   1   2
BRANCH   1  28
ATOM     28  C   UNL A   1      35.162  33.934  29.422  1.00  0.00     0.116 C 
BRANCH  28  29
ATOM     29  N   UNL A   1      34.839  33.265  30.666  1.00  0.00    -0.352 N 
ATOM     30  C   UNL A   1      35.433  32.292  31.422  1.00  0.00     0.251 C 
ATOM     31  H   UNL A   1      33.995  33.585  31.058  1.00  0.00     0.163 HD
ATOM     32  O   UNL A   1      35.009  32.186  32.577  1.00  0.00    -0.269 OA
BRANCH  30  33
ATOM     33  C   UNL A   1      36.457  31.321  30.947  1.00  0.00     0.039 A 
ATOM     34  C   UNL A   1      36.255  29.958  30.743  1.00  0.00     0.014 A 
ATOM     35  C   UNL A   1      37.767  31.831  30.814  1.00  0.00     0.014 A 
ATOM     36  C   UNL A   1      37.348  29.112  30.555  1.00  0.00     0.010 A 
ATOM     37  C   UNL A   1      38.858  30.993  30.610  1.00  0.00     0.010 A 
ATOM     38  C   UNL A   1      38.654  29.622  30.549  1.00  0.00    -0.014 A 
BRANCH  38  39
ATOM     39  C   UNL A   1      39.768  28.690  30.380  1.00  0.00     0.031 A 
ATOM     40  C   UNL A   1      40.495  28.376  31.642  1.00  0.00     0.074 A 
ATOM     41  C   UNL A   1      40.122  28.104  29.215  1.00  0.00     0.049 A 
ATOM     42  N   UNL A   1      41.693  28.736  31.955  1.00  0.00    -0.248 NA
ATOM     43  C   UNL A   1      39.761  27.719  32.732  1.00  0.00     0.031 C 
ATOM     44  C   UNL A   1      39.425  28.106  27.927  1.00  0.00     0.029 A 
ATOM     45  N   UNL A   1      41.201  27.307  28.964  1.00  0.00    -0.354 N 
ATOM     46  C   UNL A   1      41.942  28.216  33.220  1.00  0.00     0.074 A 
ATOM     47  C   UNL A   1      40.680  27.705  33.700  1.00  0.00     0.031 C 
ATOM     48  C   UNL A   1      39.972  27.169  27.113  1.00  0.00     0.029 A 
ATOM     49  C   UNL A   1      41.155  26.621  27.755  1.00  0.00     0.049 A 
ATOM     50  H   UNL A   1      41.955  27.224  29.592  1.00  0.00     0.167 HD
ATOM     51  C   UNL A   1      43.206  28.107  33.716  1.00  0.00     0.031 A 
ATOM     52  C   UNL A   1      42.027  25.675  27.311  1.00  0.00     0.031 A 
ATOM     53  C   UNL A   1      44.141  28.896  32.960  1.00  0.00     0.049 A 
ATOM     54  C   UNL A   1      43.299  25.893  28.043  1.00  0.00     0.074 A 
ATOM     55  C   UNL A   1      44.304  30.248  32.740  1.00  0.00     0.029 A 
ATOM     56  N   UNL A   1      44.854  28.259  31.973  1.00  0.00    -0.354 N 
ATOM     57  N   UNL A   1      44.046  26.948  27.878  1.00  0.00    -0.248 NA
ATOM     58  C   UNL A   1      43.496  25.167  29.287  1.00  0.00     0.031 C 
ATOM     59  C   UNL A   1      44.678  30.350  31.370  1.00  0.00     0.029 A 
ATOM     60  C   UNL A   1      44.808  29.056  30.858  1.00  0.00     0.049 A 
ATOM     61  H   UNL A   1      45.312  27.391  32.051  1.00  0.00     0.167 HD
ATOM     62  C   UNL A   1      44.473  27.275  29.156  1.00  0.00     0.074 A 
ATOM     63  C   UNL A   1      44.159  26.101  29.973  1.00  0.00     0.031 C 
ATOM     64  C   UNL A   1      44.790  28.558  29.496  1.00  0.00     0.031 A 
BRANCH  51  65
ATOM     65  C   UNL A   1      43.649  27.062  34.702  1.00  0.00    -0.014 A 
ATOM     66  C   UNL A   1      44.168  25.812  34.312  1.00  0.00     0.010 A 
ATOM     67  C   UNL A   1      43.782  27.416  36.062  1.00  0.00     0.010 A 
ATOM     68  C   UNL A   1      44.768  24.945  35.226  1.00  0.00     0.020 A 
ATOM     69  C   UNL A   1      44.417  26.569  36.981  1.00  0.00     0.020 A 
ATOM     70  C   UNL A   1      44.896  25.332  36.557  1.00  0.00     0.054 A 
BRANCH  70  71
ATOM     71  S   UNL A   1      45.738  24.209  37.698  1.00  0.00     0.124 S 
ATOM     72  O   UNL A   1      47.135  24.597  37.524  1.00  0.00    -0.237 OA
ATOM     73  O   UNL A   1      45.141  24.562  38.982  1.00  0.00    -0.237 OA
ATOM     74  O   UNL A   1      45.392  22.883  37.193  1.00  0.00    -0.744 OA
ENDBRANCH  70  71
ENDBRANCH  51  65
BRANCH  52  75
ATOM     75  C   UNL A   1      41.693  24.338  26.738  1.00  0.00    -0.014 A 
ATOM     76  C   UNL A   1      40.689  23.551  27.335  1.00  0.00     0.010 A 
ATOM     77  C   UNL A   1      42.576  23.698  25.841  1.00  0.00     0.010 A 
ATOM     78  C   UNL A   1      40.628  22.167  27.128  1.00  0.00     0.020 A 
ATOM     79  C   UNL A   1      42.519  22.307  25.626  1.00  0.00     0.020 A 
ATOM     80  C   UNL A   1      41.569  21.546  26.307  1.00  0.00     0.054 A 
BRANCH  80  81
ATOM     81  S   UNL A   1      41.583  19.728  26.238  1.00  0.00     0.124 S 
ATOM     82  O   UNL A   1      41.875  19.374  27.624  1.00  0.00    -0.237 OA
ATOM     83  O   UNL A   1      40.229  19.418  25.785  1.00  0.00    -0.237 OA
ATOM     84  O   UNL A   1      42.642  19.424  25.279  1.00  0.00    -0.744 OA
ENDBRANCH  80  81
ENDBRANCH  52  75
BRANCH  64  85
ATOM     85  C   UNL A   1      44.905  29.609  28.409  1.00  0.00    -0.014 A 
ATOM     86  C   UNL A   1      46.099  30.352  28.367  1.00  0.00     0.010 A 
ATOM     87  C   UNL A   1      43.830  30.025  27.596  1.00  0.00     0.010 A 
ATOM     88  C   UNL A   1      46.206  31.503  27.586  1.00  0.00     0.020 A 
ATOM     89  C   UNL A   1      43.943  31.168  26.784  1.00  0.00     0.020 A 
ATOM     90  C   UNL A   1      45.124  31.914  26.808  1.00  0.00     0.054 A 
BRANCH  90  91
ATOM     91  S   UNL A   1      45.293  33.456  25.866  1.00  0.00     0.124 S 
ATOM     92  O   UNL A   1      44.640  33.120  24.603  1.00  0.00    -0.237 OA
ATOM     93  O   UNL A   1      44.579  34.422  26.699  1.00  0.00    -0.237 OA
ATOM     94  O   UNL A   1      46.737  33.663  25.781  1.00  0.00    -0.744 OA
ENDBRANCH  90  91
ENDBRANCH  64  85
ENDBRANCH  38  39
ENDBRANCH  30  33
ENDBRANCH  28  29
ENDBRANCH   1  28
TORSDOF 17
ENDMDL
