MODEL 1
REMARK VINA RESULT:     -14.0      0.000      0.000
REMARK SMILES Cc1ccccc1NC(=O)CSc1nc(C(=O)NCCCCNC(=O)c2ccc(-c3c4nc(c(-c5ccc(S(=O)(=O)[O-])cc5)c5ccc([nH]5)c(-c5ccc(S(=O)(=O)[O-])cc5)c5nc(c(-c6ccc(S(=O)(=O)[O-])cc6)c6ccc3[nH]6)C=C5)C=C4)cc2)c2ccccc2n1
REMARK SMILES IDX 20 1 19 2 18 3 16 4 17 5 15 7 13 8 14 9 92 10 91 11 86 12
REMARK SMILES IDX 90 13 87 14 89 15 88 16 12 17 11 18 9 19 8 20 10 22 7 23
REMARK SMILES IDX 1 24 2 25 3 26 4 27 6 28 5 29 21 30 22 31 23 32 24 33 25 35
REMARK SMILES IDX 26 36 27 37 85 38 28 39 84 40 29 41 30 42 31 43 78 44 32 45
REMARK SMILES IDX 83 46 77 47 79 48 33 49 82 50 76 51 75 52 34 54 64 55 45 56
REMARK SMILES IDX 63 57 46 58 49 59 62 60 80 61 47 62 48 63 61 65 81 66 50 67
REMARK SMILES IDX 35 68 36 69 44 70 37 71 43 72 38 73 39 74 40 75 41 76 42 77
REMARK SMILES IDX 65 78 66 79 74 80 67 81 73 82 68 83 69 84 70 85 71 86 72 87
REMARK SMILES IDX 51 88 52 89 60 90 53 91 59 92 54 93 55 94 56 95 57 96 58 97
REMARK H PARENT 18 6 8 21 23 34 79 53 49 64
REMARK Flexibility Score: inf
ROOT
ATOM      1  C   UNL A   1      37.626  21.438  24.854  1.00  0.00     0.023 C 
ENDROOT
BRANCH   1   2
ATOM      2  C   UNL A   1      36.319  20.677  25.068  1.00  0.00     0.116 C 
BRANCH   2   3
ATOM      3  N   UNL A   1      35.525  21.079  26.223  1.00  0.00    -0.351 N 
ATOM      4  C   UNL A   1      34.152  21.202  26.376  1.00  0.00     0.270 C 
ATOM      5  O   UNL A   1      33.714  21.478  27.493  1.00  0.00    -0.267 OA
ATOM      6  H   UNL A   1      36.049  21.298  27.026  1.00  0.00     0.163 HD
BRANCH   4   7
ATOM      7  C   UNL A   1      33.206  21.121  25.212  1.00  0.00     0.140 A 
ATOM      8  C   UNL A   1      32.088  22.365  23.670  1.00  0.00     0.189 A 
ATOM      9  N   UNL A   1      32.758  22.340  24.817  1.00  0.00    -0.217 NA
ATOM     10  N   UNL A   1      31.939  21.324  22.844  1.00  0.00    -0.222 NA
ATOM     11  C   UNL A   1      32.370  20.132  23.268  1.00  0.00     0.076 A 
ATOM     12  C   UNL A   1      32.934  19.931  24.528  1.00  0.00     0.032 A 
ATOM     13  C   UNL A   1      32.291  19.049  22.400  1.00  0.00     0.029 A 
ATOM     14  C   UNL A   1      33.221  18.609  24.961  1.00  0.00     0.013 A 
ATOM     15  C   UNL A   1      32.703  17.768  22.778  1.00  0.00     0.002 A 
ATOM     16  C   UNL A   1      33.134  17.540  24.076  1.00  0.00     0.001 A 
BRANCH   8  17
ATOM     17  S   UNL A   1      31.475  23.922  23.095  1.00  0.00    -0.076 SA
BRANCH  17  18
ATOM     18  C   UNL A   1      33.009  24.634  22.434  1.00  0.00     0.178 C 
BRANCH  18  19
ATOM     19  C   UNL A   1      32.801  25.585  21.275  1.00  0.00     0.234 C 
ATOM     20  N   UNL A   1      32.291  26.843  21.362  1.00  0.00    -0.325 N 
ATOM     21  H   UNL A   1      32.214  27.270  20.478  1.00  0.00     0.169 HD
ATOM     22  O   UNL A   1      33.078  25.207  20.127  1.00  0.00    -0.274 OA
BRANCH  20  23
ATOM     23  C   UNL A   1      31.843  27.693  22.393  1.00  0.00     0.044 A 
ATOM     24  C   UNL A   1      34.252  28.607  22.723  1.00  0.00     0.046 C 
ATOM     25  C   UNL A   1      32.789  28.493  23.079  1.00  0.00    -0.027 A 
ATOM     26  C   UNL A   1      32.382  29.231  24.212  1.00  0.00     0.005 A 
ATOM     27  C   UNL A   1      31.060  29.229  24.636  1.00  0.00     0.000 A 
ATOM     28  C   UNL A   1      30.506  27.776  22.790  1.00  0.00     0.026 A 
ATOM     29  C   UNL A   1      30.116  28.522  23.909  1.00  0.00     0.002 A 
ENDBRANCH  20  23
ENDBRANCH  18  19
ENDBRANCH  17  18
ENDBRANCH   8  17
ENDBRANCH   4   7
ENDBRANCH   2   3
ENDBRANCH   1   2
BRANCH   1  30
ATOM     30  C   UNL A   1      37.545  22.958  24.883  1.00  0.00     0.023 C 
BRANCH  30  31
ATOM     31  C   UNL A   1      37.736  23.609  26.247  1.00  0.00     0.116 C 
BRANCH  31  32
ATOM     32  N   UNL A   1      38.959  23.218  26.936  1.00  0.00    -0.352 N 
ATOM     33  C   UNL A   1      39.894  24.026  27.576  1.00  0.00     0.251 C 
ATOM     34  H   UNL A   1      39.150  22.253  26.948  1.00  0.00     0.163 HD
ATOM     35  O   UNL A   1      40.937  23.561  27.994  1.00  0.00    -0.269 OA
BRANCH  33  36
ATOM     36  C   UNL A   1      39.558  25.455  27.795  1.00  0.00     0.039 A 
ATOM     37  C   UNL A   1      39.968  26.397  26.846  1.00  0.00     0.014 A 
ATOM     38  C   UNL A   1      39.029  25.868  29.010  1.00  0.00     0.014 A 
ATOM     39  C   UNL A   1      40.051  27.744  27.205  1.00  0.00     0.010 A 
ATOM     40  C   UNL A   1      39.243  27.168  29.411  1.00  0.00     0.010 A 
ATOM     41  C   UNL A   1      39.790  28.105  28.524  1.00  0.00    -0.014 A 
BRANCH  41  42
ATOM     42  C   UNL A   1      40.089  29.403  29.119  1.00  0.00     0.031 A 
ATOM     43  C   UNL A   1      39.077  30.488  29.061  1.00  0.00     0.074 A 
ATOM     44  C   UNL A   1      41.173  29.535  29.916  1.00  0.00     0.049 A 
ATOM     45  N   UNL A   1      39.291  31.717  29.391  1.00  0.00    -0.248 NA
ATOM     46  C   UNL A   1      37.723  30.267  28.560  1.00  0.00     0.031 C 
ATOM     47  C   UNL A   1      41.382  30.551  30.946  1.00  0.00     0.029 A 
ATOM     48  N   UNL A   1      42.416  28.905  29.815  1.00  0.00    -0.354 N 
ATOM     49  C   UNL A   1      38.064  32.339  29.483  1.00  0.00     0.074 A 
ATOM     50  C   UNL A   1      37.139  31.431  28.852  1.00  0.00     0.031 C 
ATOM     51  C   UNL A   1      42.700  30.687  31.154  1.00  0.00     0.029 A 
ATOM     52  C   UNL A   1      43.370  29.884  30.145  1.00  0.00     0.049 A 
ATOM     53  H   UNL A   1      42.588  27.968  29.563  1.00  0.00     0.167 HD
ATOM     54  C   UNL A   1      37.947  33.481  30.220  1.00  0.00     0.031 A 
ATOM     55  C   UNL A   1      44.318  30.353  29.282  1.00  0.00     0.031 A 
ATOM     56  C   UNL A   1      39.256  33.992  30.626  1.00  0.00     0.049 A 
ATOM     57  C   UNL A   1      44.254  31.852  29.078  1.00  0.00     0.074 A 
ATOM     58  C   UNL A   1      39.958  33.986  31.820  1.00  0.00     0.029 A 
ATOM     59  N   UNL A   1      40.161  34.374  29.641  1.00  0.00    -0.354 N 
ATOM     60  N   UNL A   1      43.236  32.591  29.419  1.00  0.00    -0.248 NA
ATOM     61  C   UNL A   1      45.313  32.631  28.443  1.00  0.00     0.031 C 
ATOM     62  C   UNL A   1      41.317  34.285  31.531  1.00  0.00     0.029 A 
ATOM     63  C   UNL A   1      41.430  34.503  30.169  1.00  0.00     0.049 A 
ATOM     64  H   UNL A   1      39.928  34.531  28.698  1.00  0.00     0.167 HD
ATOM     65  C   UNL A   1      43.468  33.897  29.073  1.00  0.00     0.074 A 
ATOM     66  C   UNL A   1      44.791  33.872  28.475  1.00  0.00     0.031 C 
ATOM     67  C   UNL A   1      42.544  34.879  29.303  1.00  0.00     0.031 A 
BRANCH  54  68
ATOM     68  C   UNL A   1      36.637  33.988  30.799  1.00  0.00    -0.014 A 
ATOM     69  C   UNL A   1      35.495  34.076  29.973  1.00  0.00     0.010 A 
ATOM     70  C   UNL A   1      36.472  34.469  32.112  1.00  0.00     0.010 A 
ATOM     71  C   UNL A   1      34.301  34.684  30.402  1.00  0.00     0.020 A 
ATOM     72  C   UNL A   1      35.296  35.096  32.551  1.00  0.00     0.020 A 
ATOM     73  C   UNL A   1      34.218  35.214  31.686  1.00  0.00     0.054 A 
BRANCH  73  74
ATOM     74  S   UNL A   1      32.704  36.056  32.213  1.00  0.00     0.124 S 
ATOM     75  O   UNL A   1      32.318  36.793  31.013  1.00  0.00    -0.237 OA
ATOM     76  O   UNL A   1      31.834  34.942  32.579  1.00  0.00    -0.237 OA
ATOM     77  O   UNL A   1      33.143  36.892  33.332  1.00  0.00    -0.744 OA
ENDBRANCH  73  74
ENDBRANCH  54  68
BRANCH  55  78
ATOM     78  C   UNL A   1      44.756  29.365  28.258  1.00  0.00    -0.014 A 
ATOM     79  C   UNL A   1      45.655  28.363  28.684  1.00  0.00     0.010 A 
ATOM     80  C   UNL A   1      43.967  29.136  27.116  1.00  0.00     0.010 A 
ATOM     81  C   UNL A   1      45.615  27.092  28.113  1.00  0.00     0.020 A 
ATOM     82  C   UNL A   1      43.934  27.860  26.535  1.00  0.00     0.020 A 
ATOM     83  C   UNL A   1      44.698  26.831  27.093  1.00  0.00     0.054 A 
BRANCH  83  84
ATOM     84  S   UNL A   1      44.348  25.091  26.700  1.00  0.00     0.124 S 
ATOM     85  O   UNL A   1      43.182  25.195  25.828  1.00  0.00    -0.237 OA
ATOM     86  O   UNL A   1      45.591  24.689  26.044  1.00  0.00    -0.237 OA
ATOM     87  O   UNL A   1      44.109  24.492  28.008  1.00  0.00    -0.744 OA
ENDBRANCH  83  84
ENDBRANCH  55  78
BRANCH  67  88
ATOM     88  C   UNL A   1      42.598  36.305  28.801  1.00  0.00    -0.014 A 
ATOM     89  C   UNL A   1      43.372  37.325  29.374  1.00  0.00     0.010 A 
ATOM     90  C   UNL A   1      41.921  36.625  27.596  1.00  0.00     0.010 A 
ATOM     91  C   UNL A   1      43.423  38.610  28.810  1.00  0.00     0.020 A 
ATOM     92  C   UNL A   1      42.002  37.887  27.000  1.00  0.00     0.020 A 
ATOM     93  C   UNL A   1      42.735  38.884  27.628  1.00  0.00     0.054 A 
BRANCH  93  94
ATOM     94  S   UNL A   1      42.867  40.523  26.870  1.00  0.00     0.124 S 
ATOM     95  O   UNL A   1      43.327  41.337  27.993  1.00  0.00    -0.237 OA
ATOM     96  O   UNL A   1      43.847  40.315  25.806  1.00  0.00    -0.237 OA
ATOM     97  O   UNL A   1      41.508  40.797  26.409  1.00  0.00    -0.744 OA
ENDBRANCH  93  94
ENDBRANCH  67  88
ENDBRANCH  41  42
ENDBRANCH  33  36
ENDBRANCH  31  32
ENDBRANCH  30  31
ENDBRANCH   1  30
TORSDOF 18
ENDMDL
MODEL 2
REMARK VINA RESULT:     -13.4      3.963     10.762
REMARK SMILES Cc1ccccc1NC(=O)CSc1nc(C(=O)NCCCCNC(=O)c2ccc(-c3c4nc(c(-c5ccc(S(=O)(=O)[O-])cc5)c5ccc([nH]5)c(-c5ccc(S(=O)(=O)[O-])cc5)c5nc(c(-c6ccc(S(=O)(=O)[O-])cc6)c6ccc3[nH]6)C=C5)C=C4)cc2)c2ccccc2n1
REMARK SMILES IDX 20 1 19 2 18 3 16 4 17 5 15 7 13 8 14 9 92 10 91 11 86 12
REMARK SMILES IDX 90 13 87 14 89 15 88 16 12 17 11 18 9 19 8 20 10 22 7 23
REMARK SMILES IDX 1 24 2 25 3 26 4 27 6 28 5 29 21 30 22 31 23 32 24 33 25 35
REMARK SMILES IDX 26 36 27 37 85 38 28 39 84 40 29 41 30 42 31 43 78 44 32 45
REMARK SMILES IDX 83 46 77 47 79 48 33 49 82 50 76 51 75 52 34 54 64 55 45 56
REMARK SMILES IDX 63 57 46 58 49 59 62 60 80 61 47 62 48 63 61 65 81 66 50 67
REMARK SMILES IDX 35 68 36 69 44 70 37 71 43 72 38 73 39 74 40 75 41 76 42 77
REMARK SMILES IDX 65 78 66 79 74 80 67 81 73 82 68 83 69 84 70 85 71 86 72 87
REMARK SMILES IDX 51 88 52 89 60 90 53 91 59 92 54 93 55 94 56 95 57 96 58 97
REMARK H PARENT 18 6 8 21 23 34 79 53 49 64
REMARK Flexibility Score: inf
ROOT
ATOM      1  C   UNL A   1      32.250  28.987  24.235  1.00  0.00     0.023 C 
ENDROOT
BRANCH   1   2
ATOM      2  C   UNL A   1      33.596  28.730  23.559  1.00  0.00     0.116 C 
BRANCH   2   3
ATOM      3  N   UNL A   1      33.570  27.869  22.382  1.00  0.00    -0.351 N 
ATOM      4  C   UNL A   1      33.340  26.507  22.266  1.00  0.00     0.270 C 
ATOM      5  O   UNL A   1      33.283  26.022  21.136  1.00  0.00    -0.267 OA
ATOM      6  H   UNL A   1      33.744  28.331  21.531  1.00  0.00     0.163 HD
BRANCH   4   7
ATOM      7  C   UNL A   1      33.270  25.601  23.462  1.00  0.00     0.140 A 
ATOM      8  C   UNL A   1      34.531  24.420  24.942  1.00  0.00     0.189 A 
ATOM      9  N   UNL A   1      34.473  25.060  23.779  1.00  0.00    -0.217 NA
ATOM     10  N   UNL A   1      33.548  24.382  25.848  1.00  0.00    -0.222 NA
ATOM     11  C   UNL A   1      32.366  24.902  25.500  1.00  0.00     0.076 A 
ATOM     12  C   UNL A   1      32.117  25.450  24.241  1.00  0.00     0.032 A 
ATOM     13  C   UNL A   1      31.352  24.939  26.448  1.00  0.00     0.029 A 
ATOM     14  C   UNL A   1      30.795  25.838  23.899  1.00  0.00     0.013 A 
ATOM     15  C   UNL A   1      30.084  25.450  26.154  1.00  0.00     0.002 A 
ATOM     16  C   UNL A   1      29.793  25.866  24.864  1.00  0.00     0.001 A 
BRANCH   8  17
ATOM     17  S   UNL A   1      36.070  23.690  25.418  1.00  0.00    -0.076 SA
BRANCH  17  18
ATOM     18  C   UNL A   1      35.720  21.949  25.040  1.00  0.00     0.178 C 
BRANCH  18  19
ATOM     19  C   UNL A   1      34.789  21.276  26.025  1.00  0.00     0.234 C 
ATOM     20  N   UNL A   1      33.899  20.291  25.729  1.00  0.00    -0.325 N 
ATOM     21  H   UNL A   1      33.373  20.023  26.518  1.00  0.00     0.169 HD
ATOM     22  O   UNL A   1      34.786  21.652  27.207  1.00  0.00    -0.274 OA
BRANCH  20  23
ATOM     23  C   UNL A   1      33.535  19.554  24.585  1.00  0.00     0.044 A 
ATOM     24  C   UNL A   1      32.154  21.565  23.695  1.00  0.00     0.046 C 
ATOM     25  C   UNL A   1      32.658  20.143  23.642  1.00  0.00    -0.027 A 
ATOM     26  C   UNL A   1      32.163  19.364  22.573  1.00  0.00     0.005 A 
ATOM     27  C   UNL A   1      32.562  18.045  22.399  1.00  0.00     0.000 A 
ATOM     28  C   UNL A   1      33.984  18.254  24.338  1.00  0.00     0.026 A 
ATOM     29  C   UNL A   1      33.494  17.498  23.266  1.00  0.00     0.002 A 
ENDBRANCH  20  23
ENDBRANCH  18  19
ENDBRANCH  17  18
ENDBRANCH   8  17
ENDBRANCH   4   7
ENDBRANCH   2   3
ENDBRANCH   1   2
BRANCH   1  30
ATOM     30  C   UNL A   1      32.247  29.961  25.404  1.00  0.00     0.023 C 
BRANCH  30  31
ATOM     31  C   UNL A   1      33.452  29.889  26.334  1.00  0.00     0.116 C 
BRANCH  31  32
ATOM     32  N   UNL A   1      33.767  31.141  27.011  1.00  0.00    -0.352 N 
ATOM     33  C   UNL A   1      34.764  31.397  27.948  1.00  0.00     0.251 C 
ATOM     34  H   UNL A   1      33.198  31.908  26.774  1.00  0.00     0.163 HD
ATOM     35  O   UNL A   1      34.819  32.467  28.523  1.00  0.00    -0.269 OA
BRANCH  33  36
ATOM     36  C   UNL A   1      35.797  30.357  28.179  1.00  0.00     0.039 A 
ATOM     37  C   UNL A   1      35.890  29.768  29.445  1.00  0.00     0.014 A 
ATOM     38  C   UNL A   1      36.777  30.124  27.224  1.00  0.00     0.014 A 
ATOM     39  C   UNL A   1      37.072  29.127  29.821  1.00  0.00     0.010 A 
ATOM     40  C   UNL A   1      37.991  29.620  27.637  1.00  0.00     0.010 A 
ATOM     41  C   UNL A   1      38.156  29.153  28.948  1.00  0.00    -0.014 A 
BRANCH  41  42
ATOM     42  C   UNL A   1      39.525  28.775  29.289  1.00  0.00     0.031 A 
ATOM     43  C   UNL A   1      40.026  27.426  28.924  1.00  0.00     0.074 A 
ATOM     44  C   UNL A   1      40.389  29.723  29.716  1.00  0.00     0.049 A 
ATOM     45  N   UNL A   1      41.144  26.921  29.325  1.00  0.00    -0.248 NA
ATOM     46  C   UNL A   1      39.253  26.503  28.098  1.00  0.00     0.031 C 
ATOM     47  C   UNL A   1      41.848  29.668  29.652  1.00  0.00     0.029 A 
ATOM     48  N   UNL A   1      40.134  30.851  30.500  1.00  0.00    -0.354 N 
ATOM     49  C   UNL A   1      41.389  25.803  28.556  1.00  0.00     0.074 A 
ATOM     50  C   UNL A   1      40.139  25.527  27.892  1.00  0.00     0.031 C 
ATOM     51  C   UNL A   1      42.350  30.491  30.584  1.00  0.00     0.029 A 
ATOM     52  C   UNL A   1      41.229  30.964  31.376  1.00  0.00     0.049 A 
ATOM     53  H   UNL A   1      39.350  31.444  30.449  1.00  0.00     0.167 HD
ATOM     54  C   UNL A   1      42.665  25.331  28.449  1.00  0.00     0.031 A 
ATOM     55  C   UNL A   1      41.137  30.860  32.734  1.00  0.00     0.031 A 
ATOM     56  C   UNL A   1      43.562  25.999  29.393  1.00  0.00     0.049 A 
ATOM     57  C   UNL A   1      42.012  29.767  33.312  1.00  0.00     0.074 A 
ATOM     58  C   UNL A   1      44.533  26.978  29.262  1.00  0.00     0.029 A 
ATOM     59  N   UNL A   1      43.318  25.869  30.756  1.00  0.00    -0.354 N 
ATOM     60  N   UNL A   1      42.554  28.816  32.602  1.00  0.00    -0.248 NA
ATOM     61  C   UNL A   1      42.316  29.635  34.733  1.00  0.00     0.031 C 
ATOM     62  C   UNL A   1      44.808  27.498  30.556  1.00  0.00     0.029 A 
ATOM     63  C   UNL A   1      44.029  26.811  31.471  1.00  0.00     0.049 A 
ATOM     64  H   UNL A   1      42.720  25.197  31.155  1.00  0.00     0.167 HD
ATOM     65  C   UNL A   1      43.255  27.966  33.417  1.00  0.00     0.074 A 
ATOM     66  C   UNL A   1      43.086  28.530  34.744  1.00  0.00     0.031 C 
ATOM     67  C   UNL A   1      43.906  26.869  32.924  1.00  0.00     0.031 A 
BRANCH  54  68
ATOM     68  C   UNL A   1      43.156  24.457  27.307  1.00  0.00    -0.014 A 
ATOM     69  C   UNL A   1      42.925  23.065  27.344  1.00  0.00     0.010 A 
ATOM     70  C   UNL A   1      43.915  24.916  26.214  1.00  0.00     0.010 A 
ATOM     71  C   UNL A   1      43.489  22.184  26.404  1.00  0.00     0.020 A 
ATOM     72  C   UNL A   1      44.503  24.050  25.279  1.00  0.00     0.020 A 
ATOM     73  C   UNL A   1      44.298  22.683  25.388  1.00  0.00     0.054 A 
BRANCH  73  74
ATOM     74  S   UNL A   1      45.079  21.540  24.219  1.00  0.00     0.124 S 
ATOM     75  O   UNL A   1      46.498  21.845  24.380  1.00  0.00    -0.237 OA
ATOM     76  O   UNL A   1      44.652  20.236  24.719  1.00  0.00    -0.237 OA
ATOM     77  O   UNL A   1      44.511  21.924  22.927  1.00  0.00    -0.744 OA
ENDBRANCH  73  74
ENDBRANCH  54  68
BRANCH  55  78
ATOM     78  C   UNL A   1      39.832  31.301  33.296  1.00  0.00    -0.014 A 
ATOM     79  C   UNL A   1      39.640  32.691  33.446  1.00  0.00     0.010 A 
ATOM     80  C   UNL A   1      38.705  30.461  33.208  1.00  0.00     0.010 A 
ATOM     81  C   UNL A   1      38.370  33.248  33.301  1.00  0.00     0.020 A 
ATOM     82  C   UNL A   1      37.427  31.020  33.072  1.00  0.00     0.020 A 
ATOM     83  C   UNL A   1      37.285  32.410  33.038  1.00  0.00     0.054 A 
BRANCH  83  84
ATOM     84  S   UNL A   1      35.763  33.176  32.403  1.00  0.00     0.124 S 
ATOM     85  O   UNL A   1      36.256  33.974  31.285  1.00  0.00    -0.237 OA
ATOM     86  O   UNL A   1      34.979  31.997  32.038  1.00  0.00    -0.237 OA
ATOM     87  O   UNL A   1      35.263  33.929  33.547  1.00  0.00    -0.744 OA
ENDBRANCH  83  84
ENDBRANCH  55  78
BRANCH  67  88
ATOM     88  C   UNL A   1      44.545  25.760  33.732  1.00  0.00    -0.014 A 
ATOM     89  C   UNL A   1      43.879  24.982  34.690  1.00  0.00     0.010 A 
ATOM     90  C   UNL A   1      45.879  25.384  33.428  1.00  0.00     0.010 A 
ATOM     91  C   UNL A   1      44.523  23.924  35.351  1.00  0.00     0.020 A 
ATOM     92  C   UNL A   1      46.515  24.303  34.046  1.00  0.00     0.020 A 
ATOM     93  C   UNL A   1      45.838  23.593  35.027  1.00  0.00     0.054 A 
BRANCH  93  94
ATOM     94  S   UNL A   1      46.635  22.181  35.832  1.00  0.00     0.124 S 
ATOM     95  O   UNL A   1      46.524  21.147  34.806  1.00  0.00    -0.237 OA
ATOM     96  O   UNL A   1      47.991  22.668  36.084  1.00  0.00    -0.237 OA
ATOM     97  O   UNL A   1      45.827  21.968  37.030  1.00  0.00    -0.744 OA
ENDBRANCH  93  94
ENDBRANCH  67  88
ENDBRANCH  41  42
ENDBRANCH  33  36
ENDBRANCH  31  32
ENDBRANCH  30  31
ENDBRANCH   1  30
TORSDOF 18
ENDMDL
MODEL 3
REMARK VINA RESULT:     -13.2      4.145     10.918
REMARK SMILES Cc1ccccc1NC(=O)CSc1nc(C(=O)NCCCCNC(=O)c2ccc(-c3c4nc(c(-c5ccc(S(=O)(=O)[O-])cc5)c5ccc([nH]5)c(-c5ccc(S(=O)(=O)[O-])cc5)c5nc(c(-c6ccc(S(=O)(=O)[O-])cc6)c6ccc3[nH]6)C=C5)C=C4)cc2)c2ccccc2n1
REMARK SMILES IDX 20 1 19 2 18 3 16 4 17 5 15 7 13 8 14 9 92 10 91 11 86 12
REMARK SMILES IDX 90 13 87 14 89 15 88 16 12 17 11 18 9 19 8 20 10 22 7 23
REMARK SMILES IDX 1 24 2 25 3 26 4 27 6 28 5 29 21 30 22 31 23 32 24 33 25 35
REMARK SMILES IDX 26 36 27 37 85 38 28 39 84 40 29 41 30 42 31 43 78 44 32 45
REMARK SMILES IDX 83 46 77 47 79 48 33 49 82 50 76 51 75 52 34 54 64 55 45 56
REMARK SMILES IDX 63 57 46 58 49 59 62 60 80 61 47 62 48 63 61 65 81 66 50 67
REMARK SMILES IDX 35 68 36 69 44 70 37 71 43 72 38 73 39 74 40 75 41 76 42 77
REMARK SMILES IDX 65 78 66 79 74 80 67 81 73 82 68 83 69 84 70 85 71 86 72 87
REMARK SMILES IDX 51 88 52 89 60 90 53 91 59 92 54 93 55 94 56 95 57 96 58 97
REMARK H PARENT 18 6 8 21 23 34 79 53 49 64
REMARK Flexibility Score: inf
ROOT
ATOM      1  C   UNL A   1      32.432  29.670  25.184  1.00  0.00     0.023 C 
ENDROOT
BRANCH   1   2
ATOM      2  C   UNL A   1      33.542  28.622  25.127  1.00  0.00     0.116 C 
BRANCH   2   3
ATOM      3  N   UNL A   1      33.982  28.225  23.794  1.00  0.00    -0.351 N 
ATOM      4  C   UNL A   1      33.323  27.519  22.799  1.00  0.00     0.270 C 
ATOM      5  O   UNL A   1      33.885  27.384  21.712  1.00  0.00    -0.267 OA
ATOM      6  H   UNL A   1      34.897  28.504  23.563  1.00  0.00     0.163 HD
BRANCH   4   7
ATOM      7  C   UNL A   1      32.011  26.829  23.042  1.00  0.00     0.140 A 
ATOM      8  C   UNL A   1      31.050  25.006  24.006  1.00  0.00     0.189 A 
ATOM      9  N   UNL A   1      32.162  25.589  23.572  1.00  0.00    -0.217 NA
ATOM     10  N   UNL A   1      29.849  25.592  24.066  1.00  0.00    -0.222 NA
ATOM     11  C   UNL A   1      29.723  26.803  23.515  1.00  0.00     0.076 A 
ATOM     12  C   UNL A   1      30.773  27.457  22.868  1.00  0.00     0.032 A 
ATOM     13  C   UNL A   1      28.505  27.461  23.628  1.00  0.00     0.029 A 
ATOM     14  C   UNL A   1      30.516  28.670  22.175  1.00  0.00     0.013 A 
ATOM     15  C   UNL A   1      28.291  28.722  23.062  1.00  0.00     0.002 A 
ATOM     16  C   UNL A   1      29.289  29.311  22.300  1.00  0.00     0.001 A 
BRANCH   8  17
ATOM     17  S   UNL A   1      31.175  23.389  24.710  1.00  0.00    -0.076 SA
BRANCH  17  18
ATOM     18  C   UNL A   1      32.114  22.551  23.401  1.00  0.00     0.178 C 
BRANCH  18  19
ATOM     19  C   UNL A   1      32.745  21.244  23.830  1.00  0.00     0.234 C 
ATOM     20  N   UNL A   1      33.987  21.102  24.367  1.00  0.00    -0.325 N 
ATOM     21  H   UNL A   1      34.204  20.157  24.541  1.00  0.00     0.169 HD
ATOM     22  O   UNL A   1      32.118  20.187  23.663  1.00  0.00    -0.274 OA
BRANCH  20  23
ATOM     23  C   UNL A   1      35.042  21.958  24.738  1.00  0.00     0.044 A 
ATOM     24  C   UNL A   1      34.162  22.029  27.180  1.00  0.00     0.046 C 
ATOM     25  C   UNL A   1      35.094  22.444  26.067  1.00  0.00    -0.027 A 
ATOM     26  C   UNL A   1      36.052  23.422  26.412  1.00  0.00     0.005 A 
ATOM     27  C   UNL A   1      36.981  23.878  25.485  1.00  0.00     0.000 A 
ATOM     28  C   UNL A   1      36.040  22.371  23.851  1.00  0.00     0.026 A 
ATOM     29  C   UNL A   1      36.992  23.332  24.212  1.00  0.00     0.002 A 
ENDBRANCH  20  23
ENDBRANCH  18  19
ENDBRANCH  17  18
ENDBRANCH   8  17
ENDBRANCH   4   7
ENDBRANCH   2   3
ENDBRANCH   1   2
BRANCH   1  30
ATOM     30  C   UNL A   1      32.234  30.384  26.513  1.00  0.00     0.023 C 
BRANCH  30  31
ATOM     31  C   UNL A   1      33.388  30.281  27.503  1.00  0.00     0.116 C 
BRANCH  31  32
ATOM     32  N   UNL A   1      33.984  31.559  27.869  1.00  0.00    -0.352 N 
ATOM     33  C   UNL A   1      35.215  31.806  28.469  1.00  0.00     0.251 C 
ATOM     34  H   UNL A   1      33.441  32.355  27.667  1.00  0.00     0.163 HD
ATOM     35  O   UNL A   1      35.517  32.926  28.835  1.00  0.00    -0.269 OA
BRANCH  33  36
ATOM     36  C   UNL A   1      36.176  30.682  28.593  1.00  0.00     0.039 A 
ATOM     37  C   UNL A   1      36.187  29.930  29.772  1.00  0.00     0.014 A 
ATOM     38  C   UNL A   1      37.176  30.513  27.645  1.00  0.00     0.014 A 
ATOM     39  C   UNL A   1      37.315  29.173  30.095  1.00  0.00     0.010 A 
ATOM     40  C   UNL A   1      38.342  29.885  28.024  1.00  0.00     0.010 A 
ATOM     41  C   UNL A   1      38.430  29.243  29.266  1.00  0.00    -0.014 A 
BRANCH  41  42
ATOM     42  C   UNL A   1      39.760  28.739  29.595  1.00  0.00     0.031 A 
ATOM     43  C   UNL A   1      40.165  27.385  29.140  1.00  0.00     0.074 A 
ATOM     44  C   UNL A   1      40.686  29.586  30.099  1.00  0.00     0.049 A 
ATOM     45  N   UNL A   1      41.235  26.769  29.516  1.00  0.00    -0.248 NA
ATOM     46  C   UNL A   1      39.339  26.584  28.241  1.00  0.00     0.031 C 
ATOM     47  C   UNL A   1      42.138  29.425  30.047  1.00  0.00     0.029 A 
ATOM     48  N   UNL A   1      40.503  30.672  30.958  1.00  0.00    -0.354 N 
ATOM     49  C   UNL A   1      41.409  25.693  28.672  1.00  0.00     0.074 A 
ATOM     50  C   UNL A   1      40.153  25.560  27.976  1.00  0.00     0.031 C 
ATOM     51  C   UNL A   1      42.685  30.139  31.042  1.00  0.00     0.029 A 
ATOM     52  C   UNL A   1      41.588  30.639  31.853  1.00  0.00     0.049 A 
ATOM     53  H   UNL A   1      39.767  31.325  30.942  1.00  0.00     0.167 HD
ATOM     54  C   UNL A   1      42.648  25.135  28.546  1.00  0.00     0.031 A 
ATOM     55  C   UNL A   1      41.466  30.446  33.200  1.00  0.00     0.031 A 
ATOM     56  C   UNL A   1      43.576  25.664  29.546  1.00  0.00     0.049 A 
ATOM     57  C   UNL A   1      42.247  29.252  33.707  1.00  0.00     0.074 A 
ATOM     58  C   UNL A   1      44.619  26.573  29.497  1.00  0.00     0.029 A 
ATOM     59  N   UNL A   1      43.300  25.456  30.893  1.00  0.00    -0.354 N 
ATOM     60  N   UNL A   1      42.728  28.315  32.938  1.00  0.00    -0.248 NA
ATOM     61  C   UNL A   1      42.516  28.997  35.119  1.00  0.00     0.031 C 
ATOM     62  C   UNL A   1      44.911  26.977  30.828  1.00  0.00     0.029 A 
ATOM     63  C   UNL A   1      44.067  26.289  31.682  1.00  0.00     0.049 A 
ATOM     64  H   UNL A   1      42.646  24.805  31.236  1.00  0.00     0.167 HD
ATOM     65  C   UNL A   1      43.350  27.359  33.697  1.00  0.00     0.074 A 
ATOM     66  C   UNL A   1      43.200  27.839  35.059  1.00  0.00     0.031 C 
ATOM     67  C   UNL A   1      43.924  26.253  33.134  1.00  0.00     0.031 A 
BRANCH  54  68
ATOM     68  C   UNL A   1      43.091  24.309  27.350  1.00  0.00    -0.014 A 
ATOM     69  C   UNL A   1      42.833  22.920  27.326  1.00  0.00     0.010 A 
ATOM     70  C   UNL A   1      43.830  24.806  26.260  1.00  0.00     0.010 A 
ATOM     71  C   UNL A   1      43.354  22.077  26.329  1.00  0.00     0.020 A 
ATOM     72  C   UNL A   1      44.376  23.976  25.269  1.00  0.00     0.020 A 
ATOM     73  C   UNL A   1      44.147  22.609  25.317  1.00  0.00     0.054 A 
BRANCH  73  74
ATOM     74  S   UNL A   1      44.873  21.511  24.073  1.00  0.00     0.124 S 
ATOM     75  O   UNL A   1      44.411  22.103  22.821  1.00  0.00    -0.237 OA
ATOM     76  O   UNL A   1      46.303  21.633  24.341  1.00  0.00    -0.237 OA
ATOM     77  O   UNL A   1      44.295  20.203  24.384  1.00  0.00    -0.744 OA
ENDBRANCH  73  74
ENDBRANCH  54  68
BRANCH  55  78
ATOM     78  C   UNL A   1      40.188  30.944  33.776  1.00  0.00    -0.014 A 
ATOM     79  C   UNL A   1      40.071  32.340  33.954  1.00  0.00     0.010 A 
ATOM     80  C   UNL A   1      39.019  30.167  33.678  1.00  0.00     0.010 A 
ATOM     81  C   UNL A   1      38.831  32.965  33.826  1.00  0.00     0.020 A 
ATOM     82  C   UNL A   1      37.771  30.795  33.560  1.00  0.00     0.020 A 
ATOM     83  C   UNL A   1      37.703  32.191  33.553  1.00  0.00     0.054 A 
BRANCH  83  84
ATOM     84  S   UNL A   1      36.221  33.048  32.940  1.00  0.00     0.124 S 
ATOM     85  O   UNL A   1      36.784  34.029  32.019  1.00  0.00    -0.237 OA
ATOM     86  O   UNL A   1      35.489  31.947  32.318  1.00  0.00    -0.237 OA
ATOM     87  O   UNL A   1      35.621  33.591  34.154  1.00  0.00    -0.744 OA
ENDBRANCH  83  84
ENDBRANCH  55  78
BRANCH  67  88
ATOM     88  C   UNL A   1      44.465  25.044  33.867  1.00  0.00    -0.014 A 
ATOM     89  C   UNL A   1      43.676  24.091  34.528  1.00  0.00     0.010 A 
ATOM     90  C   UNL A   1      45.855  24.772  33.790  1.00  0.00     0.010 A 
ATOM     91  C   UNL A   1      44.247  22.958  35.129  1.00  0.00     0.020 A 
ATOM     92  C   UNL A   1      46.428  23.623  34.345  1.00  0.00     0.020 A 
ATOM     93  C   UNL A   1      45.620  22.732  35.036  1.00  0.00     0.054 A 
BRANCH  93  94
ATOM     94  S   UNL A   1      46.336  21.231  35.751  1.00  0.00     0.124 S 
ATOM     95  O   UNL A   1      46.177  21.476  37.183  1.00  0.00    -0.237 OA
ATOM     96  O   UNL A   1      45.493  20.171  35.202  1.00  0.00    -0.237 OA
ATOM     97  O   UNL A   1      47.711  21.239  35.260  1.00  0.00    -0.744 OA
ENDBRANCH  93  94
ENDBRANCH  67  88
ENDBRANCH  41  42
ENDBRANCH  33  36
ENDBRANCH  31  32
ENDBRANCH  30  31
ENDBRANCH   1  30
TORSDOF 18
ENDMDL
