MODEL 1
REMARK VINA RESULT:     -10.4      0.000      0.000
REMARK SMILES O=C(CCCOc1ccc(Cl)cc1Cl)Nc1cccc(C(=O)NCCCCNC(=O)c2ccc(-c3c4nc(c(-c5ccc(S(=O)(=O)[O-])cc5)c5ccc([nH]5)c(-c5ccc(S(=O)(=O)[O-])cc5)c5nc(c(-c6ccc(S(=O)(=O)[O-])cc6)c6ccc3[nH]6)C=C5)C=C4)cc2)c1
REMARK SMILES IDX 24 1 23 2 21 3 22 4 20 6 16 7 17 8 91 9 18 10 19 11 15 12
REMARK SMILES IDX 1 13 2 14 3 16 4 17 5 18 6 19 7 20 8 21 13 22 9 23 12 24
REMARK SMILES IDX 14 25 10 26 11 27 25 28 26 29 27 30 28 31 29 32 30 34 31 35
REMARK SMILES IDX 32 36 90 37 33 38 89 39 34 40 35 41 36 42 83 43 37 44 88 45
REMARK SMILES IDX 82 46 84 47 38 48 87 49 81 50 80 51 39 53 69 54 50 55 68 56
REMARK SMILES IDX 51 57 54 58 67 59 85 60 52 61 53 62 66 64 86 65 55 66 40 67
REMARK SMILES IDX 41 68 49 69 42 70 48 71 43 72 44 73 45 74 46 75 47 76 70 77
REMARK SMILES IDX 71 78 79 79 72 80 78 81 73 82 74 83 75 84 76 85 77 86 56 87
REMARK SMILES IDX 57 88 65 89 58 90 64 91 59 92 60 93 61 94 62 95 63 96
REMARK H PARENT 23 5 15 15 28 33 84 52 54 63
REMARK Flexibility Score: inf
ROOT
ATOM      1  C   UNL A   1      31.034  27.226  25.705  1.00  0.00     0.116 C 
ENDROOT
BRANCH   1   2
ATOM      2  N   UNL A   1      31.512  27.918  24.517  1.00  0.00    -0.352 N 
ATOM      3  C   UNL A   1      32.273  27.458  23.463  1.00  0.00     0.251 C 
ATOM      4  O   UNL A   1      32.596  28.229  22.562  1.00  0.00    -0.269 OA
ATOM      5  H   UNL A   1      31.251  28.866  24.457  1.00  0.00     0.163 HD
BRANCH   3   6
ATOM      6  C   UNL A   1      32.775  26.062  23.435  1.00  0.00     0.041 A 
ATOM      7  C   UNL A   1      34.466  24.425  24.008  1.00  0.00     0.041 A 
ATOM      8  C   UNL A   1      33.921  23.551  23.062  1.00  0.00     0.026 A 
ATOM      9  C   UNL A   1      33.832  25.644  24.248  1.00  0.00     0.040 A 
ATOM     10  C   UNL A   1      32.770  23.905  22.350  1.00  0.00     0.003 A 
ATOM     11  C   UNL A   1      32.209  25.170  22.520  1.00  0.00     0.014 A 
BRANCH   7  12
ATOM     12  N   UNL A   1      35.726  24.105  24.566  1.00  0.00    -0.326 N 
ATOM     13  O   UNL A   1      36.771  23.044  22.798  1.00  0.00    -0.275 OA
ATOM     14  C   UNL A   1      36.663  23.262  24.003  1.00  0.00     0.224 C 
ATOM     15  H   UNL A   1      35.955  24.520  25.429  1.00  0.00     0.169 HD
BRANCH  14  16
ATOM     16  C   UNL A   1      37.485  22.439  24.984  1.00  0.00     0.104 C 
BRANCH  16  17
ATOM     17  C   UNL A   1      37.107  20.977  25.209  1.00  0.00     0.051 C 
BRANCH  17  18
ATOM     18  C   UNL A   1      35.706  20.584  24.724  1.00  0.00     0.230 C 
BRANCH  18  19
ATOM     19  O   UNL A   1      34.829  20.255  25.811  1.00  0.00    -0.492 OA
BRANCH  19  20
ATOM     20  C   UNL A   1      33.731  21.065  25.917  1.00  0.00     0.137 A 
ATOM     21  C   UNL A   1      33.843  22.111  26.838  1.00  0.00     0.049 A 
ATOM     22  C   UNL A   1      32.571  20.948  25.138  1.00  0.00     0.084 A 
ATOM     23  C   UNL A   1      32.768  22.974  27.058  1.00  0.00     0.024 A 
ATOM     24  C   UNL A   1      31.497  21.816  25.354  1.00  0.00     0.045 A 
ATOM     25  Cl  UNL A   1      32.427  19.789  23.865  1.00  0.00    -0.080 Cl
ATOM     26  C   UNL A   1      31.598  22.816  26.320  1.00  0.00     0.042 A 
ATOM     27  Cl  UNL A   1      30.273  23.879  26.586  1.00  0.00    -0.084 Cl
ENDBRANCH  19  20
ENDBRANCH  18  19
ENDBRANCH  17  18
ENDBRANCH  16  17
ENDBRANCH  14  16
ENDBRANCH   7  12
ENDBRANCH   3   6
ENDBRANCH   1   2
BRANCH   1  28
ATOM     28  C   UNL A   1      31.702  27.665  27.001  1.00  0.00     0.023 C 
BRANCH  28  29
ATOM     29  C   UNL A   1      31.866  29.166  27.207  1.00  0.00     0.023 C 
BRANCH  29  30
ATOM     30  C   UNL A   1      33.298  29.688  27.197  1.00  0.00     0.116 C 
BRANCH  30  31
ATOM     31  N   UNL A   1      33.398  31.135  27.334  1.00  0.00    -0.352 N 
ATOM     32  C   UNL A   1      34.395  31.899  27.897  1.00  0.00     0.251 C 
ATOM     33  H   UNL A   1      32.637  31.644  26.971  1.00  0.00     0.163 HD
ATOM     34  O   UNL A   1      34.249  33.110  28.002  1.00  0.00    -0.269 OA
BRANCH  32  35
ATOM     35  C   UNL A   1      35.624  31.250  28.415  1.00  0.00     0.039 A 
ATOM     36  C   UNL A   1      36.859  31.859  28.178  1.00  0.00     0.014 A 
ATOM     37  C   UNL A   1      35.560  30.065  29.153  1.00  0.00     0.014 A 
ATOM     38  C   UNL A   1      38.015  31.333  28.761  1.00  0.00     0.010 A 
ATOM     39  C   UNL A   1      36.699  29.589  29.797  1.00  0.00     0.010 A 
ATOM     40  C   UNL A   1      37.939  30.222  29.618  1.00  0.00    -0.014 A 
BRANCH  40  41
ATOM     41  C   UNL A   1      39.132  29.725  30.353  1.00  0.00     0.031 A 
ATOM     42  C   UNL A   1      39.579  30.401  31.622  1.00  0.00     0.074 A 
ATOM     43  C   UNL A   1      39.867  28.720  29.832  1.00  0.00     0.049 A 
ATOM     44  N   UNL A   1      40.638  30.163  32.353  1.00  0.00    -0.248 NA
ATOM     45  C   UNL A   1      38.743  31.506  32.120  1.00  0.00     0.031 C 
ATOM     46  C   UNL A   1      39.579  28.018  28.578  1.00  0.00     0.029 A 
ATOM     47  N   UNL A   1      41.018  28.123  30.285  1.00  0.00    -0.354 N 
ATOM     48  C   UNL A   1      40.612  31.103  33.376  1.00  0.00     0.074 A 
ATOM     49  C   UNL A   1      39.453  31.939  33.152  1.00  0.00     0.031 C 
ATOM     50  C   UNL A   1      40.516  27.079  28.372  1.00  0.00     0.029 A 
ATOM     51  C   UNL A   1      41.491  27.132  29.457  1.00  0.00     0.049 A 
ATOM     52  H   UNL A   1      41.463  28.381  31.125  1.00  0.00     0.167 HD
ATOM     53  C   UNL A   1      41.465  31.248  34.419  1.00  0.00     0.031 A 
ATOM     54  C   UNL A   1      42.590  26.357  29.552  1.00  0.00     0.031 A 
ATOM     55  C   UNL A   1      42.600  30.398  34.659  1.00  0.00     0.049 A 
ATOM     56  C   UNL A   1      43.504  26.517  30.736  1.00  0.00     0.074 A 
ATOM     57  C   UNL A   1      43.474  30.417  35.732  1.00  0.00     0.029 A 
ATOM     58  N   UNL A   1      43.017  29.376  33.821  1.00  0.00    -0.354 N 
ATOM     59  N   UNL A   1      43.413  27.361  31.737  1.00  0.00    -0.248 NA
ATOM     60  C   UNL A   1      44.660  25.613  30.811  1.00  0.00     0.031 C 
ATOM     61  C   UNL A   1      44.447  29.434  35.521  1.00  0.00     0.029 A 
ATOM     62  C   UNL A   1      44.148  28.770  34.343  1.00  0.00     0.049 A 
ATOM     63  H   UNL A   1      42.575  29.119  32.980  1.00  0.00     0.167 HD
ATOM     64  C   UNL A   1      44.486  27.070  32.572  1.00  0.00     0.074 A 
ATOM     65  C   UNL A   1      45.202  25.966  31.969  1.00  0.00     0.031 C 
ATOM     66  C   UNL A   1      44.846  27.667  33.735  1.00  0.00     0.031 A 
BRANCH  53  67
ATOM     67  C   UNL A   1      41.204  32.372  35.386  1.00  0.00    -0.014 A 
ATOM     68  C   UNL A   1      40.424  32.169  36.539  1.00  0.00     0.010 A 
ATOM     69  C   UNL A   1      41.796  33.630  35.172  1.00  0.00     0.010 A 
ATOM     70  C   UNL A   1      40.215  33.213  37.444  1.00  0.00     0.020 A 
ATOM     71  C   UNL A   1      41.610  34.669  36.088  1.00  0.00     0.020 A 
ATOM     72  C   UNL A   1      40.809  34.458  37.212  1.00  0.00     0.054 A 
BRANCH  72  73
ATOM     73  S   UNL A   1      40.554  35.783  38.425  1.00  0.00     0.124 S 
ATOM     74  O   UNL A   1      41.920  36.056  38.863  1.00  0.00    -0.237 OA
ATOM     75  O   UNL A   1      39.930  36.834  37.625  1.00  0.00    -0.237 OA
ATOM     76  O   UNL A   1      39.688  35.171  39.429  1.00  0.00    -0.744 OA
ENDBRANCH  72  73
ENDBRANCH  53  67
BRANCH  54  77
ATOM     77  C   UNL A   1      42.886  25.347  28.498  1.00  0.00    -0.014 A 
ATOM     78  C   UNL A   1      43.720  25.671  27.413  1.00  0.00     0.010 A 
ATOM     79  C   UNL A   1      42.330  24.057  28.573  1.00  0.00     0.010 A 
ATOM     80  C   UNL A   1      43.971  24.732  26.408  1.00  0.00     0.020 A 
ATOM     81  C   UNL A   1      42.601  23.107  27.584  1.00  0.00     0.020 A 
ATOM     82  C   UNL A   1      43.408  23.456  26.498  1.00  0.00     0.054 A 
BRANCH  82  83
ATOM     83  S   UNL A   1      43.777  22.239  25.204  1.00  0.00     0.124 S 
ATOM     84  O   UNL A   1      45.179  21.934  25.466  1.00  0.00    -0.237 OA
ATOM     85  O   UNL A   1      42.830  21.167  25.497  1.00  0.00    -0.237 OA
ATOM     86  O   UNL A   1      43.514  22.969  23.966  1.00  0.00    -0.744 OA
ENDBRANCH  82  83
ENDBRANCH  54  77
BRANCH  66  87
ATOM     87  C   UNL A   1      46.048  27.116  34.454  1.00  0.00    -0.014 A 
ATOM     88  C   UNL A   1      47.343  27.583  34.173  1.00  0.00     0.010 A 
ATOM     89  C   UNL A   1      45.868  26.156  35.467  1.00  0.00     0.010 A 
ATOM     90  C   UNL A   1      48.442  27.077  34.871  1.00  0.00     0.020 A 
ATOM     91  C   UNL A   1      46.962  25.666  36.185  1.00  0.00     0.020 A 
ATOM     92  C   UNL A   1      48.245  26.120  35.872  1.00  0.00     0.054 A 
BRANCH  92  93
ATOM     93  S   UNL A   1      49.681  25.510  36.796  1.00  0.00     0.124 S 
ATOM     94  O   UNL A   1      50.202  26.738  37.391  1.00  0.00    -0.237 OA
ATOM     95  O   UNL A   1      49.084  24.561  37.733  1.00  0.00    -0.237 OA
ATOM     96  O   UNL A   1      50.526  24.910  35.766  1.00  0.00    -0.744 OA
ENDBRANCH  92  93
ENDBRANCH  66  87
ENDBRANCH  40  41
ENDBRANCH  32  35
ENDBRANCH  30  31
ENDBRANCH  29  30
ENDBRANCH  28  29
ENDBRANCH   1  28
TORSDOF 20
ENDMDL
MODEL 2
REMARK VINA RESULT:     -10.4      2.431      3.623
REMARK SMILES O=C(CCCOc1ccc(Cl)cc1Cl)Nc1cccc(C(=O)NCCCCNC(=O)c2ccc(-c3c4nc(c(-c5ccc(S(=O)(=O)[O-])cc5)c5ccc([nH]5)c(-c5ccc(S(=O)(=O)[O-])cc5)c5nc(c(-c6ccc(S(=O)(=O)[O-])cc6)c6ccc3[nH]6)C=C5)C=C4)cc2)c1
REMARK SMILES IDX 24 1 23 2 21 3 22 4 20 6 16 7 17 8 91 9 18 10 19 11 15 12
REMARK SMILES IDX 1 13 2 14 3 16 4 17 5 18 6 19 7 20 8 21 13 22 9 23 12 24
REMARK SMILES IDX 14 25 10 26 11 27 25 28 26 29 27 30 28 31 29 32 30 34 31 35
REMARK SMILES IDX 32 36 90 37 33 38 89 39 34 40 35 41 36 42 83 43 37 44 88 45
REMARK SMILES IDX 82 46 84 47 38 48 87 49 81 50 80 51 39 53 69 54 50 55 68 56
REMARK SMILES IDX 51 57 54 58 67 59 85 60 52 61 53 62 66 64 86 65 55 66 40 67
REMARK SMILES IDX 41 68 49 69 42 70 48 71 43 72 44 73 45 74 46 75 47 76 70 77
REMARK SMILES IDX 71 78 79 79 72 80 78 81 73 82 74 83 75 84 76 85 77 86 56 87
REMARK SMILES IDX 57 88 65 89 58 90 64 91 59 92 60 93 61 94 62 95 63 96
REMARK H PARENT 23 5 15 15 28 33 84 52 54 63
REMARK Flexibility Score: inf
ROOT
ATOM      1  C   UNL A   1      31.925  30.078  25.255  1.00  0.00     0.116 C 
ENDROOT
BRANCH   1   2
ATOM      2  N   UNL A   1      30.757  30.603  24.563  1.00  0.00    -0.352 N 
ATOM      3  C   UNL A   1      29.854  29.972  23.733  1.00  0.00     0.251 C 
ATOM      4  O   UNL A   1      28.944  30.617  23.219  1.00  0.00    -0.269 OA
ATOM      5  H   UNL A   1      30.584  31.562  24.709  1.00  0.00     0.163 HD
BRANCH   3   6
ATOM      6  C   UNL A   1      30.009  28.537  23.386  1.00  0.00     0.041 A 
ATOM      7  C   UNL A   1      29.819  26.197  23.984  1.00  0.00     0.041 A 
ATOM      8  C   UNL A   1      30.651  25.869  22.908  1.00  0.00     0.026 A 
ATOM      9  C   UNL A   1      29.434  27.526  24.161  1.00  0.00     0.040 A 
ATOM     10  C   UNL A   1      31.109  26.863  22.037  1.00  0.00     0.003 A 
ATOM     11  C   UNL A   1      30.805  28.201  22.288  1.00  0.00     0.014 A 
BRANCH   7  12
ATOM     12  N   UNL A   1      29.534  25.193  24.939  1.00  0.00    -0.326 N 
ATOM     13  O   UNL A   1      30.808  25.879  26.742  1.00  0.00    -0.275 OA
ATOM     14  C   UNL A   1      30.212  24.999  26.126  1.00  0.00     0.224 C 
ATOM     15  H   UNL A   1      28.789  24.582  24.741  1.00  0.00     0.169 HD
BRANCH  14  16
ATOM     16  C   UNL A   1      30.347  23.552  26.579  1.00  0.00     0.104 C 
BRANCH  16  17
ATOM     17  C   UNL A   1      31.335  22.646  25.849  1.00  0.00     0.051 C 
BRANCH  17  18
ATOM     18  C   UNL A   1      32.690  22.465  26.544  1.00  0.00     0.230 C 
BRANCH  18  19
ATOM     19  O   UNL A   1      33.791  22.643  25.641  1.00  0.00    -0.492 OA
BRANCH  19  20
ATOM     20  C   UNL A   1      33.878  23.896  25.097  1.00  0.00     0.137 A 
ATOM     21  C   UNL A   1      33.994  24.944  26.016  1.00  0.00     0.049 A 
ATOM     22  C   UNL A   1      33.920  24.170  23.723  1.00  0.00     0.084 A 
ATOM     23  C   UNL A   1      34.048  26.265  25.573  1.00  0.00     0.024 A 
ATOM     24  C   UNL A   1      33.980  25.495  23.279  1.00  0.00     0.045 A 
ATOM     25  Cl  UNL A   1      33.952  22.920  22.532  1.00  0.00    -0.080 Cl
ATOM     26  C   UNL A   1      34.032  26.534  24.206  1.00  0.00     0.042 A 
ATOM     27  Cl  UNL A   1      34.101  28.162  23.658  1.00  0.00    -0.084 Cl
ENDBRANCH  19  20
ENDBRANCH  18  19
ENDBRANCH  17  18
ENDBRANCH  16  17
ENDBRANCH  14  16
ENDBRANCH   7  12
ENDBRANCH   3   6
ENDBRANCH   1   2
BRANCH   1  28
ATOM     28  C   UNL A   1      31.779  30.004  26.770  1.00  0.00     0.023 C 
BRANCH  28  29
ATOM     29  C   UNL A   1      33.043  30.242  27.587  1.00  0.00     0.023 C 
BRANCH  29  30
ATOM     30  C   UNL A   1      33.861  31.471  27.206  1.00  0.00     0.116 C 
BRANCH  30  31
ATOM     31  N   UNL A   1      33.235  32.733  27.577  1.00  0.00    -0.352 N 
ATOM     32  C   UNL A   1      33.562  33.615  28.581  1.00  0.00     0.251 C 
ATOM     33  H   UNL A   1      32.459  32.993  27.029  1.00  0.00     0.163 HD
ATOM     34  O   UNL A   1      32.848  34.586  28.795  1.00  0.00    -0.269 OA
BRANCH  32  35
ATOM     35  C   UNL A   1      34.754  33.367  29.428  1.00  0.00     0.039 A 
ATOM     36  C   UNL A   1      34.641  32.488  30.509  1.00  0.00     0.014 A 
ATOM     37  C   UNL A   1      35.982  33.970  29.144  1.00  0.00     0.014 A 
ATOM     38  C   UNL A   1      35.779  32.143  31.244  1.00  0.00     0.010 A 
ATOM     39  C   UNL A   1      37.125  33.565  29.826  1.00  0.00     0.010 A 
ATOM     40  C   UNL A   1      37.041  32.639  30.877  1.00  0.00    -0.014 A 
BRANCH  40  41
ATOM     41  C   UNL A   1      38.282  32.185  31.559  1.00  0.00     0.031 A 
ATOM     42  C   UNL A   1      38.666  32.754  32.899  1.00  0.00     0.074 A 
ATOM     43  C   UNL A   1      39.112  31.324  30.933  1.00  0.00     0.049 A 
ATOM     44  N   UNL A   1      39.747  32.543  33.605  1.00  0.00    -0.248 NA
ATOM     45  C   UNL A   1      37.726  33.707  33.513  1.00  0.00     0.031 C 
ATOM     46  C   UNL A   1      38.889  30.743  29.605  1.00  0.00     0.029 A 
ATOM     47  N   UNL A   1      40.319  30.798  31.322  1.00  0.00    -0.354 N 
ATOM     48  C   UNL A   1      39.633  33.354  34.727  1.00  0.00     0.074 A 
ATOM     49  C   UNL A   1      38.395  34.090  34.591  1.00  0.00     0.031 C 
ATOM     50  C   UNL A   1      39.914  29.931  29.301  1.00  0.00     0.029 A 
ATOM     51  C   UNL A   1      40.885  29.958  30.391  1.00  0.00     0.049 A 
ATOM     52  H   UNL A   1      40.740  31.002  32.188  1.00  0.00     0.167 HD
ATOM     53  C   UNL A   1      40.472  33.465  35.785  1.00  0.00     0.031 A 
ATOM     54  C   UNL A   1      42.056  29.291  30.404  1.00  0.00     0.031 A 
ATOM     55  C   UNL A   1      41.688  32.710  35.935  1.00  0.00     0.049 A 
ATOM     56  C   UNL A   1      42.955  29.408  31.604  1.00  0.00     0.074 A 
ATOM     57  C   UNL A   1      42.562  32.696  37.008  1.00  0.00     0.029 A 
ATOM     58  N   UNL A   1      42.200  31.836  34.989  1.00  0.00    -0.354 N 
ATOM     59  N   UNL A   1      42.786  30.119  32.693  1.00  0.00    -0.248 NA
ATOM     60  C   UNL A   1      44.197  28.622  31.584  1.00  0.00     0.031 C 
ATOM     61  C   UNL A   1      43.626  31.845  36.693  1.00  0.00     0.029 A 
ATOM     62  C   UNL A   1      43.389  31.292  35.446  1.00  0.00     0.049 A 
ATOM     63  H   UNL A   1      41.782  31.633  34.121  1.00  0.00     0.167 HD
ATOM     64  C   UNL A   1      43.887  29.846  33.497  1.00  0.00     0.074 A 
ATOM     65  C   UNL A   1      44.707  28.893  32.778  1.00  0.00     0.031 C 
ATOM     66  C   UNL A   1      44.191  30.340  34.722  1.00  0.00     0.031 A 
BRANCH  53  67
ATOM     67  C   UNL A   1      40.105  34.440  36.871  1.00  0.00    -0.014 A 
ATOM     68  C   UNL A   1      39.351  34.033  37.986  1.00  0.00     0.010 A 
ATOM     69  C   UNL A   1      40.571  35.766  36.807  1.00  0.00     0.010 A 
ATOM     70  C   UNL A   1      39.044  34.941  39.002  1.00  0.00     0.020 A 
ATOM     71  C   UNL A   1      40.286  36.671  37.833  1.00  0.00     0.020 A 
ATOM     72  C   UNL A   1      39.512  36.256  38.919  1.00  0.00     0.054 A 
BRANCH  72  73
ATOM     73  S   UNL A   1      39.132  37.403  40.271  1.00  0.00     0.124 S 
ATOM     74  O   UNL A   1      38.471  36.525  41.233  1.00  0.00    -0.237 OA
ATOM     75  O   UNL A   1      40.454  37.884  40.666  1.00  0.00    -0.237 OA
ATOM     76  O   UNL A   1      38.270  38.403  39.647  1.00  0.00    -0.744 OA
ENDBRANCH  72  73
ENDBRANCH  53  67
BRANCH  54  77
ATOM     77  C   UNL A   1      42.446  28.442  29.244  1.00  0.00    -0.014 A 
ATOM     78  C   UNL A   1      42.052  27.094  29.182  1.00  0.00     0.010 A 
ATOM     79  C   UNL A   1      43.217  28.979  28.198  1.00  0.00     0.010 A 
ATOM     80  C   UNL A   1      42.446  26.290  28.108  1.00  0.00     0.020 A 
ATOM     81  C   UNL A   1      43.590  28.186  27.109  1.00  0.00     0.020 A 
ATOM     82  C   UNL A   1      43.215  26.841  27.078  1.00  0.00     0.054 A 
BRANCH  82  83
ATOM     83  S   UNL A   1      43.683  25.791  25.674  1.00  0.00     0.124 S 
ATOM     84  O   UNL A   1      43.958  24.516  26.328  1.00  0.00    -0.237 OA
ATOM     85  O   UNL A   1      42.488  25.829  24.837  1.00  0.00    -0.237 OA
ATOM     86  O   UNL A   1      44.847  26.473  25.114  1.00  0.00    -0.744 OA
ENDBRANCH  82  83
ENDBRANCH  54  77
BRANCH  66  87
ATOM     87  C   UNL A   1      45.446  29.835  35.382  1.00  0.00    -0.014 A 
ATOM     88  C   UNL A   1      46.672  30.501  35.222  1.00  0.00     0.010 A 
ATOM     89  C   UNL A   1      45.380  28.706  36.220  1.00  0.00     0.010 A 
ATOM     90  C   UNL A   1      47.820  30.030  35.865  1.00  0.00     0.020 A 
ATOM     91  C   UNL A   1      46.520  28.247  36.885  1.00  0.00     0.020 A 
ATOM     92  C   UNL A   1      47.737  28.904  36.692  1.00  0.00     0.054 A 
BRANCH  92  93
ATOM     93  S   UNL A   1      49.229  28.336  37.551  1.00  0.00     0.124 S 
ATOM     94  O   UNL A   1      48.976  28.778  38.921  1.00  0.00    -0.237 OA
ATOM     95  O   UNL A   1      49.194  26.891  37.340  1.00  0.00    -0.237 OA
ATOM     96  O   UNL A   1      50.312  29.034  36.862  1.00  0.00    -0.744 OA
ENDBRANCH  92  93
ENDBRANCH  66  87
ENDBRANCH  40  41
ENDBRANCH  32  35
ENDBRANCH  30  31
ENDBRANCH  29  30
ENDBRANCH  28  29
ENDBRANCH   1  28
TORSDOF 20
ENDMDL
MODEL 3
REMARK VINA RESULT:     -10.2      5.517      6.914
REMARK SMILES O=C(CCCOc1ccc(Cl)cc1Cl)Nc1cccc(C(=O)NCCCCNC(=O)c2ccc(-c3c4nc(c(-c5ccc(S(=O)(=O)[O-])cc5)c5ccc([nH]5)c(-c5ccc(S(=O)(=O)[O-])cc5)c5nc(c(-c6ccc(S(=O)(=O)[O-])cc6)c6ccc3[nH]6)C=C5)C=C4)cc2)c1
REMARK SMILES IDX 24 1 23 2 21 3 22 4 20 6 16 7 17 8 91 9 18 10 19 11 15 12
REMARK SMILES IDX 1 13 2 14 3 16 4 17 5 18 6 19 7 20 8 21 13 22 9 23 12 24
REMARK SMILES IDX 14 25 10 26 11 27 25 28 26 29 27 30 28 31 29 32 30 34 31 35
REMARK SMILES IDX 32 36 90 37 33 38 89 39 34 40 35 41 36 42 83 43 37 44 88 45
REMARK SMILES IDX 82 46 84 47 38 48 87 49 81 50 80 51 39 53 69 54 50 55 68 56
REMARK SMILES IDX 51 57 54 58 67 59 85 60 52 61 53 62 66 64 86 65 55 66 40 67
REMARK SMILES IDX 41 68 49 69 42 70 48 71 43 72 44 73 45 74 46 75 47 76 70 77
REMARK SMILES IDX 71 78 79 79 72 80 78 81 73 82 74 83 75 84 76 85 77 86 56 87
REMARK SMILES IDX 57 88 65 89 58 90 64 91 59 92 60 93 61 94 62 95 63 96
REMARK H PARENT 23 5 15 15 28 33 84 52 54 63
REMARK Flexibility Score: inf
ROOT
ATOM      1  C   UNL A   1      32.026  28.905  27.054  1.00  0.00     0.116 C 
ENDROOT
BRANCH   1   2
ATOM      2  N   UNL A   1      31.827  29.372  25.689  1.00  0.00    -0.352 N 
ATOM      3  C   UNL A   1      31.551  28.666  24.537  1.00  0.00     0.251 C 
ATOM      4  O   UNL A   1      31.450  29.261  23.467  1.00  0.00    -0.269 OA
ATOM      5  H   UNL A   1      31.903  30.346  25.569  1.00  0.00     0.163 HD
BRANCH   3   6
ATOM      6  C   UNL A   1      31.449  27.185  24.554  1.00  0.00     0.041 A 
ATOM      7  C   UNL A   1      32.507  25.006  24.604  1.00  0.00     0.041 A 
ATOM      8  C   UNL A   1      31.300  24.427  24.194  1.00  0.00     0.026 A 
ATOM      9  C   UNL A   1      32.545  26.376  24.866  1.00  0.00     0.040 A 
ATOM     10  C   UNL A   1      30.157  25.215  24.025  1.00  0.00     0.003 A 
ATOM     11  C   UNL A   1      30.236  26.598  24.184  1.00  0.00     0.014 A 
BRANCH   7  12
ATOM     12  N   UNL A   1      33.673  24.207  24.582  1.00  0.00    -0.326 N 
ATOM     13  O   UNL A   1      33.837  23.667  22.341  1.00  0.00    -0.275 OA
ATOM     14  C   UNL A   1      34.100  23.437  23.519  1.00  0.00     0.224 C 
ATOM     15  H   UNL A   1      34.229  24.199  25.395  1.00  0.00     0.169 HD
BRANCH  14  16
ATOM     16  C   UNL A   1      34.797  22.134  23.885  1.00  0.00     0.104 C 
BRANCH  16  17
ATOM     17  C   UNL A   1      35.436  22.009  25.265  1.00  0.00     0.051 C 
BRANCH  17  18
ATOM     18  C   UNL A   1      36.553  20.964  25.375  1.00  0.00     0.230 C 
BRANCH  18  19
ATOM     19  O   UNL A   1      37.786  21.426  24.806  1.00  0.00    -0.492 OA
BRANCH  19  20
ATOM     20  C   UNL A   1      38.766  21.694  25.723  1.00  0.00     0.137 A 
ATOM     21  C   UNL A   1      39.723  20.687  25.890  1.00  0.00     0.049 A 
ATOM     22  C   UNL A   1      38.894  22.898  26.429  1.00  0.00     0.084 A 
ATOM     23  C   UNL A   1      40.744  20.837  26.830  1.00  0.00     0.024 A 
ATOM     24  C   UNL A   1      39.921  23.050  27.365  1.00  0.00     0.045 A 
ATOM     25  Cl  UNL A   1      37.852  24.246  26.151  1.00  0.00    -0.080 Cl
ATOM     26  C   UNL A   1      40.832  22.015  27.568  1.00  0.00     0.042 A 
ATOM     27  Cl  UNL A   1      42.091  22.202  28.724  1.00  0.00    -0.084 Cl
ENDBRANCH  19  20
ENDBRANCH  18  19
ENDBRANCH  17  18
ENDBRANCH  16  17
ENDBRANCH  14  16
ENDBRANCH   7  12
ENDBRANCH   3   6
ENDBRANCH   1   2
BRANCH   1  28
ATOM     28  C   UNL A   1      33.472  28.581  27.404  1.00  0.00     0.023 C 
BRANCH  28  29
ATOM     29  C   UNL A   1      34.540  29.465  26.771  1.00  0.00     0.023 C 
BRANCH  29  30
ATOM     30  C   UNL A   1      35.914  29.426  27.430  1.00  0.00     0.116 C 
BRANCH  30  31
ATOM     31  N   UNL A   1      35.872  29.520  28.884  1.00  0.00    -0.352 N 
ATOM     32  C   UNL A   1      36.863  29.288  29.809  1.00  0.00     0.251 C 
ATOM     33  H   UNL A   1      35.003  29.788  29.261  1.00  0.00     0.163 HD
ATOM     34  O   UNL A   1      36.603  29.330  31.004  1.00  0.00    -0.269 OA
BRANCH  32  35
ATOM     35  C   UNL A   1      38.235  28.948  29.357  1.00  0.00     0.039 A 
ATOM     36  C   UNL A   1      38.643  29.347  28.082  1.00  0.00     0.014 A 
ATOM     37  C   UNL A   1      39.123  28.266  30.193  1.00  0.00     0.014 A 
ATOM     38  C   UNL A   1      39.968  29.148  27.684  1.00  0.00     0.010 A 
ATOM     39  C   UNL A   1      40.459  28.139  29.826  1.00  0.00     0.010 A 
ATOM     40  C   UNL A   1      40.902  28.587  28.572  1.00  0.00    -0.014 A 
BRANCH  40  41
ATOM     41  C   UNL A   1      42.343  28.485  28.220  1.00  0.00     0.031 A 
ATOM     42  C   UNL A   1      43.247  29.681  28.361  1.00  0.00     0.074 A 
ATOM     43  C   UNL A   1      42.823  27.340  27.690  1.00  0.00     0.049 A 
ATOM     44  N   UNL A   1      44.506  29.807  28.027  1.00  0.00    -0.248 NA
ATOM     45  C   UNL A   1      42.652  30.904  28.924  1.00  0.00     0.031 C 
ATOM     46  C   UNL A   1      42.040  26.125  27.443  1.00  0.00     0.029 A 
ATOM     47  N   UNL A   1      44.081  27.015  27.247  1.00  0.00    -0.354 N 
ATOM     48  C   UNL A   1      44.845  31.124  28.311  1.00  0.00     0.074 A 
ATOM     49  C   UNL A   1      43.650  31.769  28.809  1.00  0.00     0.031 C 
ATOM     50  C   UNL A   1      42.839  25.186  26.910  1.00  0.00     0.029 A 
ATOM     51  C   UNL A   1      44.179  25.739  26.743  1.00  0.00     0.049 A 
ATOM     52  H   UNL A   1      44.842  27.638  27.286  1.00  0.00     0.167 HD
ATOM     53  C   UNL A   1      46.045  31.739  28.185  1.00  0.00     0.031 A 
ATOM     54  C   UNL A   1      45.225  25.086  26.200  1.00  0.00     0.031 A 
ATOM     55  C   UNL A   1      47.241  31.090  27.718  1.00  0.00     0.049 A 
ATOM     56  C   UNL A   1      46.555  25.781  26.100  1.00  0.00     0.074 A 
ATOM     57  C   UNL A   1      48.521  31.608  27.632  1.00  0.00     0.029 A 
ATOM     58  N   UNL A   1      47.307  29.782  27.262  1.00  0.00    -0.354 N 
ATOM     59  N   UNL A   1      46.873  27.004  26.452  1.00  0.00    -0.248 NA
ATOM     60  C   UNL A   1      47.672  25.005  25.542  1.00  0.00     0.031 C 
ATOM     61  C   UNL A   1      49.354  30.628  27.083  1.00  0.00     0.029 A 
ATOM     62  C   UNL A   1      48.603  29.484  26.875  1.00  0.00     0.049 A 
ATOM     63  H   UNL A   1      46.546  29.159  27.219  1.00  0.00     0.167 HD
ATOM     64  C   UNL A   1      48.231  27.134  26.182  1.00  0.00     0.074 A 
ATOM     65  C   UNL A   1      48.678  25.863  25.653  1.00  0.00     0.031 C 
ATOM     66  C   UNL A   1      49.035  28.212  26.356  1.00  0.00     0.031 A 
BRANCH  53  67
ATOM     67  C   UNL A   1      46.129  33.194  28.560  1.00  0.00    -0.014 A 
ATOM     68  C   UNL A   1      46.345  33.589  29.893  1.00  0.00     0.010 A 
ATOM     69  C   UNL A   1      46.054  34.180  27.558  1.00  0.00     0.010 A 
ATOM     70  C   UNL A   1      46.452  34.942  30.221  1.00  0.00     0.020 A 
ATOM     71  C   UNL A   1      46.185  35.534  27.880  1.00  0.00     0.020 A 
ATOM     72  C   UNL A   1      46.370  35.907  29.212  1.00  0.00     0.054 A 
BRANCH  72  73
ATOM     73  S   UNL A   1      46.552  37.655  29.663  1.00  0.00     0.124 S 
ATOM     74  O   UNL A   1      47.800  37.641  30.421  1.00  0.00    -0.237 OA
ATOM     75  O   UNL A   1      46.616  38.316  28.362  1.00  0.00    -0.237 OA
ATOM     76  O   UNL A   1      45.352  37.939  30.445  1.00  0.00    -0.744 OA
ENDBRANCH  72  73
ENDBRANCH  53  67
BRANCH  54  77
ATOM     77  C   UNL A   1      45.063  23.687  25.713  1.00  0.00    -0.014 A 
ATOM     78  C   UNL A   1      45.093  23.402  24.337  1.00  0.00     0.010 A 
ATOM     79  C   UNL A   1      44.873  22.635  26.627  1.00  0.00     0.010 A 
ATOM     80  C   UNL A   1      44.909  22.093  23.881  1.00  0.00     0.020 A 
ATOM     81  C   UNL A   1      44.716  21.321  26.176  1.00  0.00     0.020 A 
ATOM     82  C   UNL A   1      44.719  21.060  24.804  1.00  0.00     0.054 A 
BRANCH  82  83
ATOM     83  S   UNL A   1      44.521  19.363  24.194  1.00  0.00     0.124 S 
ATOM     84  O   UNL A   1      44.525  19.558  22.748  1.00  0.00    -0.237 OA
ATOM     85  O   UNL A   1      45.693  18.688  24.745  1.00  0.00    -0.237 OA
ATOM     86  O   UNL A   1      43.244  18.943  24.767  1.00  0.00    -0.744 OA
ENDBRANCH  82  83
ENDBRANCH  54  77
BRANCH  66  87
ATOM     87  C   UNL A   1      50.490  28.054  26.007  1.00  0.00    -0.014 A 
ATOM     88  C   UNL A   1      50.961  28.322  24.710  1.00  0.00     0.010 A 
ATOM     89  C   UNL A   1      51.407  27.686  27.009  1.00  0.00     0.010 A 
ATOM     90  C   UNL A   1      52.321  28.195  24.413  1.00  0.00     0.020 A 
ATOM     91  C   UNL A   1      52.770  27.584  26.723  1.00  0.00     0.020 A 
ATOM     92  C   UNL A   1      53.217  27.825  25.422  1.00  0.00     0.054 A 
BRANCH  92  93
ATOM     93  S   UNL A   1      54.983  27.710  25.025  1.00  0.00     0.124 S 
ATOM     94  O   UNL A   1      54.952  27.262  23.635  1.00  0.00    -0.237 OA
ATOM     95  O   UNL A   1      55.451  29.079  25.234  1.00  0.00    -0.237 OA
ATOM     96  O   UNL A   1      55.490  26.732  25.983  1.00  0.00    -0.744 OA
ENDBRANCH  92  93
ENDBRANCH  66  87
ENDBRANCH  40  41
ENDBRANCH  32  35
ENDBRANCH  30  31
ENDBRANCH  29  30
ENDBRANCH  28  29
ENDBRANCH   1  28
TORSDOF 20
ENDMDL
