MODEL 1
REMARK VINA RESULT:     -11.1      0.000      0.000
REMARK SMILES CN(C)C(=O)CCNC(=O)NC[C@H]1CC[C@@H](C(=O)NCCCCNC(=O)c2ccc(-c3c4nc(c(-c5ccc(S(=O)(=O)[O-])cc5)c5ccc([nH]5)c(-c5ccc(S(=O)(=O)[O-])cc5)c5nc(c(-c6ccc(S(=O)(=O)[O-])cc6)c6ccc3[nH]6)C=C5)C=C4)cc2)CC1
REMARK SMILES IDX 20 1 19 2 17 3 18 4 16 6 13 7 14 8 88 9 15 10 87 11 12 12
REMARK SMILES IDX 11 13 8 14 9 15 10 17 7 19 6 20 4 21 1 22 2 23 3 24 5 25
REMARK SMILES IDX 21 26 22 27 23 28 24 29 25 30 26 32 27 33 28 34 86 35 29 36
REMARK SMILES IDX 85 37 30 38 31 39 32 40 79 41 33 42 84 43 78 44 80 45 34 46
REMARK SMILES IDX 83 47 77 48 76 49 35 51 65 52 46 53 64 54 47 55 50 56 63 57
REMARK SMILES IDX 81 58 48 59 49 60 62 62 82 63 51 64 36 65 37 66 45 67 38 68
REMARK SMILES IDX 44 69 39 70 40 71 41 72 42 73 43 74 66 75 67 76 75 77 68 78
REMARK SMILES IDX 74 79 69 80 70 81 71 82 72 83 73 84 52 85 53 86 61 87 54 88
REMARK SMILES IDX 60 89 55 90 56 91 57 92 58 93 59 94
REMARK H PARENT 19 5 8 16 11 18 24 31 80 50 50 61
REMARK Flexibility Score: inf
ROOT
ATOM      1  C   UNL A   1      32.339  27.333  25.108  1.00  0.00     0.116 C 
ENDROOT
BRANCH   1   2
ATOM      2  N   UNL A   1      31.721  27.734  23.867  1.00  0.00    -0.356 N 
ATOM      3  C   UNL A   1      31.186  27.029  22.842  1.00  0.00     0.223 C 
ATOM      4  O   UNL A   1      30.505  27.685  22.041  1.00  0.00    -0.275 OA
ATOM      5  H   UNL A   1      31.679  28.710  23.743  1.00  0.00     0.163 HD
BRANCH   3   6
ATOM      6  C   UNL A   1      31.376  25.523  22.594  1.00  0.00     0.078 C 
ATOM      7  C   UNL A   1      32.760  23.687  24.570  1.00  0.00     0.008 C 
ATOM      8  C   UNL A   1      31.262  24.031  24.705  1.00  0.00     0.006 C 
ATOM      9  C   UNL A   1      33.554  24.519  23.547  1.00  0.00     0.006 C 
ATOM     10  C   UNL A   1      30.572  24.559  23.457  1.00  0.00     0.014 C 
ATOM     11  C   UNL A   1      32.802  25.054  22.340  1.00  0.00     0.014 C 
BRANCH   7  12
ATOM     12  C   UNL A   1      33.457  23.804  25.949  1.00  0.00     0.121 C 
BRANCH  12  13
ATOM     13  N   UNL A   1      34.896  23.709  25.861  1.00  0.00    -0.338 N 
ATOM     14  N   UNL A   1      35.459  21.482  26.389  1.00  0.00    -0.338 N 
ATOM     15  C   UNL A   1      35.786  22.751  26.128  1.00  0.00     0.314 C 
ATOM     16  H   UNL A   1      36.210  20.953  26.741  1.00  0.00     0.165 HD
ATOM     17  O   UNL A   1      36.980  23.053  26.117  1.00  0.00    -0.249 OA
ATOM     18  H   UNL A   1      35.314  24.537  25.530  1.00  0.00     0.165 HD
BRANCH  14  19
ATOM     19  C   UNL A   1      34.231  20.719  26.264  1.00  0.00     0.127 C 
BRANCH  19  20
ATOM     20  C   UNL A   1      33.971  20.258  24.831  1.00  0.00     0.121 C 
BRANCH  20  21
ATOM     21  C   UNL A   1      33.125  19.001  24.881  1.00  0.00     0.223 C 
ATOM     22  C   UNL A   1      32.987  16.595  25.241  1.00  0.00     0.146 C 
ATOM     23  N   UNL A   1      33.751  17.767  24.853  1.00  0.00    -0.349 N 
ATOM     24  C   UNL A   1      35.115  17.521  24.398  1.00  0.00     0.146 C 
ATOM     25  O   UNL A   1      31.909  19.112  25.062  1.00  0.00    -0.275 OA
ENDBRANCH  20  21
ENDBRANCH  19  20
ENDBRANCH  14  19
ENDBRANCH  12  13
ENDBRANCH   7  12
ENDBRANCH   3   6
ENDBRANCH   1   2
BRANCH   1  26
ATOM     26  C   UNL A   1      31.400  27.381  26.315  1.00  0.00     0.023 C 
BRANCH  26  27
ATOM     27  C   UNL A   1      31.821  28.353  27.413  1.00  0.00     0.023 C 
BRANCH  27  28
ATOM     28  C   UNL A   1      33.192  29.003  27.241  1.00  0.00     0.116 C 
BRANCH  28  29
ATOM     29  N   UNL A   1      33.300  30.369  27.738  1.00  0.00    -0.352 N 
ATOM     30  C   UNL A   1      34.419  30.992  28.255  1.00  0.00     0.251 C 
ATOM     31  H   UNL A   1      32.479  30.911  27.701  1.00  0.00     0.163 HD
ATOM     32  O   UNL A   1      34.363  32.153  28.647  1.00  0.00    -0.269 OA
BRANCH  30  33
ATOM     33  C   UNL A   1      35.668  30.204  28.388  1.00  0.00     0.039 A 
ATOM     34  C   UNL A   1      36.573  30.193  27.325  1.00  0.00     0.014 A 
ATOM     35  C   UNL A   1      36.003  29.615  29.610  1.00  0.00     0.014 A 
ATOM     36  C   UNL A   1      37.864  29.696  27.527  1.00  0.00     0.010 A 
ATOM     37  C   UNL A   1      37.313  29.199  29.831  1.00  0.00     0.010 A 
ATOM     38  C   UNL A   1      38.266  29.258  28.801  1.00  0.00    -0.014 A 
BRANCH  38  39
ATOM     39  C   UNL A   1      39.681  28.897  29.091  1.00  0.00     0.031 A 
ATOM     40  C   UNL A   1      40.620  29.920  29.673  1.00  0.00     0.074 A 
ATOM     41  C   UNL A   1      40.149  27.678  28.748  1.00  0.00     0.049 A 
ATOM     42  N   UNL A   1      41.907  29.830  29.888  1.00  0.00    -0.248 NA
ATOM     43  C   UNL A   1      40.040  31.224  30.035  1.00  0.00     0.031 C 
ATOM     44  C   UNL A   1      39.366  26.608  28.120  1.00  0.00     0.029 A 
ATOM     45  N   UNL A   1      41.405  27.133  28.869  1.00  0.00    -0.354 N 
ATOM     46  C   UNL A   1      42.293  31.065  30.392  1.00  0.00     0.074 A 
ATOM     47  C   UNL A   1      41.116  31.906  30.401  1.00  0.00     0.031 C 
ATOM     48  C   UNL A   1      40.152  25.534  27.935  1.00  0.00     0.029 A 
ATOM     49  C   UNL A   1      41.503  25.846  28.392  1.00  0.00     0.049 A 
ATOM     50  H   UNL A   1      42.166  27.620  29.260  1.00  0.00     0.167 HD
ATOM     51  C   UNL A   1      43.511  31.462  30.833  1.00  0.00     0.031 A 
ATOM     52  C   UNL A   1      42.558  25.011  28.323  1.00  0.00     0.031 A 
ATOM     53  C   UNL A   1      44.680  30.624  30.850  1.00  0.00     0.049 A 
ATOM     54  C   UNL A   1      43.895  25.468  28.839  1.00  0.00     0.074 A 
ATOM     55  C   UNL A   1      45.949  30.931  31.310  1.00  0.00     0.029 A 
ATOM     56  N   UNL A   1      44.720  29.314  30.405  1.00  0.00    -0.354 N 
ATOM     57  N   UNL A   1      44.226  26.630  29.349  1.00  0.00    -0.248 NA
ATOM     58  C   UNL A   1      44.998  24.499  28.781  1.00  0.00     0.031 C 
ATOM     59  C   UNL A   1      46.764  29.809  31.120  1.00  0.00     0.029 A 
ATOM     60  C   UNL A   1      45.991  28.795  30.580  1.00  0.00     0.049 A 
ATOM     61  H   UNL A   1      43.957  28.824  30.021  1.00  0.00     0.167 HD
ATOM     62  C   UNL A   1      45.568  26.520  29.697  1.00  0.00     0.074 A 
ATOM     63  C   UNL A   1      45.983  25.176  29.355  1.00  0.00     0.031 C 
ATOM     64  C   UNL A   1      46.384  27.451  30.249  1.00  0.00     0.031 A 
BRANCH  51  65
ATOM     65  C   UNL A   1      43.632  32.866  31.360  1.00  0.00    -0.014 A 
ATOM     66  C   UNL A   1      43.473  33.129  32.732  1.00  0.00     0.010 A 
ATOM     67  C   UNL A   1      43.952  33.923  30.490  1.00  0.00     0.010 A 
ATOM     68  C   UNL A   1      43.597  34.431  33.221  1.00  0.00     0.020 A 
ATOM     69  C   UNL A   1      44.102  35.223  30.979  1.00  0.00     0.020 A 
ATOM     70  C   UNL A   1      43.908  35.471  32.340  1.00  0.00     0.054 A 
BRANCH  70  71
ATOM     71  S   UNL A   1      44.095  37.146  33.009  1.00  0.00     0.124 S 
ATOM     72  O   UNL A   1      44.132  37.953  31.792  1.00  0.00    -0.237 OA
ATOM     73  O   UNL A   1      42.895  37.302  33.828  1.00  0.00    -0.237 OA
ATOM     74  O   UNL A   1      45.349  37.083  33.755  1.00  0.00    -0.744 OA
ENDBRANCH  70  71
ENDBRANCH  51  65
BRANCH  52  75
ATOM     75  C   UNL A   1      42.403  23.646  27.748  1.00  0.00    -0.014 A 
ATOM     76  C   UNL A   1      42.075  22.557  28.575  1.00  0.00     0.010 A 
ATOM     77  C   UNL A   1      42.610  23.425  26.375  1.00  0.00     0.010 A 
ATOM     78  C   UNL A   1      41.995  21.264  28.046  1.00  0.00     0.020 A 
ATOM     79  C   UNL A   1      42.506  22.138  25.838  1.00  0.00     0.020 A 
ATOM     80  C   UNL A   1      42.218  21.063  26.682  1.00  0.00     0.054 A 
BRANCH  80  81
ATOM     81  S   UNL A   1      42.091  19.383  26.008  1.00  0.00     0.124 S 
ATOM     82  O   UNL A   1      40.660  19.266  25.754  1.00  0.00    -0.237 OA
ATOM     83  O   UNL A   1      42.942  19.449  24.822  1.00  0.00    -0.237 OA
ATOM     84  O   UNL A   1      42.608  18.545  27.089  1.00  0.00    -0.744 OA
ENDBRANCH  80  81
ENDBRANCH  52  75
BRANCH  64  85
ATOM     85  C   UNL A   1      47.797  27.037  30.559  1.00  0.00    -0.014 A 
ATOM     86  C   UNL A   1      48.823  27.190  29.612  1.00  0.00     0.010 A 
ATOM     87  C   UNL A   1      48.108  26.543  31.839  1.00  0.00     0.010 A 
ATOM     88  C   UNL A   1      50.135  26.829  29.930  1.00  0.00     0.020 A 
ATOM     89  C   UNL A   1      49.422  26.202  32.168  1.00  0.00     0.020 A 
ATOM     90  C   UNL A   1      50.426  26.336  31.206  1.00  0.00     0.054 A 
BRANCH  90  91
ATOM     91  S   UNL A   1      52.144  25.920  31.614  1.00  0.00     0.124 S 
ATOM     92  O   UNL A   1      52.823  26.157  30.343  1.00  0.00    -0.237 OA
ATOM     93  O   UNL A   1      52.460  26.866  32.682  1.00  0.00    -0.237 OA
ATOM     94  O   UNL A   1      52.071  24.522  32.032  1.00  0.00    -0.744 OA
ENDBRANCH  90  91
ENDBRANCH  64  85
ENDBRANCH  38  39
ENDBRANCH  30  33
ENDBRANCH  28  29
ENDBRANCH  27  28
ENDBRANCH  26  27
ENDBRANCH   1  26
TORSDOF 19
ENDMDL
MODEL 2
REMARK VINA RESULT:     -10.5      0.875      8.114
REMARK SMILES CN(C)C(=O)CCNC(=O)NC[C@H]1CC[C@@H](C(=O)NCCCCNC(=O)c2ccc(-c3c4nc(c(-c5ccc(S(=O)(=O)[O-])cc5)c5ccc([nH]5)c(-c5ccc(S(=O)(=O)[O-])cc5)c5nc(c(-c6ccc(S(=O)(=O)[O-])cc6)c6ccc3[nH]6)C=C5)C=C4)cc2)CC1
REMARK SMILES IDX 20 1 19 2 17 3 18 4 16 6 13 7 14 8 88 9 15 10 87 11 12 12
REMARK SMILES IDX 11 13 8 14 9 15 10 17 7 19 6 20 4 21 1 22 2 23 3 24 5 25
REMARK SMILES IDX 21 26 22 27 23 28 24 29 25 30 26 32 27 33 28 34 86 35 29 36
REMARK SMILES IDX 85 37 30 38 31 39 32 40 79 41 33 42 84 43 78 44 80 45 34 46
REMARK SMILES IDX 83 47 77 48 76 49 35 51 65 52 46 53 64 54 47 55 50 56 63 57
REMARK SMILES IDX 81 58 48 59 49 60 62 62 82 63 51 64 36 65 37 66 45 67 38 68
REMARK SMILES IDX 44 69 39 70 40 71 41 72 42 73 43 74 66 75 67 76 75 77 68 78
REMARK SMILES IDX 74 79 69 80 70 81 71 82 72 83 73 84 52 85 53 86 61 87 54 88
REMARK SMILES IDX 60 89 55 90 56 91 57 92 58 93 59 94
REMARK H PARENT 19 5 8 16 11 18 24 31 80 50 50 61
REMARK Flexibility Score: inf
ROOT
ATOM      1  C   UNL A   1      32.507  27.055  25.015  1.00  0.00     0.116 C 
ENDROOT
BRANCH   1   2
ATOM      2  N   UNL A   1      31.817  27.509  23.831  1.00  0.00    -0.356 N 
ATOM      3  C   UNL A   1      31.307  26.854  22.762  1.00  0.00     0.223 C 
ATOM      4  O   UNL A   1      30.548  27.517  22.041  1.00  0.00    -0.275 OA
ATOM      5  H   UNL A   1      31.693  28.485  23.796  1.00  0.00     0.163 HD
BRANCH   3   6
ATOM      6  C   UNL A   1      31.608  25.396  22.375  1.00  0.00     0.078 C 
ATOM      7  C   UNL A   1      33.218  23.522  24.132  1.00  0.00     0.008 C 
ATOM      8  C   UNL A   1      31.704  23.725  24.348  1.00  0.00     0.006 C 
ATOM      9  C   UNL A   1      33.899  24.503  23.161  1.00  0.00     0.006 C 
ATOM     10  C   UNL A   1      30.922  24.297  23.176  1.00  0.00     0.014 C 
ATOM     11  C   UNL A   1      33.056  25.073  22.033  1.00  0.00     0.014 C 
BRANCH   7  12
ATOM     12  C   UNL A   1      33.960  23.580  25.492  1.00  0.00     0.121 C 
BRANCH  12  13
ATOM     13  N   UNL A   1      35.265  22.961  25.447  1.00  0.00    -0.338 N 
ATOM     14  N   UNL A   1      34.927  20.649  25.755  1.00  0.00    -0.338 N 
ATOM     15  C   UNL A   1      35.717  21.720  25.642  1.00  0.00     0.314 C 
ATOM     16  H   UNL A   1      35.402  19.850  26.075  1.00  0.00     0.165 HD
ATOM     17  O   UNL A   1      36.936  21.554  25.707  1.00  0.00    -0.249 OA
ATOM     18  H   UNL A   1      35.982  23.598  25.221  1.00  0.00     0.165 HD
BRANCH  14  19
ATOM     19  C   UNL A   1      33.516  20.415  25.505  1.00  0.00     0.127 C 
BRANCH  19  20
ATOM     20  C   UNL A   1      33.280  19.434  24.358  1.00  0.00     0.121 C 
BRANCH  20  21
ATOM     21  C   UNL A   1      32.938  18.081  24.952  1.00  0.00     0.223 C 
ATOM     22  C   UNL A   1      33.402  15.694  25.102  1.00  0.00     0.146 C 
ATOM     23  N   UNL A   1      33.439  16.939  24.354  1.00  0.00    -0.349 N 
ATOM     24  C   UNL A   1      33.952  16.852  22.991  1.00  0.00     0.146 C 
ATOM     25  O   UNL A   1      32.317  18.042  26.018  1.00  0.00    -0.275 OA
ENDBRANCH  20  21
ENDBRANCH  19  20
ENDBRANCH  14  19
ENDBRANCH  12  13
ENDBRANCH   7  12
ENDBRANCH   3   6
ENDBRANCH   1   2
BRANCH   1  26
ATOM     26  C   UNL A   1      31.604  26.897  26.240  1.00  0.00     0.023 C 
BRANCH  26  27
ATOM     27  C   UNL A   1      31.866  27.900  27.359  1.00  0.00     0.023 C 
BRANCH  27  28
ATOM     28  C   UNL A   1      33.222  28.600  27.325  1.00  0.00     0.116 C 
BRANCH  28  29
ATOM     29  N   UNL A   1      33.197  30.021  27.652  1.00  0.00    -0.352 N 
ATOM     30  C   UNL A   1      34.251  30.807  28.076  1.00  0.00     0.251 C 
ATOM     31  H   UNL A   1      32.327  30.473  27.560  1.00  0.00     0.163 HD
ATOM     32  O   UNL A   1      34.083  31.996  28.326  1.00  0.00    -0.269 OA
BRANCH  30  33
ATOM     33  C   UNL A   1      35.570  30.165  28.288  1.00  0.00     0.039 A 
ATOM     34  C   UNL A   1      36.472  30.111  27.224  1.00  0.00     0.014 A 
ATOM     35  C   UNL A   1      35.962  29.763  29.568  1.00  0.00     0.014 A 
ATOM     36  C   UNL A   1      37.805  29.769  27.469  1.00  0.00     0.010 A 
ATOM     37  C   UNL A   1      37.306  29.505  29.822  1.00  0.00     0.010 A 
ATOM     38  C   UNL A   1      38.248  29.530  28.782  1.00  0.00    -0.014 A 
BRANCH  38  39
ATOM     39  C   UNL A   1      39.692  29.344  29.095  1.00  0.00     0.031 A 
ATOM     40  C   UNL A   1      40.364  28.027  28.811  1.00  0.00     0.074 A 
ATOM     41  C   UNL A   1      40.379  30.326  29.716  1.00  0.00     0.049 A 
ATOM     42  N   UNL A   1      41.575  27.638  29.116  1.00  0.00    -0.248 NA
ATOM     43  C   UNL A   1      39.561  27.005  28.121  1.00  0.00     0.031 C 
ATOM     44  C   UNL A   1      39.837  31.632  30.105  1.00  0.00     0.029 A 
ATOM     45  N   UNL A   1      41.684  30.376  30.143  1.00  0.00    -0.354 N 
ATOM     46  C   UNL A   1      41.674  26.325  28.671  1.00  0.00     0.074 A 
ATOM     47  C   UNL A   1      40.383  25.966  28.125  1.00  0.00     0.031 C 
ATOM     48  C   UNL A   1      40.805  32.358  30.689  1.00  0.00     0.029 A 
ATOM     49  C   UNL A   1      42.026  31.561  30.753  1.00  0.00     0.049 A 
ATOM     50  H   UNL A   1      42.316  29.631  30.023  1.00  0.00     0.167 HD
ATOM     51  C   UNL A   1      42.745  25.498  28.690  1.00  0.00     0.031 A 
ATOM     52  C   UNL A   1      43.187  31.961  31.307  1.00  0.00     0.031 A 
ATOM     53  C   UNL A   1      44.038  25.856  29.209  1.00  0.00     0.049 A 
ATOM     54  C   UNL A   1      44.370  31.031  31.297  1.00  0.00     0.074 A 
ATOM     55  C   UNL A   1      45.193  25.094  29.240  1.00  0.00     0.029 A 
ATOM     56  N   UNL A   1      44.352  27.082  29.771  1.00  0.00    -0.354 N 
ATOM     57  N   UNL A   1      44.449  29.807  30.833  1.00  0.00    -0.248 NA
ATOM     58  C   UNL A   1      45.622  31.539  31.873  1.00  0.00     0.031 C 
ATOM     59  C   UNL A   1      46.201  25.854  29.844  1.00  0.00     0.029 A 
ATOM     60  C   UNL A   1      45.683  27.100  30.150  1.00  0.00     0.049 A 
ATOM     61  H   UNL A   1      43.722  27.830  29.883  1.00  0.00     0.167 HD
ATOM     62  C   UNL A   1      45.765  29.411  31.038  1.00  0.00     0.074 A 
ATOM     63  C   UNL A   1      46.451  30.528  31.652  1.00  0.00     0.031 C 
ATOM     64  C   UNL A   1      46.354  28.226  30.745  1.00  0.00     0.031 A 
BRANCH  51  65
ATOM     65  C   UNL A   1      42.569  24.123  28.105  1.00  0.00    -0.014 A 
ATOM     66  C   UNL A   1      42.399  23.007  28.943  1.00  0.00     0.010 A 
ATOM     67  C   UNL A   1      42.526  23.948  26.711  1.00  0.00     0.010 A 
ATOM     68  C   UNL A   1      42.225  21.733  28.398  1.00  0.00     0.020 A 
ATOM     69  C   UNL A   1      42.327  22.679  26.161  1.00  0.00     0.020 A 
ATOM     70  C   UNL A   1      42.193  21.577  27.009  1.00  0.00     0.054 A 
BRANCH  70  71
ATOM     71  S   UNL A   1      41.933  19.916  26.330  1.00  0.00     0.124 S 
ATOM     72  O   UNL A   1      42.878  19.896  25.216  1.00  0.00    -0.237 OA
ATOM     73  O   UNL A   1      42.273  19.050  27.457  1.00  0.00    -0.237 OA
ATOM     74  O   UNL A   1      40.522  19.914  25.951  1.00  0.00    -0.744 OA
ENDBRANCH  70  71
ENDBRANCH  51  65
BRANCH  52  75
ATOM     75  C   UNL A   1      43.303  33.314  31.919  1.00  0.00    -0.014 A 
ATOM     76  C   UNL A   1      43.055  33.500  33.291  1.00  0.00     0.010 A 
ATOM     77  C   UNL A   1      43.631  34.428  31.126  1.00  0.00     0.010 A 
ATOM     78  C   UNL A   1      43.099  34.781  33.853  1.00  0.00     0.020 A 
ATOM     79  C   UNL A   1      43.701  35.706  31.689  1.00  0.00     0.020 A 
ATOM     80  C   UNL A   1      43.415  35.877  33.045  1.00  0.00     0.054 A 
BRANCH  80  81
ATOM     81  S   UNL A   1      43.486  37.529  33.792  1.00  0.00     0.124 S 
ATOM     82  O   UNL A   1      42.205  37.600  34.487  1.00  0.00    -0.237 OA
ATOM     83  O   UNL A   1      44.668  37.443  34.647  1.00  0.00    -0.237 OA
ATOM     84  O   UNL A   1      43.625  38.415  32.639  1.00  0.00    -0.744 OA
ENDBRANCH  80  81
ENDBRANCH  52  75
BRANCH  64  85
ATOM     85  C   UNL A   1      47.822  28.088  31.044  1.00  0.00    -0.014 A 
ATOM     86  C   UNL A   1      48.794  28.467  30.103  1.00  0.00     0.010 A 
ATOM     87  C   UNL A   1      48.230  27.627  32.309  1.00  0.00     0.010 A 
ATOM     88  C   UNL A   1      50.153  28.361  30.412  1.00  0.00     0.020 A 
ATOM     89  C   UNL A   1      49.586  27.540  32.629  1.00  0.00     0.020 A 
ATOM     90  C   UNL A   1      50.540  27.897  31.673  1.00  0.00     0.054 A 
BRANCH  90  91
ATOM     91  S   UNL A   1      52.309  27.813  32.070  1.00  0.00     0.124 S 
ATOM     92  O   UNL A   1      52.447  26.441  32.549  1.00  0.00    -0.237 OA
ATOM     93  O   UNL A   1      52.942  28.098  30.785  1.00  0.00    -0.237 OA
ATOM     94  O   UNL A   1      52.483  28.849  33.086  1.00  0.00    -0.744 OA
ENDBRANCH  90  91
ENDBRANCH  64  85
ENDBRANCH  38  39
ENDBRANCH  30  33
ENDBRANCH  28  29
ENDBRANCH  27  28
ENDBRANCH  26  27
ENDBRANCH   1  26
TORSDOF 19
ENDMDL
MODEL 3
REMARK VINA RESULT:     -10.5      1.429      8.289
REMARK SMILES CN(C)C(=O)CCNC(=O)NC[C@H]1CC[C@@H](C(=O)NCCCCNC(=O)c2ccc(-c3c4nc(c(-c5ccc(S(=O)(=O)[O-])cc5)c5ccc([nH]5)c(-c5ccc(S(=O)(=O)[O-])cc5)c5nc(c(-c6ccc(S(=O)(=O)[O-])cc6)c6ccc3[nH]6)C=C5)C=C4)cc2)CC1
REMARK SMILES IDX 20 1 19 2 17 3 18 4 16 6 13 7 14 8 88 9 15 10 87 11 12 12
REMARK SMILES IDX 11 13 8 14 9 15 10 17 7 19 6 20 4 21 1 22 2 23 3 24 5 25
REMARK SMILES IDX 21 26 22 27 23 28 24 29 25 30 26 32 27 33 28 34 86 35 29 36
REMARK SMILES IDX 85 37 30 38 31 39 32 40 79 41 33 42 84 43 78 44 80 45 34 46
REMARK SMILES IDX 83 47 77 48 76 49 35 51 65 52 46 53 64 54 47 55 50 56 63 57
REMARK SMILES IDX 81 58 48 59 49 60 62 62 82 63 51 64 36 65 37 66 45 67 38 68
REMARK SMILES IDX 44 69 39 70 40 71 41 72 42 73 43 74 66 75 67 76 75 77 68 78
REMARK SMILES IDX 74 79 69 80 70 81 71 82 72 83 73 84 52 85 53 86 61 87 54 88
REMARK SMILES IDX 60 89 55 90 56 91 57 92 58 93 59 94
REMARK H PARENT 19 5 8 16 11 18 24 31 80 50 50 61
REMARK Flexibility Score: inf
ROOT
ATOM      1  C   UNL A   1      32.008  29.000  24.975  1.00  0.00     0.116 C 
ENDROOT
BRANCH   1   2
ATOM      2  N   UNL A   1      31.018  29.808  24.305  1.00  0.00    -0.356 N 
ATOM      3  C   UNL A   1      29.955  29.494  23.526  1.00  0.00     0.223 C 
ATOM      4  O   UNL A   1      29.155  30.417  23.318  1.00  0.00    -0.275 OA
ATOM      5  H   UNL A   1      31.139  30.776  24.441  1.00  0.00     0.163 HD
BRANCH   3   6
ATOM      6  C   UNL A   1      29.688  28.123  22.883  1.00  0.00     0.078 C 
ATOM      7  C   UNL A   1      30.622  25.514  24.112  1.00  0.00     0.008 C 
ATOM      8  C   UNL A   1      29.298  26.178  24.544  1.00  0.00     0.006 C 
ATOM      9  C   UNL A   1      31.549  26.367  23.228  1.00  0.00     0.006 C 
ATOM     10  C   UNL A   1      28.703  27.195  23.582  1.00  0.00     0.014 C 
ATOM     11  C   UNL A   1      30.900  27.395  22.316  1.00  0.00     0.014 C 
BRANCH   7  12
ATOM     12  C   UNL A   1      31.416  25.054  25.361  1.00  0.00     0.121 C 
BRANCH  12  13
ATOM     13  N   UNL A   1      30.580  24.434  26.363  1.00  0.00    -0.338 N 
ATOM     14  N   UNL A   1      31.503  22.309  26.790  1.00  0.00    -0.338 N 
ATOM     15  C   UNL A   1      30.543  23.227  26.930  1.00  0.00     0.314 C 
ATOM     16  H   UNL A   1      31.239  21.419  27.118  1.00  0.00     0.165 HD
ATOM     17  O   UNL A   1      29.573  22.951  27.637  1.00  0.00    -0.249 OA
ATOM     18  H   UNL A   1      29.881  25.038  26.703  1.00  0.00     0.165 HD
BRANCH  14  19
ATOM     19  C   UNL A   1      32.853  22.344  26.258  1.00  0.00     0.127 C 
BRANCH  19  20
ATOM     20  C   UNL A   1      33.384  20.953  25.916  1.00  0.00     0.121 C 
BRANCH  20  21
ATOM     21  C   UNL A   1      32.810  20.540  24.575  1.00  0.00     0.223 C 
ATOM     22  C   UNL A   1      32.263  18.763  23.000  1.00  0.00     0.146 C 
ATOM     23  N   UNL A   1      33.076  19.271  24.092  1.00  0.00    -0.349 N 
ATOM     24  C   UNL A   1      34.159  18.404  24.541  1.00  0.00     0.146 C 
ATOM     25  O   UNL A   1      32.027  21.306  24.005  1.00  0.00    -0.275 OA
ENDBRANCH  20  21
ENDBRANCH  19  20
ENDBRANCH  14  19
ENDBRANCH  12  13
ENDBRANCH   7  12
ENDBRANCH   3   6
ENDBRANCH   1   2
BRANCH   1  26
ATOM     26  C   UNL A   1      31.558  28.466  26.336  1.00  0.00     0.023 C 
BRANCH  26  27
ATOM     27  C   UNL A   1      32.694  28.077  27.277  1.00  0.00     0.023 C 
BRANCH  27  28
ATOM     28  C   UNL A   1      33.967  28.912  27.168  1.00  0.00     0.116 C 
BRANCH  28  29
ATOM     29  N   UNL A   1      33.942  30.181  27.884  1.00  0.00    -0.352 N 
ATOM     30  C   UNL A   1      34.987  30.795  28.548  1.00  0.00     0.251 C 
ATOM     31  H   UNL A   1      33.081  30.657  27.896  1.00  0.00     0.163 HD
ATOM     32  O   UNL A   1      34.820  31.867  29.121  1.00  0.00    -0.269 OA
BRANCH  30  33
ATOM     33  C   UNL A   1      36.292  30.095  28.613  1.00  0.00     0.039 A 
ATOM     34  C   UNL A   1      37.128  30.124  27.495  1.00  0.00     0.014 A 
ATOM     35  C   UNL A   1      36.742  29.551  29.819  1.00  0.00     0.014 A 
ATOM     36  C   UNL A   1      38.460  29.719  27.621  1.00  0.00     0.010 A 
ATOM     37  C   UNL A   1      38.088  29.226  29.962  1.00  0.00     0.010 A 
ATOM     38  C   UNL A   1      38.969  29.331  28.873  1.00  0.00    -0.014 A 
BRANCH  38  39
ATOM     39  C   UNL A   1      40.421  29.070  29.077  1.00  0.00     0.031 A 
ATOM     40  C   UNL A   1      41.001  27.722  28.744  1.00  0.00     0.074 A 
ATOM     41  C   UNL A   1      41.202  30.014  29.644  1.00  0.00     0.049 A 
ATOM     42  N   UNL A   1      42.210  27.270  28.956  1.00  0.00    -0.248 NA
ATOM     43  C   UNL A   1      40.096  26.745  28.117  1.00  0.00     0.031 C 
ATOM     44  C   UNL A   1      40.759  31.345  30.072  1.00  0.00     0.029 A 
ATOM     45  N   UNL A   1      42.537  29.995  29.970  1.00  0.00    -0.354 N 
ATOM     46  C   UNL A   1      42.206  25.955  28.506  1.00  0.00     0.074 A 
ATOM     47  C   UNL A   1      40.862  25.665  28.059  1.00  0.00     0.031 C 
ATOM     48  C   UNL A   1      41.805  32.018  30.580  1.00  0.00     0.029 A 
ATOM     49  C   UNL A   1      42.985  31.158  30.552  1.00  0.00     0.049 A 
ATOM     50  H   UNL A   1      43.119  29.219  29.804  1.00  0.00     0.167 HD
ATOM     51  C   UNL A   1      43.232  25.073  28.445  1.00  0.00     0.031 A 
ATOM     52  C   UNL A   1      44.203  31.497  31.017  1.00  0.00     0.031 A 
ATOM     53  C   UNL A   1      44.578  25.363  28.864  1.00  0.00     0.049 A 
ATOM     54  C   UNL A   1      45.332  30.507  30.918  1.00  0.00     0.074 A 
ATOM     55  C   UNL A   1      45.690  24.542  28.808  1.00  0.00     0.029 A 
ATOM     56  N   UNL A   1      44.996  26.569  29.400  1.00  0.00    -0.354 N 
ATOM     57  N   UNL A   1      45.313  29.282  30.450  1.00  0.00    -0.248 NA
ATOM     58  C   UNL A   1      46.649  30.948  31.398  1.00  0.00     0.031 C 
ATOM     59  C   UNL A   1      46.779  25.247  29.334  1.00  0.00     0.029 A 
ATOM     60  C   UNL A   1      46.351  26.517  29.677  1.00  0.00     0.049 A 
ATOM     61  H   UNL A   1      44.415  27.348  29.559  1.00  0.00     0.167 HD
ATOM     62  C   UNL A   1      46.619  28.818  30.555  1.00  0.00     0.074 A 
ATOM     63  C   UNL A   1      47.406  29.897  31.115  1.00  0.00     0.031 C 
ATOM     64  C   UNL A   1      47.122  27.605  30.219  1.00  0.00     0.031 A 
BRANCH  51  65
ATOM     65  C   UNL A   1      42.942  23.711  27.875  1.00  0.00    -0.014 A 
ATOM     66  C   UNL A   1      42.487  22.672  28.707  1.00  0.00     0.010 A 
ATOM     67  C   UNL A   1      43.079  23.478  26.496  1.00  0.00     0.010 A 
ATOM     68  C   UNL A   1      42.208  21.412  28.175  1.00  0.00     0.020 A 
ATOM     69  C   UNL A   1      42.776  22.225  25.955  1.00  0.00     0.020 A 
ATOM     70  C   UNL A   1      42.357  21.196  26.801  1.00  0.00     0.054 A 
BRANCH  70  71
ATOM     71  S   UNL A   1      41.956  19.558  26.134  1.00  0.00     0.124 S 
ATOM     72  O   UNL A   1      42.700  19.556  24.877  1.00  0.00    -0.237 OA
ATOM     73  O   UNL A   1      42.463  18.657  27.165  1.00  0.00    -0.237 OA
ATOM     74  O   UNL A   1      40.502  19.587  25.997  1.00  0.00    -0.744 OA
ENDBRANCH  70  71
ENDBRANCH  51  65
BRANCH  52  75
ATOM     75  C   UNL A   1      44.434  32.840  31.618  1.00  0.00    -0.014 A 
ATOM     76  C   UNL A   1      44.844  33.920  30.814  1.00  0.00     0.010 A 
ATOM     77  C   UNL A   1      44.275  33.038  33.000  1.00  0.00     0.010 A 
ATOM     78  C   UNL A   1      45.125  35.164  31.388  1.00  0.00     0.020 A 
ATOM     79  C   UNL A   1      44.531  34.287  33.574  1.00  0.00     0.020 A 
ATOM     80  C   UNL A   1      44.973  35.337  32.767  1.00  0.00     0.054 A 
BRANCH  80  81
ATOM     81  S   UNL A   1      45.324  36.962  33.493  1.00  0.00     0.124 S 
ATOM     82  O   UNL A   1      46.493  37.388  32.731  1.00  0.00    -0.237 OA
ATOM     83  O   UNL A   1      44.092  37.702  33.232  1.00  0.00    -0.237 OA
ATOM     84  O   UNL A   1      45.570  36.657  34.902  1.00  0.00    -0.744 OA
ENDBRANCH  80  81
ENDBRANCH  52  75
BRANCH  64  85
ATOM     85  C   UNL A   1      48.599  27.391  30.407  1.00  0.00    -0.014 A 
ATOM     86  C   UNL A   1      49.132  27.057  31.663  1.00  0.00     0.010 A 
ATOM     87  C   UNL A   1      49.456  27.470  29.294  1.00  0.00     0.010 A 
ATOM     88  C   UNL A   1      50.503  26.832  31.810  1.00  0.00     0.020 A 
ATOM     89  C   UNL A   1      50.824  27.224  29.432  1.00  0.00     0.020 A 
ATOM     90  C   UNL A   1      51.340  26.918  30.693  1.00  0.00     0.054 A 
BRANCH  90  91
ATOM     91  S   UNL A   1      53.110  26.573  30.897  1.00  0.00     0.124 S 
ATOM     92  O   UNL A   1      53.541  27.688  31.735  1.00  0.00    -0.237 OA
ATOM     93  O   UNL A   1      53.111  25.263  31.544  1.00  0.00    -0.237 OA
ATOM     94  O   UNL A   1      53.624  26.585  29.529  1.00  0.00    -0.744 OA
ENDBRANCH  90  91
ENDBRANCH  64  85
ENDBRANCH  38  39
ENDBRANCH  30  33
ENDBRANCH  28  29
ENDBRANCH  27  28
ENDBRANCH  26  27
ENDBRANCH   1  26
TORSDOF 19
ENDMDL
