MODEL 1
REMARK VINA RESULT:      -9.6      0.000      0.000
REMARK SMILES C[C@H](CCC(=O)NCCCCNC(=O)c1ccc(-c2c3nc(c(-c4ccc(S(=O)(=O)[O-])cc4)c4ccc([nH]4)c(-c4ccc(S(=O)(=O)[O-])cc4)c4nc(c(-c5ccc(S(=O)(=O)[O-])cc5)c5ccc2[nH]5)C=C4)C=C3)cc1)NC(=O)c1ccc(C[NH3+])o1
REMARK SMILES IDX 8 1 7 2 5 3 6 4 4 6 3 7 2 8 1 9 75 10 76 11 77 13 78 14
REMARK SMILES IDX 79 15 84 16 80 17 81 18 82 19 83 20 9 24 10 25 11 26 12 27
REMARK SMILES IDX 13 28 14 30 15 31 16 32 74 33 17 34 73 35 18 36 19 37 20 38
REMARK SMILES IDX 67 39 21 40 72 41 66 42 68 43 22 44 71 45 65 46 64 47 23 49
REMARK SMILES IDX 53 50 34 51 52 52 35 53 38 54 51 55 69 56 36 57 37 58 50 60
REMARK SMILES IDX 70 61 39 62 24 63 25 64 33 65 26 66 32 67 27 68 28 69 29 70
REMARK SMILES IDX 30 71 31 72 54 73 55 74 63 75 56 76 62 77 57 78 58 79 59 80
REMARK SMILES IDX 60 81 61 82 40 83 41 84 49 85 42 86 48 87 43 88 44 89 45 90
REMARK SMILES IDX 46 91 47 92
REMARK H PARENT 7 5 75 12 83 21 83 22 83 23 12 29 68 48 38 59
REMARK Flexibility Score: inf
ROOT
ATOM      1  C   UNL A   1      38.863  23.403  26.616  1.00  0.00     0.116 C 
ENDROOT
BRANCH   1   2
ATOM      2  N   UNL A   1      38.270  22.810  25.431  1.00  0.00    -0.356 N 
ATOM      3  C   UNL A   1      37.028  22.979  24.897  1.00  0.00     0.220 C 
ATOM      4  O   UNL A   1      36.661  22.206  24.012  1.00  0.00    -0.275 OA
ATOM      5  H   UNL A   1      38.855  22.190  24.938  1.00  0.00     0.163 HD
BRANCH   3   6
ATOM      6  C   UNL A   1      36.136  24.124  25.343  1.00  0.00     0.102 C 
BRANCH   6   7
ATOM      7  C   UNL A   1      34.632  23.813  25.348  1.00  0.00     0.034 C 
BRANCH   7   8
ATOM      8  C   UNL A   1      33.691  24.932  24.862  1.00  0.00     0.079 C 
ATOM      9  C   UNL A   1      34.024  26.309  25.438  1.00  0.00     0.031 C 
BRANCH   8  10
ATOM     10  N   UNL A   1      33.763  25.079  23.411  1.00  0.00    -0.347 N 
ATOM     11  C   UNL A   1      33.046  25.851  22.527  1.00  0.00     0.287 C 
ATOM     12  H   UNL A   1      34.454  24.520  22.987  1.00  0.00     0.164 HD
ATOM     13  O   UNL A   1      33.549  25.971  21.406  1.00  0.00    -0.266 OA
BRANCH  11  14
ATOM     14  C   UNL A   1      31.754  26.412  22.867  1.00  0.00     0.191 A 
ATOM     15  C   UNL A   1      30.630  25.994  23.560  1.00  0.00     0.057 A 
ATOM     16  O   UNL A   1      31.529  27.687  22.413  1.00  0.00    -0.450 OA
ATOM     17  C   UNL A   1      29.660  27.026  23.452  1.00  0.00     0.052 A 
ATOM     18  C   UNL A   1      30.261  28.044  22.747  1.00  0.00     0.159 A 
BRANCH  18  19
ATOM     19  C   UNL A   1      29.816  29.379  22.279  1.00  0.00     0.335 C 
BRANCH  19  20
ATOM     20  N   UNL A   1      30.920  30.078  21.628  1.00  0.00    -0.351 N 
ATOM     21  H   UNL A   1      31.566  30.427  22.337  1.00  0.00     0.344 HD
ATOM     22  H   UNL A   1      30.553  30.861  21.087  1.00  0.00     0.344 HD
ATOM     23  H   UNL A   1      31.411  29.435  21.007  1.00  0.00     0.344 HD
ENDBRANCH  19  20
ENDBRANCH  18  19
ENDBRANCH  11  14
ENDBRANCH   8  10
ENDBRANCH   7   8
ENDBRANCH   6   7
ENDBRANCH   3   6
ENDBRANCH   1   2
BRANCH   1  24
ATOM     24  C   UNL A   1      40.167  22.682  26.957  1.00  0.00     0.023 C 
BRANCH  24  25
ATOM     25  C   UNL A   1      40.245  21.236  26.495  1.00  0.00     0.023 C 
BRANCH  25  26
ATOM     26  C   UNL A   1      41.400  20.462  27.107  1.00  0.00     0.116 C 
BRANCH  26  27
ATOM     27  N   UNL A   1      42.088  19.580  26.169  1.00  0.00    -0.352 N 
ATOM     28  C   UNL A   1      43.182  19.862  25.370  1.00  0.00     0.251 C 
ATOM     29  H   UNL A   1      41.728  18.668  26.095  1.00  0.00     0.163 HD
ATOM     30  O   UNL A   1      43.613  19.034  24.589  1.00  0.00    -0.269 OA
BRANCH  28  31
ATOM     31  C   UNL A   1      43.776  21.218  25.447  1.00  0.00     0.039 A 
ATOM     32  C   UNL A   1      43.398  22.178  24.508  1.00  0.00     0.014 A 
ATOM     33  C   UNL A   1      44.592  21.559  26.524  1.00  0.00     0.014 A 
ATOM     34  C   UNL A   1      43.749  23.515  24.718  1.00  0.00     0.010 A 
ATOM     35  C   UNL A   1      44.837  22.899  26.792  1.00  0.00     0.010 A 
ATOM     36  C   UNL A   1      44.414  23.895  25.897  1.00  0.00    -0.014 A 
BRANCH  36  37
ATOM     37  C   UNL A   1      44.677  25.318  26.233  1.00  0.00     0.031 A 
ATOM     38  C   UNL A   1      46.071  25.870  26.094  1.00  0.00     0.074 A 
ATOM     39  C   UNL A   1      43.699  26.080  26.766  1.00  0.00     0.049 A 
ATOM     40  N   UNL A   1      46.543  27.029  26.473  1.00  0.00    -0.248 NA
ATOM     41  C   UNL A   1      47.082  24.979  25.498  1.00  0.00     0.031 C 
ATOM     42  C   UNL A   1      42.321  25.648  27.020  1.00  0.00     0.029 A 
ATOM     43  N   UNL A   1      43.718  27.382  27.202  1.00  0.00    -0.354 N 
ATOM     44  C   UNL A   1      47.907  26.984  26.210  1.00  0.00     0.074 A 
ATOM     45  C   UNL A   1      48.196  25.667  25.691  1.00  0.00     0.031 C 
ATOM     46  C   UNL A   1      41.621  26.678  27.525  1.00  0.00     0.029 A 
ATOM     47  C   UNL A   1      42.505  27.828  27.671  1.00  0.00     0.049 A 
ATOM     48  H   UNL A   1      44.526  27.944  27.179  1.00  0.00     0.167 HD
ATOM     49  C   UNL A   1      48.835  27.960  26.360  1.00  0.00     0.031 A 
ATOM     50  C   UNL A   1      42.144  29.030  28.163  1.00  0.00     0.031 A 
ATOM     51  C   UNL A   1      48.532  29.289  26.812  1.00  0.00     0.049 A 
ATOM     52  C   UNL A   1      43.175  30.122  28.253  1.00  0.00     0.074 A 
ATOM     53  C   UNL A   1      49.379  30.378  26.913  1.00  0.00     0.029 A 
ATOM     54  N   UNL A   1      47.276  29.716  27.218  1.00  0.00    -0.354 N 
ATOM     55  N   UNL A   1      44.449  30.077  27.943  1.00  0.00    -0.248 NA
ATOM     56  C   UNL A   1      42.719  31.427  28.748  1.00  0.00     0.031 C 
ATOM     57  C   UNL A   1      48.640  31.459  27.405  1.00  0.00     0.029 A 
ATOM     58  C   UNL A   1      47.326  31.052  27.573  1.00  0.00     0.049 A 
ATOM     59  H   UNL A   1      46.470  29.153  27.248  1.00  0.00     0.167 HD
ATOM     60  C   UNL A   1      44.939  31.355  28.180  1.00  0.00     0.074 A 
ATOM     61  C   UNL A   1      43.824  32.152  28.648  1.00  0.00     0.031 C 
ATOM     62  C   UNL A   1      46.201  31.828  28.025  1.00  0.00     0.031 A 
BRANCH  49  63
ATOM     63  C   UNL A   1      50.260  27.618  26.017  1.00  0.00    -0.014 A 
ATOM     64  C   UNL A   1      51.148  27.142  26.999  1.00  0.00     0.010 A 
ATOM     65  C   UNL A   1      50.716  27.763  24.695  1.00  0.00     0.010 A 
ATOM     66  C   UNL A   1      52.480  26.873  26.678  1.00  0.00     0.020 A 
ATOM     67  C   UNL A   1      52.041  27.467  24.363  1.00  0.00     0.020 A 
ATOM     68  C   UNL A   1      52.921  27.046  25.363  1.00  0.00     0.054 A 
BRANCH  68  69
ATOM     69  S   UNL A   1      54.654  26.686  24.971  1.00  0.00     0.124 S 
ATOM     70  O   UNL A   1      54.570  26.312  23.562  1.00  0.00    -0.237 OA
ATOM     71  O   UNL A   1      55.318  27.958  25.244  1.00  0.00    -0.237 OA
ATOM     72  O   UNL A   1      54.997  25.599  25.886  1.00  0.00    -0.744 OA
ENDBRANCH  68  69
ENDBRANCH  49  63
BRANCH  50  73
ATOM     73  C   UNL A   1      40.734  29.281  28.566  1.00  0.00    -0.014 A 
ATOM     74  C   UNL A   1      40.396  29.370  29.929  1.00  0.00     0.010 A 
ATOM     75  C   UNL A   1      39.724  29.441  27.601  1.00  0.00     0.010 A 
ATOM     76  C   UNL A   1      39.072  29.592  30.320  1.00  0.00     0.020 A 
ATOM     77  C   UNL A   1      38.403  29.687  27.987  1.00  0.00     0.020 A 
ATOM     78  C   UNL A   1      38.083  29.748  29.345  1.00  0.00     0.054 A 
BRANCH  78  79
ATOM     79  S   UNL A   1      36.379  30.082  29.874  1.00  0.00     0.124 S 
ATOM     80  O   UNL A   1      35.605  29.551  28.757  1.00  0.00    -0.237 OA
ATOM     81  O   UNL A   1      36.283  29.333  31.125  1.00  0.00    -0.237 OA
ATOM     82  O   UNL A   1      36.350  31.535  30.024  1.00  0.00    -0.744 OA
ENDBRANCH  78  79
ENDBRANCH  50  73
BRANCH  62  83
ATOM     83  C   UNL A   1      46.436  33.282  28.325  1.00  0.00    -0.014 A 
ATOM     84  C   UNL A   1      46.848  33.701  29.602  1.00  0.00     0.010 A 
ATOM     85  C   UNL A   1      46.306  34.231  27.295  1.00  0.00     0.010 A 
ATOM     86  C   UNL A   1      47.103  35.052  29.849  1.00  0.00     0.020 A 
ATOM     87  C   UNL A   1      46.583  35.578  27.533  1.00  0.00     0.020 A 
ATOM     88  C   UNL A   1      46.969  35.982  28.812  1.00  0.00     0.054 A 
BRANCH  88  89
ATOM     89  S   UNL A   1      47.361  37.722  29.142  1.00  0.00     0.124 S 
ATOM     90  O   UNL A   1      48.822  37.714  29.113  1.00  0.00    -0.237 OA
ATOM     91  O   UNL A   1      46.715  38.414  28.029  1.00  0.00    -0.237 OA
ATOM     92  O   UNL A   1      46.764  37.969  30.451  1.00  0.00    -0.744 OA
ENDBRANCH  88  89
ENDBRANCH  62  83
ENDBRANCH  36  37
ENDBRANCH  28  31
ENDBRANCH  26  27
ENDBRANCH  25  26
ENDBRANCH  24  25
ENDBRANCH   1  24
TORSDOF 20
ENDMDL
MODEL 2
REMARK VINA RESULT:      -9.5      4.877     11.672
REMARK SMILES C[C@H](CCC(=O)NCCCCNC(=O)c1ccc(-c2c3nc(c(-c4ccc(S(=O)(=O)[O-])cc4)c4ccc([nH]4)c(-c4ccc(S(=O)(=O)[O-])cc4)c4nc(c(-c5ccc(S(=O)(=O)[O-])cc5)c5ccc2[nH]5)C=C4)C=C3)cc1)NC(=O)c1ccc(C[NH3+])o1
REMARK SMILES IDX 8 1 7 2 5 3 6 4 4 6 3 7 2 8 1 9 75 10 76 11 77 13 78 14
REMARK SMILES IDX 79 15 84 16 80 17 81 18 82 19 83 20 9 24 10 25 11 26 12 27
REMARK SMILES IDX 13 28 14 30 15 31 16 32 74 33 17 34 73 35 18 36 19 37 20 38
REMARK SMILES IDX 67 39 21 40 72 41 66 42 68 43 22 44 71 45 65 46 64 47 23 49
REMARK SMILES IDX 53 50 34 51 52 52 35 53 38 54 51 55 69 56 36 57 37 58 50 60
REMARK SMILES IDX 70 61 39 62 24 63 25 64 33 65 26 66 32 67 27 68 28 69 29 70
REMARK SMILES IDX 30 71 31 72 54 73 55 74 63 75 56 76 62 77 57 78 58 79 59 80
REMARK SMILES IDX 60 81 61 82 40 83 41 84 49 85 42 86 48 87 43 88 44 89 45 90
REMARK SMILES IDX 46 91 47 92
REMARK H PARENT 7 5 75 12 83 21 83 22 83 23 12 29 68 48 38 59
REMARK Flexibility Score: inf
ROOT
ATOM      1  C   UNL A   1      35.894  33.926  30.811  1.00  0.00     0.116 C 
ENDROOT
BRANCH   1   2
ATOM      2  N   UNL A   1      34.677  33.702  31.571  1.00  0.00    -0.356 N 
ATOM      3  C   UNL A   1      34.474  33.708  32.919  1.00  0.00     0.220 C 
ATOM      4  O   UNL A   1      33.407  33.273  33.353  1.00  0.00    -0.275 OA
ATOM      5  H   UNL A   1      33.876  33.517  31.030  1.00  0.00     0.163 HD
BRANCH   3   6
ATOM      6  C   UNL A   1      35.516  34.285  33.861  1.00  0.00     0.102 C 
BRANCH   6   7
ATOM      7  C   UNL A   1      36.263  33.250  34.716  1.00  0.00     0.034 C 
BRANCH   7   8
ATOM      8  C   UNL A   1      37.474  32.555  34.064  1.00  0.00     0.079 C 
ATOM      9  C   UNL A   1      37.099  31.351  33.198  1.00  0.00     0.031 C 
BRANCH   8  10
ATOM     10  N   UNL A   1      38.187  33.474  33.182  1.00  0.00    -0.347 N 
ATOM     11  C   UNL A   1      39.319  34.234  33.365  1.00  0.00     0.287 C 
ATOM     12  H   UNL A   1      37.781  33.569  32.289  1.00  0.00     0.164 HD
ATOM     13  O   UNL A   1      39.831  34.672  32.330  1.00  0.00    -0.266 OA
BRANCH  11  14
ATOM     14  C   UNL A   1      39.822  34.560  34.683  1.00  0.00     0.191 A 
ATOM     15  C   UNL A   1      39.784  35.655  35.530  1.00  0.00     0.057 A 
ATOM     16  O   UNL A   1      40.527  33.560  35.307  1.00  0.00    -0.450 OA
ATOM     17  C   UNL A   1      40.562  35.334  36.673  1.00  0.00     0.052 A 
ATOM     18  C   UNL A   1      40.989  34.037  36.493  1.00  0.00     0.159 A 
BRANCH  18  19
ATOM     19  C   UNL A   1      41.834  33.109  37.283  1.00  0.00     0.335 C 
BRANCH  19  20
ATOM     20  N   UNL A   1      41.099  31.880  37.569  1.00  0.00    -0.351 N 
ATOM     21  H   UNL A   1      40.632  31.559  36.720  1.00  0.00     0.344 HD
ATOM     22  H   UNL A   1      40.403  32.061  38.292  1.00  0.00     0.344 HD
ATOM     23  H   UNL A   1      41.748  31.163  37.892  1.00  0.00     0.344 HD
ENDBRANCH  19  20
ENDBRANCH  18  19
ENDBRANCH  11  14
ENDBRANCH   8  10
ENDBRANCH   7   8
ENDBRANCH   6   7
ENDBRANCH   3   6
ENDBRANCH   1   2
BRANCH   1  24
ATOM     24  C   UNL A   1      35.739  33.342  29.407  1.00  0.00     0.023 C 
BRANCH  24  25
ATOM     25  C   UNL A   1      34.367  32.766  29.094  1.00  0.00     0.023 C 
BRANCH  25  26
ATOM     26  C   UNL A   1      34.217  32.295  27.658  1.00  0.00     0.116 C 
BRANCH  26  27
ATOM     27  N   UNL A   1      33.677  30.944  27.529  1.00  0.00    -0.352 N 
ATOM     28  C   UNL A   1      34.312  29.739  27.771  1.00  0.00     0.251 C 
ATOM     29  H   UNL A   1      32.741  30.883  27.232  1.00  0.00     0.163 HD
ATOM     30  O   UNL A   1      33.744  28.683  27.562  1.00  0.00    -0.269 OA
BRANCH  28  31
ATOM     31  C   UNL A   1      35.720  29.768  28.232  1.00  0.00     0.039 A 
ATOM     32  C   UNL A   1      36.009  29.431  29.555  1.00  0.00     0.014 A 
ATOM     33  C   UNL A   1      36.747  29.997  27.316  1.00  0.00     0.014 A 
ATOM     34  C   UNL A   1      37.337  29.209  29.929  1.00  0.00     0.010 A 
ATOM     35  C   UNL A   1      38.048  29.661  27.660  1.00  0.00     0.010 A 
ATOM     36  C   UNL A   1      38.361  29.257  28.968  1.00  0.00    -0.014 A 
BRANCH  36  37
ATOM     37  C   UNL A   1      39.764  28.886  29.287  1.00  0.00     0.031 A 
ATOM     38  C   UNL A   1      40.665  29.890  29.957  1.00  0.00     0.074 A 
ATOM     39  C   UNL A   1      40.260  27.700  28.878  1.00  0.00     0.049 A 
ATOM     40  N   UNL A   1      41.951  29.824  30.184  1.00  0.00    -0.248 NA
ATOM     41  C   UNL A   1      40.048  31.159  30.378  1.00  0.00     0.031 C 
ATOM     42  C   UNL A   1      39.514  26.664  28.157  1.00  0.00     0.029 A 
ATOM     43  N   UNL A   1      41.519  27.167  29.004  1.00  0.00    -0.354 N 
ATOM     44  C   UNL A   1      42.301  31.056  30.724  1.00  0.00     0.074 A 
ATOM     45  C   UNL A   1      41.106  31.868  30.740  1.00  0.00     0.031 C 
ATOM     46  C   UNL A   1      40.317  25.608  27.945  1.00  0.00     0.029 A 
ATOM     47  C   UNL A   1      41.643  25.904  28.473  1.00  0.00     0.049 A 
ATOM     48  H   UNL A   1      42.264  27.645  29.436  1.00  0.00     0.167 HD
ATOM     49  C   UNL A   1      43.504  31.468  31.191  1.00  0.00     0.031 A 
ATOM     50  C   UNL A   1      42.707  25.077  28.419  1.00  0.00     0.031 A 
ATOM     51  C   UNL A   1      44.673  30.635  31.236  1.00  0.00     0.049 A 
ATOM     52  C   UNL A   1      44.014  25.529  29.010  1.00  0.00     0.074 A 
ATOM     53  C   UNL A   1      45.915  30.924  31.772  1.00  0.00     0.029 A 
ATOM     54  N   UNL A   1      44.738  29.340  30.745  1.00  0.00    -0.354 N 
ATOM     55  N   UNL A   1      44.310  26.678  29.571  1.00  0.00    -0.248 NA
ATOM     56  C   UNL A   1      45.127  24.571  28.971  1.00  0.00     0.031 C 
ATOM     57  C   UNL A   1      46.740  29.810  31.582  1.00  0.00     0.029 A 
ATOM     58  C   UNL A   1      45.999  28.816  30.963  1.00  0.00     0.049 A 
ATOM     59  H   UNL A   1      43.996  28.864  30.307  1.00  0.00     0.167 HD
ATOM     60  C   UNL A   1      45.634  26.569  29.975  1.00  0.00     0.074 A 
ATOM     61  C   UNL A   1      46.079  25.241  29.605  1.00  0.00     0.031 C 
ATOM     62  C   UNL A   1      46.415  27.487  30.597  1.00  0.00     0.031 A 
BRANCH  49  63
ATOM     63  C   UNL A   1      43.600  32.881  31.700  1.00  0.00    -0.014 A 
ATOM     64  C   UNL A   1      43.293  33.192  33.037  1.00  0.00     0.010 A 
ATOM     65  C   UNL A   1      44.013  33.910  30.835  1.00  0.00     0.010 A 
ATOM     66  C   UNL A   1      43.340  34.515  33.485  1.00  0.00     0.020 A 
ATOM     67  C   UNL A   1      44.091  35.231  31.288  1.00  0.00     0.020 A 
ATOM     68  C   UNL A   1      43.731  35.527  32.604  1.00  0.00     0.054 A 
BRANCH  68  69
ATOM     69  S   UNL A   1      43.789  37.235  33.212  1.00  0.00     0.124 S 
ATOM     70  O   UNL A   1      42.596  37.292  34.054  1.00  0.00    -0.237 OA
ATOM     71  O   UNL A   1      45.063  37.282  33.924  1.00  0.00    -0.237 OA
ATOM     72  O   UNL A   1      43.730  38.038  31.992  1.00  0.00    -0.744 OA
ENDBRANCH  68  69
ENDBRANCH  49  63
BRANCH  50  73
ATOM     73  C   UNL A   1      42.569  23.720  27.825  1.00  0.00    -0.014 A 
ATOM     74  C   UNL A   1      42.169  22.636  28.627  1.00  0.00     0.010 A 
ATOM     75  C   UNL A   1      42.827  23.500  26.460  1.00  0.00     0.010 A 
ATOM     76  C   UNL A   1      42.049  21.355  28.083  1.00  0.00     0.020 A 
ATOM     77  C   UNL A   1      42.686  22.224  25.906  1.00  0.00     0.020 A 
ATOM     78  C   UNL A   1      42.311  21.156  26.724  1.00  0.00     0.054 A 
BRANCH  78  79
ATOM     79  S   UNL A   1      42.104  19.493  26.028  1.00  0.00     0.124 S 
ATOM     80  O   UNL A   1      42.594  18.648  27.111  1.00  0.00    -0.237 OA
ATOM     81  O   UNL A   1      40.666  19.431  25.777  1.00  0.00    -0.237 OA
ATOM     82  O   UNL A   1      42.936  19.522  24.828  1.00  0.00    -0.744 OA
ENDBRANCH  78  79
ENDBRANCH  50  73
BRANCH  62  83
ATOM     83  C   UNL A   1      47.816  27.076  30.953  1.00  0.00    -0.014 A 
ATOM     84  C   UNL A   1      48.088  26.394  32.151  1.00  0.00     0.010 A 
ATOM     85  C   UNL A   1      48.861  27.319  30.044  1.00  0.00     0.010 A 
ATOM     86  C   UNL A   1      49.390  25.981  32.444  1.00  0.00     0.020 A 
ATOM     87  C   UNL A   1      50.159  26.888  30.323  1.00  0.00     0.020 A 
ATOM     88  C   UNL A   1      50.417  26.231  31.528  1.00  0.00     0.054 A 
BRANCH  88  89
ATOM     89  S   UNL A   1      52.089  25.636  31.904  1.00  0.00     0.124 S 
ATOM     90  O   UNL A   1      51.858  24.214  32.142  1.00  0.00    -0.237 OA
ATOM     91  O   UNL A   1      52.827  25.957  30.684  1.00  0.00    -0.237 OA
ATOM     92  O   UNL A   1      52.475  26.412  33.080  1.00  0.00    -0.744 OA
ENDBRANCH  88  89
ENDBRANCH  62  83
ENDBRANCH  36  37
ENDBRANCH  28  31
ENDBRANCH  26  27
ENDBRANCH  25  26
ENDBRANCH  24  25
ENDBRANCH   1  24
TORSDOF 20
ENDMDL
MODEL 3
REMARK VINA RESULT:      -9.5      2.628      9.124
REMARK SMILES C[C@H](CCC(=O)NCCCCNC(=O)c1ccc(-c2c3nc(c(-c4ccc(S(=O)(=O)[O-])cc4)c4ccc([nH]4)c(-c4ccc(S(=O)(=O)[O-])cc4)c4nc(c(-c5ccc(S(=O)(=O)[O-])cc5)c5ccc2[nH]5)C=C4)C=C3)cc1)NC(=O)c1ccc(C[NH3+])o1
REMARK SMILES IDX 8 1 7 2 5 3 6 4 4 6 3 7 2 8 1 9 75 10 76 11 77 13 78 14
REMARK SMILES IDX 79 15 84 16 80 17 81 18 82 19 83 20 9 24 10 25 11 26 12 27
REMARK SMILES IDX 13 28 14 30 15 31 16 32 74 33 17 34 73 35 18 36 19 37 20 38
REMARK SMILES IDX 67 39 21 40 72 41 66 42 68 43 22 44 71 45 65 46 64 47 23 49
REMARK SMILES IDX 53 50 34 51 52 52 35 53 38 54 51 55 69 56 36 57 37 58 50 60
REMARK SMILES IDX 70 61 39 62 24 63 25 64 33 65 26 66 32 67 27 68 28 69 29 70
REMARK SMILES IDX 30 71 31 72 54 73 55 74 63 75 56 76 62 77 57 78 58 79 59 80
REMARK SMILES IDX 60 81 61 82 40 83 41 84 49 85 42 86 48 87 43 88 44 89 45 90
REMARK SMILES IDX 46 91 47 92
REMARK H PARENT 7 5 75 12 83 21 83 22 83 23 12 29 68 48 38 59
REMARK Flexibility Score: inf
ROOT
ATOM      1  C   UNL A   1      33.392  29.791  26.487  1.00  0.00     0.116 C 
ENDROOT
BRANCH   1   2
ATOM      2  N   UNL A   1      32.649  28.700  27.091  1.00  0.00    -0.356 N 
ATOM      3  C   UNL A   1      31.778  27.817  26.528  1.00  0.00     0.220 C 
ATOM      4  O   UNL A   1      31.092  27.114  27.271  1.00  0.00    -0.275 OA
ATOM      5  H   UNL A   1      32.797  28.580  28.057  1.00  0.00     0.163 HD
BRANCH   3   6
ATOM      6  C   UNL A   1      31.689  27.664  25.019  1.00  0.00     0.102 C 
BRANCH   6   7
ATOM      7  C   UNL A   1      32.702  26.685  24.405  1.00  0.00     0.034 C 
BRANCH   7   8
ATOM      8  C   UNL A   1      32.144  25.345  23.887  1.00  0.00     0.079 C 
ATOM      9  C   UNL A   1      30.665  25.403  23.501  1.00  0.00     0.031 C 
BRANCH   8  10
ATOM     10  N   UNL A   1      32.854  24.916  22.686  1.00  0.00    -0.347 N 
ATOM     11  C   UNL A   1      33.131  23.669  22.176  1.00  0.00     0.287 C 
ATOM     12  H   UNL A   1      33.200  25.659  22.139  1.00  0.00     0.164 HD
ATOM     13  O   UNL A   1      33.487  23.651  20.994  1.00  0.00    -0.266 OA
BRANCH  11  14
ATOM     14  C   UNL A   1      33.085  22.475  22.996  1.00  0.00     0.191 A 
ATOM     15  C   UNL A   1      32.230  21.397  23.152  1.00  0.00     0.057 A 
ATOM     16  O   UNL A   1      34.140  22.315  23.860  1.00  0.00    -0.450 OA
ATOM     17  C   UNL A   1      32.745  20.599  24.207  1.00  0.00     0.052 A 
ATOM     18  C   UNL A   1      33.920  21.198  24.603  1.00  0.00     0.159 A 
BRANCH  18  19
ATOM     19  C   UNL A   1      34.933  20.899  25.644  1.00  0.00     0.335 C 
BRANCH  19  20
ATOM     20  N   UNL A   1      36.001  20.076  25.085  1.00  0.00    -0.351 N 
ATOM     21  H   UNL A   1      36.427  20.563  24.295  1.00  0.00     0.344 HD
ATOM     22  H   UNL A   1      35.614  19.188  24.767  1.00  0.00     0.344 HD
ATOM     23  H   UNL A   1      36.708  19.904  25.799  1.00  0.00     0.344 HD
ENDBRANCH  19  20
ENDBRANCH  18  19
ENDBRANCH  11  14
ENDBRANCH   8  10
ENDBRANCH   7   8
ENDBRANCH   6   7
ENDBRANCH   3   6
ENDBRANCH   1   2
BRANCH   1  24
ATOM     24  C   UNL A   1      34.685  30.028  27.265  1.00  0.00     0.023 C 
BRANCH  24  25
ATOM     25  C   UNL A   1      34.736  31.325  28.056  1.00  0.00     0.023 C 
BRANCH  25  26
ATOM     26  C   UNL A   1      35.982  31.468  28.914  1.00  0.00     0.116 C 
BRANCH  26  27
ATOM     27  N   UNL A   1      35.775  31.139  30.321  1.00  0.00    -0.352 N 
ATOM     28  C   UNL A   1      36.513  30.285  31.122  1.00  0.00     0.251 C 
ATOM     29  H   UNL A   1      35.011  31.581  30.757  1.00  0.00     0.163 HD
ATOM     30  O   UNL A   1      36.180  30.067  32.272  1.00  0.00    -0.269 OA
BRANCH  28  31
ATOM     31  C   UNL A   1      37.682  29.600  30.524  1.00  0.00     0.039 A 
ATOM     32  C   UNL A   1      37.969  29.801  29.173  1.00  0.00     0.014 A 
ATOM     33  C   UNL A   1      38.555  28.876  31.335  1.00  0.00     0.014 A 
ATOM     34  C   UNL A   1      39.198  29.371  28.664  1.00  0.00     0.010 A 
ATOM     35  C   UNL A   1      39.818  28.558  30.858  1.00  0.00     0.010 A 
ATOM     36  C   UNL A   1      40.159  28.806  29.519  1.00  0.00    -0.014 A 
BRANCH  36  37
ATOM     37  C   UNL A   1      41.531  28.469  29.055  1.00  0.00     0.031 A 
ATOM     38  C   UNL A   1      42.580  29.548  28.989  1.00  0.00     0.074 A 
ATOM     39  C   UNL A   1      41.803  27.232  28.590  1.00  0.00     0.049 A 
ATOM     40  N   UNL A   1      43.782  29.501  28.475  1.00  0.00    -0.248 NA
ATOM     41  C   UNL A   1      42.207  30.870  29.521  1.00  0.00     0.031 C 
ATOM     42  C   UNL A   1      40.858  26.113  28.532  1.00  0.00     0.029 A 
ATOM     43  N   UNL A   1      42.959  26.710  28.065  1.00  0.00    -0.354 N 
ATOM     44  C   UNL A   1      44.284  30.793  28.577  1.00  0.00     0.074 A 
ATOM     45  C   UNL A   1      43.239  31.611  29.150  1.00  0.00     0.031 C 
ATOM     46  C   UNL A   1      41.485  25.029  28.044  1.00  0.00     0.029 A 
ATOM     47  C   UNL A   1      42.860  25.384  27.713  1.00  0.00     0.049 A 
ATOM     48  H   UNL A   1      43.784  27.236  27.952  1.00  0.00     0.167 HD
ATOM     49  C   UNL A   1      45.514  31.255  28.250  1.00  0.00     0.031 A 
ATOM     50  C   UNL A   1      43.775  24.547  27.184  1.00  0.00     0.031 A 
ATOM     51  C   UNL A   1      46.572  30.425  27.745  1.00  0.00     0.049 A 
ATOM     52  C   UNL A   1      45.157  25.064  26.895  1.00  0.00     0.074 A 
ATOM     53  C   UNL A   1      47.882  30.773  27.468  1.00  0.00     0.029 A 
ATOM     54  N   UNL A   1      46.447  29.073  27.462  1.00  0.00    -0.354 N 
ATOM     55  N   UNL A   1      45.631  26.277  27.055  1.00  0.00    -0.248 NA
ATOM     56  C   UNL A   1      46.130  24.099  26.367  1.00  0.00     0.031 C 
ATOM     57  C   UNL A   1      48.543  29.636  26.992  1.00  0.00     0.029 A 
ATOM     58  C   UNL A   1      47.655  28.573  27.011  1.00  0.00     0.049 A 
ATOM     59  H   UNL A   1      45.621  28.548  27.568  1.00  0.00     0.167 HD
ATOM     60  C   UNL A   1      46.965  26.213  26.672  1.00  0.00     0.074 A 
ATOM     61  C   UNL A   1      47.225  24.842  26.284  1.00  0.00     0.031 C 
ATOM     62  C   UNL A   1      47.893  27.201  26.642  1.00  0.00     0.031 A 
BRANCH  49  63
ATOM     63  C   UNL A   1      45.776  32.724  28.444  1.00  0.00    -0.014 A 
ATOM     64  C   UNL A   1      45.518  33.649  27.416  1.00  0.00     0.010 A 
ATOM     65  C   UNL A   1      46.275  33.190  29.674  1.00  0.00     0.010 A 
ATOM     66  C   UNL A   1      45.810  35.003  27.592  1.00  0.00     0.020 A 
ATOM     67  C   UNL A   1      46.539  34.549  29.865  1.00  0.00     0.020 A 
ATOM     68  C   UNL A   1      46.327  35.444  28.813  1.00  0.00     0.054 A 
BRANCH  68  69
ATOM     69  S   UNL A   1      46.692  37.208  29.019  1.00  0.00     0.124 S 
ATOM     70  O   UNL A   1      47.332  37.229  30.332  1.00  0.00    -0.237 OA
ATOM     71  O   UNL A   1      47.573  37.489  27.888  1.00  0.00    -0.237 OA
ATOM     72  O   UNL A   1      45.378  37.843  28.954  1.00  0.00    -0.744 OA
ENDBRANCH  68  69
ENDBRANCH  49  63
BRANCH  50  73
ATOM     73  C   UNL A   1      43.429  23.121  26.934  1.00  0.00    -0.014 A 
ATOM     74  C   UNL A   1      43.652  22.553  25.667  1.00  0.00     0.010 A 
ATOM     75  C   UNL A   1      42.884  22.321  27.955  1.00  0.00     0.010 A 
ATOM     76  C   UNL A   1      43.319  21.219  25.417  1.00  0.00     0.020 A 
ATOM     77  C   UNL A   1      42.572  20.979  27.715  1.00  0.00     0.020 A 
ATOM     78  C   UNL A   1      42.779  20.440  26.444  1.00  0.00     0.054 A 
BRANCH  78  79
ATOM     79  S   UNL A   1      42.397  18.697  26.111  1.00  0.00     0.124 S 
ATOM     80  O   UNL A   1      40.994  18.764  25.714  1.00  0.00    -0.237 OA
ATOM     81  O   UNL A   1      43.341  18.363  25.047  1.00  0.00    -0.237 OA
ATOM     82  O   UNL A   1      42.657  18.042  27.391  1.00  0.00    -0.744 OA
ENDBRANCH  78  79
ENDBRANCH  50  73
BRANCH  62  83
ATOM     83  C   UNL A   1      49.285  26.830  26.215  1.00  0.00    -0.014 A 
ATOM     84  C   UNL A   1      50.191  26.250  27.120  1.00  0.00     0.010 A 
ATOM     85  C   UNL A   1      49.667  27.005  24.873  1.00  0.00     0.010 A 
ATOM     86  C   UNL A   1      51.466  25.872  26.693  1.00  0.00     0.020 A 
ATOM     87  C   UNL A   1      50.933  26.607  24.437  1.00  0.00     0.020 A 
ATOM     88  C   UNL A   1      51.828  26.053  25.354  1.00  0.00     0.054 A 
BRANCH  88  89
ATOM     89  S   UNL A   1      53.468  25.502  24.809  1.00  0.00     0.124 S 
ATOM     90  O   UNL A   1      53.450  25.854  23.391  1.00  0.00    -0.237 OA
ATOM     91  O   UNL A   1      54.368  26.297  25.641  1.00  0.00    -0.237 OA
ATOM     92  O   UNL A   1      53.466  24.070  25.097  1.00  0.00    -0.744 OA
ENDBRANCH  88  89
ENDBRANCH  62  83
ENDBRANCH  36  37
ENDBRANCH  28  31
ENDBRANCH  26  27
ENDBRANCH  25  26
ENDBRANCH  24  25
ENDBRANCH   1  24
TORSDOF 20
ENDMDL
