MODEL 1
REMARK VINA RESULT:      -9.7      0.000      0.000
REMARK SMILES O=C(Cc1ccc(-c2ccn(C(F)F)c(=O)c2)cc1)NCCCCNC(=O)c1ccc(-c2c3nc(c(-c4ccc(S(=O)(=O)[O-])cc4)c4ccc([nH]4)c(-c4ccc(S(=O)(=O)[O-])cc4)c4nc(c(-c5ccc(S(=O)(=O)[O-])cc5)c5ccc2[nH]5)C=C4)C=C3)cc1
REMARK SMILES IDX 22 1 21 2 20 3 1 4 2 5 3 7 4 8 5 9 19 10 6 11 18 12 7 13
REMARK SMILES IDX 8 14 9 15 17 16 10 17 15 18 11 19 16 20 12 21 13 22 14 23
REMARK SMILES IDX 23 24 24 25 25 26 26 27 27 29 28 30 29 31 87 32 30 33 86 34
REMARK SMILES IDX 31 35 32 36 33 37 80 38 34 39 85 40 79 41 81 42 35 43 84 44
REMARK SMILES IDX 78 45 77 46 36 48 66 49 47 50 65 51 48 52 51 53 64 54 82 55
REMARK SMILES IDX 49 56 50 57 63 59 83 60 52 61 37 62 38 63 46 64 39 65 45 66
REMARK SMILES IDX 40 67 41 68 42 69 43 70 44 71 67 72 68 73 76 74 69 75 75 76
REMARK SMILES IDX 70 77 71 78 72 79 73 80 74 81 53 82 54 83 62 84 55 85 61 86
REMARK SMILES IDX 56 87 57 88 58 89 59 90 60 91
REMARK H PARENT 20 6 25 28 81 47 51 58
REMARK Flexibility Score: inf
ROOT
ATOM      1  C   UNL A   1      41.794  19.612  27.216  1.00  0.00     0.023 C 
ENDROOT
BRANCH   1   2
ATOM      2  C   UNL A   1      42.583  19.575  25.910  1.00  0.00     0.116 C 
BRANCH   2   3
ATOM      3  N   UNL A   1      43.856  20.257  26.015  1.00  0.00    -0.356 N 
ATOM      4  O   UNL A   1      44.311  20.300  23.762  1.00  0.00    -0.275 OA
ATOM      5  C   UNL A   1      44.605  20.613  24.912  1.00  0.00     0.224 C 
ATOM      6  H   UNL A   1      44.201  20.477  26.911  1.00  0.00     0.163 HD
BRANCH   5   7
ATOM      7  C   UNL A   1      45.851  21.427  25.235  1.00  0.00     0.135 C 
BRANCH   7   8
ATOM      8  C   UNL A   1      45.599  22.895  25.514  1.00  0.00    -0.039 A 
ATOM      9  C   UNL A   1      46.571  23.655  26.186  1.00  0.00     0.005 A 
ATOM     10  C   UNL A   1      44.437  23.538  25.065  1.00  0.00     0.005 A 
ATOM     11  C   UNL A   1      46.366  25.017  26.440  1.00  0.00     0.009 A 
ATOM     12  C   UNL A   1      44.226  24.890  25.332  1.00  0.00     0.009 A 
ATOM     13  C   UNL A   1      45.187  25.640  26.020  1.00  0.00    -0.018 A 
BRANCH  13  14
ATOM     14  C   UNL A   1      44.926  27.072  26.244  1.00  0.00    -0.011 A 
ATOM     15  C   UNL A   1      45.846  27.928  26.967  1.00  0.00     0.027 A 
ATOM     16  C   UNL A   1      43.733  27.560  25.868  1.00  0.00     0.080 A 
ATOM     17  C   UNL A   1      45.479  29.162  27.333  1.00  0.00     0.095 A 
ATOM     18  C   UNL A   1      43.320  28.942  26.246  1.00  0.00     0.255 A 
ATOM     19  N   UNL A   1      44.233  29.660  27.001  1.00  0.00    -0.258 N 
ATOM     20  O   UNL A   1      42.207  29.331  25.904  1.00  0.00    -0.269 OA
BRANCH  19  21
ATOM     21  C   UNL A   1      43.814  30.951  27.485  1.00  0.00     0.451 C 
ATOM     22  F   UNL A   1      44.556  31.348  28.547  1.00  0.00    -0.185 F 
ATOM     23  F   UNL A   1      43.948  31.888  26.511  1.00  0.00    -0.185 F 
ENDBRANCH  19  21
ENDBRANCH  13  14
ENDBRANCH   7   8
ENDBRANCH   5   7
ENDBRANCH   2   3
ENDBRANCH   1   2
BRANCH   1  24
ATOM     24  C   UNL A   1      40.768  20.744  27.320  1.00  0.00     0.023 C 
BRANCH  24  25
ATOM     25  C   UNL A   1      40.726  21.707  26.137  1.00  0.00     0.116 C 
BRANCH  25  26
ATOM     26  N   UNL A   1      39.372  22.040  25.724  1.00  0.00    -0.352 N 
ATOM     27  C   UNL A   1      38.608  23.141  26.034  1.00  0.00     0.251 C 
ATOM     28  H   UNL A   1      38.940  21.381  25.136  1.00  0.00     0.163 HD
ATOM     29  O   UNL A   1      37.424  23.168  25.705  1.00  0.00    -0.269 OA
BRANCH  27  30
ATOM     30  C   UNL A   1      39.192  24.276  26.784  1.00  0.00     0.039 A 
ATOM     31  C   UNL A   1      40.031  25.169  26.112  1.00  0.00     0.014 A 
ATOM     32  C   UNL A   1      38.923  24.463  28.142  1.00  0.00     0.014 A 
ATOM     33  C   UNL A   1      40.538  26.287  26.781  1.00  0.00     0.010 A 
ATOM     34  C   UNL A   1      39.368  25.616  28.787  1.00  0.00     0.010 A 
ATOM     35  C   UNL A   1      40.178  26.544  28.114  1.00  0.00    -0.014 A 
BRANCH  35  36
ATOM     36  C   UNL A   1      40.623  27.781  28.811  1.00  0.00     0.031 A 
ATOM     37  C   UNL A   1      41.990  27.854  29.441  1.00  0.00     0.074 A 
ATOM     38  C   UNL A   1      39.773  28.821  28.934  1.00  0.00     0.049 A 
ATOM     39  N   UNL A   1      42.528  28.824  30.135  1.00  0.00    -0.248 NA
ATOM     40  C   UNL A   1      42.858  26.674  29.290  1.00  0.00     0.031 C 
ATOM     41  C   UNL A   1      38.410  28.869  28.401  1.00  0.00     0.029 A 
ATOM     42  N   UNL A   1      39.928  30.038  29.551  1.00  0.00    -0.354 N 
ATOM     43  C   UNL A   1      43.785  28.368  30.516  1.00  0.00     0.074 A 
ATOM     44  C   UNL A   1      43.910  27.016  30.019  1.00  0.00     0.031 C 
ATOM     45  C   UNL A   1      37.866  30.063  28.687  1.00  0.00     0.029 A 
ATOM     46  C   UNL A   1      38.819  30.849  29.463  1.00  0.00     0.049 A 
ATOM     47  H   UNL A   1      40.755  30.307  30.012  1.00  0.00     0.167 HD
ATOM     48  C   UNL A   1      44.753  29.021  31.204  1.00  0.00     0.031 A 
ATOM     49  C   UNL A   1      38.588  32.081  29.957  1.00  0.00     0.031 A 
ATOM     50  C   UNL A   1      44.631  30.370  31.691  1.00  0.00     0.049 A 
ATOM     51  C   UNL A   1      39.671  32.775  30.738  1.00  0.00     0.074 A 
ATOM     52  C   UNL A   1      45.578  31.136  32.346  1.00  0.00     0.029 A 
ATOM     53  N   UNL A   1      43.491  31.153  31.583  1.00  0.00    -0.354 N 
ATOM     54  N   UNL A   1      40.878  32.350  31.030  1.00  0.00    -0.248 NA
ATOM     55  C   UNL A   1      39.365  34.118  31.250  1.00  0.00     0.031 C 
ATOM     56  C   UNL A   1      44.991  32.357  32.693  1.00  0.00     0.029 A 
ATOM     57  C   UNL A   1      43.701  32.380  32.189  1.00  0.00     0.049 A 
ATOM     58  H   UNL A   1      42.655  30.876  31.141  1.00  0.00     0.167 HD
ATOM     59  C   UNL A   1      41.485  33.389  31.730  1.00  0.00     0.074 A 
ATOM     60  C   UNL A   1      40.518  34.464  31.805  1.00  0.00     0.031 C 
ATOM     61  C   UNL A   1      42.732  33.446  32.259  1.00  0.00     0.031 A 
BRANCH  48  62
ATOM     62  C   UNL A   1      46.036  28.278  31.485  1.00  0.00    -0.014 A 
ATOM     63  C   UNL A   1      47.121  28.330  30.592  1.00  0.00     0.010 A 
ATOM     64  C   UNL A   1      46.173  27.556  32.685  1.00  0.00     0.010 A 
ATOM     65  C   UNL A   1      48.304  27.640  30.874  1.00  0.00     0.020 A 
ATOM     66  C   UNL A   1      47.365  26.891  32.986  1.00  0.00     0.020 A 
ATOM     67  C   UNL A   1      48.417  26.923  32.069  1.00  0.00     0.054 A 
BRANCH  67  68
ATOM     68  S   UNL A   1      49.970  26.052  32.415  1.00  0.00     0.124 S 
ATOM     69  O   UNL A   1      50.950  27.129  32.294  1.00  0.00    -0.237 OA
ATOM     70  O   UNL A   1      49.757  25.545  33.768  1.00  0.00    -0.237 OA
ATOM     71  O   UNL A   1      50.036  25.032  31.372  1.00  0.00    -0.744 OA
ENDBRANCH  67  68
ENDBRANCH  48  62
BRANCH  49  72
ATOM     72  C   UNL A   1      37.277  32.747  29.719  1.00  0.00    -0.014 A 
ATOM     73  C   UNL A   1      36.272  32.721  30.703  1.00  0.00     0.010 A 
ATOM     74  C   UNL A   1      37.024  33.412  28.505  1.00  0.00     0.010 A 
ATOM     75  C   UNL A   1      35.034  33.328  30.469  1.00  0.00     0.020 A 
ATOM     76  C   UNL A   1      35.800  34.048  28.280  1.00  0.00     0.020 A 
ATOM     77  C   UNL A   1      34.808  33.990  29.260  1.00  0.00     0.054 A 
BRANCH  77  78
ATOM     78  S   UNL A   1      33.211  34.811  28.998  1.00  0.00     0.124 S 
ATOM     79  O   UNL A   1      32.661  34.843  30.349  1.00  0.00    -0.237 OA
ATOM     80  O   UNL A   1      33.608  36.104  28.445  1.00  0.00    -0.237 OA
ATOM     81  O   UNL A   1      32.522  33.927  28.061  1.00  0.00    -0.744 OA
ENDBRANCH  77  78
ENDBRANCH  49  72
BRANCH  61  82
ATOM     82  C   UNL A   1      43.145  34.728  32.934  1.00  0.00    -0.014 A 
ATOM     83  C   UNL A   1      42.984  34.914  34.318  1.00  0.00     0.010 A 
ATOM     84  C   UNL A   1      43.757  35.742  32.174  1.00  0.00     0.010 A 
ATOM     85  C   UNL A   1      43.397  36.105  34.924  1.00  0.00     0.020 A 
ATOM     86  C   UNL A   1      44.200  36.920  32.781  1.00  0.00     0.020 A 
ATOM     87  C   UNL A   1      44.005  37.099  34.152  1.00  0.00     0.054 A 
BRANCH  87  88
ATOM     88  S   UNL A   1      44.572  38.614  34.971  1.00  0.00     0.124 S 
ATOM     89  O   UNL A   1      44.332  38.308  36.377  1.00  0.00    -0.237 OA
ATOM     90  O   UNL A   1      45.976  38.685  34.573  1.00  0.00    -0.237 OA
ATOM     91  O   UNL A   1      43.717  39.656  34.404  1.00  0.00    -0.744 OA
ENDBRANCH  87  88
ENDBRANCH  61  82
ENDBRANCH  35  36
ENDBRANCH  27  30
ENDBRANCH  25  26
ENDBRANCH  24  25
ENDBRANCH   1  24
TORSDOF 17
ENDMDL
MODEL 2
REMARK VINA RESULT:      -9.5      3.140     11.273
REMARK SMILES O=C(Cc1ccc(-c2ccn(C(F)F)c(=O)c2)cc1)NCCCCNC(=O)c1ccc(-c2c3nc(c(-c4ccc(S(=O)(=O)[O-])cc4)c4ccc([nH]4)c(-c4ccc(S(=O)(=O)[O-])cc4)c4nc(c(-c5ccc(S(=O)(=O)[O-])cc5)c5ccc2[nH]5)C=C4)C=C3)cc1
REMARK SMILES IDX 22 1 21 2 20 3 1 4 2 5 3 7 4 8 5 9 19 10 6 11 18 12 7 13
REMARK SMILES IDX 8 14 9 15 17 16 10 17 15 18 11 19 16 20 12 21 13 22 14 23
REMARK SMILES IDX 23 24 24 25 25 26 26 27 27 29 28 30 29 31 87 32 30 33 86 34
REMARK SMILES IDX 31 35 32 36 33 37 80 38 34 39 85 40 79 41 81 42 35 43 84 44
REMARK SMILES IDX 78 45 77 46 36 48 66 49 47 50 65 51 48 52 51 53 64 54 82 55
REMARK SMILES IDX 49 56 50 57 63 59 83 60 52 61 37 62 38 63 46 64 39 65 45 66
REMARK SMILES IDX 40 67 41 68 42 69 43 70 44 71 67 72 68 73 76 74 69 75 75 76
REMARK SMILES IDX 70 77 71 78 72 79 73 80 74 81 53 82 54 83 62 84 55 85 61 86
REMARK SMILES IDX 56 87 57 88 58 89 59 90 60 91
REMARK H PARENT 20 6 25 28 81 47 51 58
REMARK Flexibility Score: inf
ROOT
ATOM      1  C   UNL A   1      33.865  35.148  28.501  1.00  0.00     0.023 C 
ENDROOT
BRANCH   1   2
ATOM      2  C   UNL A   1      33.108  35.790  29.660  1.00  0.00     0.116 C 
BRANCH   2   3
ATOM      3  N   UNL A   1      33.949  36.000  30.820  1.00  0.00    -0.356 N 
ATOM      4  O   UNL A   1      32.573  34.942  32.328  1.00  0.00    -0.275 OA
ATOM      5  C   UNL A   1      33.631  35.508  32.070  1.00  0.00     0.224 C 
ATOM      6  H   UNL A   1      34.781  36.514  30.713  1.00  0.00     0.163 HD
BRANCH   5   7
ATOM      7  C   UNL A   1      34.704  35.737  33.126  1.00  0.00     0.135 C 
BRANCH   7   8
ATOM      8  C   UNL A   1      35.687  34.595  33.293  1.00  0.00    -0.039 A 
ATOM      9  C   UNL A   1      36.446  34.160  32.194  1.00  0.00     0.005 A 
ATOM     10  C   UNL A   1      35.906  33.992  34.539  1.00  0.00     0.005 A 
ATOM     11  C   UNL A   1      37.372  33.118  32.328  1.00  0.00     0.009 A 
ATOM     12  C   UNL A   1      36.816  32.943  34.670  1.00  0.00     0.009 A 
ATOM     13  C   UNL A   1      37.556  32.499  33.568  1.00  0.00    -0.018 A 
BRANCH  13  14
ATOM     14  C   UNL A   1      38.528  31.411  33.773  1.00  0.00    -0.011 A 
ATOM     15  C   UNL A   1      39.848  31.640  34.325  1.00  0.00     0.027 A 
ATOM     16  C   UNL A   1      38.212  30.190  33.309  1.00  0.00     0.080 A 
ATOM     17  C   UNL A   1      40.772  30.672  34.298  1.00  0.00     0.095 A 
ATOM     18  C   UNL A   1      39.223  29.095  33.295  1.00  0.00     0.255 A 
ATOM     19  N   UNL A   1      40.480  29.426  33.774  1.00  0.00    -0.258 N 
ATOM     20  O   UNL A   1      38.894  28.006  32.834  1.00  0.00    -0.269 OA
BRANCH  19  21
ATOM     21  C   UNL A   1      41.510  28.426  33.660  1.00  0.00     0.451 C 
ATOM     22  F   UNL A   1      41.338  27.430  34.563  1.00  0.00    -0.185 F 
ATOM     23  F   UNL A   1      41.496  27.870  32.421  1.00  0.00    -0.185 F 
ENDBRANCH  19  21
ENDBRANCH  13  14
ENDBRANCH   7   8
ENDBRANCH   5   7
ENDBRANCH   2   3
ENDBRANCH   1   2
BRANCH   1  24
ATOM     24  C   UNL A   1      33.351  33.770  28.077  1.00  0.00     0.023 C 
BRANCH  24  25
ATOM     25  C   UNL A   1      34.301  32.604  28.333  1.00  0.00     0.116 C 
BRANCH  25  26
ATOM     26  N   UNL A   1      33.733  31.317  27.963  1.00  0.00    -0.352 N 
ATOM     27  C   UNL A   1      34.347  30.094  27.835  1.00  0.00     0.251 C 
ATOM     28  H   UNL A   1      32.767  31.323  27.777  1.00  0.00     0.163 HD
ATOM     29  O   UNL A   1      33.720  29.147  27.363  1.00  0.00    -0.269 OA
BRANCH  27  30
ATOM     30  C   UNL A   1      35.763  29.916  28.231  1.00  0.00     0.039 A 
ATOM     31  C   UNL A   1      36.056  29.550  29.547  1.00  0.00     0.014 A 
ATOM     32  C   UNL A   1      36.802  30.113  27.317  1.00  0.00     0.014 A 
ATOM     33  C   UNL A   1      37.379  29.309  29.926  1.00  0.00     0.010 A 
ATOM     34  C   UNL A   1      38.112  29.800  27.675  1.00  0.00     0.010 A 
ATOM     35  C   UNL A   1      38.417  29.392  28.983  1.00  0.00    -0.014 A 
BRANCH  35  36
ATOM     36  C   UNL A   1      39.818  29.039  29.341  1.00  0.00     0.031 A 
ATOM     37  C   UNL A   1      40.705  30.041  30.034  1.00  0.00     0.074 A 
ATOM     38  C   UNL A   1      40.315  27.836  28.987  1.00  0.00     0.049 A 
ATOM     39  N   UNL A   1      41.964  29.932  30.372  1.00  0.00    -0.248 NA
ATOM     40  C   UNL A   1      40.105  31.343  30.369  1.00  0.00     0.031 C 
ATOM     41  C   UNL A   1      39.575  26.787  28.283  1.00  0.00     0.029 A 
ATOM     42  N   UNL A   1      41.564  27.294  29.167  1.00  0.00    -0.354 N 
ATOM     43  C   UNL A   1      42.312  31.151  30.944  1.00  0.00     0.074 A 
ATOM     44  C   UNL A   1      41.145  32.002  30.861  1.00  0.00     0.031 C 
ATOM     45  C   UNL A   1      40.371  25.719  28.119  1.00  0.00     0.029 A 
ATOM     46  C   UNL A   1      41.692  26.020  28.660  1.00  0.00     0.049 A 
ATOM     47  H   UNL A   1      42.298  27.770  29.616  1.00  0.00     0.167 HD
ATOM     48  C   UNL A   1      43.489  31.524  31.501  1.00  0.00     0.031 A 
ATOM     49  C   UNL A   1      42.754  25.190  28.624  1.00  0.00     0.031 A 
ATOM     50  C   UNL A   1      44.647  30.673  31.591  1.00  0.00     0.049 A 
ATOM     51  C   UNL A   1      44.057  25.637  29.229  1.00  0.00     0.074 A 
ATOM     52  C   UNL A   1      45.866  30.940  32.189  1.00  0.00     0.029 A 
ATOM     53  N   UNL A   1      44.736  29.393  31.063  1.00  0.00    -0.354 N 
ATOM     54  N   UNL A   1      44.344  26.770  29.824  1.00  0.00    -0.248 NA
ATOM     55  C   UNL A   1      45.178  24.689  29.164  1.00  0.00     0.031 C 
ATOM     56  C   UNL A   1      46.713  29.850  31.967  1.00  0.00     0.029 A 
ATOM     57  C   UNL A   1      45.998  28.873  31.294  1.00  0.00     0.049 A 
ATOM     58  H   UNL A   1      44.008  28.924  30.593  1.00  0.00     0.167 HD
ATOM     59  C   UNL A   1      45.669  26.657  30.234  1.00  0.00     0.074 A 
ATOM     60  C   UNL A   1      46.120  25.341  29.832  1.00  0.00     0.031 C 
ATOM     61  C   UNL A   1      46.439  27.561  30.889  1.00  0.00     0.031 A 
BRANCH  48  62
ATOM     62  C   UNL A   1      43.593  32.924  32.051  1.00  0.00    -0.014 A 
ATOM     63  C   UNL A   1      43.331  33.199  33.405  1.00  0.00     0.010 A 
ATOM     64  C   UNL A   1      44.007  33.974  31.209  1.00  0.00     0.010 A 
ATOM     65  C   UNL A   1      43.438  34.503  33.898  1.00  0.00     0.020 A 
ATOM     66  C   UNL A   1      44.147  35.273  31.705  1.00  0.00     0.020 A 
ATOM     67  C   UNL A   1      43.844  35.532  33.043  1.00  0.00     0.054 A 
BRANCH  67  68
ATOM     68  S   UNL A   1      43.993  37.211  33.714  1.00  0.00     0.124 S 
ATOM     69  O   UNL A   1      42.599  37.544  33.998  1.00  0.00    -0.237 OA
ATOM     70  O   UNL A   1      44.843  37.012  34.884  1.00  0.00    -0.237 OA
ATOM     71  O   UNL A   1      44.603  37.967  32.624  1.00  0.00    -0.744 OA
ENDBRANCH  67  68
ENDBRANCH  48  62
BRANCH  49  72
ATOM     72  C   UNL A   1      42.626  23.842  28.002  1.00  0.00    -0.014 A 
ATOM     73  C   UNL A   1      42.955  23.645  26.649  1.00  0.00     0.010 A 
ATOM     74  C   UNL A   1      42.174  22.746  28.760  1.00  0.00     0.010 A 
ATOM     75  C   UNL A   1      42.814  22.384  26.061  1.00  0.00     0.020 A 
ATOM     76  C   UNL A   1      42.063  21.477  28.185  1.00  0.00     0.020 A 
ATOM     77  C   UNL A   1      42.372  21.308  26.834  1.00  0.00     0.054 A 
BRANCH  77  78
ATOM     78  S   UNL A   1      42.242  19.671  26.062  1.00  0.00     0.124 S 
ATOM     79  O   UNL A   1      42.670  18.790  27.144  1.00  0.00    -0.237 OA
ATOM     80  O   UNL A   1      40.826  19.600  25.711  1.00  0.00    -0.237 OA
ATOM     81  O   UNL A   1      43.155  19.756  24.925  1.00  0.00    -0.744 OA
ENDBRANCH  77  78
ENDBRANCH  49  72
BRANCH  61  82
ATOM     82  C   UNL A   1      47.842  27.148  31.250  1.00  0.00    -0.014 A 
ATOM     83  C   UNL A   1      48.926  27.399  30.391  1.00  0.00     0.010 A 
ATOM     84  C   UNL A   1      48.086  26.548  32.500  1.00  0.00     0.010 A 
ATOM     85  C   UNL A   1      50.223  27.028  30.761  1.00  0.00     0.020 A 
ATOM     86  C   UNL A   1      49.384  26.205  32.887  1.00  0.00     0.020 A 
ATOM     87  C   UNL A   1      50.443  26.435  32.007  1.00  0.00     0.054 A 
BRANCH  87  88
ATOM     88  S   UNL A   1      52.140  26.005  32.481  1.00  0.00     0.124 S 
ATOM     89  O   UNL A   1      52.905  27.108  31.908  1.00  0.00    -0.237 OA
ATOM     90  O   UNL A   1      52.067  25.979  33.939  1.00  0.00    -0.237 OA
ATOM     91  O   UNL A   1      52.357  24.703  31.851  1.00  0.00    -0.744 OA
ENDBRANCH  87  88
ENDBRANCH  61  82
ENDBRANCH  35  36
ENDBRANCH  27  30
ENDBRANCH  25  26
ENDBRANCH  24  25
ENDBRANCH   1  24
TORSDOF 17
ENDMDL
MODEL 3
REMARK VINA RESULT:      -9.3      3.450     10.692
REMARK SMILES O=C(Cc1ccc(-c2ccn(C(F)F)c(=O)c2)cc1)NCCCCNC(=O)c1ccc(-c2c3nc(c(-c4ccc(S(=O)(=O)[O-])cc4)c4ccc([nH]4)c(-c4ccc(S(=O)(=O)[O-])cc4)c4nc(c(-c5ccc(S(=O)(=O)[O-])cc5)c5ccc2[nH]5)C=C4)C=C3)cc1
REMARK SMILES IDX 22 1 21 2 20 3 1 4 2 5 3 7 4 8 5 9 19 10 6 11 18 12 7 13
REMARK SMILES IDX 8 14 9 15 17 16 10 17 15 18 11 19 16 20 12 21 13 22 14 23
REMARK SMILES IDX 23 24 24 25 25 26 26 27 27 29 28 30 29 31 87 32 30 33 86 34
REMARK SMILES IDX 31 35 32 36 33 37 80 38 34 39 85 40 79 41 81 42 35 43 84 44
REMARK SMILES IDX 78 45 77 46 36 48 66 49 47 50 65 51 48 52 51 53 64 54 82 55
REMARK SMILES IDX 49 56 50 57 63 59 83 60 52 61 37 62 38 63 46 64 39 65 45 66
REMARK SMILES IDX 40 67 41 68 42 69 43 70 44 71 67 72 68 73 76 74 69 75 75 76
REMARK SMILES IDX 70 77 71 78 72 79 73 80 74 81 53 82 54 83 62 84 55 85 61 86
REMARK SMILES IDX 56 87 57 88 58 89 59 90 60 91
REMARK H PARENT 20 6 25 28 81 47 51 58
REMARK Flexibility Score: inf
ROOT
ATOM      1  C   UNL A   1      35.496  33.414  31.514  1.00  0.00     0.023 C 
ENDROOT
BRANCH   1   2
ATOM      2  C   UNL A   1      36.183  32.112  31.915  1.00  0.00     0.116 C 
BRANCH   2   3
ATOM      3  N   UNL A   1      37.545  32.320  32.360  1.00  0.00    -0.356 N 
ATOM      4  O   UNL A   1      37.170  31.831  34.574  1.00  0.00    -0.275 OA
ATOM      5  C   UNL A   1      37.944  32.112  33.664  1.00  0.00     0.224 C 
ATOM      6  H   UNL A   1      38.214  32.622  31.703  1.00  0.00     0.163 HD
BRANCH   5   7
ATOM      7  C   UNL A   1      39.440  32.272  33.896  1.00  0.00     0.135 C 
BRANCH   7   8
ATOM      8  C   UNL A   1      40.215  30.973  33.985  1.00  0.00    -0.039 A 
ATOM      9  C   UNL A   1      41.402  30.917  34.733  1.00  0.00     0.005 A 
ATOM     10  C   UNL A   1      39.746  29.797  33.383  1.00  0.00     0.005 A 
ATOM     11  C   UNL A   1      42.125  29.722  34.843  1.00  0.00     0.009 A 
ATOM     12  C   UNL A   1      40.474  28.611  33.478  1.00  0.00     0.009 A 
ATOM     13  C   UNL A   1      41.667  28.564  34.208  1.00  0.00    -0.018 A 
BRANCH  13  14
ATOM     14  C   UNL A   1      42.377  27.277  34.303  1.00  0.00    -0.011 A 
ATOM     15  C   UNL A   1      43.545  26.970  33.501  1.00  0.00     0.027 A 
ATOM     16  C   UNL A   1      41.836  26.316  35.071  1.00  0.00     0.080 A 
ATOM     17  C   UNL A   1      44.030  25.723  33.459  1.00  0.00     0.095 A 
ATOM     18  C   UNL A   1      42.382  24.929  35.054  1.00  0.00     0.255 A 
ATOM     19  N   UNL A   1      43.452  24.710  34.202  1.00  0.00    -0.258 N 
ATOM     20  O   UNL A   1      41.834  24.081  35.752  1.00  0.00    -0.269 OA
BRANCH  19  21
ATOM     21  C   UNL A   1      43.922  23.354  34.073  1.00  0.00     0.451 C 
ATOM     22  F   UNL A   1      44.135  23.025  32.776  1.00  0.00    -0.185 F 
ATOM     23  F   UNL A   1      45.093  23.193  34.740  1.00  0.00    -0.185 F 
ENDBRANCH  19  21
ENDBRANCH  13  14
ENDBRANCH   7   8
ENDBRANCH   5   7
ENDBRANCH   2   3
ENDBRANCH   1   2
BRANCH   1  24
ATOM     24  C   UNL A   1      34.477  33.285  30.380  1.00  0.00     0.023 C 
BRANCH  24  25
ATOM     25  C   UNL A   1      35.052  32.927  29.013  1.00  0.00     0.116 C 
BRANCH  25  26
ATOM     26  N   UNL A   1      34.264  31.929  28.308  1.00  0.00    -0.352 N 
ATOM     27  C   UNL A   1      34.632  30.687  27.848  1.00  0.00     0.251 C 
ATOM     28  H   UNL A   1      33.328  32.181  28.134  1.00  0.00     0.163 HD
ATOM     29  O   UNL A   1      33.856  30.049  27.139  1.00  0.00    -0.269 OA
BRANCH  27  30
ATOM     30  C   UNL A   1      35.963  30.127  28.176  1.00  0.00     0.039 A 
ATOM     31  C   UNL A   1      36.977  30.192  27.217  1.00  0.00     0.014 A 
ATOM     32  C   UNL A   1      36.215  29.534  29.416  1.00  0.00     0.014 A 
ATOM     33  C   UNL A   1      38.261  29.733  27.528  1.00  0.00     0.010 A 
ATOM     34  C   UNL A   1      37.511  29.145  29.750  1.00  0.00     0.010 A 
ATOM     35  C   UNL A   1      38.551  29.243  28.812  1.00  0.00    -0.014 A 
BRANCH  35  36
ATOM     36  C   UNL A   1      39.933  28.846  29.194  1.00  0.00     0.031 A 
ATOM     37  C   UNL A   1      40.844  29.823  29.892  1.00  0.00     0.074 A 
ATOM     38  C   UNL A   1      40.395  27.624  28.857  1.00  0.00     0.049 A 
ATOM     39  N   UNL A   1      42.093  29.674  30.250  1.00  0.00    -0.248 NA
ATOM     40  C   UNL A   1      40.284  31.147  30.207  1.00  0.00     0.031 C 
ATOM     41  C   UNL A   1      39.629  26.594  28.150  1.00  0.00     0.029 A 
ATOM     42  N   UNL A   1      41.621  27.041  29.060  1.00  0.00    -0.354 N 
ATOM     43  C   UNL A   1      42.474  30.885  30.817  1.00  0.00     0.074 A 
ATOM     44  C   UNL A   1      41.338  31.775  30.709  1.00  0.00     0.031 C 
ATOM     45  C   UNL A   1      40.392  25.498  28.007  1.00  0.00     0.029 A 
ATOM     46  C   UNL A   1      41.714  25.759  28.565  1.00  0.00     0.049 A 
ATOM     47  H   UNL A   1      42.365  27.496  29.516  1.00  0.00     0.167 HD
ATOM     48  C   UNL A   1      43.655  31.223  31.389  1.00  0.00     0.031 A 
ATOM     49  C   UNL A   1      42.747  24.893  28.553  1.00  0.00     0.031 A 
ATOM     50  C   UNL A   1      44.782  30.334  31.503  1.00  0.00     0.049 A 
ATOM     51  C   UNL A   1      44.056  25.301  29.173  1.00  0.00     0.074 A 
ATOM     52  C   UNL A   1      46.000  30.565  32.118  1.00  0.00     0.029 A 
ATOM     53  N   UNL A   1      44.834  29.048  30.987  1.00  0.00    -0.354 N 
ATOM     54  N   UNL A   1      44.372  26.429  29.763  1.00  0.00    -0.248 NA
ATOM     55  C   UNL A   1      45.145  24.315  29.133  1.00  0.00     0.031 C 
ATOM     56  C   UNL A   1      46.812  29.444  31.917  1.00  0.00     0.029 A 
ATOM     57  C   UNL A   1      46.074  28.486  31.241  1.00  0.00     0.049 A 
ATOM     58  H   UNL A   1      44.098  28.600  30.510  1.00  0.00     0.167 HD
ATOM     59  C   UNL A   1      45.686  26.274  30.195  1.00  0.00     0.074 A 
ATOM     60  C   UNL A   1      46.098  24.940  29.810  1.00  0.00     0.031 C 
ATOM     61  C   UNL A   1      46.477  27.157  30.853  1.00  0.00     0.031 A 
BRANCH  48  62
ATOM     62  C   UNL A   1      43.798  32.624  31.929  1.00  0.00    -0.014 A 
ATOM     63  C   UNL A   1      43.592  32.906  33.291  1.00  0.00     0.010 A 
ATOM     64  C   UNL A   1      44.193  33.665  31.068  1.00  0.00     0.010 A 
ATOM     65  C   UNL A   1      43.735  34.210  33.774  1.00  0.00     0.020 A 
ATOM     66  C   UNL A   1      44.369  34.964  31.552  1.00  0.00     0.020 A 
ATOM     67  C   UNL A   1      44.121  35.231  32.900  1.00  0.00     0.054 A 
BRANCH  67  68
ATOM     68  S   UNL A   1      44.318  36.910  33.559  1.00  0.00     0.124 S 
ATOM     69  O   UNL A   1      45.182  37.526  32.555  1.00  0.00    -0.237 OA
ATOM     70  O   UNL A   1      42.943  37.402  33.594  1.00  0.00    -0.237 OA
ATOM     71  O   UNL A   1      44.935  36.699  34.866  1.00  0.00    -0.744 OA
ENDBRANCH  67  68
ENDBRANCH  48  62
BRANCH  49  72
ATOM     72  C   UNL A   1      42.582  23.545  27.939  1.00  0.00    -0.014 A 
ATOM     73  C   UNL A   1      43.283  23.201  26.770  1.00  0.00     0.010 A 
ATOM     74  C   UNL A   1      41.723  22.596  28.522  1.00  0.00     0.010 A 
ATOM     75  C   UNL A   1      43.112  21.943  26.184  1.00  0.00     0.020 A 
ATOM     76  C   UNL A   1      41.572  21.326  27.959  1.00  0.00     0.020 A 
ATOM     77  C   UNL A   1      42.259  21.013  26.784  1.00  0.00     0.054 A 
BRANCH  77  78
ATOM     78  S   UNL A   1      42.089  19.371  26.032  1.00  0.00     0.124 S 
ATOM     79  O   UNL A   1      40.645  19.270  25.847  1.00  0.00    -0.237 OA
ATOM     80  O   UNL A   1      42.877  19.501  24.809  1.00  0.00    -0.237 OA
ATOM     81  O   UNL A   1      42.655  18.474  27.036  1.00  0.00    -0.744 OA
ENDBRANCH  77  78
ENDBRANCH  49  72
BRANCH  61  82
ATOM     82  C   UNL A   1      47.859  26.700  31.239  1.00  0.00    -0.014 A 
ATOM     83  C   UNL A   1      48.103  26.044  32.459  1.00  0.00     0.010 A 
ATOM     84  C   UNL A   1      48.924  26.882  30.337  1.00  0.00     0.010 A 
ATOM     85  C   UNL A   1      49.391  25.608  32.783  1.00  0.00     0.020 A 
ATOM     86  C   UNL A   1      50.206  26.419  30.643  1.00  0.00     0.020 A 
ATOM     87  C   UNL A   1      50.434  25.797  31.872  1.00  0.00     0.054 A 
BRANCH  87  88
ATOM     88  S   UNL A   1      52.087  25.182  32.298  1.00  0.00     0.124 S 
ATOM     89  O   UNL A   1      51.872  23.739  32.341  1.00  0.00    -0.237 OA
ATOM     90  O   UNL A   1      52.902  25.664  31.186  1.00  0.00    -0.237 OA
ATOM     91  O   UNL A   1      52.369  25.810  33.588  1.00  0.00    -0.744 OA
ENDBRANCH  87  88
ENDBRANCH  61  82
ENDBRANCH  35  36
ENDBRANCH  27  30
ENDBRANCH  25  26
ENDBRANCH  24  25
ENDBRANCH   1  24
TORSDOF 17
ENDMDL
