MODEL 1
REMARK VINA RESULT:     -12.3      0.000      0.000
REMARK SMILES O=C(Cc1cccn1-c1ccc2c(c1)OCCO2)NCCCCNC(=O)c1ccc(-c2c3nc(c(-c4ccc(S(=O)(=O)[O-])cc4)c4ccc([nH]4)c(-c4ccc(S(=O)(=O)[O-])cc4)c4nc(c(-c5ccc(S(=O)(=O)[O-])cc5)c5ccc2[nH]5)C=C4)C=C3)cc1
REMARK SMILES IDX 22 1 21 2 20 3 19 4 1 5 2 6 3 8 4 9 5 10 8 11 6 12 7 13 9 14
REMARK SMILES IDX 10 15 14 16 11 17 13 18 12 19 15 20 18 21 16 22 17 23 23 24
REMARK SMILES IDX 24 25 25 26 26 28 27 29 28 30 86 31 29 32 85 33 30 34 31 35
REMARK SMILES IDX 32 36 79 37 33 38 84 39 78 40 80 41 34 42 83 43 77 44 76 45
REMARK SMILES IDX 35 47 65 48 46 49 64 50 47 51 50 52 63 53 81 54 48 55 49 56
REMARK SMILES IDX 62 58 82 59 51 60 36 61 37 62 45 63 38 64 44 65 39 66 40 67
REMARK SMILES IDX 41 68 42 69 43 70 66 71 67 72 75 73 68 74 74 75 69 76 70 77
REMARK SMILES IDX 71 78 72 79 73 80 52 81 53 82 61 83 54 84 60 85 55 86 56 87
REMARK SMILES IDX 57 88 58 89 59 90
REMARK H PARENT 19 7 24 27 80 46 50 57
REMARK Flexibility Score: inf
ROOT
ATOM      1  C   UNL A   1      36.176  23.456  25.911  1.00  0.00     0.023 C 
ENDROOT
BRANCH   1   2
ATOM      2  C   UNL A   1      35.185  24.529  25.448  1.00  0.00     0.023 C 
BRANCH   2   3
ATOM      3  C   UNL A   1      33.708  24.197  25.655  1.00  0.00     0.116 C 
BRANCH   3   4
ATOM      4  N   UNL A   1      32.846  25.364  25.633  1.00  0.00    -0.356 N 
ATOM      5  O   UNL A   1      31.320  24.495  27.110  1.00  0.00    -0.275 OA
ATOM      6  C   UNL A   1      31.722  25.444  26.439  1.00  0.00     0.225 C 
ATOM      7  H   UNL A   1      33.065  26.113  25.033  1.00  0.00     0.163 HD
BRANCH   6   8
ATOM      8  C   UNL A   1      30.997  26.791  26.412  1.00  0.00     0.154 C 
BRANCH   8   9
ATOM      9  C   UNL A   1      31.961  27.935  26.552  1.00  0.00     0.032 A 
ATOM     10  C   UNL A   1      32.907  28.130  27.549  1.00  0.00     0.024 A 
ATOM     11  N   UNL A   1      32.132  28.954  25.620  1.00  0.00    -0.320 N 
ATOM     12  C   UNL A   1      33.734  29.206  27.166  1.00  0.00     0.020 A 
ATOM     13  C   UNL A   1      33.278  29.647  25.947  1.00  0.00     0.091 A 
BRANCH  11  14
ATOM     14  C   UNL A   1      31.323  29.259  24.502  1.00  0.00     0.049 A 
ATOM     15  C   UNL A   1      31.438  28.476  23.352  1.00  0.00     0.031 A 
ATOM     16  C   UNL A   1      30.439  30.346  24.534  1.00  0.00     0.077 A 
ATOM     17  C   UNL A   1      30.615  28.743  22.262  1.00  0.00     0.052 A 
ATOM     18  C   UNL A   1      29.611  30.594  23.438  1.00  0.00     0.163 A 
ATOM     19  C   UNL A   1      29.683  29.780  22.311  1.00  0.00     0.161 A 
ATOM     20  O   UNL A   1      28.746  31.650  23.540  1.00  0.00    -0.486 OA
ATOM     21  O   UNL A   1      28.843  29.884  21.240  1.00  0.00    -0.486 OA
ATOM     22  C   UNL A   1      27.622  31.489  22.675  1.00  0.00     0.271 C 
ATOM     23  C   UNL A   1      28.004  31.038  21.272  1.00  0.00     0.271 C 
ENDBRANCH  11  14
ENDBRANCH   8   9
ENDBRANCH   6   8
ENDBRANCH   3   4
ENDBRANCH   2   3
ENDBRANCH   1   2
BRANCH   1  24
ATOM     24  C   UNL A   1      37.559  23.516  25.240  1.00  0.00     0.116 C 
BRANCH  24  25
ATOM     25  N   UNL A   1      38.593  22.990  26.120  1.00  0.00    -0.352 N 
ATOM     26  C   UNL A   1      39.492  23.545  26.995  1.00  0.00     0.251 C 
ATOM     27  H   UNL A   1      38.663  22.009  26.078  1.00  0.00     0.163 HD
ATOM     28  O   UNL A   1      40.268  22.755  27.539  1.00  0.00    -0.269 OA
BRANCH  26  29
ATOM     29  C   UNL A   1      39.616  25.000  27.311  1.00  0.00     0.039 A 
ATOM     30  C   UNL A   1      39.172  25.402  28.584  1.00  0.00     0.014 A 
ATOM     31  C   UNL A   1      40.088  25.984  26.438  1.00  0.00     0.014 A 
ATOM     32  C   UNL A   1      39.267  26.735  29.000  1.00  0.00     0.010 A 
ATOM     33  C   UNL A   1      40.215  27.321  26.864  1.00  0.00     0.010 A 
ATOM     34  C   UNL A   1      39.830  27.700  28.157  1.00  0.00    -0.014 A 
BRANCH  34  35
ATOM     35  C   UNL A   1      40.160  29.041  28.737  1.00  0.00     0.031 A 
ATOM     36  C   UNL A   1      38.902  29.896  29.022  1.00  0.00     0.074 A 
ATOM     37  C   UNL A   1      41.475  29.391  28.892  1.00  0.00     0.049 A 
ATOM     38  N   UNL A   1      38.771  31.185  29.116  1.00  0.00    -0.248 NA
ATOM     39  C   UNL A   1      37.586  29.214  29.176  1.00  0.00     0.031 C 
ATOM     40  C   UNL A   1      42.618  28.481  28.659  1.00  0.00     0.029 A 
ATOM     41  N   UNL A   1      42.129  30.556  29.267  1.00  0.00    -0.354 N 
ATOM     42  C   UNL A   1      37.427  31.461  29.473  1.00  0.00     0.074 A 
ATOM     43  C   UNL A   1      36.733  30.210  29.432  1.00  0.00     0.031 C 
ATOM     44  C   UNL A   1      43.794  29.126  28.820  1.00  0.00     0.029 A 
ATOM     45  C   UNL A   1      43.549  30.512  29.176  1.00  0.00     0.049 A 
ATOM     46  H   UNL A   1      41.646  31.357  29.574  1.00  0.00     0.167 HD
ATOM     47  C   UNL A   1      36.983  32.694  29.864  1.00  0.00     0.031 A 
ATOM     48  C   UNL A   1      44.472  31.512  29.332  1.00  0.00     0.031 A 
ATOM     49  C   UNL A   1      38.026  33.651  29.748  1.00  0.00     0.049 A 
ATOM     50  C   UNL A   1      43.736  32.693  29.805  1.00  0.00     0.074 A 
ATOM     51  C   UNL A   1      38.600  34.302  28.691  1.00  0.00     0.029 A 
ATOM     52  N   UNL A   1      38.781  33.865  30.873  1.00  0.00    -0.354 N 
ATOM     53  N   UNL A   1      43.301  32.864  31.014  1.00  0.00    -0.248 NA
ATOM     54  C   UNL A   1      43.464  33.787  28.860  1.00  0.00     0.031 C 
ATOM     55  C   UNL A   1      39.927  34.526  29.114  1.00  0.00     0.029 A 
ATOM     56  C   UNL A   1      40.058  34.112  30.443  1.00  0.00     0.049 A 
ATOM     57  H   UNL A   1      38.467  33.844  31.806  1.00  0.00     0.167 HD
ATOM     58  C   UNL A   1      42.395  33.881  30.857  1.00  0.00     0.074 A 
ATOM     59  C   UNL A   1      42.787  34.601  29.666  1.00  0.00     0.031 C 
ATOM     60  C   UNL A   1      41.132  33.715  31.321  1.00  0.00     0.031 A 
BRANCH  47  61
ATOM     61  C   UNL A   1      35.726  33.162  30.564  1.00  0.00    -0.014 A 
ATOM     62  C   UNL A   1      34.692  33.692  29.743  1.00  0.00     0.010 A 
ATOM     63  C   UNL A   1      35.651  33.430  31.938  1.00  0.00     0.010 A 
ATOM     64  C   UNL A   1      33.724  34.570  30.237  1.00  0.00     0.020 A 
ATOM     65  C   UNL A   1      34.652  34.282  32.450  1.00  0.00     0.020 A 
ATOM     66  C   UNL A   1      33.734  34.890  31.588  1.00  0.00     0.054 A 
BRANCH  66  67
ATOM     67  S   UNL A   1      32.582  36.166  32.171  1.00  0.00     0.124 S 
ATOM     68  O   UNL A   1      32.379  36.972  30.972  1.00  0.00    -0.237 OA
ATOM     69  O   UNL A   1      31.424  35.380  32.596  1.00  0.00    -0.237 OA
ATOM     70  O   UNL A   1      33.312  36.817  33.256  1.00  0.00    -0.744 OA
ENDBRANCH  66  67
ENDBRANCH  47  61
BRANCH  48  71
ATOM     71  C   UNL A   1      45.953  31.750  29.085  1.00  0.00    -0.014 A 
ATOM     72  C   UNL A   1      46.984  31.657  30.027  1.00  0.00     0.010 A 
ATOM     73  C   UNL A   1      46.379  31.989  27.744  1.00  0.00     0.010 A 
ATOM     74  C   UNL A   1      48.345  31.643  29.625  1.00  0.00     0.020 A 
ATOM     75  C   UNL A   1      47.710  31.927  27.325  1.00  0.00     0.020 A 
ATOM     76  C   UNL A   1      48.694  31.719  28.271  1.00  0.00     0.054 A 
BRANCH  76  77
ATOM     77  S   UNL A   1      50.393  31.400  27.712  1.00  0.00     0.124 S 
ATOM     78  O   UNL A   1      50.869  30.422  28.684  1.00  0.00    -0.237 OA
ATOM     79  O   UNL A   1      50.200  30.901  26.354  1.00  0.00    -0.237 OA
ATOM     80  O   UNL A   1      51.027  32.717  27.790  1.00  0.00    -0.744 OA
ENDBRANCH  76  77
ENDBRANCH  48  71
BRANCH  60  81
ATOM     81  C   UNL A   1      40.996  32.733  32.473  1.00  0.00    -0.014 A 
ATOM     82  C   UNL A   1      40.998  33.214  33.794  1.00  0.00     0.010 A 
ATOM     83  C   UNL A   1      40.951  31.336  32.285  1.00  0.00     0.010 A 
ATOM     84  C   UNL A   1      40.951  32.338  34.888  1.00  0.00     0.020 A 
ATOM     85  C   UNL A   1      40.900  30.450  33.375  1.00  0.00     0.020 A 
ATOM     86  C   UNL A   1      40.899  30.959  34.673  1.00  0.00     0.054 A 
BRANCH  86  87
ATOM     87  S   UNL A   1      40.842  29.855  36.117  1.00  0.00     0.124 S 
ATOM     88  O   UNL A   1      41.786  30.490  37.043  1.00  0.00    -0.237 OA
ATOM     89  O   UNL A   1      39.448  29.914  36.509  1.00  0.00    -0.237 OA
ATOM     90  O   UNL A   1      41.291  28.562  35.586  1.00  0.00    -0.744 OA
ENDBRANCH  86  87
ENDBRANCH  60  81
ENDBRANCH  34  35
ENDBRANCH  26  29
ENDBRANCH  24  25
ENDBRANCH   1  24
TORSDOF 16
ENDMDL
MODEL 2
REMARK VINA RESULT:     -12.2      4.096     10.454
REMARK SMILES O=C(Cc1cccn1-c1ccc2c(c1)OCCO2)NCCCCNC(=O)c1ccc(-c2c3nc(c(-c4ccc(S(=O)(=O)[O-])cc4)c4ccc([nH]4)c(-c4ccc(S(=O)(=O)[O-])cc4)c4nc(c(-c5ccc(S(=O)(=O)[O-])cc5)c5ccc2[nH]5)C=C4)C=C3)cc1
REMARK SMILES IDX 22 1 21 2 20 3 19 4 1 5 2 6 3 8 4 9 5 10 8 11 6 12 7 13 9 14
REMARK SMILES IDX 10 15 14 16 11 17 13 18 12 19 15 20 18 21 16 22 17 23 23 24
REMARK SMILES IDX 24 25 25 26 26 28 27 29 28 30 86 31 29 32 85 33 30 34 31 35
REMARK SMILES IDX 32 36 79 37 33 38 84 39 78 40 80 41 34 42 83 43 77 44 76 45
REMARK SMILES IDX 35 47 65 48 46 49 64 50 47 51 50 52 63 53 81 54 48 55 49 56
REMARK SMILES IDX 62 58 82 59 51 60 36 61 37 62 45 63 38 64 44 65 39 66 40 67
REMARK SMILES IDX 41 68 42 69 43 70 66 71 67 72 75 73 68 74 74 75 69 76 70 77
REMARK SMILES IDX 71 78 72 79 73 80 52 81 53 82 61 83 54 84 60 85 55 86 56 87
REMARK SMILES IDX 57 88 58 89 59 90
REMARK H PARENT 19 7 24 27 80 46 50 57
REMARK Flexibility Score: inf
ROOT
ATOM      1  C   UNL A   1      33.182  29.477  25.658  1.00  0.00     0.023 C 
ENDROOT
BRANCH   1   2
ATOM      2  C   UNL A   1      32.625  28.238  24.951  1.00  0.00     0.023 C 
BRANCH   2   3
ATOM      3  C   UNL A   1      33.630  27.446  24.117  1.00  0.00     0.116 C 
BRANCH   3   4
ATOM      4  N   UNL A   1      33.244  26.062  23.911  1.00  0.00    -0.356 N 
ATOM      5  O   UNL A   1      33.749  26.061  21.673  1.00  0.00    -0.275 OA
ATOM      6  C   UNL A   1      33.403  25.446  22.680  1.00  0.00     0.225 C 
ATOM      7  H   UNL A   1      32.861  25.551  24.661  1.00  0.00     0.163 HD
BRANCH   6   8
ATOM      8  C   UNL A   1      33.087  23.950  22.656  1.00  0.00     0.154 C 
BRANCH   8   9
ATOM      9  C   UNL A   1      32.304  23.535  23.870  1.00  0.00     0.032 A 
ATOM     10  C   UNL A   1      30.986  23.845  24.176  1.00  0.00     0.024 A 
ATOM     11  N   UNL A   1      32.760  22.664  24.855  1.00  0.00    -0.320 N 
ATOM     12  C   UNL A   1      30.599  23.069  25.288  1.00  0.00     0.020 A 
ATOM     13  C   UNL A   1      31.685  22.305  25.640  1.00  0.00     0.091 A 
BRANCH  11  14
ATOM     14  C   UNL A   1      34.073  22.178  25.051  1.00  0.00     0.049 A 
ATOM     15  C   UNL A   1      34.360  20.854  24.715  1.00  0.00     0.031 A 
ATOM     16  C   UNL A   1      35.065  23.002  25.598  1.00  0.00     0.077 A 
ATOM     17  C   UNL A   1      35.659  20.380  24.866  1.00  0.00     0.052 A 
ATOM     18  C   UNL A   1      36.368  22.518  25.732  1.00  0.00     0.163 A 
ATOM     19  C   UNL A   1      36.670  21.215  25.345  1.00  0.00     0.161 A 
ATOM     20  O   UNL A   1      37.300  23.379  26.243  1.00  0.00    -0.486 OA
ATOM     21  O   UNL A   1      37.932  20.693  25.342  1.00  0.00    -0.486 OA
ATOM     22  C   UNL A   1      38.621  23.019  25.836  1.00  0.00     0.271 C 
ATOM     23  C   UNL A   1      38.905  21.529  25.968  1.00  0.00     0.271 C 
ENDBRANCH  11  14
ENDBRANCH   8   9
ENDBRANCH   6   8
ENDBRANCH   3   4
ENDBRANCH   2   3
ENDBRANCH   1   2
BRANCH   1  24
ATOM     24  C   UNL A   1      34.415  29.222  26.542  1.00  0.00     0.116 C 
BRANCH  24  25
ATOM     25  N   UNL A   1      34.798  30.424  27.270  1.00  0.00    -0.352 N 
ATOM     26  C   UNL A   1      35.839  30.763  28.096  1.00  0.00     0.251 C 
ATOM     27  H   UNL A   1      34.163  31.165  27.138  1.00  0.00     0.163 HD
ATOM     28  O   UNL A   1      35.792  31.897  28.580  1.00  0.00    -0.269 OA
BRANCH  26  29
ATOM     29  C   UNL A   1      36.983  29.876  28.465  1.00  0.00     0.039 A 
ATOM     30  C   UNL A   1      38.104  29.917  27.615  1.00  0.00     0.014 A 
ATOM     31  C   UNL A   1      37.010  28.989  29.545  1.00  0.00     0.014 A 
ATOM     32  C   UNL A   1      39.245  29.151  27.879  1.00  0.00     0.010 A 
ATOM     33  C   UNL A   1      38.168  28.240  29.832  1.00  0.00     0.010 A 
ATOM     34  C   UNL A   1      39.303  28.337  29.016  1.00  0.00    -0.014 A 
BRANCH  34  35
ATOM     35  C   UNL A   1      40.627  27.753  29.403  1.00  0.00     0.031 A 
ATOM     36  C   UNL A   1      40.975  26.475  28.603  1.00  0.00     0.074 A 
ATOM     37  C   UNL A   1      41.338  28.337  30.418  1.00  0.00     0.049 A 
ATOM     38  N   UNL A   1      41.767  25.491  28.904  1.00  0.00    -0.248 NA
ATOM     39  C   UNL A   1      40.301  26.236  27.296  1.00  0.00     0.031 C 
ATOM     40  C   UNL A   1      40.962  29.605  31.082  1.00  0.00     0.029 A 
ATOM     41  N   UNL A   1      42.499  28.007  31.101  1.00  0.00    -0.354 N 
ATOM     42  C   UNL A   1      41.802  24.606  27.797  1.00  0.00     0.074 A 
ATOM     43  C   UNL A   1      40.829  25.088  26.864  1.00  0.00     0.031 C 
ATOM     44  C   UNL A   1      41.811  29.892  32.094  1.00  0.00     0.029 A 
ATOM     45  C   UNL A   1      42.823  28.858  32.196  1.00  0.00     0.049 A 
ATOM     46  H   UNL A   1      43.060  27.239  30.847  1.00  0.00     0.167 HD
ATOM     47  C   UNL A   1      42.692  23.575  27.676  1.00  0.00     0.031 A 
ATOM     48  C   UNL A   1      43.803  28.734  33.146  1.00  0.00     0.031 A 
ATOM     49  C   UNL A   1      43.477  23.463  28.854  1.00  0.00     0.049 A 
ATOM     50  C   UNL A   1      44.638  27.594  32.743  1.00  0.00     0.074 A 
ATOM     51  C   UNL A   1      43.236  22.977  30.110  1.00  0.00     0.029 A 
ATOM     52  N   UNL A   1      44.671  24.137  28.854  1.00  0.00    -0.354 N 
ATOM     53  N   UNL A   1      45.520  27.616  31.793  1.00  0.00    -0.248 NA
ATOM     54  C   UNL A   1      44.492  26.318  33.459  1.00  0.00     0.031 C 
ATOM     55  C   UNL A   1      44.076  23.750  30.938  1.00  0.00     0.029 A 
ATOM     56  C   UNL A   1      44.870  24.577  30.137  1.00  0.00     0.049 A 
ATOM     57  H   UNL A   1      45.268  24.279  28.084  1.00  0.00     0.167 HD
ATOM     58  C   UNL A   1      45.734  26.282  31.563  1.00  0.00     0.074 A 
ATOM     59  C   UNL A   1      45.378  25.592  32.783  1.00  0.00     0.031 C 
ATOM     60  C   UNL A   1      45.612  25.803  30.300  1.00  0.00     0.031 A 
BRANCH  47  61
ATOM     61  C   UNL A   1      43.124  22.718  26.507  1.00  0.00    -0.014 A 
ATOM     62  C   UNL A   1      42.559  21.416  26.420  1.00  0.00     0.010 A 
ATOM     63  C   UNL A   1      44.264  22.972  25.731  1.00  0.00     0.010 A 
ATOM     64  C   UNL A   1      43.182  20.377  25.723  1.00  0.00     0.020 A 
ATOM     65  C   UNL A   1      44.876  21.939  24.992  1.00  0.00     0.020 A 
ATOM     66  C   UNL A   1      44.363  20.639  25.042  1.00  0.00     0.054 A 
BRANCH  66  67
ATOM     67  S   UNL A   1      45.246  19.239  24.295  1.00  0.00     0.124 S 
ATOM     68  O   UNL A   1      46.624  19.718  24.276  1.00  0.00    -0.237 OA
ATOM     69  O   UNL A   1      44.977  18.154  25.238  1.00  0.00    -0.237 OA
ATOM     70  O   UNL A   1      44.609  19.089  22.989  1.00  0.00    -0.744 OA
ENDBRANCH  66  67
ENDBRANCH  47  61
BRANCH  48  71
ATOM     71  C   UNL A   1      44.194  29.364  34.473  1.00  0.00    -0.014 A 
ATOM     72  C   UNL A   1      45.201  30.312  34.685  1.00  0.00     0.010 A 
ATOM     73  C   UNL A   1      43.401  29.057  35.620  1.00  0.00     0.010 A 
ATOM     74  C   UNL A   1      45.297  31.016  35.913  1.00  0.00     0.020 A 
ATOM     75  C   UNL A   1      43.449  29.775  36.817  1.00  0.00     0.020 A 
ATOM     76  C   UNL A   1      44.384  30.783  36.948  1.00  0.00     0.054 A 
BRANCH  76  77
ATOM     77  S   UNL A   1      44.298  31.873  38.398  1.00  0.00     0.124 S 
ATOM     78  O   UNL A   1      45.396  31.386  39.227  1.00  0.00    -0.237 OA
ATOM     79  O   UNL A   1      44.484  33.200  37.819  1.00  0.00    -0.237 OA
ATOM     80  O   UNL A   1      42.958  31.625  38.929  1.00  0.00    -0.744 OA
ENDBRANCH  76  77
ENDBRANCH  48  71
BRANCH  60  81
ATOM     81  C   UNL A   1      45.860  26.823  29.201  1.00  0.00    -0.014 A 
ATOM     82  C   UNL A   1      47.180  27.179  28.873  1.00  0.00     0.010 A 
ATOM     83  C   UNL A   1      44.815  27.504  28.541  1.00  0.00     0.010 A 
ATOM     84  C   UNL A   1      47.450  28.171  27.919  1.00  0.00     0.020 A 
ATOM     85  C   UNL A   1      45.076  28.496  27.581  1.00  0.00     0.020 A 
ATOM     86  C   UNL A   1      46.397  28.823  27.275  1.00  0.00     0.054 A 
BRANCH  86  87
ATOM     87  S   UNL A   1      46.789  30.105  26.047  1.00  0.00     0.124 S 
ATOM     88  O   UNL A   1      45.724  31.090  26.259  1.00  0.00    -0.237 OA
ATOM     89  O   UNL A   1      48.118  30.528  26.440  1.00  0.00    -0.237 OA
ATOM     90  O   UNL A   1      46.711  29.395  24.763  1.00  0.00    -0.744 OA
ENDBRANCH  86  87
ENDBRANCH  60  81
ENDBRANCH  34  35
ENDBRANCH  26  29
ENDBRANCH  24  25
ENDBRANCH   1  24
TORSDOF 16
ENDMDL
MODEL 3
REMARK VINA RESULT:     -12.1      1.908      2.720
REMARK SMILES O=C(Cc1cccn1-c1ccc2c(c1)OCCO2)NCCCCNC(=O)c1ccc(-c2c3nc(c(-c4ccc(S(=O)(=O)[O-])cc4)c4ccc([nH]4)c(-c4ccc(S(=O)(=O)[O-])cc4)c4nc(c(-c5ccc(S(=O)(=O)[O-])cc5)c5ccc2[nH]5)C=C4)C=C3)cc1
REMARK SMILES IDX 22 1 21 2 20 3 19 4 1 5 2 6 3 8 4 9 5 10 8 11 6 12 7 13 9 14
REMARK SMILES IDX 10 15 14 16 11 17 13 18 12 19 15 20 18 21 16 22 17 23 23 24
REMARK SMILES IDX 24 25 25 26 26 28 27 29 28 30 86 31 29 32 85 33 30 34 31 35
REMARK SMILES IDX 32 36 79 37 33 38 84 39 78 40 80 41 34 42 83 43 77 44 76 45
REMARK SMILES IDX 35 47 65 48 46 49 64 50 47 51 50 52 63 53 81 54 48 55 49 56
REMARK SMILES IDX 62 58 82 59 51 60 36 61 37 62 45 63 38 64 44 65 39 66 40 67
REMARK SMILES IDX 41 68 42 69 43 70 66 71 67 72 75 73 68 74 74 75 69 76 70 77
REMARK SMILES IDX 71 78 72 79 73 80 52 81 53 82 61 83 54 84 60 85 55 86 56 87
REMARK SMILES IDX 57 88 58 89 59 90
REMARK H PARENT 19 7 24 27 80 46 50 57
REMARK Flexibility Score: inf
ROOT
ATOM      1  C   UNL A   1      36.963  23.591  24.773  1.00  0.00     0.023 C 
ENDROOT
BRANCH   1   2
ATOM      2  C   UNL A   1      35.911  22.619  24.227  1.00  0.00     0.023 C 
BRANCH   2   3
ATOM      3  C   UNL A   1      35.049  23.153  23.085  1.00  0.00     0.116 C 
BRANCH   3   4
ATOM      4  N   UNL A   1      33.889  23.898  23.538  1.00  0.00    -0.356 N 
ATOM      5  O   UNL A   1      33.294  24.607  21.438  1.00  0.00    -0.275 OA
ATOM      6  C   UNL A   1      33.043  24.529  22.640  1.00  0.00     0.225 C 
ATOM      7  H   UNL A   1      33.700  23.956  24.502  1.00  0.00     0.163 HD
BRANCH   6   8
ATOM      8  C   UNL A   1      31.788  25.149  23.255  1.00  0.00     0.154 C 
BRANCH   8   9
ATOM      9  C   UNL A   1      31.457  24.519  24.579  1.00  0.00     0.032 A 
ATOM     10  C   UNL A   1      30.791  23.323  24.806  1.00  0.00     0.024 A 
ATOM     11  N   UNL A   1      31.872  24.999  25.818  1.00  0.00    -0.320 N 
ATOM     12  C   UNL A   1      30.900  23.013  26.177  1.00  0.00     0.020 A 
ATOM     13  C   UNL A   1      31.626  24.023  26.760  1.00  0.00     0.091 A 
BRANCH  11  14
ATOM     14  C   UNL A   1      32.468  26.246  26.115  1.00  0.00     0.049 A 
ATOM     15  C   UNL A   1      33.846  26.394  25.943  1.00  0.00     0.031 A 
ATOM     16  C   UNL A   1      31.697  27.309  26.603  1.00  0.00     0.077 A 
ATOM     17  C   UNL A   1      34.434  27.629  26.194  1.00  0.00     0.052 A 
ATOM     18  C   UNL A   1      32.298  28.547  26.838  1.00  0.00     0.163 A 
ATOM     19  C   UNL A   1      33.662  28.713  26.612  1.00  0.00     0.161 A 
ATOM     20  O   UNL A   1      31.488  29.556  27.283  1.00  0.00    -0.486 OA
ATOM     21  O   UNL A   1      34.312  29.910  26.716  1.00  0.00    -0.486 OA
ATOM     22  C   UNL A   1      32.031  30.839  26.968  1.00  0.00     0.271 C 
ATOM     23  C   UNL A   1      33.517  30.953  27.278  1.00  0.00     0.271 C 
ENDBRANCH  11  14
ENDBRANCH   8   9
ENDBRANCH   6   8
ENDBRANCH   3   4
ENDBRANCH   2   3
ENDBRANCH   1   2
BRANCH   1  24
ATOM     24  C   UNL A   1      37.152  23.554  26.299  1.00  0.00     0.116 C 
BRANCH  24  25
ATOM     25  N   UNL A   1      38.495  23.113  26.652  1.00  0.00    -0.352 N 
ATOM     26  C   UNL A   1      39.626  23.737  27.111  1.00  0.00     0.251 C 
ATOM     27  H   UNL A   1      38.617  22.143  26.535  1.00  0.00     0.163 HD
ATOM     28  O   UNL A   1      40.618  23.014  27.249  1.00  0.00    -0.269 OA
BRANCH  26  29
ATOM     29  C   UNL A   1      39.755  25.192  27.423  1.00  0.00     0.039 A 
ATOM     30  C   UNL A   1      39.410  25.583  28.729  1.00  0.00     0.014 A 
ATOM     31  C   UNL A   1      40.140  26.186  26.520  1.00  0.00     0.014 A 
ATOM     32  C   UNL A   1      39.519  26.916  29.143  1.00  0.00     0.010 A 
ATOM     33  C   UNL A   1      40.282  27.524  26.940  1.00  0.00     0.010 A 
ATOM     34  C   UNL A   1      39.998  27.892  28.262  1.00  0.00    -0.014 A 
BRANCH  34  35
ATOM     35  C   UNL A   1      40.355  29.236  28.820  1.00  0.00     0.031 A 
ATOM     36  C   UNL A   1      39.111  30.087  29.169  1.00  0.00     0.074 A 
ATOM     37  C   UNL A   1      41.675  29.590  28.903  1.00  0.00     0.049 A 
ATOM     38  N   UNL A   1      38.981  31.376  29.266  1.00  0.00    -0.248 NA
ATOM     39  C   UNL A   1      37.807  29.403  29.395  1.00  0.00     0.031 C 
ATOM     40  C   UNL A   1      42.806  28.682  28.613  1.00  0.00     0.029 A 
ATOM     41  N   UNL A   1      42.345  30.757  29.240  1.00  0.00    -0.354 N 
ATOM     42  C   UNL A   1      37.657  31.651  29.693  1.00  0.00     0.074 A 
ATOM     43  C   UNL A   1      36.966  30.397  29.693  1.00  0.00     0.031 C 
ATOM     44  C   UNL A   1      43.987  29.331  28.709  1.00  0.00     0.029 A 
ATOM     45  C   UNL A   1      43.758  30.717  29.073  1.00  0.00     0.049 A 
ATOM     46  H   UNL A   1      41.876  31.558  29.570  1.00  0.00     0.167 HD
ATOM     47  C   UNL A   1      37.231  32.883  30.103  1.00  0.00     0.031 A 
ATOM     48  C   UNL A   1      44.685  31.720  29.177  1.00  0.00     0.031 A 
ATOM     49  C   UNL A   1      38.264  33.843  29.930  1.00  0.00     0.049 A 
ATOM     50  C   UNL A   1      43.972  32.900  29.685  1.00  0.00     0.074 A 
ATOM     51  C   UNL A   1      38.779  34.492  28.842  1.00  0.00     0.029 A 
ATOM     52  N   UNL A   1      39.077  34.062  31.011  1.00  0.00    -0.354 N 
ATOM     53  N   UNL A   1      43.602  33.074  30.915  1.00  0.00    -0.248 NA
ATOM     54  C   UNL A   1      43.647  33.990  28.752  1.00  0.00     0.031 C 
ATOM     55  C   UNL A   1      40.126  34.721  29.192  1.00  0.00     0.029 A 
ATOM     56  C   UNL A   1      40.329  34.311  30.514  1.00  0.00     0.049 A 
ATOM     57  H   UNL A   1      38.813  34.043  31.960  1.00  0.00     0.167 HD
ATOM     58  C   UNL A   1      42.685  34.087  30.803  1.00  0.00     0.074 A 
ATOM     59  C   UNL A   1      43.011  34.805  29.591  1.00  0.00     0.031 C 
ATOM     60  C   UNL A   1      41.449  33.919  31.334  1.00  0.00     0.031 A 
BRANCH  47  61
ATOM     61  C   UNL A   1      36.012  33.350  30.868  1.00  0.00    -0.014 A 
ATOM     62  C   UNL A   1      34.835  33.601  30.110  1.00  0.00     0.010 A 
ATOM     63  C   UNL A   1      36.059  33.874  32.167  1.00  0.00     0.010 A 
ATOM     64  C   UNL A   1      33.826  34.455  30.561  1.00  0.00     0.020 A 
ATOM     65  C   UNL A   1      35.025  34.704  32.645  1.00  0.00     0.020 A 
ATOM     66  C   UNL A   1      33.947  35.034  31.817  1.00  0.00     0.054 A 
BRANCH  66  67
ATOM     67  S   UNL A   1      32.717  36.277  32.306  1.00  0.00     0.124 S 
ATOM     68  O   UNL A   1      32.617  37.102  31.107  1.00  0.00    -0.237 OA
ATOM     69  O   UNL A   1      31.540  35.461  32.601  1.00  0.00    -0.237 OA
ATOM     70  O   UNL A   1      33.324  36.920  33.469  1.00  0.00    -0.744 OA
ENDBRANCH  66  67
ENDBRANCH  47  61
BRANCH  48  71
ATOM     71  C   UNL A   1      46.150  31.961  28.851  1.00  0.00    -0.014 A 
ATOM     72  C   UNL A   1      47.156  32.339  29.748  1.00  0.00     0.010 A 
ATOM     73  C   UNL A   1      46.597  31.678  27.525  1.00  0.00     0.010 A 
ATOM     74  C   UNL A   1      48.525  32.278  29.381  1.00  0.00     0.020 A 
ATOM     75  C   UNL A   1      47.941  31.564  27.163  1.00  0.00     0.020 A 
ATOM     76  C   UNL A   1      48.909  31.834  28.110  1.00  0.00     0.054 A 
BRANCH  76  77
ATOM     77  S   UNL A   1      50.643  31.461  27.721  1.00  0.00     0.124 S 
ATOM     78  O   UNL A   1      50.630  31.370  26.265  1.00  0.00    -0.237 OA
ATOM     79  O   UNL A   1      51.355  32.608  28.277  1.00  0.00    -0.237 OA
ATOM     80  O   UNL A   1      50.884  30.200  28.423  1.00  0.00    -0.744 OA
ENDBRANCH  76  77
ENDBRANCH  48  71
BRANCH  60  81
ATOM     81  C   UNL A   1      41.377  32.941  32.495  1.00  0.00    -0.014 A 
ATOM     82  C   UNL A   1      40.774  31.686  32.304  1.00  0.00     0.010 A 
ATOM     83  C   UNL A   1      41.815  33.266  33.796  1.00  0.00     0.010 A 
ATOM     84  C   UNL A   1      40.618  30.784  33.367  1.00  0.00     0.020 A 
ATOM     85  C   UNL A   1      41.668  32.368  34.866  1.00  0.00     0.020 A 
ATOM     86  C   UNL A   1      41.069  31.128  34.643  1.00  0.00     0.054 A 
BRANCH  86  87
ATOM     87  S   UNL A   1      40.846  29.933  35.995  1.00  0.00     0.124 S 
ATOM     88  O   UNL A   1      39.425  30.082  36.325  1.00  0.00    -0.237 OA
ATOM     89  O   UNL A   1      41.214  28.676  35.375  1.00  0.00    -0.237 OA
ATOM     90  O   UNL A   1      41.764  30.410  37.038  1.00  0.00    -0.744 OA
ENDBRANCH  86  87
ENDBRANCH  60  81
ENDBRANCH  34  35
ENDBRANCH  26  29
ENDBRANCH  24  25
ENDBRANCH   1  24
TORSDOF 16
ENDMDL
