MODEL 1
REMARK VINA RESULT:     -12.1      0.000      0.000
REMARK SMILES O=C(NCCCCNC(=O)[C@H]1C[C@](O)(c2ccc(Cl)cc2)[C@@H](c2ccc(Cl)cc2)O1)c1ccc(-c2c3nc(c(-c4ccc(S(=O)(=O)[O-])cc4)c4ccc([nH]4)c(-c4ccc(S(=O)(=O)[O-])cc4)c4nc(c(-c5ccc(S(=O)(=O)[O-])cc5)c5ccc2[nH]5)C=C4)C=C3)cc1
REMARK SMILES IDX 4 1 3 2 1 3 2 4 31 6 32 7 90 8 33 9 89 10 34 11 35 12 36 13
REMARK SMILES IDX 83 14 37 15 88 16 82 17 84 18 38 19 87 20 81 21 80 22 39 24
REMARK SMILES IDX 69 25 50 26 68 27 51 28 54 29 67 30 85 31 52 32 53 33 66 35
REMARK SMILES IDX 86 36 55 37 40 38 41 39 49 40 42 41 48 42 43 43 44 44 45 45
REMARK SMILES IDX 46 46 47 47 70 48 71 49 79 50 72 51 78 52 73 53 74 54 75 55
REMARK SMILES IDX 76 56 77 57 56 58 57 59 65 60 58 61 64 62 59 63 60 64 61 65
REMARK SMILES IDX 62 66 63 67 5 68 6 69 7 70 8 71 9 72 10 74 11 75 12 76 30 77
REMARK SMILES IDX 13 78 22 79 15 80 16 81 21 82 17 83 20 84 18 85 19 86 14 87
REMARK SMILES IDX 23 89 24 90 29 91 25 92 28 93 26 94 27 95
REMARK H PARENT 3 5 84 23 54 34 8 73 14 88
REMARK Flexibility Score: inf
ROOT
ATOM      1  C   UNL A   1      42.231  23.163  27.588  1.00  0.00     0.116 C 
ENDROOT
BRANCH   1   2
ATOM      2  N   UNL A   1      42.115  23.973  26.376  1.00  0.00    -0.352 N 
ATOM      3  O   UNL A   1      41.424  25.650  25.046  1.00  0.00    -0.269 OA
ATOM      4  C   UNL A   1      41.659  25.257  26.186  1.00  0.00     0.251 C 
ATOM      5  H   UNL A   1      42.415  23.522  25.554  1.00  0.00     0.163 HD
BRANCH   4   6
ATOM      6  C   UNL A   1      41.441  26.152  27.342  1.00  0.00     0.039 A 
ATOM      7  C   UNL A   1      42.304  27.216  27.580  1.00  0.00     0.014 A 
ATOM      8  C   UNL A   1      40.349  25.948  28.193  1.00  0.00     0.014 A 
ATOM      9  C   UNL A   1      42.235  27.915  28.770  1.00  0.00     0.010 A 
ATOM     10  C   UNL A   1      40.169  26.783  29.301  1.00  0.00     0.010 A 
ATOM     11  C   UNL A   1      41.130  27.758  29.614  1.00  0.00    -0.014 A 
BRANCH  11  12
ATOM     12  C   UNL A   1      40.965  28.702  30.748  1.00  0.00     0.031 A 
ATOM     13  C   UNL A   1      41.872  28.650  31.942  1.00  0.00     0.074 A 
ATOM     14  C   UNL A   1      39.987  29.629  30.667  1.00  0.00     0.049 A 
ATOM     15  N   UNL A   1      41.820  29.360  33.039  1.00  0.00    -0.248 NA
ATOM     16  C   UNL A   1      42.968  27.669  31.913  1.00  0.00     0.031 C 
ATOM     17  C   UNL A   1      39.053  29.779  29.543  1.00  0.00     0.029 A 
ATOM     18  N   UNL A   1      39.626  30.637  31.523  1.00  0.00    -0.354 N 
ATOM     19  C   UNL A   1      42.842  28.882  33.851  1.00  0.00     0.074 A 
ATOM     20  C   UNL A   1      43.493  27.814  33.122  1.00  0.00     0.031 C 
ATOM     21  C   UNL A   1      38.282  30.853  29.744  1.00  0.00     0.029 A 
ATOM     22  C   UNL A   1      38.577  31.396  31.061  1.00  0.00     0.049 A 
ATOM     23  H   UNL A   1      40.073  30.800  32.385  1.00  0.00     0.167 HD
ATOM     24  C   UNL A   1      43.196  29.296  35.092  1.00  0.00     0.031 A 
ATOM     25  C   UNL A   1      37.886  32.393  31.644  1.00  0.00     0.031 A 
ATOM     26  C   UNL A   1      42.533  30.366  35.795  1.00  0.00     0.049 A 
ATOM     27  C   UNL A   1      38.272  32.808  33.029  1.00  0.00     0.074 A 
ATOM     28  C   UNL A   1      42.815  30.877  37.049  1.00  0.00     0.029 A 
ATOM     29  N   UNL A   1      41.450  31.086  35.305  1.00  0.00    -0.354 N 
ATOM     30  N   UNL A   1      39.234  32.336  33.786  1.00  0.00    -0.248 NA
ATOM     31  C   UNL A   1      37.481  33.878  33.644  1.00  0.00     0.031 C 
ATOM     32  C   UNL A   1      41.870  31.865  37.340  1.00  0.00     0.029 A 
ATOM     33  C   UNL A   1      41.041  32.022  36.240  1.00  0.00     0.049 A 
ATOM     34  H   UNL A   1      41.036  30.951  34.422  1.00  0.00     0.167 HD
ATOM     35  C   UNL A   1      39.179  33.068  34.963  1.00  0.00     0.074 A 
ATOM     36  C   UNL A   1      38.095  34.020  34.811  1.00  0.00     0.031 C 
ATOM     37  C   UNL A   1      39.959  32.961  36.066  1.00  0.00     0.031 A 
BRANCH  24  38
ATOM     38  C   UNL A   1      44.308  28.552  35.786  1.00  0.00    -0.014 A 
ATOM     39  C   UNL A   1      44.058  27.422  36.588  1.00  0.00     0.010 A 
ATOM     40  C   UNL A   1      45.637  28.988  35.626  1.00  0.00     0.010 A 
ATOM     41  C   UNL A   1      45.105  26.783  37.260  1.00  0.00     0.020 A 
ATOM     42  C   UNL A   1      46.690  28.333  36.271  1.00  0.00     0.020 A 
ATOM     43  C   UNL A   1      46.414  27.248  37.104  1.00  0.00     0.054 A 
BRANCH  43  44
ATOM     44  S   UNL A   1      47.752  26.411  37.999  1.00  0.00     0.124 S 
ATOM     45  O   UNL A   1      47.351  25.009  37.898  1.00  0.00    -0.237 OA
ATOM     46  O   UNL A   1      48.935  26.782  37.228  1.00  0.00    -0.237 OA
ATOM     47  O   UNL A   1      47.683  26.981  39.342  1.00  0.00    -0.744 OA
ENDBRANCH  43  44
ENDBRANCH  24  38
BRANCH  25  48
ATOM     48  C   UNL A   1      36.747  33.013  30.916  1.00  0.00    -0.014 A 
ATOM     49  C   UNL A   1      35.423  32.786  31.328  1.00  0.00     0.010 A 
ATOM     50  C   UNL A   1      36.990  33.910  29.856  1.00  0.00     0.010 A 
ATOM     51  C   UNL A   1      34.365  33.448  30.696  1.00  0.00     0.020 A 
ATOM     52  C   UNL A   1      35.939  34.597  29.246  1.00  0.00     0.020 A 
ATOM     53  C   UNL A   1      34.630  34.356  29.666  1.00  0.00     0.054 A 
BRANCH  53  54
ATOM     54  S   UNL A   1      33.249  35.267  28.924  1.00  0.00     0.124 S 
ATOM     55  O   UNL A   1      32.621  34.242  28.095  1.00  0.00    -0.237 OA
ATOM     56  O   UNL A   1      32.485  35.690  30.095  1.00  0.00    -0.237 OA
ATOM     57  O   UNL A   1      33.904  36.349  28.193  1.00  0.00    -0.744 OA
ENDBRANCH  53  54
ENDBRANCH  25  48
BRANCH  37  58
ATOM     58  C   UNL A   1      39.702  33.936  37.182  1.00  0.00    -0.014 A 
ATOM     59  C   UNL A   1      38.969  33.568  38.323  1.00  0.00     0.010 A 
ATOM     60  C   UNL A   1      40.265  35.224  37.108  1.00  0.00     0.010 A 
ATOM     61  C   UNL A   1      38.787  34.480  39.365  1.00  0.00     0.020 A 
ATOM     62  C   UNL A   1      40.111  36.126  38.161  1.00  0.00     0.020 A 
ATOM     63  C   UNL A   1      39.365  35.752  39.279  1.00  0.00     0.054 A 
BRANCH  63  64
ATOM     64  S   UNL A   1      39.173  36.893  40.675  1.00  0.00     0.124 S 
ATOM     65  O   UNL A   1      40.559  37.240  40.976  1.00  0.00    -0.237 OA
ATOM     66  O   UNL A   1      38.365  37.966  40.103  1.00  0.00    -0.237 OA
ATOM     67  O   UNL A   1      38.499  36.087  41.691  1.00  0.00    -0.744 OA
ENDBRANCH  63  64
ENDBRANCH  37  58
ENDBRANCH  11  12
ENDBRANCH   4   6
ENDBRANCH   1   2
BRANCH   1  68
ATOM     68  C   UNL A   1      40.940  22.442  27.904  1.00  0.00     0.023 C 
BRANCH  68  69
ATOM     69  C   UNL A   1      40.216  22.020  26.639  1.00  0.00     0.023 C 
BRANCH  69  70
ATOM     70  C   UNL A   1      38.856  22.671  26.427  1.00  0.00     0.116 C 
BRANCH  70  71
ATOM     71  N   UNL A   1      38.161  22.111  25.285  1.00  0.00    -0.354 N 
ATOM     72  C   UNL A   1      36.866  22.310  24.892  1.00  0.00     0.249 C 
ATOM     73  H   UNL A   1      38.691  21.506  24.718  1.00  0.00     0.163 HD
ATOM     74  O   UNL A   1      36.484  21.716  23.881  1.00  0.00    -0.272 OA
BRANCH  72  75
ATOM     75  C   UNL A   1      35.959  23.327  25.652  1.00  0.00     0.211 C 
ATOM     76  C   UNL A   1      35.364  24.383  24.713  1.00  0.00     0.085 C 
ATOM     77  O   UNL A   1      34.875  22.758  26.388  1.00  0.00    -0.357 OA
ATOM     78  C   UNL A   1      33.850  24.313  24.905  1.00  0.00     0.123 C 
ATOM     79  C   UNL A   1      33.639  22.995  25.685  1.00  0.00     0.186 C 
BRANCH  78  80
ATOM     80  C   UNL A   1      33.314  25.552  25.640  1.00  0.00    -0.013 A 
ATOM     81  C   UNL A   1      34.104  26.716  25.704  1.00  0.00     0.008 A 
ATOM     82  C   UNL A   1      32.031  25.603  26.218  1.00  0.00     0.008 A 
ATOM     83  C   UNL A   1      33.598  27.908  26.226  1.00  0.00     0.021 A 
ATOM     84  C   UNL A   1      31.518  26.800  26.728  1.00  0.00     0.021 A 
ATOM     85  C   UNL A   1      32.297  27.952  26.712  1.00  0.00     0.041 A 
ATOM     86  Cl  UNL A   1      31.645  29.436  27.286  1.00  0.00    -0.084 Cl
ENDBRANCH  78  80
BRANCH  78  87
ATOM     87  O   UNL A   1      33.215  24.286  23.620  1.00  0.00    -0.382 OA
ATOM     88  H   UNL A   1      33.504  25.053  23.102  1.00  0.00     0.212 HD
ENDBRANCH  78  87
BRANCH  79  89
ATOM     89  C   UNL A   1      33.208  21.736  24.946  1.00  0.00    -0.016 A 
ATOM     90  C   UNL A   1      32.495  21.764  23.738  1.00  0.00     0.008 A 
ATOM     91  C   UNL A   1      33.649  20.487  25.433  1.00  0.00     0.008 A 
ATOM     92  C   UNL A   1      32.254  20.584  23.025  1.00  0.00     0.021 A 
ATOM     93  C   UNL A   1      33.406  19.309  24.722  1.00  0.00     0.021 A 
ATOM     94  C   UNL A   1      32.718  19.365  23.516  1.00  0.00     0.041 A 
ATOM     95  Cl  UNL A   1      32.483  17.928  22.602  1.00  0.00    -0.084 Cl
ENDBRANCH  79  89
ENDBRANCH  72  75
ENDBRANCH  70  71
ENDBRANCH  69  70
ENDBRANCH  68  69
ENDBRANCH   1  68
TORSDOF 17
ENDMDL
MODEL 2
REMARK VINA RESULT:     -12.0      6.232     11.993
REMARK SMILES O=C(NCCCCNC(=O)[C@H]1C[C@](O)(c2ccc(Cl)cc2)[C@@H](c2ccc(Cl)cc2)O1)c1ccc(-c2c3nc(c(-c4ccc(S(=O)(=O)[O-])cc4)c4ccc([nH]4)c(-c4ccc(S(=O)(=O)[O-])cc4)c4nc(c(-c5ccc(S(=O)(=O)[O-])cc5)c5ccc2[nH]5)C=C4)C=C3)cc1
REMARK SMILES IDX 4 1 3 2 1 3 2 4 31 6 32 7 90 8 33 9 89 10 34 11 35 12 36 13
REMARK SMILES IDX 83 14 37 15 88 16 82 17 84 18 38 19 87 20 81 21 80 22 39 24
REMARK SMILES IDX 69 25 50 26 68 27 51 28 54 29 67 30 85 31 52 32 53 33 66 35
REMARK SMILES IDX 86 36 55 37 40 38 41 39 49 40 42 41 48 42 43 43 44 44 45 45
REMARK SMILES IDX 46 46 47 47 70 48 71 49 79 50 72 51 78 52 73 53 74 54 75 55
REMARK SMILES IDX 76 56 77 57 56 58 57 59 65 60 58 61 64 62 59 63 60 64 61 65
REMARK SMILES IDX 62 66 63 67 5 68 6 69 7 70 8 71 9 72 10 74 11 75 12 76 30 77
REMARK SMILES IDX 13 78 22 79 15 80 16 81 21 82 17 83 20 84 18 85 19 86 14 87
REMARK SMILES IDX 23 89 24 90 29 91 25 92 28 93 26 94 27 95
REMARK H PARENT 3 5 84 23 54 34 8 73 14 88
REMARK Flexibility Score: inf
ROOT
ATOM      1  C   UNL A   1      35.883  31.815  28.851  1.00  0.00     0.116 C 
ENDROOT
BRANCH   1   2
ATOM      2  N   UNL A   1      35.799  31.308  30.220  1.00  0.00    -0.352 N 
ATOM      3  O   UNL A   1      36.217  29.968  31.977  1.00  0.00    -0.269 OA
ATOM      4  C   UNL A   1      36.613  30.446  30.917  1.00  0.00     0.251 C 
ATOM      5  H   UNL A   1      35.026  31.642  30.732  1.00  0.00     0.163 HD
BRANCH   4   6
ATOM      6  C   UNL A   1      37.946  30.084  30.389  1.00  0.00     0.039 A 
ATOM      7  C   UNL A   1      38.927  29.588  31.240  1.00  0.00     0.014 A 
ATOM      8  C   UNL A   1      38.221  30.217  29.024  1.00  0.00     0.014 A 
ATOM      9  C   UNL A   1      40.230  29.457  30.798  1.00  0.00     0.010 A 
ATOM     10  C   UNL A   1      39.495  29.900  28.541  1.00  0.00     0.010 A 
ATOM     11  C   UNL A   1      40.520  29.544  29.431  1.00  0.00    -0.014 A 
BRANCH  11  12
ATOM     12  C   UNL A   1      41.875  29.150  28.969  1.00  0.00     0.031 A 
ATOM     13  C   UNL A   1      43.013  30.127  28.976  1.00  0.00     0.074 A 
ATOM     14  C   UNL A   1      42.063  27.877  28.561  1.00  0.00     0.049 A 
ATOM     15  N   UNL A   1      44.237  29.959  28.546  1.00  0.00    -0.248 NA
ATOM     16  C   UNL A   1      42.747  31.468  29.519  1.00  0.00     0.031 C 
ATOM     17  C   UNL A   1      41.026  26.837  28.525  1.00  0.00     0.029 A 
ATOM     18  N   UNL A   1      43.187  27.227  28.124  1.00  0.00    -0.354 N 
ATOM     19  C   UNL A   1      44.873  31.182  28.720  1.00  0.00     0.074 A 
ATOM     20  C   UNL A   1      43.897  32.087  29.287  1.00  0.00     0.031 C 
ATOM     21  C   UNL A   1      41.575  25.672  28.163  1.00  0.00     0.029 A 
ATOM     22  C   UNL A   1      42.970  25.903  27.823  1.00  0.00     0.049 A 
ATOM     23  H   UNL A   1      44.065  27.665  28.034  1.00  0.00     0.167 HD
ATOM     24  C   UNL A   1      46.154  31.514  28.426  1.00  0.00     0.031 A 
ATOM     25  C   UNL A   1      43.784  24.977  27.284  1.00  0.00     0.031 A 
ATOM     26  C   UNL A   1      47.109  30.592  27.864  1.00  0.00     0.049 A 
ATOM     27  C   UNL A   1      45.182  25.378  26.933  1.00  0.00     0.074 A 
ATOM     28  C   UNL A   1      48.435  30.817  27.539  1.00  0.00     0.029 A 
ATOM     29  N   UNL A   1      46.837  29.269  27.540  1.00  0.00    -0.354 N 
ATOM     30  N   UNL A   1      45.763  26.543  27.095  1.00  0.00    -0.248 NA
ATOM     31  C   UNL A   1      46.033  24.351  26.323  1.00  0.00     0.031 C 
ATOM     32  C   UNL A   1      48.948  29.649  26.966  1.00  0.00     0.029 A 
ATOM     33  C   UNL A   1      47.964  28.672  26.999  1.00  0.00     0.049 A 
ATOM     34  H   UNL A   1      45.971  28.821  27.676  1.00  0.00     0.167 HD
ATOM     35  C   UNL A   1      47.058  26.385  26.624  1.00  0.00     0.074 A 
ATOM     36  C   UNL A   1      47.176  25.008  26.182  1.00  0.00     0.031 C 
ATOM     37  C   UNL A   1      48.059  27.298  26.568  1.00  0.00     0.031 A 
BRANCH  24  38
ATOM     38  C   UNL A   1      46.573  32.945  28.651  1.00  0.00    -0.014 A 
ATOM     39  C   UNL A   1      46.341  33.946  27.688  1.00  0.00     0.010 A 
ATOM     40  C   UNL A   1      47.207  33.299  29.857  1.00  0.00     0.010 A 
ATOM     41  C   UNL A   1      46.788  35.254  27.903  1.00  0.00     0.020 A 
ATOM     42  C   UNL A   1      47.626  34.612  30.089  1.00  0.00     0.020 A 
ATOM     43  C   UNL A   1      47.435  35.577  29.100  1.00  0.00     0.054 A 
BRANCH  43  44
ATOM     44  S   UNL A   1      48.017  37.277  29.348  1.00  0.00     0.124 S 
ATOM     45  O   UNL A   1      47.173  38.024  28.417  1.00  0.00    -0.237 OA
ATOM     46  O   UNL A   1      47.744  37.507  30.764  1.00  0.00    -0.237 OA
ATOM     47  O   UNL A   1      49.432  37.217  28.991  1.00  0.00    -0.744 OA
ENDBRANCH  43  44
ENDBRANCH  24  38
BRANCH  25  48
ATOM     48  C   UNL A   1      43.258  23.611  27.018  1.00  0.00    -0.014 A 
ATOM     49  C   UNL A   1      42.920  23.213  25.714  1.00  0.00     0.010 A 
ATOM     50  C   UNL A   1      43.179  22.668  28.064  1.00  0.00     0.010 A 
ATOM     51  C   UNL A   1      42.515  21.898  25.461  1.00  0.00     0.020 A 
ATOM     52  C   UNL A   1      42.808  21.347  27.808  1.00  0.00     0.020 A 
ATOM     53  C   UNL A   1      42.471  20.971  26.507  1.00  0.00     0.054 A 
BRANCH  53  54
ATOM     54  S   UNL A   1      42.030  19.252  26.137  1.00  0.00     0.124 S 
ATOM     55  O   UNL A   1      42.333  18.583  27.398  1.00  0.00    -0.237 OA
ATOM     56  O   UNL A   1      40.612  19.356  25.799  1.00  0.00    -0.237 OA
ATOM     57  O   UNL A   1      42.904  18.906  25.018  1.00  0.00    -0.744 OA
ENDBRANCH  53  54
ENDBRANCH  25  48
BRANCH  37  58
ATOM     58  C   UNL A   1      49.390  26.823  26.055  1.00  0.00    -0.014 A 
ATOM     59  C   UNL A   1      49.758  26.987  24.708  1.00  0.00     0.010 A 
ATOM     60  C   UNL A   1      50.311  26.262  26.959  1.00  0.00     0.010 A 
ATOM     61  C   UNL A   1      51.020  26.579  24.271  1.00  0.00     0.020 A 
ATOM     62  C   UNL A   1      51.583  25.882  26.531  1.00  0.00     0.020 A 
ATOM     63  C   UNL A   1      51.926  26.034  25.187  1.00  0.00     0.054 A 
BRANCH  63  64
ATOM     64  S   UNL A   1      53.583  25.578  24.609  1.00  0.00     0.124 S 
ATOM     65  O   UNL A   1      53.565  24.124  24.752  1.00  0.00    -0.237 OA
ATOM     66  O   UNL A   1      53.590  26.074  23.235  1.00  0.00    -0.237 OA
ATOM     67  O   UNL A   1      54.477  26.283  25.524  1.00  0.00    -0.744 OA
ENDBRANCH  63  64
ENDBRANCH  37  58
ENDBRANCH  11  12
ENDBRANCH   4   6
ENDBRANCH   1   2
BRANCH   1  68
ATOM     68  C   UNL A   1      34.772  31.268  27.983  1.00  0.00     0.023 C 
BRANCH  68  69
ATOM     69  C   UNL A   1      35.125  29.901  27.427  1.00  0.00     0.023 C 
BRANCH  69  70
ATOM     70  C   UNL A   1      34.053  29.266  26.552  1.00  0.00     0.116 C 
BRANCH  70  71
ATOM     71  N   UNL A   1      32.825  29.036  27.287  1.00  0.00    -0.354 N 
ATOM     72  C   UNL A   1      32.005  27.940  27.257  1.00  0.00     0.249 C 
ATOM     73  H   UNL A   1      32.542  29.763  27.886  1.00  0.00     0.163 HD
ATOM     74  O   UNL A   1      30.998  27.968  27.968  1.00  0.00    -0.272 OA
BRANCH  72  75
ATOM     75  C   UNL A   1      32.401  26.681  26.425  1.00  0.00     0.211 C 
ATOM     76  C   UNL A   1      31.362  25.560  26.544  1.00  0.00     0.085 C 
ATOM     77  O   UNL A   1      32.621  26.906  25.031  1.00  0.00    -0.357 OA
ATOM     78  C   UNL A   1      30.941  25.222  25.116  1.00  0.00     0.123 C 
ATOM     79  C   UNL A   1      31.504  26.393  24.280  1.00  0.00     0.186 C 
BRANCH  78  80
ATOM     80  C   UNL A   1      31.472  23.847  24.679  1.00  0.00    -0.013 A 
ATOM     81  C   UNL A   1      31.502  22.788  25.607  1.00  0.00     0.008 A 
ATOM     82  C   UNL A   1      31.887  23.571  23.362  1.00  0.00     0.008 A 
ATOM     83  C   UNL A   1      31.830  21.490  25.215  1.00  0.00     0.021 A 
ATOM     84  C   UNL A   1      32.203  22.267  22.965  1.00  0.00     0.021 A 
ATOM     85  C   UNL A   1      32.155  21.229  23.889  1.00  0.00     0.041 A 
ATOM     86  Cl  UNL A   1      32.487  19.618  23.387  1.00  0.00    -0.084 Cl
ENDBRANCH  78  80
BRANCH  78  87
ATOM     87  O   UNL A   1      29.510  25.153  25.053  1.00  0.00    -0.382 OA
ATOM     88  H   UNL A   1      29.193  25.702  24.319  1.00  0.00     0.212 HD
ENDBRANCH  78  87
BRANCH  79  89
ATOM     89  C   UNL A   1      30.589  27.536  23.860  1.00  0.00    -0.016 A 
ATOM     90  C   UNL A   1      29.294  27.334  23.357  1.00  0.00     0.008 A 
ATOM     91  C   UNL A   1      31.014  28.860  24.098  1.00  0.00     0.008 A 
ATOM     92  C   UNL A   1      28.441  28.420  23.128  1.00  0.00     0.021 A 
ATOM     93  C   UNL A   1      30.164  29.943  23.866  1.00  0.00     0.021 A 
ATOM     94  C   UNL A   1      28.877  29.717  23.391  1.00  0.00     0.041 A 
ATOM     95  Cl  UNL A   1      27.803  31.041  23.176  1.00  0.00    -0.084 Cl
ENDBRANCH  79  89
ENDBRANCH  72  75
ENDBRANCH  70  71
ENDBRANCH  69  70
ENDBRANCH  68  69
ENDBRANCH   1  68
TORSDOF 17
ENDMDL
MODEL 3
REMARK VINA RESULT:     -12.0      0.281      8.063
REMARK SMILES O=C(NCCCCNC(=O)[C@H]1C[C@](O)(c2ccc(Cl)cc2)[C@@H](c2ccc(Cl)cc2)O1)c1ccc(-c2c3nc(c(-c4ccc(S(=O)(=O)[O-])cc4)c4ccc([nH]4)c(-c4ccc(S(=O)(=O)[O-])cc4)c4nc(c(-c5ccc(S(=O)(=O)[O-])cc5)c5ccc2[nH]5)C=C4)C=C3)cc1
REMARK SMILES IDX 4 1 3 2 1 3 2 4 31 6 32 7 90 8 33 9 89 10 34 11 35 12 36 13
REMARK SMILES IDX 83 14 37 15 88 16 82 17 84 18 38 19 87 20 81 21 80 22 39 24
REMARK SMILES IDX 69 25 50 26 68 27 51 28 54 29 67 30 85 31 52 32 53 33 66 35
REMARK SMILES IDX 86 36 55 37 40 38 41 39 49 40 42 41 48 42 43 43 44 44 45 45
REMARK SMILES IDX 46 46 47 47 70 48 71 49 79 50 72 51 78 52 73 53 74 54 75 55
REMARK SMILES IDX 76 56 77 57 56 58 57 59 65 60 58 61 64 62 59 63 60 64 61 65
REMARK SMILES IDX 62 66 63 67 5 68 6 69 7 70 8 71 9 72 10 74 11 75 12 76 30 77
REMARK SMILES IDX 13 78 22 79 15 80 16 81 21 82 17 83 20 84 18 85 19 86 14 87
REMARK SMILES IDX 23 89 24 90 29 91 25 92 28 93 26 94 27 95
REMARK H PARENT 3 5 84 23 54 34 8 73 14 88
REMARK Flexibility Score: inf
ROOT
ATOM      1  C   UNL A   1      42.313  23.360  27.514  1.00  0.00     0.116 C 
ENDROOT
BRANCH   1   2
ATOM      2  N   UNL A   1      42.137  24.200  26.329  1.00  0.00    -0.352 N 
ATOM      3  O   UNL A   1      41.334  25.874  25.060  1.00  0.00    -0.269 OA
ATOM      4  C   UNL A   1      41.605  25.460  26.184  1.00  0.00     0.251 C 
ATOM      5  H   UNL A   1      42.454  23.793  25.490  1.00  0.00     0.163 HD
BRANCH   4   6
ATOM      6  C   UNL A   1      41.346  26.304  27.371  1.00  0.00     0.039 A 
ATOM      7  C   UNL A   1      42.130  27.425  27.619  1.00  0.00     0.014 A 
ATOM      8  C   UNL A   1      40.296  25.992  28.240  1.00  0.00     0.014 A 
ATOM      9  C   UNL A   1      42.038  28.085  28.829  1.00  0.00     0.010 A 
ATOM     10  C   UNL A   1      40.080  26.781  29.375  1.00  0.00     0.010 A 
ATOM     11  C   UNL A   1      40.970  27.819  29.694  1.00  0.00    -0.014 A 
BRANCH  11  12
ATOM     12  C   UNL A   1      40.760  28.717  30.858  1.00  0.00     0.031 A 
ATOM     13  C   UNL A   1      39.668  29.745  30.859  1.00  0.00     0.074 A 
ATOM     14  C   UNL A   1      41.567  28.569  31.930  1.00  0.00     0.049 A 
ATOM     15  N   UNL A   1      39.394  30.646  31.767  1.00  0.00    -0.248 NA
ATOM     16  C   UNL A   1      38.775  29.782  29.690  1.00  0.00     0.031 C 
ATOM     17  C   UNL A   1      42.656  27.589  32.041  1.00  0.00     0.029 A 
ATOM     18  N   UNL A   1      41.589  29.214  33.138  1.00  0.00    -0.354 N 
ATOM     19  C   UNL A   1      38.333  31.387  31.262  1.00  0.00     0.074 A 
ATOM     20  C   UNL A   1      38.017  30.836  29.961  1.00  0.00     0.031 C 
ATOM     21  C   UNL A   1      43.186  27.649  33.268  1.00  0.00     0.029 A 
ATOM     22  C   UNL A   1      42.564  28.749  33.989  1.00  0.00     0.049 A 
ATOM     23  H   UNL A   1      40.967  29.941  33.375  1.00  0.00     0.167 HD
ATOM     24  C   UNL A   1      37.689  32.434  31.833  1.00  0.00     0.031 A 
ATOM     25  C   UNL A   1      42.957  29.182  35.200  1.00  0.00     0.031 A 
ATOM     26  C   UNL A   1      38.022  32.962  33.132  1.00  0.00     0.049 A 
ATOM     27  C   UNL A   1      42.256  30.363  35.794  1.00  0.00     0.074 A 
ATOM     28  C   UNL A   1      37.428  34.010  33.813  1.00  0.00     0.029 A 
ATOM     29  N   UNL A   1      39.041  32.484  33.946  1.00  0.00    -0.354 N 
ATOM     30  N   UNL A   1      41.261  31.059  35.295  1.00  0.00    -0.248 NA
ATOM     31  C   UNL A   1      42.728  30.825  37.102  1.00  0.00     0.031 C 
ATOM     32  C   UNL A   1      38.124  34.202  35.011  1.00  0.00     0.029 A 
ATOM     33  C   UNL A   1      39.107  33.229  35.112  1.00  0.00     0.049 A 
ATOM     34  H   UNL A   1      39.629  31.726  33.726  1.00  0.00     0.167 HD
ATOM     35  C   UNL A   1      40.973  32.031  36.241  1.00  0.00     0.074 A 
ATOM     36  C   UNL A   1      41.892  31.826  37.344  1.00  0.00     0.031 C 
ATOM     37  C   UNL A   1      40.030  33.004  36.199  1.00  0.00     0.031 A 
BRANCH  24  38
ATOM     38  C   UNL A   1      36.607  33.111  31.030  1.00  0.00    -0.014 A 
ATOM     39  C   UNL A   1      36.905  33.928  29.923  1.00  0.00     0.010 A 
ATOM     40  C   UNL A   1      35.259  32.918  31.386  1.00  0.00     0.010 A 
ATOM     41  C   UNL A   1      35.883  34.583  29.229  1.00  0.00     0.020 A 
ATOM     42  C   UNL A   1      34.232  33.545  30.675  1.00  0.00     0.020 A 
ATOM     43  C   UNL A   1      34.553  34.394  29.616  1.00  0.00     0.054 A 
BRANCH  43  44
ATOM     44  S   UNL A   1      33.246  35.267  28.709  1.00  0.00     0.124 S 
ATOM     45  O   UNL A   1      32.493  35.894  29.793  1.00  0.00    -0.237 OA
ATOM     46  O   UNL A   1      34.002  36.183  27.859  1.00  0.00    -0.237 OA
ATOM     47  O   UNL A   1      32.543  34.202  27.999  1.00  0.00    -0.744 OA
ENDBRANCH  43  44
ENDBRANCH  24  38
BRANCH  25  48
ATOM     48  C   UNL A   1      44.092  28.506  35.883  1.00  0.00    -0.014 A 
ATOM     49  C   UNL A   1      45.408  28.970  35.719  1.00  0.00     0.010 A 
ATOM     50  C   UNL A   1      43.848  27.443  36.776  1.00  0.00     0.010 A 
ATOM     51  C   UNL A   1      46.457  28.386  36.437  1.00  0.00     0.020 A 
ATOM     52  C   UNL A   1      44.887  26.881  37.520  1.00  0.00     0.020 A 
ATOM     53  C   UNL A   1      46.188  27.352  37.340  1.00  0.00     0.054 A 
BRANCH  53  54
ATOM     54  S   UNL A   1      47.551  26.673  38.326  1.00  0.00     0.124 S 
ATOM     55  O   UNL A   1      48.720  27.179  37.614  1.00  0.00    -0.237 OA
ATOM     56  O   UNL A   1      47.310  27.258  39.643  1.00  0.00    -0.237 OA
ATOM     57  O   UNL A   1      47.346  25.229  38.247  1.00  0.00    -0.744 OA
ENDBRANCH  53  54
ENDBRANCH  25  48
BRANCH  37  58
ATOM     58  C   UNL A   1      39.907  33.891  37.406  1.00  0.00    -0.014 A 
ATOM     59  C   UNL A   1      40.527  35.152  37.456  1.00  0.00     0.010 A 
ATOM     60  C   UNL A   1      39.100  33.476  38.481  1.00  0.00     0.010 A 
ATOM     61  C   UNL A   1      40.356  35.975  38.572  1.00  0.00     0.020 A 
ATOM     62  C   UNL A   1      38.904  34.308  39.583  1.00  0.00     0.020 A 
ATOM     63  C   UNL A   1      39.540  35.549  39.626  1.00  0.00     0.054 A 
BRANCH  63  64
ATOM     64  S   UNL A   1      39.279  36.664  41.031  1.00  0.00     0.124 S 
ATOM     65  O   UNL A   1      38.336  35.907  41.849  1.00  0.00    -0.237 OA
ATOM     66  O   UNL A   1      40.623  36.803  41.585  1.00  0.00    -0.237 OA
ATOM     67  O   UNL A   1      38.737  37.874  40.417  1.00  0.00    -0.744 OA
ENDBRANCH  63  64
ENDBRANCH  37  58
ENDBRANCH  11  12
ENDBRANCH   4   6
ENDBRANCH   1   2
BRANCH   1  68
ATOM     68  C   UNL A   1      41.096  22.504  27.778  1.00  0.00     0.023 C 
BRANCH  68  69
ATOM     69  C   UNL A   1      40.361  22.172  26.492  1.00  0.00     0.023 C 
BRANCH  69  70
ATOM     70  C   UNL A   1      38.908  22.624  26.446  1.00  0.00     0.116 C 
BRANCH  70  71
ATOM     71  N   UNL A   1      38.177  21.979  25.373  1.00  0.00    -0.354 N 
ATOM     72  C   UNL A   1      36.861  22.131  25.026  1.00  0.00     0.249 C 
ATOM     73  H   UNL A   1      38.693  21.348  24.822  1.00  0.00     0.163 HD
ATOM     74  O   UNL A   1      36.449  21.467  24.071  1.00  0.00    -0.272 OA
BRANCH  72  75
ATOM     75  C   UNL A   1      35.968  23.178  25.759  1.00  0.00     0.211 C 
ATOM     76  C   UNL A   1      35.408  24.233  24.797  1.00  0.00     0.085 C 
ATOM     77  O   UNL A   1      34.862  22.644  26.489  1.00  0.00    -0.357 OA
ATOM     78  C   UNL A   1      33.891  24.199  24.970  1.00  0.00     0.123 C 
ATOM     79  C   UNL A   1      33.641  22.898  25.767  1.00  0.00     0.186 C 
BRANCH  78  80
ATOM     80  C   UNL A   1      33.373  25.460  25.681  1.00  0.00    -0.013 A 
ATOM     81  C   UNL A   1      34.194  26.602  25.751  1.00  0.00     0.008 A 
ATOM     82  C   UNL A   1      32.078  25.553  26.227  1.00  0.00     0.008 A 
ATOM     83  C   UNL A   1      33.710  27.813  26.249  1.00  0.00     0.021 A 
ATOM     84  C   UNL A   1      31.588  26.769  26.713  1.00  0.00     0.021 A 
ATOM     85  C   UNL A   1      32.399  27.899  26.704  1.00  0.00     0.041 A 
ATOM     86  Cl  UNL A   1      31.777  29.407  27.248  1.00  0.00    -0.084 Cl
ENDBRANCH  78  80
BRANCH  78  87
ATOM     87  O   UNL A   1      33.272  24.167  23.677  1.00  0.00    -0.382 OA
ATOM     88  H   UNL A   1      33.497  24.975  23.192  1.00  0.00     0.212 HD
ENDBRANCH  78  87
BRANCH  79  89
ATOM     89  C   UNL A   1      33.192  21.637  25.041  1.00  0.00    -0.016 A 
ATOM     90  C   UNL A   1      32.525  21.661  23.806  1.00  0.00     0.008 A 
ATOM     91  C   UNL A   1      33.569  20.385  25.572  1.00  0.00     0.008 A 
ATOM     92  C   UNL A   1      32.268  20.474  23.111  1.00  0.00     0.021 A 
ATOM     93  C   UNL A   1      33.309  19.200  24.879  1.00  0.00     0.021 A 
ATOM     94  C   UNL A   1      32.668  19.252  23.646  1.00  0.00     0.041 A 
ATOM     95  Cl  UNL A   1      32.415  17.803  22.757  1.00  0.00    -0.084 Cl
ENDBRANCH  79  89
ENDBRANCH  72  75
ENDBRANCH  70  71
ENDBRANCH  69  70
ENDBRANCH  68  69
ENDBRANCH   1  68
TORSDOF 17
ENDMDL
