MODEL 1
REMARK VINA RESULT:     -11.3      0.000      0.000
REMARK SMILES O=C(Cn1cccc1C(=O)NCCCCNC(=O)c1ccc(-c2c3nc(c(-c4ccc(S(=O)(=O)[O-])cc4)c4ccc([nH]4)c(-c4ccc(S(=O)(=O)[O-])cc4)c4nc(c(-c5ccc(S(=O)(=O)[O-])cc5)c5ccc2[nH]5)C=C4)C=C3)cc1)NCC1CCCC1
REMARK SMILES IDX 13 1 12 2 11 3 9 4 10 5 8 7 4 8 5 9 6 10 7 11 3 12 2 13 1 14
REMARK SMILES IDX 79 15 80 17 81 18 82 19 85 20 83 21 84 22 14 23 15 24 16 25
REMARK SMILES IDX 17 26 18 28 19 29 20 30 78 31 21 32 77 33 22 34 23 35 24 36
REMARK SMILES IDX 71 37 25 38 76 39 70 40 72 41 26 42 75 43 69 44 68 45 27 47
REMARK SMILES IDX 57 48 38 49 56 50 39 51 42 52 55 53 73 54 40 55 41 56 54 58
REMARK SMILES IDX 74 59 43 60 28 61 29 62 37 63 30 64 36 65 31 66 32 67 33 68
REMARK SMILES IDX 34 69 35 70 58 71 59 72 67 73 60 74 66 75 61 76 62 77 63 78
REMARK SMILES IDX 64 79 65 80 44 81 45 82 53 83 46 84 52 85 47 86 48 87 49 88
REMARK SMILES IDX 50 89 51 90
REMARK H PARENT 11 6 79 16 16 27 72 46 42 57
REMARK Flexibility Score: inf
ROOT
ATOM      1  C   UNL A   1      32.078  28.819  27.203  1.00  0.00     0.023 C 
ENDROOT
BRANCH   1   2
ATOM      2  C   UNL A   1      32.379  27.336  26.979  1.00  0.00     0.116 C 
BRANCH   2   3
ATOM      3  N   UNL A   1      31.221  26.474  26.977  1.00  0.00    -0.351 N 
ATOM      4  C   UNL A   1      30.446  25.982  25.959  1.00  0.00     0.267 C 
ATOM      5  O   UNL A   1      29.477  25.308  26.314  1.00  0.00    -0.268 OA
ATOM      6  H   UNL A   1      30.934  26.187  27.874  1.00  0.00     0.163 HD
BRANCH   4   7
ATOM      7  C   UNL A   1      30.673  26.270  24.546  1.00  0.00     0.107 A 
ATOM      8  N   UNL A   1      31.199  25.520  23.503  1.00  0.00    -0.334 N 
ATOM      9  C   UNL A   1      31.253  26.302  22.359  1.00  0.00     0.087 A 
ATOM     10  C   UNL A   1      30.569  27.466  22.589  1.00  0.00     0.020 A 
ATOM     11  C   UNL A   1      30.182  27.433  23.940  1.00  0.00     0.033 A 
BRANCH   8  12
ATOM     12  C   UNL A   1      31.645  24.130  23.445  1.00  0.00     0.222 C 
BRANCH  12  13
ATOM     13  C   UNL A   1      33.084  23.815  23.097  1.00  0.00     0.239 C 
ATOM     14  O   UNL A   1      33.309  23.039  22.165  1.00  0.00    -0.273 OA
ATOM     15  N   UNL A   1      34.081  24.367  23.854  1.00  0.00    -0.354 N 
ATOM     16  H   UNL A   1      33.830  24.990  24.574  1.00  0.00     0.163 HD
BRANCH  15  17
ATOM     17  C   UNL A   1      35.495  24.079  23.648  1.00  0.00     0.119 C 
BRANCH  17  18
ATOM     18  C   UNL A   1      36.058  23.161  24.734  1.00  0.00     0.008 C 
ATOM     19  C   UNL A   1      36.503  21.803  24.202  1.00  0.00     0.005 C 
ATOM     20  C   UNL A   1      37.343  23.691  25.362  1.00  0.00     0.005 C 
ATOM     21  C   UNL A   1      37.366  21.251  25.325  1.00  0.00     0.000 C 
ATOM     22  C   UNL A   1      38.114  22.464  25.855  1.00  0.00     0.000 C 
ENDBRANCH  17  18
ENDBRANCH  15  17
ENDBRANCH  12  13
ENDBRANCH   8  12
ENDBRANCH   4   7
ENDBRANCH   2   3
ENDBRANCH   1   2
BRANCH   1  23
ATOM     23  C   UNL A   1      33.075  29.838  26.629  1.00  0.00     0.023 C 
BRANCH  23  24
ATOM     24  C   UNL A   1      34.523  29.753  27.139  1.00  0.00     0.116 C 
BRANCH  24  25
ATOM     25  N   UNL A   1      34.989  30.988  27.761  1.00  0.00    -0.352 N 
ATOM     26  C   UNL A   1      36.057  31.209  28.612  1.00  0.00     0.251 C 
ATOM     27  H   UNL A   1      34.461  31.788  27.542  1.00  0.00     0.163 HD
ATOM     28  O   UNL A   1      36.092  32.260  29.249  1.00  0.00    -0.269 OA
BRANCH  26  29
ATOM     29  C   UNL A   1      37.158  30.221  28.783  1.00  0.00     0.039 A 
ATOM     30  C   UNL A   1      38.189  30.135  27.834  1.00  0.00     0.014 A 
ATOM     31  C   UNL A   1      37.126  29.292  29.819  1.00  0.00     0.014 A 
ATOM     32  C   UNL A   1      39.251  29.229  28.011  1.00  0.00     0.010 A 
ATOM     33  C   UNL A   1      38.174  28.384  29.992  1.00  0.00     0.010 A 
ATOM     34  C   UNL A   1      39.275  28.390  29.133  1.00  0.00    -0.014 A 
BRANCH  34  35
ATOM     35  C   UNL A   1      40.510  27.657  29.552  1.00  0.00     0.031 A 
ATOM     36  C   UNL A   1      40.797  26.408  28.678  1.00  0.00     0.074 A 
ATOM     37  C   UNL A   1      41.270  28.180  30.565  1.00  0.00     0.049 A 
ATOM     38  N   UNL A   1      41.614  25.418  28.883  1.00  0.00    -0.248 NA
ATOM     39  C   UNL A   1      40.062  26.223  27.394  1.00  0.00     0.031 C 
ATOM     40  C   UNL A   1      40.972  29.450  31.263  1.00  0.00     0.029 A 
ATOM     41  N   UNL A   1      42.438  27.788  31.203  1.00  0.00    -0.354 N 
ATOM     42  C   UNL A   1      41.593  24.581  27.737  1.00  0.00     0.074 A 
ATOM     43  C   UNL A   1      40.593  25.115  26.864  1.00  0.00     0.031 C 
ATOM     44  C   UNL A   1      41.862  29.681  32.254  1.00  0.00     0.029 A 
ATOM     45  C   UNL A   1      42.830  28.601  32.303  1.00  0.00     0.049 A 
ATOM     46  H   UNL A   1      42.958  27.003  30.916  1.00  0.00     0.167 HD
ATOM     47  C   UNL A   1      42.448  23.530  27.551  1.00  0.00     0.031 A 
ATOM     48  C   UNL A   1      43.831  28.415  33.219  1.00  0.00     0.031 A 
ATOM     49  C   UNL A   1      43.248  23.350  28.709  1.00  0.00     0.049 A 
ATOM     50  C   UNL A   1      44.622  27.274  32.750  1.00  0.00     0.074 A 
ATOM     51  C   UNL A   1      42.963  22.876  29.962  1.00  0.00     0.029 A 
ATOM     52  N   UNL A   1      44.467  23.979  28.721  1.00  0.00    -0.354 N 
ATOM     53  N   UNL A   1      45.495  27.319  31.792  1.00  0.00    -0.248 NA
ATOM     54  C   UNL A   1      44.443  25.970  33.403  1.00  0.00     0.031 C 
ATOM     55  C   UNL A   1      43.776  23.667  30.792  1.00  0.00     0.029 A 
ATOM     56  C   UNL A   1      44.650  24.426  30.003  1.00  0.00     0.049 A 
ATOM     57  H   UNL A   1      45.085  24.087  27.963  1.00  0.00     0.167 HD
ATOM     58  C   UNL A   1      45.647  25.992  31.482  1.00  0.00     0.074 A 
ATOM     59  C   UNL A   1      45.287  25.248  32.669  1.00  0.00     0.031 C 
ATOM     60  C   UNL A   1      45.463  25.599  30.196  1.00  0.00     0.031 A 
BRANCH  47  61
ATOM     61  C   UNL A   1      42.813  22.674  26.363  1.00  0.00    -0.014 A 
ATOM     62  C   UNL A   1      42.357  21.326  26.380  1.00  0.00     0.010 A 
ATOM     63  C   UNL A   1      43.844  22.992  25.471  1.00  0.00     0.010 A 
ATOM     64  C   UNL A   1      42.996  20.316  25.662  1.00  0.00     0.020 A 
ATOM     65  C   UNL A   1      44.470  21.981  24.712  1.00  0.00     0.020 A 
ATOM     66  C   UNL A   1      44.079  20.645  24.858  1.00  0.00     0.054 A 
BRANCH  66  67
ATOM     67  S   UNL A   1      45.008  19.290  24.082  1.00  0.00     0.124 S 
ATOM     68  O   UNL A   1      46.390  19.640  24.404  1.00  0.00    -0.237 OA
ATOM     69  O   UNL A   1      44.488  18.112  24.772  1.00  0.00    -0.237 OA
ATOM     70  O   UNL A   1      44.646  19.389  22.672  1.00  0.00    -0.744 OA
ENDBRANCH  66  67
ENDBRANCH  47  61
BRANCH  48  71
ATOM     71  C   UNL A   1      44.272  28.970  34.561  1.00  0.00    -0.014 A 
ATOM     72  C   UNL A   1      43.453  29.241  35.661  1.00  0.00     0.010 A 
ATOM     73  C   UNL A   1      45.674  29.098  34.798  1.00  0.00     0.010 A 
ATOM     74  C   UNL A   1      44.010  29.445  36.949  1.00  0.00     0.020 A 
ATOM     75  C   UNL A   1      46.236  29.240  36.066  1.00  0.00     0.020 A 
ATOM     76  C   UNL A   1      45.394  29.376  37.152  1.00  0.00     0.054 A 
BRANCH  76  77
ATOM     77  S   UNL A   1      46.100  29.288  38.823  1.00  0.00     0.124 S 
ATOM     78  O   UNL A   1      44.918  29.090  39.656  1.00  0.00    -0.237 OA
ATOM     79  O   UNL A   1      47.008  28.147  38.732  1.00  0.00    -0.237 OA
ATOM     80  O   UNL A   1      46.764  30.582  38.978  1.00  0.00    -0.744 OA
ENDBRANCH  76  77
ENDBRANCH  48  71
BRANCH  60  81
ATOM     81  C   UNL A   1      45.758  26.667  29.151  1.00  0.00    -0.014 A 
ATOM     82  C   UNL A   1      47.054  27.215  29.094  1.00  0.00     0.010 A 
ATOM     83  C   UNL A   1      44.779  27.220  28.299  1.00  0.00     0.010 A 
ATOM     84  C   UNL A   1      47.364  28.280  28.239  1.00  0.00     0.020 A 
ATOM     85  C   UNL A   1      45.085  28.285  27.426  1.00  0.00     0.020 A 
ATOM     86  C   UNL A   1      46.379  28.812  27.408  1.00  0.00     0.054 A 
BRANCH  86  87
ATOM     87  S   UNL A   1      46.831  30.205  26.331  1.00  0.00     0.124 S 
ATOM     88  O   UNL A   1      46.063  31.314  26.892  1.00  0.00    -0.237 OA
ATOM     89  O   UNL A   1      48.278  30.292  26.515  1.00  0.00    -0.237 OA
ATOM     90  O   UNL A   1      46.404  29.779  25.000  1.00  0.00    -0.744 OA
ENDBRANCH  86  87
ENDBRANCH  60  81
ENDBRANCH  34  35
ENDBRANCH  26  29
ENDBRANCH  24  25
ENDBRANCH  23  24
ENDBRANCH   1  23
TORSDOF 18
ENDMDL
MODEL 2
REMARK VINA RESULT:     -11.3      1.534      3.646
REMARK SMILES O=C(Cn1cccc1C(=O)NCCCCNC(=O)c1ccc(-c2c3nc(c(-c4ccc(S(=O)(=O)[O-])cc4)c4ccc([nH]4)c(-c4ccc(S(=O)(=O)[O-])cc4)c4nc(c(-c5ccc(S(=O)(=O)[O-])cc5)c5ccc2[nH]5)C=C4)C=C3)cc1)NCC1CCCC1
REMARK SMILES IDX 13 1 12 2 11 3 9 4 10 5 8 7 4 8 5 9 6 10 7 11 3 12 2 13 1 14
REMARK SMILES IDX 79 15 80 17 81 18 82 19 85 20 83 21 84 22 14 23 15 24 16 25
REMARK SMILES IDX 17 26 18 28 19 29 20 30 78 31 21 32 77 33 22 34 23 35 24 36
REMARK SMILES IDX 71 37 25 38 76 39 70 40 72 41 26 42 75 43 69 44 68 45 27 47
REMARK SMILES IDX 57 48 38 49 56 50 39 51 42 52 55 53 73 54 40 55 41 56 54 58
REMARK SMILES IDX 74 59 43 60 28 61 29 62 37 63 30 64 36 65 31 66 32 67 33 68
REMARK SMILES IDX 34 69 35 70 58 71 59 72 67 73 60 74 66 75 61 76 62 77 63 78
REMARK SMILES IDX 64 79 65 80 44 81 45 82 53 83 46 84 52 85 47 86 48 87 49 88
REMARK SMILES IDX 50 89 51 90
REMARK H PARENT 11 6 79 16 16 27 72 46 42 57
REMARK Flexibility Score: inf
ROOT
ATOM      1  C   UNL A   1      32.282  28.703  27.103  1.00  0.00     0.023 C 
ENDROOT
BRANCH   1   2
ATOM      2  C   UNL A   1      32.563  27.217  26.873  1.00  0.00     0.116 C 
BRANCH   2   3
ATOM      3  N   UNL A   1      31.404  26.360  26.948  1.00  0.00    -0.351 N 
ATOM      4  C   UNL A   1      30.973  25.327  26.156  1.00  0.00     0.267 C 
ATOM      5  O   UNL A   1      29.889  24.836  26.474  1.00  0.00    -0.268 OA
ATOM      6  H   UNL A   1      30.812  26.553  27.711  1.00  0.00     0.163 HD
BRANCH   4   7
ATOM      7  C   UNL A   1      31.681  24.859  24.968  1.00  0.00     0.107 A 
ATOM      8  N   UNL A   1      32.125  25.501  23.820  1.00  0.00    -0.334 N 
ATOM      9  C   UNL A   1      32.687  24.567  22.963  1.00  0.00     0.087 A 
ATOM     10  C   UNL A   1      32.814  23.377  23.630  1.00  0.00     0.020 A 
ATOM     11  C   UNL A   1      32.215  23.567  24.887  1.00  0.00     0.033 A 
BRANCH   8  12
ATOM     12  C   UNL A   1      32.103  26.909  23.434  1.00  0.00     0.222 C 
BRANCH  12  13
ATOM     13  C   UNL A   1      30.858  27.498  22.807  1.00  0.00     0.239 C 
ATOM     14  O   UNL A   1      30.709  27.402  21.586  1.00  0.00    -0.273 OA
ATOM     15  N   UNL A   1      29.964  28.154  23.609  1.00  0.00    -0.354 N 
ATOM     16  H   UNL A   1      30.137  28.182  24.577  1.00  0.00     0.163 HD
BRANCH  15  17
ATOM     17  C   UNL A   1      28.768  28.815  23.100  1.00  0.00     0.119 C 
BRANCH  17  18
ATOM     18  C   UNL A   1      29.072  30.209  22.549  1.00  0.00     0.008 C 
ATOM     19  C   UNL A   1      28.167  30.606  21.388  1.00  0.00     0.005 C 
ATOM     20  C   UNL A   1      28.806  31.325  23.554  1.00  0.00     0.005 C 
ATOM     21  C   UNL A   1      28.366  32.109  21.285  1.00  0.00     0.000 C 
ATOM     22  C   UNL A   1      28.482  32.573  22.728  1.00  0.00     0.000 C 
ENDBRANCH  17  18
ENDBRANCH  15  17
ENDBRANCH  12  13
ENDBRANCH   8  12
ENDBRANCH   4   7
ENDBRANCH   2   3
ENDBRANCH   1   2
BRANCH   1  23
ATOM     23  C   UNL A   1      33.412  29.695  26.784  1.00  0.00     0.023 C 
BRANCH  23  24
ATOM     24  C   UNL A   1      34.710  29.550  27.597  1.00  0.00     0.116 C 
BRANCH  24  25
ATOM     25  N   UNL A   1      35.055  30.751  28.350  1.00  0.00    -0.352 N 
ATOM     26  C   UNL A   1      36.092  30.978  29.236  1.00  0.00     0.251 C 
ATOM     27  H   UNL A   1      34.457  31.518  28.206  1.00  0.00     0.163 HD
ATOM     28  O   UNL A   1      36.026  31.956  29.979  1.00  0.00    -0.269 OA
BRANCH  26  29
ATOM     29  C   UNL A   1      37.279  30.083  29.322  1.00  0.00     0.039 A 
ATOM     30  C   UNL A   1      38.349  30.235  28.426  1.00  0.00     0.014 A 
ATOM     31  C   UNL A   1      37.300  29.011  30.211  1.00  0.00     0.014 A 
ATOM     32  C   UNL A   1      39.489  29.415  28.527  1.00  0.00     0.010 A 
ATOM     33  C   UNL A   1      38.426  28.190  30.307  1.00  0.00     0.010 A 
ATOM     34  C   UNL A   1      39.554  28.425  29.517  1.00  0.00    -0.014 A 
BRANCH  34  35
ATOM     35  C   UNL A   1      40.839  27.757  29.891  1.00  0.00     0.031 A 
ATOM     36  C   UNL A   1      41.165  26.532  28.998  1.00  0.00     0.074 A 
ATOM     37  C   UNL A   1      41.600  28.312  30.885  1.00  0.00     0.049 A 
ATOM     38  N   UNL A   1      42.039  25.586  29.168  1.00  0.00    -0.248 NA
ATOM     39  C   UNL A   1      40.402  26.317  27.735  1.00  0.00     0.031 C 
ATOM     40  C   UNL A   1      41.256  29.558  31.604  1.00  0.00     0.029 A 
ATOM     41  N   UNL A   1      42.806  27.978  31.484  1.00  0.00    -0.354 N 
ATOM     42  C   UNL A   1      42.028  24.758  28.015  1.00  0.00     0.074 A 
ATOM     43  C   UNL A   1      40.974  25.244  27.179  1.00  0.00     0.031 C 
ATOM     44  C   UNL A   1      42.163  29.829  32.570  1.00  0.00     0.029 A 
ATOM     45  C   UNL A   1      43.188  28.803  32.579  1.00  0.00     0.049 A 
ATOM     46  H   UNL A   1      43.358  27.224  31.174  1.00  0.00     0.167 HD
ATOM     47  C   UNL A   1      42.932  23.756  27.794  1.00  0.00     0.031 A 
ATOM     48  C   UNL A   1      44.226  28.664  33.463  1.00  0.00     0.031 A 
ATOM     49  C   UNL A   1      43.776  23.610  28.925  1.00  0.00     0.049 A 
ATOM     50  C   UNL A   1      45.062  27.570  32.959  1.00  0.00     0.074 A 
ATOM     51  C   UNL A   1      43.556  23.112  30.181  1.00  0.00     0.029 A 
ATOM     52  N   UNL A   1      44.959  24.304  28.906  1.00  0.00    -0.354 N 
ATOM     53  N   UNL A   1      45.901  27.670  31.976  1.00  0.00    -0.248 NA
ATOM     54  C   UNL A   1      44.973  26.254  33.605  1.00  0.00     0.031 C 
ATOM     55  C   UNL A   1      44.351  23.939  30.994  1.00  0.00     0.029 A 
ATOM     56  C   UNL A   1      45.158  24.750  30.186  1.00  0.00     0.049 A 
ATOM     57  H   UNL A   1      45.547  24.451  28.131  1.00  0.00     0.167 HD
ATOM     58  C   UNL A   1      46.114  26.356  31.649  1.00  0.00     0.074 A 
ATOM     59  C   UNL A   1      45.831  25.584  32.839  1.00  0.00     0.031 C 
ATOM     60  C   UNL A   1      45.912  25.964  30.365  1.00  0.00     0.031 A 
BRANCH  47  61
ATOM     61  C   UNL A   1      43.306  22.930  26.586  1.00  0.00    -0.014 A 
ATOM     62  C   UNL A   1      42.643  21.680  26.437  1.00  0.00     0.010 A 
ATOM     63  C   UNL A   1      44.479  23.128  25.850  1.00  0.00     0.010 A 
ATOM     64  C   UNL A   1      43.201  20.625  25.714  1.00  0.00     0.020 A 
ATOM     65  C   UNL A   1      45.029  22.079  25.085  1.00  0.00     0.020 A 
ATOM     66  C   UNL A   1      44.416  20.820  25.071  1.00  0.00     0.054 A 
BRANCH  66  67
ATOM     67  S   UNL A   1      45.211  19.383  24.295  1.00  0.00     0.124 S 
ATOM     68  O   UNL A   1      46.629  19.724  24.392  1.00  0.00    -0.237 OA
ATOM     69  O   UNL A   1      44.776  18.279  25.148  1.00  0.00    -0.237 OA
ATOM     70  O   UNL A   1      44.657  19.372  22.944  1.00  0.00    -0.744 OA
ENDBRANCH  66  67
ENDBRANCH  47  61
BRANCH  48  71
ATOM     71  C   UNL A   1      44.677  29.232  34.796  1.00  0.00    -0.014 A 
ATOM     72  C   UNL A   1      45.028  30.558  35.062  1.00  0.00     0.010 A 
ATOM     73  C   UNL A   1      44.603  28.379  35.939  1.00  0.00     0.010 A 
ATOM     74  C   UNL A   1      45.117  31.034  36.395  1.00  0.00     0.020 A 
ATOM     75  C   UNL A   1      44.631  28.842  37.255  1.00  0.00     0.020 A 
ATOM     76  C   UNL A   1      44.851  30.186  37.478  1.00  0.00     0.054 A 
BRANCH  76  77
ATOM     77  S   UNL A   1      44.621  30.843  39.156  1.00  0.00     0.124 S 
ATOM     78  O   UNL A   1      44.823  29.662  39.989  1.00  0.00    -0.237 OA
ATOM     79  O   UNL A   1      45.659  31.867  39.248  1.00  0.00    -0.237 OA
ATOM     80  O   UNL A   1      43.255  31.364  39.131  1.00  0.00    -0.744 OA
ENDBRANCH  76  77
ENDBRANCH  48  71
BRANCH  60  81
ATOM     81  C   UNL A   1      46.117  27.054  29.322  1.00  0.00    -0.014 A 
ATOM     82  C   UNL A   1      45.012  27.844  28.947  1.00  0.00     0.010 A 
ATOM     83  C   UNL A   1      47.327  27.255  28.626  1.00  0.00     0.010 A 
ATOM     84  C   UNL A   1      45.100  28.784  27.913  1.00  0.00     0.020 A 
ATOM     85  C   UNL A   1      47.427  28.207  27.591  1.00  0.00     0.020 A 
ATOM     86  C   UNL A   1      46.307  28.964  27.237  1.00  0.00     0.054 A 
BRANCH  86  87
ATOM     87  S   UNL A   1      46.359  30.184  25.892  1.00  0.00     0.124 S 
ATOM     88  O   UNL A   1      46.511  29.351  24.701  1.00  0.00    -0.237 OA
ATOM     89  O   UNL A   1      45.069  30.857  26.022  1.00  0.00    -0.237 OA
ATOM     90  O   UNL A   1      47.521  31.012  26.208  1.00  0.00    -0.744 OA
ENDBRANCH  86  87
ENDBRANCH  60  81
ENDBRANCH  34  35
ENDBRANCH  26  29
ENDBRANCH  24  25
ENDBRANCH  23  24
ENDBRANCH   1  23
TORSDOF 18
ENDMDL
MODEL 3
REMARK VINA RESULT:     -11.2      7.324     14.553
REMARK SMILES O=C(Cn1cccc1C(=O)NCCCCNC(=O)c1ccc(-c2c3nc(c(-c4ccc(S(=O)(=O)[O-])cc4)c4ccc([nH]4)c(-c4ccc(S(=O)(=O)[O-])cc4)c4nc(c(-c5ccc(S(=O)(=O)[O-])cc5)c5ccc2[nH]5)C=C4)C=C3)cc1)NCC1CCCC1
REMARK SMILES IDX 13 1 12 2 11 3 9 4 10 5 8 7 4 8 5 9 6 10 7 11 3 12 2 13 1 14
REMARK SMILES IDX 79 15 80 17 81 18 82 19 85 20 83 21 84 22 14 23 15 24 16 25
REMARK SMILES IDX 17 26 18 28 19 29 20 30 78 31 21 32 77 33 22 34 23 35 24 36
REMARK SMILES IDX 71 37 25 38 76 39 70 40 72 41 26 42 75 43 69 44 68 45 27 47
REMARK SMILES IDX 57 48 38 49 56 50 39 51 42 52 55 53 73 54 40 55 41 56 54 58
REMARK SMILES IDX 74 59 43 60 28 61 29 62 37 63 30 64 36 65 31 66 32 67 33 68
REMARK SMILES IDX 34 69 35 70 58 71 59 72 67 73 60 74 66 75 61 76 62 77 63 78
REMARK SMILES IDX 64 79 65 80 44 81 45 82 53 83 46 84 52 85 47 86 48 87 49 88
REMARK SMILES IDX 50 89 51 90
REMARK H PARENT 11 6 79 16 16 27 72 46 42 57
REMARK Flexibility Score: inf
ROOT
ATOM      1  C   UNL A   1      46.447  19.426  36.397  1.00  0.00     0.023 C 
ENDROOT
BRANCH   1   2
ATOM      2  C   UNL A   1      45.786  18.825  37.639  1.00  0.00     0.116 C 
BRANCH   2   3
ATOM      3  N   UNL A   1      44.917  17.701  37.381  1.00  0.00    -0.351 N 
ATOM      4  C   UNL A   1      44.461  16.691  38.188  1.00  0.00     0.267 C 
ATOM      5  O   UNL A   1      43.766  15.842  37.626  1.00  0.00    -0.268 OA
ATOM      6  H   UNL A   1      44.591  17.651  36.453  1.00  0.00     0.163 HD
BRANCH   4   7
ATOM      7  C   UNL A   1      44.807  16.552  39.600  1.00  0.00     0.107 A 
ATOM      8  N   UNL A   1      44.050  16.307  40.737  1.00  0.00    -0.334 N 
ATOM      9  C   UNL A   1      44.875  16.338  41.851  1.00  0.00     0.087 A 
ATOM     10  C   UNL A   1      46.178  16.378  41.432  1.00  0.00     0.020 A 
ATOM     11  C   UNL A   1      46.136  16.481  40.031  1.00  0.00     0.033 A 
BRANCH   8  12
ATOM     12  C   UNL A   1      42.627  16.021  40.903  1.00  0.00     0.222 C 
BRANCH  12  13
ATOM     13  C   UNL A   1      42.130  14.595  40.809  1.00  0.00     0.239 C 
ATOM     14  O   UNL A   1      42.005  14.086  39.692  1.00  0.00    -0.273 OA
ATOM     15  N   UNL A   1      41.795  13.936  41.961  1.00  0.00    -0.354 N 
ATOM     16  H   UNL A   1      41.932  14.397  42.819  1.00  0.00     0.163 HD
BRANCH  15  17
ATOM     17  C   UNL A   1      41.244  12.587  41.980  1.00  0.00     0.119 C 
BRANCH  17  18
ATOM     18  C   UNL A   1      41.627  11.827  43.250  1.00  0.00     0.008 C 
ATOM     19  C   UNL A   1      42.566  10.655  42.988  1.00  0.00     0.005 C 
ATOM     20  C   UNL A   1      42.435  12.667  44.234  1.00  0.00     0.005 C 
ATOM     21  C   UNL A   1      43.111  10.326  44.368  1.00  0.00     0.000 C 
ATOM     22  C   UNL A   1      43.287  11.680  45.036  1.00  0.00     0.000 C 
ENDBRANCH  17  18
ENDBRANCH  15  17
ENDBRANCH  12  13
ENDBRANCH   8  12
ENDBRANCH   4   7
ENDBRANCH   2   3
ENDBRANCH   1   2
BRANCH   1  23
ATOM     23  C   UNL A   1      45.884  20.756  35.869  1.00  0.00     0.023 C 
BRANCH  23  24
ATOM     24  C   UNL A   1      46.893  21.739  35.254  1.00  0.00     0.116 C 
BRANCH  24  25
ATOM     25  N   UNL A   1      47.296  22.800  36.171  1.00  0.00    -0.352 N 
ATOM     26  C   UNL A   1      47.179  24.172  36.051  1.00  0.00     0.251 C 
ATOM     27  H   UNL A   1      47.718  22.490  37.004  1.00  0.00     0.163 HD
ATOM     28  O   UNL A   1      47.847  24.886  36.798  1.00  0.00    -0.269 OA
BRANCH  26  29
ATOM     29  C   UNL A   1      46.279  24.812  35.053  1.00  0.00     0.039 A 
ATOM     30  C   UNL A   1      46.789  25.739  34.129  1.00  0.00     0.014 A 
ATOM     31  C   UNL A   1      44.905  24.594  35.089  1.00  0.00     0.014 A 
ATOM     32  C   UNL A   1      45.949  26.318  33.160  1.00  0.00     0.010 A 
ATOM     33  C   UNL A   1      44.067  25.175  34.134  1.00  0.00     0.010 A 
ATOM     34  C   UNL A   1      44.588  25.985  33.123  1.00  0.00    -0.014 A 
BRANCH  34  35
ATOM     35  C   UNL A   1      43.725  26.295  31.941  1.00  0.00     0.031 A 
ATOM     36  C   UNL A   1      42.675  27.398  32.232  1.00  0.00     0.074 A 
ATOM     37  C   UNL A   1      43.987  25.661  30.755  1.00  0.00     0.049 A 
ATOM     38  N   UNL A   1      41.626  27.750  31.551  1.00  0.00    -0.248 NA
ATOM     39  C   UNL A   1      42.798  28.225  33.466  1.00  0.00     0.031 C 
ATOM     40  C   UNL A   1      45.095  24.703  30.547  1.00  0.00     0.029 A 
ATOM     41  N   UNL A   1      43.414  25.690  29.492  1.00  0.00    -0.354 N 
ATOM     42  C   UNL A   1      41.049  28.885  32.178  1.00  0.00     0.074 A 
ATOM     43  C   UNL A   1      41.802  29.113  33.373  1.00  0.00     0.031 C 
ATOM     44  C   UNL A   1      45.070  24.195  29.294  1.00  0.00     0.029 A 
ATOM     45  C   UNL A   1      43.959  24.766  28.557  1.00  0.00     0.049 A 
ATOM     46  H   UNL A   1      42.682  26.306  29.259  1.00  0.00     0.167 HD
ATOM     47  C   UNL A   1      40.021  29.607  31.638  1.00  0.00     0.031 A 
ATOM     48  C   UNL A   1      43.537  24.443  27.294  1.00  0.00     0.031 A 
ATOM     49  C   UNL A   1      39.563  28.981  30.450  1.00  0.00     0.049 A 
ATOM     50  C   UNL A   1      42.482  25.400  26.947  1.00  0.00     0.074 A 
ATOM     51  C   UNL A   1      38.852  27.832  30.230  1.00  0.00     0.029 A 
ATOM     52  N   UNL A   1      40.116  29.414  29.272  1.00  0.00    -0.354 N 
ATOM     53  N   UNL A   1      42.685  26.625  26.575  1.00  0.00    -0.248 NA
ATOM     54  C   UNL A   1      41.080  24.963  27.004  1.00  0.00     0.031 C 
ATOM     55  C   UNL A   1      39.411  27.337  29.038  1.00  0.00     0.029 A 
ATOM     56  C   UNL A   1      40.275  28.296  28.495  1.00  0.00     0.049 A 
ATOM     57  H   UNL A   1      40.351  30.338  29.033  1.00  0.00     0.167 HD
ATOM     58  C   UNL A   1      41.447  27.186  26.755  1.00  0.00     0.074 A 
ATOM     59  C   UNL A   1      40.488  26.107  26.666  1.00  0.00     0.031 C 
ATOM     60  C   UNL A   1      41.341  28.298  27.527  1.00  0.00     0.031 A 
BRANCH  47  61
ATOM     61  C   UNL A   1      39.416  30.957  31.942  1.00  0.00    -0.014 A 
ATOM     62  C   UNL A   1      39.034  31.197  33.292  1.00  0.00     0.010 A 
ATOM     63  C   UNL A   1      38.880  31.800  30.962  1.00  0.00     0.010 A 
ATOM     64  C   UNL A   1      38.051  32.127  33.631  1.00  0.00     0.020 A 
ATOM     65  C   UNL A   1      37.914  32.769  31.304  1.00  0.00     0.020 A 
ATOM     66  C   UNL A   1      37.466  32.884  32.625  1.00  0.00     0.054 A 
BRANCH  66  67
ATOM     67  S   UNL A   1      36.063  33.950  33.066  1.00  0.00     0.124 S 
ATOM     68  O   UNL A   1      35.344  33.128  34.037  1.00  0.00    -0.237 OA
ATOM     69  O   UNL A   1      36.722  35.132  33.617  1.00  0.00    -0.237 OA
ATOM     70  O   UNL A   1      35.380  34.163  31.793  1.00  0.00    -0.744 OA
ENDBRANCH  66  67
ENDBRANCH  47  61
BRANCH  48  71
ATOM     71  C   UNL A   1      43.776  23.371  26.247  1.00  0.00    -0.014 A 
ATOM     72  C   UNL A   1      44.732  23.400  25.228  1.00  0.00     0.010 A 
ATOM     73  C   UNL A   1      43.067  22.139  26.385  1.00  0.00     0.010 A 
ATOM     74  C   UNL A   1      45.078  22.219  24.523  1.00  0.00     0.020 A 
ATOM     75  C   UNL A   1      43.434  20.958  25.741  1.00  0.00     0.020 A 
ATOM     76  C   UNL A   1      44.473  20.995  24.832  1.00  0.00     0.054 A 
BRANCH  76  77
ATOM     77  S   UNL A   1      45.134  19.427  24.195  1.00  0.00     0.124 S 
ATOM     78  O   UNL A   1      44.565  18.447  25.114  1.00  0.00    -0.237 OA
ATOM     79  O   UNL A   1      44.616  19.389  22.829  1.00  0.00    -0.237 OA
ATOM     80  O   UNL A   1      46.582  19.607  24.291  1.00  0.00    -0.744 OA
ENDBRANCH  76  77
ENDBRANCH  48  71
BRANCH  60  81
ATOM     81  C   UNL A   1      42.588  29.170  27.568  1.00  0.00    -0.014 A 
ATOM     82  C   UNL A   1      42.772  30.134  26.558  1.00  0.00     0.010 A 
ATOM     83  C   UNL A   1      43.632  29.001  28.503  1.00  0.00     0.010 A 
ATOM     84  C   UNL A   1      43.947  30.889  26.467  1.00  0.00     0.020 A 
ATOM     85  C   UNL A   1      44.815  29.765  28.426  1.00  0.00     0.020 A 
ATOM     86  C   UNL A   1      44.966  30.703  27.401  1.00  0.00     0.054 A 
BRANCH  86  87
ATOM     87  S   UNL A   1      46.477  31.697  27.227  1.00  0.00     0.124 S 
ATOM     88  O   UNL A   1      47.139  31.514  28.517  1.00  0.00    -0.237 OA
ATOM     89  O   UNL A   1      47.144  31.066  26.090  1.00  0.00    -0.237 OA
ATOM     90  O   UNL A   1      45.987  33.050  26.980  1.00  0.00    -0.744 OA
ENDBRANCH  86  87
ENDBRANCH  60  81
ENDBRANCH  34  35
ENDBRANCH  26  29
ENDBRANCH  24  25
ENDBRANCH  23  24
ENDBRANCH   1  23
TORSDOF 18
ENDMDL
