MODEL 1
REMARK VINA RESULT:     -10.5      0.000      0.000
REMARK SMILES Cc1c(C)c2c(c(C)c1O)CC[C@@](C)(C(=O)NCCCCNC(=O)c1ccc(-c3c4nc(c(-c5ccc(S(=O)(=O)[O-])cc5)c5ccc([nH]5)c(-c5ccc(S(=O)(=O)[O-])cc5)c5nc(c(-c6ccc(S(=O)(=O)[O-])cc6)c6ccc3[nH]6)C=C5)C=C4)cc1)O2
REMARK SMILES IDX 20 1 19 2 18 3 17 4 15 5 16 6 13 8 1 9 2 10 3 11 9 12 4 13
REMARK SMILES IDX 5 14 7 15 6 16 85 17 8 18 11 19 12 20 14 21 10 22 21 24
REMARK SMILES IDX 22 25 23 26 24 28 25 29 26 30 84 31 27 32 83 33 28 34 29 35
REMARK SMILES IDX 30 36 77 37 31 38 82 39 76 40 78 41 32 42 81 43 75 44 74 45
REMARK SMILES IDX 33 47 63 48 44 49 62 50 45 51 48 52 61 53 79 54 46 55 47 56
REMARK SMILES IDX 60 58 80 59 49 60 34 61 35 62 43 63 36 64 42 65 37 66 38 67
REMARK SMILES IDX 39 68 40 69 41 70 64 71 65 72 73 73 66 74 72 75 67 76 68 77
REMARK SMILES IDX 69 78 70 79 71 80 50 81 51 82 59 83 52 84 58 85 53 86 54 87
REMARK SMILES IDX 55 88 56 89 57 90
REMARK H PARENT 17 7 10 23 22 27 78 46 48 57
REMARK Flexibility Score: inf
ROOT
ATOM      1  C   UNL A   1      34.784  34.477  27.890  1.00  0.00     0.023 C 
ENDROOT
BRANCH   1   2
ATOM      2  C   UNL A   1      33.997  35.210  28.973  1.00  0.00     0.023 C 
BRANCH   2   3
ATOM      3  C   UNL A   1      33.876  34.459  30.297  1.00  0.00     0.116 C 
BRANCH   3   4
ATOM      4  N   UNL A   1      34.191  35.298  31.441  1.00  0.00    -0.353 N 
ATOM      5  C   UNL A   1      35.133  35.172  32.429  1.00  0.00     0.263 C 
ATOM      6  O   UNL A   1      35.162  36.077  33.270  1.00  0.00    -0.270 OA
ATOM      7  H   UNL A   1      33.628  36.102  31.519  1.00  0.00     0.163 HD
BRANCH   5   8
ATOM      8  C   UNL A   1      36.117  33.966  32.472  1.00  0.00     0.184 C 
ATOM      9  C   UNL A   1      40.334  32.037  36.526  1.00  0.00     0.049 C 
ATOM     10  C   UNL A   1      39.299  31.898  35.438  1.00  0.00    -0.002 A 
ATOM     11  C   UNL A   1      38.490  33.006  35.086  1.00  0.00    -0.002 A 
ATOM     12  C   UNL A   1      39.140  30.691  34.733  1.00  0.00     0.122 A 
ATOM     13  C   UNL A   1      38.676  34.337  35.775  1.00  0.00     0.049 C 
ATOM     14  C   UNL A   1      37.510  32.854  34.087  1.00  0.00     0.127 A 
ATOM     15  C   UNL A   1      38.148  30.525  33.757  1.00  0.00    -0.002 A 
ATOM     16  C   UNL A   1      37.308  31.614  33.453  1.00  0.00     0.001 A 
ATOM     17  O   UNL A   1      36.773  33.973  33.764  1.00  0.00    -0.477 OA
ATOM     18  C   UNL A   1      37.975  29.210  33.037  1.00  0.00     0.049 C 
ATOM     19  C   UNL A   1      36.234  31.465  32.412  1.00  0.00     0.044 C 
ATOM     20  C   UNL A   1      35.316  32.665  32.386  1.00  0.00     0.063 C 
ATOM     21  C   UNL A   1      37.214  34.204  31.417  1.00  0.00     0.067 C 
BRANCH  12  22
ATOM     22  O   UNL A   1      39.966  29.622  34.971  1.00  0.00    -0.507 OA
ATOM     23  H   UNL A   1      40.598  29.663  35.661  1.00  0.00     0.293 HD
ENDBRANCH  12  22
ENDBRANCH   5   8
ENDBRANCH   3   4
ENDBRANCH   2   3
ENDBRANCH   1   2
BRANCH   1  24
ATOM     24  C   UNL A   1      35.149  33.033  28.214  1.00  0.00     0.116 C 
BRANCH  24  25
ATOM     25  N   UNL A   1      34.135  32.068  27.810  1.00  0.00    -0.352 N 
ATOM     26  C   UNL A   1      34.262  30.706  27.674  1.00  0.00     0.251 C 
ATOM     27  H   UNL A   1      33.246  32.440  27.609  1.00  0.00     0.163 HD
ATOM     28  O   UNL A   1      33.333  30.034  27.239  1.00  0.00    -0.269 OA
BRANCH  26  29
ATOM     29  C   UNL A   1      35.551  30.074  28.017  1.00  0.00     0.039 A 
ATOM     30  C   UNL A   1      36.551  30.013  27.046  1.00  0.00     0.014 A 
ATOM     31  C   UNL A   1      35.791  29.621  29.319  1.00  0.00     0.014 A 
ATOM     32  C   UNL A   1      37.827  29.575  27.404  1.00  0.00     0.010 A 
ATOM     33  C   UNL A   1      37.078  29.246  29.687  1.00  0.00     0.010 A 
ATOM     34  C   UNL A   1      38.110  29.231  28.737  1.00  0.00    -0.014 A 
BRANCH  34  35
ATOM     35  C   UNL A   1      39.486  28.872  29.158  1.00  0.00     0.031 A 
ATOM     36  C   UNL A   1      40.312  29.848  29.945  1.00  0.00     0.074 A 
ATOM     37  C   UNL A   1      40.007  27.685  28.785  1.00  0.00     0.049 A 
ATOM     38  N   UNL A   1      41.545  29.731  30.362  1.00  0.00    -0.248 NA
ATOM     39  C   UNL A   1      39.678  31.131  30.291  1.00  0.00     0.031 C 
ATOM     40  C   UNL A   1      39.317  26.667  27.988  1.00  0.00     0.029 A 
ATOM     41  N   UNL A   1      41.240  27.134  29.030  1.00  0.00    -0.354 N 
ATOM     42  C   UNL A   1      41.838  30.923  31.012  1.00  0.00     0.074 A 
ATOM     43  C   UNL A   1      40.671  31.769  30.893  1.00  0.00     0.031 C 
ATOM     44  C   UNL A   1      40.121  25.601  27.844  1.00  0.00     0.029 A 
ATOM     45  C   UNL A   1      41.394  25.872  28.506  1.00  0.00     0.049 A 
ATOM     46  H   UNL A   1      41.947  27.598  29.533  1.00  0.00     0.167 HD
ATOM     47  C   UNL A   1      42.967  31.273  31.672  1.00  0.00     0.031 A 
ATOM     48  C   UNL A   1      42.440  25.024  28.559  1.00  0.00     0.031 A 
ATOM     49  C   UNL A   1      44.122  30.427  31.804  1.00  0.00     0.049 A 
ATOM     50  C   UNL A   1      43.685  25.440  29.289  1.00  0.00     0.074 A 
ATOM     51  C   UNL A   1      45.301  30.681  32.480  1.00  0.00     0.029 A 
ATOM     52  N   UNL A   1      44.236  29.158  31.257  1.00  0.00    -0.354 N 
ATOM     53  N   UNL A   1      43.930  26.560  29.926  1.00  0.00    -0.248 NA
ATOM     54  C   UNL A   1      44.795  24.475  29.314  1.00  0.00     0.031 C 
ATOM     55  C   UNL A   1      46.144  29.577  32.316  1.00  0.00     0.029 A 
ATOM     56  C   UNL A   1      45.471  28.620  31.573  1.00  0.00     0.049 A 
ATOM     57  H   UNL A   1      43.543  28.708  30.723  1.00  0.00     0.167 HD
ATOM     58  C   UNL A   1      45.212  26.426  30.445  1.00  0.00     0.074 A 
ATOM     59  C   UNL A   1      45.688  25.114  30.057  1.00  0.00     0.031 C 
ATOM     60  C   UNL A   1      45.927  27.311  31.180  1.00  0.00     0.031 A 
BRANCH  47  61
ATOM     61  C   UNL A   1      42.998  32.632  32.315  1.00  0.00    -0.014 A 
ATOM     62  C   UNL A   1      43.478  33.747  31.605  1.00  0.00     0.010 A 
ATOM     63  C   UNL A   1      42.510  32.805  33.622  1.00  0.00     0.010 A 
ATOM     64  C   UNL A   1      43.501  35.009  32.204  1.00  0.00     0.020 A 
ATOM     65  C   UNL A   1      42.511  34.070  34.216  1.00  0.00     0.020 A 
ATOM     66  C   UNL A   1      43.019  35.162  33.508  1.00  0.00     0.054 A 
BRANCH  66  67
ATOM     67  S   UNL A   1      43.037  36.816  34.251  1.00  0.00     0.124 S 
ATOM     68  O   UNL A   1      44.053  36.667  35.291  1.00  0.00    -0.237 OA
ATOM     69  O   UNL A   1      43.411  37.669  33.127  1.00  0.00    -0.237 OA
ATOM     70  O   UNL A   1      41.670  36.993  34.736  1.00  0.00    -0.744 OA
ENDBRANCH  66  67
ENDBRANCH  47  61
BRANCH  48  71
ATOM     71  C   UNL A   1      42.337  23.680  27.931  1.00  0.00    -0.014 A 
ATOM     72  C   UNL A   1      42.882  23.456  26.654  1.00  0.00     0.010 A 
ATOM     73  C   UNL A   1      41.719  22.615  28.611  1.00  0.00     0.010 A 
ATOM     74  C   UNL A   1      42.802  22.192  26.063  1.00  0.00     0.020 A 
ATOM     75  C   UNL A   1      41.656  21.345  28.030  1.00  0.00     0.020 A 
ATOM     76  C   UNL A   1      42.191  21.144  26.755  1.00  0.00     0.054 A 
BRANCH  76  77
ATOM     77  S   UNL A   1      42.151  19.497  25.992  1.00  0.00     0.124 S 
ATOM     78  O   UNL A   1      43.064  19.664  24.866  1.00  0.00    -0.237 OA
ATOM     79  O   UNL A   1      42.630  18.638  27.072  1.00  0.00    -0.237 OA
ATOM     80  O   UNL A   1      40.745  19.319  25.640  1.00  0.00    -0.744 OA
ENDBRANCH  76  77
ENDBRANCH  48  71
BRANCH  60  81
ATOM     81  C   UNL A   1      47.296  26.890  31.636  1.00  0.00    -0.014 A 
ATOM     82  C   UNL A   1      47.465  26.146  32.816  1.00  0.00     0.010 A 
ATOM     83  C   UNL A   1      48.413  27.170  30.829  1.00  0.00     0.010 A 
ATOM     84  C   UNL A   1      48.736  25.697  33.187  1.00  0.00     0.020 A 
ATOM     85  C   UNL A   1      49.681  26.708  31.188  1.00  0.00     0.020 A 
ATOM     86  C   UNL A   1      49.834  25.979  32.370  1.00  0.00     0.054 A 
BRANCH  86  87
ATOM     87  S   UNL A   1      51.461  25.325  32.838  1.00  0.00     0.124 S 
ATOM     88  O   UNL A   1      51.791  26.138  34.004  1.00  0.00    -0.237 OA
ATOM     89  O   UNL A   1      51.175  23.919  33.112  1.00  0.00    -0.237 OA
ATOM     90  O   UNL A   1      52.285  25.566  31.655  1.00  0.00    -0.744 OA
ENDBRANCH  86  87
ENDBRANCH  60  81
ENDBRANCH  34  35
ENDBRANCH  26  29
ENDBRANCH  24  25
ENDBRANCH   1  24
TORSDOF 15
ENDMDL
MODEL 2
REMARK VINA RESULT:     -10.5      4.106     11.236
REMARK SMILES Cc1c(C)c2c(c(C)c1O)CC[C@@](C)(C(=O)NCCCCNC(=O)c1ccc(-c3c4nc(c(-c5ccc(S(=O)(=O)[O-])cc5)c5ccc([nH]5)c(-c5ccc(S(=O)(=O)[O-])cc5)c5nc(c(-c6ccc(S(=O)(=O)[O-])cc6)c6ccc3[nH]6)C=C5)C=C4)cc1)O2
REMARK SMILES IDX 20 1 19 2 18 3 17 4 15 5 16 6 13 8 1 9 2 10 3 11 9 12 4 13
REMARK SMILES IDX 5 14 7 15 6 16 85 17 8 18 11 19 12 20 14 21 10 22 21 24
REMARK SMILES IDX 22 25 23 26 24 28 25 29 26 30 84 31 27 32 83 33 28 34 29 35
REMARK SMILES IDX 30 36 77 37 31 38 82 39 76 40 78 41 32 42 81 43 75 44 74 45
REMARK SMILES IDX 33 47 63 48 44 49 62 50 45 51 48 52 61 53 79 54 46 55 47 56
REMARK SMILES IDX 60 58 80 59 49 60 34 61 35 62 43 63 36 64 42 65 37 66 38 67
REMARK SMILES IDX 39 68 40 69 41 70 64 71 65 72 73 73 66 74 72 75 67 76 68 77
REMARK SMILES IDX 69 78 70 79 71 80 50 81 51 82 59 83 52 84 58 85 53 86 54 87
REMARK SMILES IDX 55 88 56 89 57 90
REMARK H PARENT 17 7 10 23 22 27 78 46 48 57
REMARK Flexibility Score: inf
ROOT
ATOM      1  C   UNL A   1      35.529  22.490  25.316  1.00  0.00     0.023 C 
ENDROOT
BRANCH   1   2
ATOM      2  C   UNL A   1      34.513  21.957  26.324  1.00  0.00     0.023 C 
BRANCH   2   3
ATOM      3  C   UNL A   1      33.140  21.634  25.739  1.00  0.00     0.116 C 
BRANCH   3   4
ATOM      4  N   UNL A   1      32.059  22.234  26.501  1.00  0.00    -0.353 N 
ATOM      5  C   UNL A   1      31.431  23.448  26.388  1.00  0.00     0.263 C 
ATOM      6  O   UNL A   1      30.518  23.665  27.192  1.00  0.00    -0.270 OA
ATOM      7  H   UNL A   1      31.714  21.667  27.229  1.00  0.00     0.163 HD
BRANCH   5   8
ATOM      8  C   UNL A   1      31.838  24.479  25.295  1.00  0.00     0.184 C 
ATOM      9  C   UNL A   1      28.865  29.036  22.406  1.00  0.00     0.049 C 
ATOM     10  C   UNL A   1      30.054  28.312  22.987  1.00  0.00    -0.002 A 
ATOM     11  C   UNL A   1      29.858  27.169  23.800  1.00  0.00    -0.002 A 
ATOM     12  C   UNL A   1      31.368  28.731  22.710  1.00  0.00     0.122 A 
ATOM     13  C   UNL A   1      28.465  26.651  24.067  1.00  0.00     0.049 C 
ATOM     14  C   UNL A   1      30.977  26.520  24.357  1.00  0.00     0.127 A 
ATOM     15  C   UNL A   1      32.484  28.106  23.283  1.00  0.00    -0.002 A 
ATOM     16  C   UNL A   1      32.279  27.005  24.138  1.00  0.00     0.001 A 
ATOM     17  O   UNL A   1      30.729  25.395  25.113  1.00  0.00    -0.477 OA
ATOM     18  C   UNL A   1      33.883  28.593  22.996  1.00  0.00     0.049 C 
ATOM     19  C   UNL A   1      33.457  26.316  24.768  1.00  0.00     0.044 C 
ATOM     20  C   UNL A   1      33.020  25.307  25.804  1.00  0.00     0.063 C 
ATOM     21  C   UNL A   1      32.010  23.725  23.963  1.00  0.00     0.067 C 
BRANCH  12  22
ATOM     22  O   UNL A   1      31.609  29.772  21.850  1.00  0.00    -0.507 OA
ATOM     23  H   UNL A   1      30.986  29.984  21.184  1.00  0.00     0.293 HD
ENDBRANCH  12  22
ENDBRANCH   5   8
ENDBRANCH   3   4
ENDBRANCH   2   3
ENDBRANCH   1   2
BRANCH   1  24
ATOM     24  C   UNL A   1      36.720  23.225  25.918  1.00  0.00     0.116 C 
BRANCH  24  25
ATOM     25  N   UNL A   1      37.940  22.430  25.953  1.00  0.00    -0.352 N 
ATOM     26  C   UNL A   1      39.194  22.813  26.367  1.00  0.00     0.251 C 
ATOM     27  H   UNL A   1      37.856  21.500  25.640  1.00  0.00     0.163 HD
ATOM     28  O   UNL A   1      40.148  22.049  26.256  1.00  0.00    -0.269 OA
BRANCH  26  29
ATOM     29  C   UNL A   1      39.381  24.174  26.905  1.00  0.00     0.039 A 
ATOM     30  C   UNL A   1      38.970  24.446  28.211  1.00  0.00     0.014 A 
ATOM     31  C   UNL A   1      40.037  25.149  26.147  1.00  0.00     0.014 A 
ATOM     32  C   UNL A   1      39.293  25.674  28.790  1.00  0.00     0.010 A 
ATOM     33  C   UNL A   1      40.414  26.346  26.746  1.00  0.00     0.010 A 
ATOM     34  C   UNL A   1      40.056  26.614  28.077  1.00  0.00    -0.014 A 
BRANCH  34  35
ATOM     35  C   UNL A   1      40.505  27.876  28.713  1.00  0.00     0.031 A 
ATOM     36  C   UNL A   1      41.907  28.000  29.234  1.00  0.00     0.074 A 
ATOM     37  C   UNL A   1      39.629  28.890  28.869  1.00  0.00     0.049 A 
ATOM     38  N   UNL A   1      42.466  29.003  29.858  1.00  0.00    -0.248 NA
ATOM     39  C   UNL A   1      42.793  26.838  29.046  1.00  0.00     0.031 C 
ATOM     40  C   UNL A   1      38.228  28.877  28.438  1.00  0.00     0.029 A 
ATOM     41  N   UNL A   1      39.791  30.132  29.430  1.00  0.00    -0.354 N 
ATOM     42  C   UNL A   1      43.763  28.594  30.144  1.00  0.00     0.074 A 
ATOM     43  C   UNL A   1      43.893  27.234  29.669  1.00  0.00     0.031 C 
ATOM     44  C   UNL A   1      37.672  30.067  28.716  1.00  0.00     0.029 A 
ATOM     45  C   UNL A   1      38.662  30.914  29.374  1.00  0.00     0.049 A 
ATOM     46  H   UNL A   1      40.635  30.434  29.835  1.00  0.00     0.167 HD
ATOM     47  C   UNL A   1      44.763  29.295  30.728  1.00  0.00     0.031 A 
ATOM     48  C   UNL A   1      38.449  32.175  29.798  1.00  0.00     0.031 A 
ATOM     49  C   UNL A   1      44.638  30.652  31.186  1.00  0.00     0.049 A 
ATOM     50  C   UNL A   1      39.573  32.930  30.450  1.00  0.00     0.074 A 
ATOM     51  C   UNL A   1      45.604  31.458  31.762  1.00  0.00     0.029 A 
ATOM     52  N   UNL A   1      43.477  31.406  31.112  1.00  0.00    -0.354 N 
ATOM     53  N   UNL A   1      40.802  32.536  30.682  1.00  0.00    -0.248 NA
ATOM     54  C   UNL A   1      39.283  34.302  30.893  1.00  0.00     0.031 C 
ATOM     55  C   UNL A   1      45.019  32.691  32.064  1.00  0.00     0.029 A 
ATOM     56  C   UNL A   1      43.700  32.666  31.639  1.00  0.00     0.049 A 
ATOM     57  H   UNL A   1      42.622  31.092  30.741  1.00  0.00     0.167 HD
ATOM     58  C   UNL A   1      41.439  33.618  31.278  1.00  0.00     0.074 A 
ATOM     59  C   UNL A   1      40.463  34.686  31.363  1.00  0.00     0.031 C 
ATOM     60  C   UNL A   1      42.718  33.717  31.713  1.00  0.00     0.031 A 
BRANCH  47  61
ATOM     61  C   UNL A   1      46.089  28.605  30.888  1.00  0.00    -0.014 A 
ATOM     62  C   UNL A   1      46.370  27.858  32.046  1.00  0.00     0.010 A 
ATOM     63  C   UNL A   1      47.046  28.669  29.860  1.00  0.00     0.010 A 
ATOM     64  C   UNL A   1      47.601  27.214  32.189  1.00  0.00     0.020 A 
ATOM     65  C   UNL A   1      48.270  28.006  29.990  1.00  0.00     0.020 A 
ATOM     66  C   UNL A   1      48.545  27.295  31.160  1.00  0.00     0.054 A 
BRANCH  66  67
ATOM     67  S   UNL A   1      50.125  26.427  31.362  1.00  0.00     0.124 S 
ATOM     68  O   UNL A   1      50.823  27.291  32.312  1.00  0.00    -0.237 OA
ATOM     69  O   UNL A   1      49.712  25.127  31.883  1.00  0.00    -0.237 OA
ATOM     70  O   UNL A   1      50.683  26.406  30.012  1.00  0.00    -0.744 OA
ENDBRANCH  66  67
ENDBRANCH  47  61
BRANCH  48  71
ATOM     71  C   UNL A   1      37.125  32.817  29.582  1.00  0.00    -0.014 A 
ATOM     72  C   UNL A   1      36.168  32.820  30.612  1.00  0.00     0.010 A 
ATOM     73  C   UNL A   1      36.822  33.446  28.361  1.00  0.00     0.010 A 
ATOM     74  C   UNL A   1      34.926  33.432  30.423  1.00  0.00     0.020 A 
ATOM     75  C   UNL A   1      35.588  34.077  28.176  1.00  0.00     0.020 A 
ATOM     76  C   UNL A   1      34.645  34.058  29.206  1.00  0.00     0.054 A 
BRANCH  76  77
ATOM     77  S   UNL A   1      33.048  34.898  29.003  1.00  0.00     0.124 S 
ATOM     78  O   UNL A   1      32.370  34.033  28.044  1.00  0.00    -0.237 OA
ATOM     79  O   UNL A   1      32.509  34.883  30.361  1.00  0.00    -0.237 OA
ATOM     80  O   UNL A   1      33.420  36.220  28.505  1.00  0.00    -0.744 OA
ENDBRANCH  76  77
ENDBRANCH  48  71
BRANCH  60  81
ATOM     81  C   UNL A   1      43.152  35.030  32.302  1.00  0.00    -0.014 A 
ATOM     82  C   UNL A   1      43.780  36.003  31.508  1.00  0.00     0.010 A 
ATOM     83  C   UNL A   1      42.851  35.321  33.644  1.00  0.00     0.010 A 
ATOM     84  C   UNL A   1      44.109  37.248  32.052  1.00  0.00     0.020 A 
ATOM     85  C   UNL A   1      43.163  36.570  34.186  1.00  0.00     0.020 A 
ATOM     86  C   UNL A   1      43.797  37.524  33.386  1.00  0.00     0.054 A 
BRANCH  86  87
ATOM     87  S   UNL A   1      44.172  39.171  34.048  1.00  0.00     0.124 S 
ATOM     88  O   UNL A   1      42.957  39.913  33.724  1.00  0.00    -0.237 OA
ATOM     89  O   UNL A   1      44.385  38.905  35.469  1.00  0.00    -0.237 OA
ATOM     90  O   UNL A   1      45.366  39.577  33.311  1.00  0.00    -0.744 OA
ENDBRANCH  86  87
ENDBRANCH  60  81
ENDBRANCH  34  35
ENDBRANCH  26  29
ENDBRANCH  24  25
ENDBRANCH   1  24
TORSDOF 15
ENDMDL
MODEL 3
REMARK VINA RESULT:     -10.5      3.905      7.007
REMARK SMILES Cc1c(C)c2c(c(C)c1O)CC[C@@](C)(C(=O)NCCCCNC(=O)c1ccc(-c3c4nc(c(-c5ccc(S(=O)(=O)[O-])cc5)c5ccc([nH]5)c(-c5ccc(S(=O)(=O)[O-])cc5)c5nc(c(-c6ccc(S(=O)(=O)[O-])cc6)c6ccc3[nH]6)C=C5)C=C4)cc1)O2
REMARK SMILES IDX 20 1 19 2 18 3 17 4 15 5 16 6 13 8 1 9 2 10 3 11 9 12 4 13
REMARK SMILES IDX 5 14 7 15 6 16 85 17 8 18 11 19 12 20 14 21 10 22 21 24
REMARK SMILES IDX 22 25 23 26 24 28 25 29 26 30 84 31 27 32 83 33 28 34 29 35
REMARK SMILES IDX 30 36 77 37 31 38 82 39 76 40 78 41 32 42 81 43 75 44 74 45
REMARK SMILES IDX 33 47 63 48 44 49 62 50 45 51 48 52 61 53 79 54 46 55 47 56
REMARK SMILES IDX 60 58 80 59 49 60 34 61 35 62 43 63 36 64 42 65 37 66 38 67
REMARK SMILES IDX 39 68 40 69 41 70 64 71 65 72 73 73 66 74 72 75 67 76 68 77
REMARK SMILES IDX 69 78 70 79 71 80 50 81 51 82 59 83 52 84 58 85 53 86 54 87
REMARK SMILES IDX 55 88 56 89 57 90
REMARK H PARENT 17 7 10 23 22 27 78 46 48 57
REMARK Flexibility Score: inf
ROOT
ATOM      1  C   UNL A   1      32.476  28.383  26.019  1.00  0.00     0.023 C 
ENDROOT
BRANCH   1   2
ATOM      2  C   UNL A   1      32.810  28.674  24.558  1.00  0.00     0.023 C 
BRANCH   2   3
ATOM      3  C   UNL A   1      31.817  28.103  23.548  1.00  0.00     0.116 C 
BRANCH   3   4
ATOM      4  N   UNL A   1      32.475  27.385  22.470  1.00  0.00    -0.353 N 
ATOM      5  C   UNL A   1      32.937  26.097  22.383  1.00  0.00     0.263 C 
ATOM      6  O   UNL A   1      33.446  25.773  21.305  1.00  0.00    -0.270 OA
ATOM      7  H   UNL A   1      32.614  27.919  21.655  1.00  0.00     0.163 HD
BRANCH   5   8
ATOM      8  C   UNL A   1      32.804  25.100  23.572  1.00  0.00     0.184 C 
ATOM      9  C   UNL A   1      32.341  18.970  23.972  1.00  0.00     0.049 C 
ATOM     10  C   UNL A   1      32.713  20.360  24.424  1.00  0.00    -0.002 A 
ATOM     11  C   UNL A   1      32.628  21.445  23.518  1.00  0.00    -0.002 A 
ATOM     12  C   UNL A   1      33.117  20.611  25.748  1.00  0.00     0.122 A 
ATOM     13  C   UNL A   1      32.136  21.225  22.107  1.00  0.00     0.049 C 
ATOM     14  C   UNL A   1      33.004  22.733  23.947  1.00  0.00     0.127 A 
ATOM     15  C   UNL A   1      33.519  21.884  26.174  1.00  0.00    -0.002 A 
ATOM     16  C   UNL A   1      33.487  22.949  25.251  1.00  0.00     0.001 A 
ATOM     17  O   UNL A   1      32.870  23.755  23.034  1.00  0.00    -0.477 OA
ATOM     18  C   UNL A   1      33.979  22.123  27.590  1.00  0.00     0.049 C 
ATOM     19  C   UNL A   1      33.914  24.325  25.678  1.00  0.00     0.044 C 
ATOM     20  C   UNL A   1      34.007  25.268  24.501  1.00  0.00     0.063 C 
ATOM     21  C   UNL A   1      31.398  25.262  24.181  1.00  0.00     0.067 C 
BRANCH  12  22
ATOM     22  O   UNL A   1      33.122  19.610  26.685  1.00  0.00    -0.507 OA
ATOM     23  H   UNL A   1      32.391  19.029  26.754  1.00  0.00     0.293 HD
ENDBRANCH  12  22
ENDBRANCH   5   8
ENDBRANCH   3   4
ENDBRANCH   2   3
ENDBRANCH   1   2
BRANCH   1  24
ATOM     24  C   UNL A   1      33.587  28.693  27.016  1.00  0.00     0.116 C 
BRANCH  24  25
ATOM     25  N   UNL A   1      33.518  30.040  27.567  1.00  0.00    -0.352 N 
ATOM     26  C   UNL A   1      34.496  30.736  28.236  1.00  0.00     0.251 C 
ATOM     27  H   UNL A   1      32.662  30.510  27.444  1.00  0.00     0.163 HD
ATOM     28  O   UNL A   1      34.257  31.839  28.718  1.00  0.00    -0.269 OA
BRANCH  26  29
ATOM     29  C   UNL A   1      35.824  30.115  28.403  1.00  0.00     0.039 A 
ATOM     30  C   UNL A   1      36.720  30.140  27.333  1.00  0.00     0.014 A 
ATOM     31  C   UNL A   1      36.207  29.587  29.641  1.00  0.00     0.014 A 
ATOM     32  C   UNL A   1      38.034  29.712  27.528  1.00  0.00     0.010 A 
ATOM     33  C   UNL A   1      37.531  29.221  29.850  1.00  0.00     0.010 A 
ATOM     34  C   UNL A   1      38.460  29.291  28.800  1.00  0.00    -0.014 A 
BRANCH  34  35
ATOM     35  C   UNL A   1      39.878  28.940  29.054  1.00  0.00     0.031 A 
ATOM     36  C   UNL A   1      40.804  29.945  29.674  1.00  0.00     0.074 A 
ATOM     37  C   UNL A   1      40.341  27.730  28.676  1.00  0.00     0.049 A 
ATOM     38  N   UNL A   1      42.081  29.837  29.931  1.00  0.00    -0.248 NA
ATOM     39  C   UNL A   1      40.225  31.250  30.036  1.00  0.00     0.031 C 
ATOM     40  C   UNL A   1      39.548  26.681  28.030  1.00  0.00     0.029 A 
ATOM     41  N   UNL A   1      41.593  27.180  28.783  1.00  0.00    -0.354 N 
ATOM     42  C   UNL A   1      42.461  31.057  30.475  1.00  0.00     0.074 A 
ATOM     43  C   UNL A   1      41.292  31.908  30.468  1.00  0.00     0.031 C 
ATOM     44  C   UNL A   1      40.322  25.602  27.835  1.00  0.00     0.029 A 
ATOM     45  C   UNL A   1      41.672  25.892  28.308  1.00  0.00     0.049 A 
ATOM     46  H   UNL A   1      42.362  27.661  29.165  1.00  0.00     0.167 HD
ATOM     47  C   UNL A   1      43.668  31.428  30.962  1.00  0.00     0.031 A 
ATOM     48  C   UNL A   1      42.713  25.038  28.266  1.00  0.00     0.031 A 
ATOM     49  C   UNL A   1      44.828  30.578  30.983  1.00  0.00     0.049 A 
ATOM     50  C   UNL A   1      44.046  25.476  28.804  1.00  0.00     0.074 A 
ATOM     51  C   UNL A   1      46.087  30.854  31.484  1.00  0.00     0.029 A 
ATOM     52  N   UNL A   1      44.865  29.282  30.491  1.00  0.00    -0.354 N 
ATOM     53  N   UNL A   1      44.376  26.624  29.345  1.00  0.00    -0.248 NA
ATOM     54  C   UNL A   1      45.145  24.503  28.730  1.00  0.00     0.031 C 
ATOM     55  C   UNL A   1      46.897  29.734  31.266  1.00  0.00     0.029 A 
ATOM     56  C   UNL A   1      46.129  28.748  30.668  1.00  0.00     0.049 A 
ATOM     57  H   UNL A   1      44.106  28.813  30.076  1.00  0.00     0.167 HD
ATOM     58  C   UNL A   1      45.715  26.504  29.697  1.00  0.00     0.074 A 
ATOM     59  C   UNL A   1      46.132  25.170  29.316  1.00  0.00     0.031 C 
ATOM     60  C   UNL A   1      46.524  27.417  30.285  1.00  0.00     0.031 A 
BRANCH  47  61
ATOM     61  C   UNL A   1      43.789  32.817  31.526  1.00  0.00    -0.014 A 
ATOM     62  C   UNL A   1      44.207  33.884  30.711  1.00  0.00     0.010 A 
ATOM     63  C   UNL A   1      43.446  33.066  32.866  1.00  0.00     0.010 A 
ATOM     64  C   UNL A   1      44.314  35.174  31.238  1.00  0.00     0.020 A 
ATOM     65  C   UNL A   1      43.529  34.359  33.389  1.00  0.00     0.020 A 
ATOM     66  C   UNL A   1      43.976  35.403  32.575  1.00  0.00     0.054 A 
BRANCH  66  67
ATOM     67  S   UNL A   1      44.099  37.092  33.225  1.00  0.00     0.124 S 
ATOM     68  O   UNL A   1      43.898  37.892  32.018  1.00  0.00    -0.237 OA
ATOM     69  O   UNL A   1      43.011  37.141  34.198  1.00  0.00    -0.237 OA
ATOM     70  O   UNL A   1      45.443  37.148  33.793  1.00  0.00    -0.744 OA
ENDBRANCH  66  67
ENDBRANCH  47  61
BRANCH  48  71
ATOM     71  C   UNL A   1      42.524  23.665  27.725  1.00  0.00    -0.014 A 
ATOM     72  C   UNL A   1      42.654  23.427  26.346  1.00  0.00     0.010 A 
ATOM     73  C   UNL A   1      42.239  22.588  28.584  1.00  0.00     0.010 A 
ATOM     74  C   UNL A   1      42.492  22.138  25.832  1.00  0.00     0.020 A 
ATOM     75  C   UNL A   1      42.096  21.294  28.075  1.00  0.00     0.020 A 
ATOM     76  C   UNL A   1      42.214  21.079  26.700  1.00  0.00     0.054 A 
BRANCH  76  77
ATOM     77  S   UNL A   1      42.066  19.404  26.017  1.00  0.00     0.124 S 
ATOM     78  O   UNL A   1      42.914  19.484  24.832  1.00  0.00    -0.237 OA
ATOM     79  O   UNL A   1      42.577  18.573  27.105  1.00  0.00    -0.237 OA
ATOM     80  O   UNL A   1      40.635  19.267  25.758  1.00  0.00    -0.744 OA
ENDBRANCH  76  77
ENDBRANCH  48  71
BRANCH  60  81
ATOM     81  C   UNL A   1      47.940  27.005  30.577  1.00  0.00    -0.014 A 
ATOM     82  C   UNL A   1      48.955  27.190  29.624  1.00  0.00     0.010 A 
ATOM     83  C   UNL A   1      48.269  26.508  31.851  1.00  0.00     0.010 A 
ATOM     84  C   UNL A   1      50.280  26.873  29.938  1.00  0.00     0.020 A 
ATOM     85  C   UNL A   1      49.594  26.207  32.173  1.00  0.00     0.020 A 
ATOM     86  C   UNL A   1      50.591  26.385  31.211  1.00  0.00     0.054 A 
BRANCH  86  87
ATOM     87  S   UNL A   1      52.327  26.047  31.616  1.00  0.00     0.124 S 
ATOM     88  O   UNL A   1      52.626  27.105  32.576  1.00  0.00    -0.237 OA
ATOM     89  O   UNL A   1      52.270  24.695  32.168  1.00  0.00    -0.237 OA
ATOM     90  O   UNL A   1      53.011  26.158  30.330  1.00  0.00    -0.744 OA
ENDBRANCH  86  87
ENDBRANCH  60  81
ENDBRANCH  34  35
ENDBRANCH  26  29
ENDBRANCH  24  25
ENDBRANCH   1  24
TORSDOF 15
ENDMDL
