MODEL 1
REMARK VINA RESULT:     -11.4      0.000      0.000
REMARK SMILES COc1cccc(CSc2nc3ccccc3c(=O)n2CCC(=O)NCCCCNC(=O)c2ccc(-c3c4nc(c(-c5ccc(S(=O)(=O)[O-])cc5)c5ccc([nH]5)c(-c5ccc(S(=O)(=O)[O-])cc5)c5nc(c(-c6ccc(S(=O)(=O)[O-])cc6)c6ccc3[nH]6)C=C5)C=C4)cc2)c1
REMARK SMILES IDX 26 1 25 2 23 3 24 4 22 6 21 7 20 8 10 9 11 10 12 11 18 12
REMARK SMILES IDX 13 13 17 14 19 15 14 16 16 17 15 18 9 19 8 20 7 21 3 22 4 23
REMARK SMILES IDX 93 24 5 25 6 26 2 27 1 28 27 29 28 30 29 31 30 32 31 33
REMARK SMILES IDX 32 35 33 36 34 37 92 38 35 39 91 40 36 41 37 42 38 43 85 44
REMARK SMILES IDX 39 45 90 46 84 47 86 48 40 49 89 50 83 51 82 52 41 54 71 55
REMARK SMILES IDX 52 56 70 57 53 58 56 59 69 60 87 61 54 62 55 63 68 65 88 66
REMARK SMILES IDX 57 67 42 68 43 69 51 70 44 71 50 72 45 73 46 74 47 75 48 76
REMARK SMILES IDX 49 77 72 78 73 79 81 80 74 81 80 82 75 83 76 84 77 85 78 86
REMARK SMILES IDX 79 87 58 88 59 89 67 90 60 91 66 92 61 93 62 94 63 95 64 96
REMARK SMILES IDX 65 97
REMARK H PARENT 25 5 30 34 86 53 56 64
REMARK Flexibility Score: inf
ROOT
ATOM      1  C   UNL A   1      31.969  27.474  26.722  1.00  0.00     0.116 C 
ENDROOT
BRANCH   1   2
ATOM      2  N   UNL A   1      30.825  26.587  26.872  1.00  0.00    -0.356 N 
ATOM      3  C   UNL A   1      30.700  25.287  26.472  1.00  0.00     0.221 C 
ATOM      4  O   UNL A   1      29.617  24.720  26.617  1.00  0.00    -0.275 OA
ATOM      5  H   UNL A   1      30.038  26.974  27.320  1.00  0.00     0.163 HD
BRANCH   3   6
ATOM      6  C   UNL A   1      31.885  24.556  25.860  1.00  0.00     0.122 C 
BRANCH   6   7
ATOM      7  C   UNL A   1      31.424  23.656  24.700  1.00  0.00     0.138 C 
BRANCH   7   8
ATOM      8  N   UNL A   1      32.538  23.186  23.874  1.00  0.00    -0.287 N 
ATOM      9  C   UNL A   1      33.243  23.934  22.946  1.00  0.00     0.171 A 
ATOM     10  N   UNL A   1      34.523  23.770  22.782  1.00  0.00    -0.224 NA
ATOM     11  C   UNL A   1      35.192  22.812  23.550  1.00  0.00     0.079 A 
ATOM     12  C   UNL A   1      33.039  21.935  24.250  1.00  0.00     0.262 A 
ATOM     13  C   UNL A   1      36.576  22.884  23.728  1.00  0.00     0.029 A 
ATOM     14  C   UNL A   1      34.500  21.783  24.173  1.00  0.00     0.066 A 
ATOM     15  O   UNL A   1      32.361  21.028  24.729  1.00  0.00    -0.269 OA
ATOM     16  C   UNL A   1      37.246  21.917  24.485  1.00  0.00     0.002 A 
ATOM     17  C   UNL A   1      35.161  20.769  24.873  1.00  0.00     0.016 A 
ATOM     18  C   UNL A   1      36.544  20.840  25.028  1.00  0.00     0.001 A 
BRANCH   9  19
ATOM     19  S   UNL A   1      32.616  25.256  21.981  1.00  0.00    -0.083 SA
BRANCH  19  20
ATOM     20  C   UNL A   1      32.520  26.819  22.843  1.00  0.00     0.113 C 
BRANCH  20  21
ATOM     21  C   UNL A   1      31.170  27.477  22.833  1.00  0.00    -0.034 A 
ATOM     22  C   UNL A   1      29.780  29.420  22.380  1.00  0.00     0.119 A 
ATOM     23  C   UNL A   1      28.690  28.757  22.941  1.00  0.00     0.046 A 
ATOM     24  C   UNL A   1      31.000  28.755  22.277  1.00  0.00     0.051 A 
ATOM     25  C   UNL A   1      28.821  27.451  23.416  1.00  0.00     0.004 A 
ATOM     26  C   UNL A   1      30.058  26.818  23.371  1.00  0.00     0.005 A 
BRANCH  22  27
ATOM     27  O   UNL A   1      29.542  30.703  21.969  1.00  0.00    -0.497 OA
ATOM     28  C   UNL A   1      28.302  30.935  21.306  1.00  0.00     0.278 C 
ENDBRANCH  22  27
ENDBRANCH  20  21
ENDBRANCH  19  20
ENDBRANCH   9  19
ENDBRANCH   7   8
ENDBRANCH   6   7
ENDBRANCH   3   6
ENDBRANCH   1   2
BRANCH   1  29
ATOM     29  C   UNL A   1      31.512  28.864  26.309  1.00  0.00     0.023 C 
BRANCH  29  30
ATOM     30  C   UNL A   1      32.532  29.745  25.601  1.00  0.00     0.023 C 
BRANCH  30  31
ATOM     31  C   UNL A   1      33.756  30.027  26.450  1.00  0.00     0.116 C 
BRANCH  31  32
ATOM     32  N   UNL A   1      33.599  31.171  27.344  1.00  0.00    -0.352 N 
ATOM     33  C   UNL A   1      34.493  31.697  28.249  1.00  0.00     0.251 C 
ATOM     34  H   UNL A   1      32.730  31.631  27.292  1.00  0.00     0.163 HD
ATOM     35  O   UNL A   1      34.189  32.666  28.929  1.00  0.00    -0.269 OA
BRANCH  33  36
ATOM     36  C   UNL A   1      35.771  30.986  28.463  1.00  0.00     0.039 A 
ATOM     37  C   UNL A   1      36.959  31.709  28.336  1.00  0.00     0.014 A 
ATOM     38  C   UNL A   1      35.785  29.687  28.964  1.00  0.00     0.014 A 
ATOM     39  C   UNL A   1      38.142  31.175  28.845  1.00  0.00     0.010 A 
ATOM     40  C   UNL A   1      36.925  29.220  29.594  1.00  0.00     0.010 A 
ATOM     41  C   UNL A   1      38.115  29.964  29.553  1.00  0.00    -0.014 A 
BRANCH  41  42
ATOM     42  C   UNL A   1      39.304  29.442  30.271  1.00  0.00     0.031 A 
ATOM     43  C   UNL A   1      39.718  30.083  31.569  1.00  0.00     0.074 A 
ATOM     44  C   UNL A   1      40.071  28.491  29.702  1.00  0.00     0.049 A 
ATOM     45  N   UNL A   1      40.820  29.925  32.252  1.00  0.00    -0.248 NA
ATOM     46  C   UNL A   1      38.799  31.085  32.135  1.00  0.00     0.031 C 
ATOM     47  C   UNL A   1      39.819  27.844  28.410  1.00  0.00     0.029 A 
ATOM     48  N   UNL A   1      41.233  27.903  30.137  1.00  0.00    -0.354 N 
ATOM     49  C   UNL A   1      40.753  30.852  33.286  1.00  0.00     0.074 A 
ATOM     50  C   UNL A   1      39.532  31.604  33.106  1.00  0.00     0.031 C 
ATOM     51  C   UNL A   1      40.767  26.920  28.183  1.00  0.00     0.029 A 
ATOM     52  C   UNL A   1      41.719  26.938  29.285  1.00  0.00     0.049 A 
ATOM     53  H   UNL A   1      41.677  28.150  30.980  1.00  0.00     0.167 HD
ATOM     54  C   UNL A   1      41.616  31.041  34.311  1.00  0.00     0.031 A 
ATOM     55  C   UNL A   1      42.811  26.157  29.387  1.00  0.00     0.031 A 
ATOM     56  C   UNL A   1      42.782  30.230  34.526  1.00  0.00     0.049 A 
ATOM     57  C   UNL A   1      43.698  26.308  30.593  1.00  0.00     0.074 A 
ATOM     58  C   UNL A   1      43.683  30.275  35.575  1.00  0.00     0.029 A 
ATOM     59  N   UNL A   1      43.185  29.201  33.689  1.00  0.00    -0.354 N 
ATOM     60  N   UNL A   1      43.599  27.164  31.582  1.00  0.00    -0.248 NA
ATOM     61  C   UNL A   1      44.832  25.383  30.704  1.00  0.00     0.031 C 
ATOM     62  C   UNL A   1      44.639  29.276  35.364  1.00  0.00     0.029 A 
ATOM     63  C   UNL A   1      44.314  28.592  34.203  1.00  0.00     0.049 A 
ATOM     64  H   UNL A   1      42.735  28.943  32.852  1.00  0.00     0.167 HD
ATOM     65  C   UNL A   1      44.643  26.862  32.448  1.00  0.00     0.074 A 
ATOM     66  C   UNL A   1      45.353  25.739  31.871  1.00  0.00     0.031 C 
ATOM     67  C   UNL A   1      44.985  27.462  33.615  1.00  0.00     0.031 A 
BRANCH  54  68
ATOM     68  C   UNL A   1      41.306  32.155  35.274  1.00  0.00    -0.014 A 
ATOM     69  C   UNL A   1      40.510  31.928  36.412  1.00  0.00     0.010 A 
ATOM     70  C   UNL A   1      41.798  33.449  35.030  1.00  0.00     0.010 A 
ATOM     71  C   UNL A   1      40.155  32.987  37.250  1.00  0.00     0.020 A 
ATOM     72  C   UNL A   1      41.472  34.506  35.886  1.00  0.00     0.020 A 
ATOM     73  C   UNL A   1      40.630  34.273  36.974  1.00  0.00     0.054 A 
BRANCH  73  74
ATOM     74  S   UNL A   1      40.146  35.634  38.070  1.00  0.00     0.124 S 
ATOM     75  O   UNL A   1      41.303  35.730  38.957  1.00  0.00    -0.237 OA
ATOM     76  O   UNL A   1      39.973  36.750  37.143  1.00  0.00    -0.237 OA
ATOM     77  O   UNL A   1      38.917  35.153  38.696  1.00  0.00    -0.744 OA
ENDBRANCH  73  74
ENDBRANCH  54  68
BRANCH  55  78
ATOM     78  C   UNL A   1      43.098  25.131  28.349  1.00  0.00    -0.014 A 
ATOM     79  C   UNL A   1      43.909  25.452  27.245  1.00  0.00     0.010 A 
ATOM     80  C   UNL A   1      42.579  23.828  28.459  1.00  0.00     0.010 A 
ATOM     81  C   UNL A   1      44.177  24.499  26.258  1.00  0.00     0.020 A 
ATOM     82  C   UNL A   1      42.864  22.865  27.484  1.00  0.00     0.020 A 
ATOM     83  C   UNL A   1      43.650  23.210  26.383  1.00  0.00     0.054 A 
BRANCH  83  84
ATOM     84  S   UNL A   1      44.045  21.975  25.112  1.00  0.00     0.124 S 
ATOM     85  O   UNL A   1      43.038  20.949  25.363  1.00  0.00    -0.237 OA
ATOM     86  O   UNL A   1      43.883  22.732  23.873  1.00  0.00    -0.237 OA
ATOM     87  O   UNL A   1      45.421  21.595  25.424  1.00  0.00    -0.744 OA
ENDBRANCH  83  84
ENDBRANCH  55  78
BRANCH  67  88
ATOM     88  C   UNL A   1      46.148  26.885  34.369  1.00  0.00    -0.014 A 
ATOM     89  C   UNL A   1      47.460  27.319  34.116  1.00  0.00     0.010 A 
ATOM     90  C   UNL A   1      45.911  25.957  35.398  1.00  0.00     0.010 A 
ATOM     91  C   UNL A   1      48.522  26.820  34.874  1.00  0.00     0.020 A 
ATOM     92  C   UNL A   1      46.967  25.471  36.170  1.00  0.00     0.020 A 
ATOM     93  C   UNL A   1      48.268  25.900  35.897  1.00  0.00     0.054 A 
BRANCH  93  94
ATOM     94  S   UNL A   1      49.653  25.317  36.912  1.00  0.00     0.124 S 
ATOM     95  O   UNL A   1      49.607  26.237  38.045  1.00  0.00    -0.237 OA
ATOM     96  O   UNL A   1      49.278  23.936  37.207  1.00  0.00    -0.237 OA
ATOM     97  O   UNL A   1      50.811  25.466  36.033  1.00  0.00    -0.744 OA
ENDBRANCH  93  94
ENDBRANCH  67  88
ENDBRANCH  41  42
ENDBRANCH  33  36
ENDBRANCH  31  32
ENDBRANCH  30  31
ENDBRANCH  29  30
ENDBRANCH   1  29
TORSDOF 20
ENDMDL
MODEL 2
REMARK VINA RESULT:     -11.2      2.599      3.173
REMARK SMILES COc1cccc(CSc2nc3ccccc3c(=O)n2CCC(=O)NCCCCNC(=O)c2ccc(-c3c4nc(c(-c5ccc(S(=O)(=O)[O-])cc5)c5ccc([nH]5)c(-c5ccc(S(=O)(=O)[O-])cc5)c5nc(c(-c6ccc(S(=O)(=O)[O-])cc6)c6ccc3[nH]6)C=C5)C=C4)cc2)c1
REMARK SMILES IDX 26 1 25 2 23 3 24 4 22 6 21 7 20 8 10 9 11 10 12 11 18 12
REMARK SMILES IDX 13 13 17 14 19 15 14 16 16 17 15 18 9 19 8 20 7 21 3 22 4 23
REMARK SMILES IDX 93 24 5 25 6 26 2 27 1 28 27 29 28 30 29 31 30 32 31 33
REMARK SMILES IDX 32 35 33 36 34 37 92 38 35 39 91 40 36 41 37 42 38 43 85 44
REMARK SMILES IDX 39 45 90 46 84 47 86 48 40 49 89 50 83 51 82 52 41 54 71 55
REMARK SMILES IDX 52 56 70 57 53 58 56 59 69 60 87 61 54 62 55 63 68 65 88 66
REMARK SMILES IDX 57 67 42 68 43 69 51 70 44 71 50 72 45 73 46 74 47 75 48 76
REMARK SMILES IDX 49 77 72 78 73 79 81 80 74 81 80 82 75 83 76 84 77 85 78 86
REMARK SMILES IDX 79 87 58 88 59 89 67 90 60 91 66 92 61 93 62 94 63 95 64 96
REMARK SMILES IDX 65 97
REMARK H PARENT 25 5 30 34 86 53 56 64
REMARK Flexibility Score: inf
ROOT
ATOM      1  C   UNL A   1      31.955  27.211  26.410  1.00  0.00     0.116 C 
ENDROOT
BRANCH   1   2
ATOM      2  N   UNL A   1      30.884  26.278  26.728  1.00  0.00    -0.356 N 
ATOM      3  C   UNL A   1      30.870  24.920  26.584  1.00  0.00     0.221 C 
ATOM      4  O   UNL A   1      29.834  24.304  26.835  1.00  0.00    -0.275 OA
ATOM      5  H   UNL A   1      30.062  26.678  27.094  1.00  0.00     0.163 HD
BRANCH   3   6
ATOM      6  C   UNL A   1      32.119  24.185  26.122  1.00  0.00     0.122 C 
BRANCH   6   7
ATOM      7  C   UNL A   1      31.775  23.185  25.004  1.00  0.00     0.138 C 
BRANCH   7   8
ATOM      8  N   UNL A   1      32.927  22.867  24.158  1.00  0.00    -0.287 N 
ATOM      9  C   UNL A   1      33.634  23.758  23.367  1.00  0.00     0.171 A 
ATOM     10  N   UNL A   1      34.923  23.654  23.225  1.00  0.00    -0.224 NA
ATOM     11  C   UNL A   1      35.600  22.617  23.874  1.00  0.00     0.079 A 
ATOM     12  C   UNL A   1      33.458  21.591  24.373  1.00  0.00     0.262 A 
ATOM     13  C   UNL A   1      36.975  22.703  24.106  1.00  0.00     0.029 A 
ATOM     14  C   UNL A   1      34.924  21.492  24.324  1.00  0.00     0.066 A 
ATOM     15  O   UNL A   1      32.796  20.607  24.698  1.00  0.00    -0.269 OA
ATOM     16  C   UNL A   1      37.654  21.658  24.744  1.00  0.00     0.002 A 
ATOM     17  C   UNL A   1      35.598  20.409  24.899  1.00  0.00     0.016 A 
ATOM     18  C   UNL A   1      36.973  20.497  25.108  1.00  0.00     0.001 A 
BRANCH   9  19
ATOM     19  S   UNL A   1      32.993  25.183  22.574  1.00  0.00    -0.083 SA
BRANCH  19  20
ATOM     20  C   UNL A   1      31.249  25.462  22.855  1.00  0.00     0.113 C 
BRANCH  20  21
ATOM     21  C   UNL A   1      30.811  26.897  22.795  1.00  0.00    -0.034 A 
ATOM     22  C   UNL A   1      29.052  28.568  22.959  1.00  0.00     0.119 A 
ATOM     23  C   UNL A   1      29.958  29.545  22.548  1.00  0.00     0.046 A 
ATOM     24  C   UNL A   1      29.498  27.260  23.135  1.00  0.00     0.051 A 
ATOM     25  C   UNL A   1      31.289  29.216  22.293  1.00  0.00     0.004 A 
ATOM     26  C   UNL A   1      31.712  27.896  22.406  1.00  0.00     0.005 A 
BRANCH  22  27
ATOM     27  O   UNL A   1      27.769  29.000  23.159  1.00  0.00    -0.497 OA
ATOM     28  C   UNL A   1      27.572  30.411  23.174  1.00  0.00     0.278 C 
ENDBRANCH  22  27
ENDBRANCH  20  21
ENDBRANCH  19  20
ENDBRANCH   9  19
ENDBRANCH   7   8
ENDBRANCH   6   7
ENDBRANCH   3   6
ENDBRANCH   1   2
BRANCH   1  29
ATOM     29  C   UNL A   1      31.386  28.579  26.075  1.00  0.00     0.023 C 
BRANCH  29  30
ATOM     30  C   UNL A   1      32.384  29.686  25.765  1.00  0.00     0.023 C 
BRANCH  30  31
ATOM     31  C   UNL A   1      33.588  29.668  26.685  1.00  0.00     0.116 C 
BRANCH  31  32
ATOM     32  N   UNL A   1      33.620  30.780  27.632  1.00  0.00    -0.352 N 
ATOM     33  C   UNL A   1      34.628  31.168  28.485  1.00  0.00     0.251 C 
ATOM     34  H   UNL A   1      32.803  31.329  27.664  1.00  0.00     0.163 HD
ATOM     35  O   UNL A   1      34.480  32.131  29.223  1.00  0.00    -0.269 OA
BRANCH  33  36
ATOM     36  C   UNL A   1      35.835  30.320  28.572  1.00  0.00     0.039 A 
ATOM     37  C   UNL A   1      36.762  30.380  27.529  1.00  0.00     0.014 A 
ATOM     38  C   UNL A   1      36.133  29.629  29.744  1.00  0.00     0.014 A 
ATOM     39  C   UNL A   1      38.043  29.863  27.723  1.00  0.00     0.010 A 
ATOM     40  C   UNL A   1      37.441  29.246  29.985  1.00  0.00     0.010 A 
ATOM     41  C   UNL A   1      38.415  29.371  28.982  1.00  0.00    -0.014 A 
BRANCH  41  42
ATOM     42  C   UNL A   1      39.812  28.981  29.296  1.00  0.00     0.031 A 
ATOM     43  C   UNL A   1      40.725  29.982  29.951  1.00  0.00     0.074 A 
ATOM     44  C   UNL A   1      40.288  27.788  28.885  1.00  0.00     0.049 A 
ATOM     45  N   UNL A   1      42.018  29.928  30.130  1.00  0.00    -0.248 NA
ATOM     46  C   UNL A   1      40.110  31.243  30.402  1.00  0.00     0.031 C 
ATOM     47  C   UNL A   1      39.524  26.759  28.171  1.00  0.00     0.029 A 
ATOM     48  N   UNL A   1      41.541  27.239  29.002  1.00  0.00    -0.354 N 
ATOM     49  C   UNL A   1      42.374  31.166  30.650  1.00  0.00     0.074 A 
ATOM     50  C   UNL A   1      41.173  31.968  30.705  1.00  0.00     0.031 C 
ATOM     51  C   UNL A   1      40.308  25.690  27.958  1.00  0.00     0.029 A 
ATOM     52  C   UNL A   1      41.641  25.971  28.476  1.00  0.00     0.049 A 
ATOM     53  H   UNL A   1      42.296  27.708  29.422  1.00  0.00     0.167 HD
ATOM     54  C   UNL A   1      43.589  31.589  31.073  1.00  0.00     0.031 A 
ATOM     55  C   UNL A   1      42.693  25.132  28.421  1.00  0.00     0.031 A 
ATOM     56  C   UNL A   1      44.757  30.754  31.093  1.00  0.00     0.049 A 
ATOM     57  C   UNL A   1      44.007  25.583  28.999  1.00  0.00     0.074 A 
ATOM     58  C   UNL A   1      46.019  31.047  31.577  1.00  0.00     0.029 A 
ATOM     59  N   UNL A   1      44.791  29.445  30.639  1.00  0.00    -0.354 N 
ATOM     60  N   UNL A   1      44.318  26.744  29.524  1.00  0.00    -0.248 NA
ATOM     61  C   UNL A   1      45.105  24.608  28.991  1.00  0.00     0.031 C 
ATOM     62  C   UNL A   1      46.821  29.913  31.404  1.00  0.00     0.029 A 
ATOM     63  C   UNL A   1      46.048  28.908  30.842  1.00  0.00     0.049 A 
ATOM     64  H   UNL A   1      44.032  28.967  30.231  1.00  0.00     0.167 HD
ATOM     65  C   UNL A   1      45.641  26.631  29.932  1.00  0.00     0.074 A 
ATOM     66  C   UNL A   1      46.066  25.285  29.605  1.00  0.00     0.031 C 
ATOM     67  C   UNL A   1      46.434  27.558  30.524  1.00  0.00     0.031 A 
BRANCH  54  68
ATOM     68  C   UNL A   1      43.690  33.009  31.561  1.00  0.00    -0.014 A 
ATOM     69  C   UNL A   1      44.118  34.040  30.705  1.00  0.00     0.010 A 
ATOM     70  C   UNL A   1      43.374  33.314  32.897  1.00  0.00     0.010 A 
ATOM     71  C   UNL A   1      44.294  35.337  31.192  1.00  0.00     0.020 A 
ATOM     72  C   UNL A   1      43.518  34.619  33.380  1.00  0.00     0.020 A 
ATOM     73  C   UNL A   1      44.003  35.616  32.531  1.00  0.00     0.054 A 
BRANCH  73  74
ATOM     74  S   UNL A   1      44.251  37.304  33.144  1.00  0.00     0.124 S 
ATOM     75  O   UNL A   1      45.598  37.223  33.704  1.00  0.00    -0.237 OA
ATOM     76  O   UNL A   1      44.124  38.111  31.932  1.00  0.00    -0.237 OA
ATOM     77  O   UNL A   1      43.178  37.478  34.120  1.00  0.00    -0.744 OA
ENDBRANCH  73  74
ENDBRANCH  54  68
BRANCH  55  78
ATOM     78  C   UNL A   1      42.535  23.769  27.846  1.00  0.00    -0.014 A 
ATOM     79  C   UNL A   1      42.096  22.708  28.659  1.00  0.00     0.010 A 
ATOM     80  C   UNL A   1      42.807  23.522  26.489  1.00  0.00     0.010 A 
ATOM     81  C   UNL A   1      41.954  21.421  28.133  1.00  0.00     0.020 A 
ATOM     82  C   UNL A   1      42.645  22.239  25.953  1.00  0.00     0.020 A 
ATOM     83  C   UNL A   1      42.232  21.193  26.782  1.00  0.00     0.054 A 
BRANCH  83  84
ATOM     84  S   UNL A   1      42.000  19.524  26.109  1.00  0.00     0.124 S 
ATOM     85  O   UNL A   1      42.371  18.685  27.245  1.00  0.00    -0.237 OA
ATOM     86  O   UNL A   1      40.583  19.518  25.755  1.00  0.00    -0.237 OA
ATOM     87  O   UNL A   1      42.917  19.485  24.973  1.00  0.00    -0.744 OA
ENDBRANCH  83  84
ENDBRANCH  55  78
BRANCH  67  88
ATOM     88  C   UNL A   1      47.825  27.135  30.900  1.00  0.00    -0.014 A 
ATOM     89  C   UNL A   1      48.891  27.272  29.996  1.00  0.00     0.010 A 
ATOM     90  C   UNL A   1      48.075  26.669  32.203  1.00  0.00     0.010 A 
ATOM     91  C   UNL A   1      50.189  26.935  30.386  1.00  0.00     0.020 A 
ATOM     92  C   UNL A   1      49.374  26.351  32.603  1.00  0.00     0.020 A 
ATOM     93  C   UNL A   1      50.422  26.477  31.688  1.00  0.00     0.054 A 
BRANCH  93  94
ATOM     94  S   UNL A   1      52.124  26.110  32.194  1.00  0.00     0.124 S 
ATOM     95  O   UNL A   1      52.086  26.406  33.623  1.00  0.00    -0.237 OA
ATOM     96  O   UNL A   1      52.267  24.698  31.847  1.00  0.00    -0.237 OA
ATOM     97  O   UNL A   1      52.928  27.027  31.388  1.00  0.00    -0.744 OA
ENDBRANCH  93  94
ENDBRANCH  67  88
ENDBRANCH  41  42
ENDBRANCH  33  36
ENDBRANCH  31  32
ENDBRANCH  30  31
ENDBRANCH  29  30
ENDBRANCH   1  29
TORSDOF 20
ENDMDL
MODEL 3
REMARK VINA RESULT:     -10.8      5.178     10.950
REMARK SMILES COc1cccc(CSc2nc3ccccc3c(=O)n2CCC(=O)NCCCCNC(=O)c2ccc(-c3c4nc(c(-c5ccc(S(=O)(=O)[O-])cc5)c5ccc([nH]5)c(-c5ccc(S(=O)(=O)[O-])cc5)c5nc(c(-c6ccc(S(=O)(=O)[O-])cc6)c6ccc3[nH]6)C=C5)C=C4)cc2)c1
REMARK SMILES IDX 26 1 25 2 23 3 24 4 22 6 21 7 20 8 10 9 11 10 12 11 18 12
REMARK SMILES IDX 13 13 17 14 19 15 14 16 16 17 15 18 9 19 8 20 7 21 3 22 4 23
REMARK SMILES IDX 93 24 5 25 6 26 2 27 1 28 27 29 28 30 29 31 30 32 31 33
REMARK SMILES IDX 32 35 33 36 34 37 92 38 35 39 91 40 36 41 37 42 38 43 85 44
REMARK SMILES IDX 39 45 90 46 84 47 86 48 40 49 89 50 83 51 82 52 41 54 71 55
REMARK SMILES IDX 52 56 70 57 53 58 56 59 69 60 87 61 54 62 55 63 68 65 88 66
REMARK SMILES IDX 57 67 42 68 43 69 51 70 44 71 50 72 45 73 46 74 47 75 48 76
REMARK SMILES IDX 49 77 72 78 73 79 81 80 74 81 80 82 75 83 76 84 77 85 78 86
REMARK SMILES IDX 79 87 58 88 59 89 67 90 60 91 66 92 61 93 62 94 63 95 64 96
REMARK SMILES IDX 65 97
REMARK H PARENT 25 5 30 34 86 53 56 64
REMARK Flexibility Score: inf
ROOT
ATOM      1  C   UNL A   1      37.277  21.653  24.982  1.00  0.00     0.116 C 
ENDROOT
BRANCH   1   2
ATOM      2  N   UNL A   1      36.290  22.024  25.986  1.00  0.00    -0.356 N 
ATOM      3  C   UNL A   1      35.350  23.012  25.928  1.00  0.00     0.221 C 
ATOM      4  O   UNL A   1      34.649  23.228  26.917  1.00  0.00    -0.275 OA
ATOM      5  H   UNL A   1      36.302  21.493  26.816  1.00  0.00     0.163 HD
BRANCH   3   6
ATOM      6  C   UNL A   1      35.173  23.829  24.657  1.00  0.00     0.122 C 
BRANCH   6   7
ATOM      7  C   UNL A   1      34.568  22.963  23.538  1.00  0.00     0.138 C 
BRANCH   7   8
ATOM      8  N   UNL A   1      33.128  23.176  23.378  1.00  0.00    -0.287 N 
ATOM      9  C   UNL A   1      32.127  22.636  24.168  1.00  0.00     0.171 A 
ATOM     10  N   UNL A   1      31.058  23.317  24.457  1.00  0.00    -0.224 NA
ATOM     11  C   UNL A   1      30.915  24.613  23.950  1.00  0.00     0.079 A 
ATOM     12  C   UNL A   1      32.798  24.194  22.476  1.00  0.00     0.262 A 
ATOM     13  C   UNL A   1      30.037  25.518  24.550  1.00  0.00     0.029 A 
ATOM     14  C   UNL A   1      31.657  25.039  22.857  1.00  0.00     0.066 A 
ATOM     15  O   UNL A   1      33.455  24.479  21.477  1.00  0.00    -0.269 OA
ATOM     16  C   UNL A   1      29.885  26.810  24.033  1.00  0.00     0.002 A 
ATOM     17  C   UNL A   1      31.466  26.301  22.285  1.00  0.00     0.016 A 
ATOM     18  C   UNL A   1      30.573  27.190  22.880  1.00  0.00     0.001 A 
BRANCH   9  19
ATOM     19  S   UNL A   1      32.169  21.089  24.991  1.00  0.00    -0.083 SA
BRANCH  19  20
ATOM     20  C   UNL A   1      32.252  19.675  23.900  1.00  0.00     0.113 C 
BRANCH  20  21
ATOM     21  C   UNL A   1      33.293  18.652  24.254  1.00  0.00    -0.034 A 
ATOM     22  C   UNL A   1      33.876  16.381  24.901  1.00  0.00     0.119 A 
ATOM     23  C   UNL A   1      35.205  16.777  25.049  1.00  0.00     0.046 A 
ATOM     24  C   UNL A   1      32.939  17.307  24.450  1.00  0.00     0.051 A 
ATOM     25  C   UNL A   1      35.590  18.089  24.771  1.00  0.00     0.004 A 
ATOM     26  C   UNL A   1      34.636  19.025  24.384  1.00  0.00     0.005 A 
BRANCH  22  27
ATOM     27  O   UNL A   1      33.610  15.079  25.224  1.00  0.00    -0.497 OA
ATOM     28  C   UNL A   1      32.261  14.774  25.565  1.00  0.00     0.278 C 
ENDBRANCH  22  27
ENDBRANCH  20  21
ENDBRANCH  19  20
ENDBRANCH   9  19
ENDBRANCH   7   8
ENDBRANCH   6   7
ENDBRANCH   3   6
ENDBRANCH   1   2
BRANCH   1  29
ATOM     29  C   UNL A   1      38.610  21.336  25.640  1.00  0.00     0.023 C 
BRANCH  29  30
ATOM     30  C   UNL A   1      39.198  19.956  25.379  1.00  0.00     0.023 C 
BRANCH  30  31
ATOM     31  C   UNL A   1      40.072  19.464  26.515  1.00  0.00     0.116 C 
BRANCH  31  32
ATOM     32  N   UNL A   1      41.405  19.042  26.090  1.00  0.00    -0.352 N 
ATOM     33  C   UNL A   1      42.581  19.757  26.079  1.00  0.00     0.251 C 
ATOM     34  H   UNL A   1      41.470  18.115  25.766  1.00  0.00     0.163 HD
ATOM     35  O   UNL A   1      43.615  19.242  25.679  1.00  0.00    -0.269 OA
BRANCH  33  36
ATOM     36  C   UNL A   1      42.533  21.189  26.442  1.00  0.00     0.039 A 
ATOM     37  C   UNL A   1      42.853  21.550  27.753  1.00  0.00     0.014 A 
ATOM     38  C   UNL A   1      42.363  22.163  25.462  1.00  0.00     0.014 A 
ATOM     39  C   UNL A   1      43.139  22.883  28.043  1.00  0.00     0.010 A 
ATOM     40  C   UNL A   1      42.785  23.456  25.718  1.00  0.00     0.010 A 
ATOM     41  C   UNL A   1      43.191  23.829  27.009  1.00  0.00    -0.014 A 
BRANCH  41  42
ATOM     42  C   UNL A   1      43.668  25.217  27.231  1.00  0.00     0.031 A 
ATOM     43  C   UNL A   1      45.104  25.556  26.936  1.00  0.00     0.074 A 
ATOM     44  C   UNL A   1      42.855  26.125  27.807  1.00  0.00     0.049 A 
ATOM     45  N   UNL A   1      45.777  26.633  27.240  1.00  0.00    -0.248 NA
ATOM     46  C   UNL A   1      45.907  24.514  26.271  1.00  0.00     0.031 C 
ATOM     47  C   UNL A   1      41.463  25.897  28.211  1.00  0.00     0.029 A 
ATOM     48  N   UNL A   1      43.086  27.431  28.163  1.00  0.00    -0.354 N 
ATOM     49  C   UNL A   1      47.089  26.370  26.864  1.00  0.00     0.074 A 
ATOM     50  C   UNL A   1      47.127  25.015  26.363  1.00  0.00     0.031 C 
ATOM     51  C   UNL A   1      40.954  27.034  28.713  1.00  0.00     0.029 A 
ATOM     52  C   UNL A   1      41.991  28.058  28.711  1.00  0.00     0.049 A 
ATOM     53  H   UNL A   1      43.955  27.876  28.038  1.00  0.00     0.167 HD
ATOM     54  C   UNL A   1      48.162  27.195  26.904  1.00  0.00     0.031 A 
ATOM     55  C   UNL A   1      41.844  29.320  29.158  1.00  0.00     0.031 A 
ATOM     56  C   UNL A   1      48.094  28.566  27.324  1.00  0.00     0.049 A 
ATOM     57  C   UNL A   1      43.022  30.252  29.090  1.00  0.00     0.074 A 
ATOM     58  C   UNL A   1      49.097  29.519  27.327  1.00  0.00     0.029 A 
ATOM     59  N   UNL A   1      46.943  29.188  27.782  1.00  0.00    -0.354 N 
ATOM     60  N   UNL A   1      44.247  30.000  28.694  1.00  0.00    -0.248 NA
ATOM     61  C   UNL A   1      42.796  31.640  29.514  1.00  0.00     0.031 C 
ATOM     62  C   UNL A   1      48.551  30.717  27.799  1.00  0.00     0.029 A 
ATOM     63  C   UNL A   1      47.204  30.517  28.058  1.00  0.00     0.049 A 
ATOM     64  H   UNL A   1      46.069  28.749  27.894  1.00  0.00     0.167 HD
ATOM     65  C   UNL A   1      44.932  31.204  28.797  1.00  0.00     0.074 A 
ATOM     66  C   UNL A   1      43.982  32.186  29.279  1.00  0.00     0.031 C 
ATOM     67  C   UNL A   1      46.231  31.474  28.517  1.00  0.00     0.031 A 
BRANCH  54  68
ATOM     68  C   UNL A   1      49.484  26.625  26.462  1.00  0.00    -0.014 A 
ATOM     69  C   UNL A   1      50.322  25.952  27.369  1.00  0.00     0.010 A 
ATOM     70  C   UNL A   1      49.902  26.780  25.129  1.00  0.00     0.010 A 
ATOM     71  C   UNL A   1      51.583  25.505  26.971  1.00  0.00     0.020 A 
ATOM     72  C   UNL A   1      51.152  26.305  24.717  1.00  0.00     0.020 A 
ATOM     73  C   UNL A   1      51.995  25.696  25.648  1.00  0.00     0.054 A 
BRANCH  73  74
ATOM     74  S   UNL A   1      53.642  25.119  25.156  1.00  0.00     0.124 S 
ATOM     75  O   UNL A   1      54.492  25.751  26.163  1.00  0.00    -0.237 OA
ATOM     76  O   UNL A   1      53.522  23.667  25.260  1.00  0.00    -0.237 OA
ATOM     77  O   UNL A   1      53.796  25.633  23.797  1.00  0.00    -0.744 OA
ENDBRANCH  73  74
ENDBRANCH  54  68
BRANCH  55  78
ATOM     78  C   UNL A   1      40.523  29.788  29.659  1.00  0.00    -0.014 A 
ATOM     79  C   UNL A   1      40.295  29.902  31.043  1.00  0.00     0.010 A 
ATOM     80  C   UNL A   1      39.494  30.135  28.766  1.00  0.00     0.010 A 
ATOM     81  C   UNL A   1      39.055  30.331  31.525  1.00  0.00     0.020 A 
ATOM     82  C   UNL A   1      38.259  30.587  29.246  1.00  0.00     0.020 A 
ATOM     83  C   UNL A   1      38.043  30.669  30.623  1.00  0.00     0.054 A 
BRANCH  83  84
ATOM     84  S   UNL A   1      36.455  31.265  31.270  1.00  0.00     0.124 S 
ATOM     85  O   UNL A   1      35.648  31.356  30.057  1.00  0.00    -0.237 OA
ATOM     86  O   UNL A   1      36.076  30.208  32.204  1.00  0.00    -0.237 OA
ATOM     87  O   UNL A   1      36.799  32.541  31.892  1.00  0.00    -0.744 OA
ENDBRANCH  83  84
ENDBRANCH  55  78
BRANCH  67  88
ATOM     88  C   UNL A   1      46.689  32.894  28.681  1.00  0.00    -0.014 A 
ATOM     89  C   UNL A   1      46.581  33.815  27.625  1.00  0.00     0.010 A 
ATOM     90  C   UNL A   1      47.159  33.328  29.934  1.00  0.00     0.010 A 
ATOM     91  C   UNL A   1      46.951  35.148  27.817  1.00  0.00     0.020 A 
ATOM     92  C   UNL A   1      47.510  34.663  30.134  1.00  0.00     0.020 A 
ATOM     93  C   UNL A   1      47.412  35.563  29.071  1.00  0.00     0.054 A 
BRANCH  93  94
ATOM     94  S   UNL A   1      47.822  37.313  29.316  1.00  0.00     0.124 S 
ATOM     95  O   UNL A   1      47.050  37.956  28.257  1.00  0.00    -0.237 OA
ATOM     96  O   UNL A   1      47.355  37.566  30.677  1.00  0.00    -0.237 OA
ATOM     97  O   UNL A   1      49.272  37.354  29.144  1.00  0.00    -0.744 OA
ENDBRANCH  93  94
ENDBRANCH  67  88
ENDBRANCH  41  42
ENDBRANCH  33  36
ENDBRANCH  31  32
ENDBRANCH  30  31
ENDBRANCH  29  30
ENDBRANCH   1  29
TORSDOF 20
ENDMDL
