MODEL 1
REMARK VINA RESULT:     -13.2      0.000      0.000
REMARK SMILES Cc1cc(NS(=O)(=O)c2ccc3c(c2)[C@H]2[C@H]4CC[C@H](C4)[C@@H]2[C@H](c2cccc(C(=O)NCCCCNC(=O)c4ccc(-c5c6nc(c(-c7ccc(S(=O)(=O)[O-])cc7)c7ccc([nH]7)c(-c7ccc(S(=O)(=O)[O-])cc7)c7nc(c(-c8ccc(S(=O)(=O)[O-])cc8)c8ccc5[nH]8)C=C7)C=C6)cc4)c2)N3)no1
REMARK SMILES IDX 32 1 31 2 30 3 28 4 29 5 27 7 23 8 24 9 98 10 25 11 26 12
REMARK SMILES IDX 22 13 9 14 10 15 14 16 11 17 13 18 12 19 15 20 99 21 16 22
REMARK SMILES IDX 21 23 17 25 20 26 19 27 18 28 6 29 7 30 8 31 5 32 4 34 1 35
REMARK SMILES IDX 2 36 3 37 101 38 100 39 33 40 34 41 35 42 36 43 37 45 38 46
REMARK SMILES IDX 39 47 97 48 40 49 96 50 41 51 42 52 43 53 90 54 44 55 95 56
REMARK SMILES IDX 89 57 91 58 45 59 94 60 88 61 87 62 46 64 76 65 57 66 75 67
REMARK SMILES IDX 58 68 61 69 74 70 92 71 59 72 60 73 73 75 93 76 62 77 47 78
REMARK SMILES IDX 48 79 56 80 49 81 55 82 50 83 51 84 52 85 53 86 54 87 77 88
REMARK SMILES IDX 78 89 86 90 79 91 85 92 80 93 81 94 82 95 83 96 84 97 63 98
REMARK SMILES IDX 64 99 72 100 65 101 71 102 66 103 67 104 68 105 69 106
REMARK SMILES IDX 70 107
REMARK H PARENT 30 6 99 24 5 33 35 44 91 63 61 74
REMARK Flexibility Score: inf
ROOT
ATOM      1  C   UNL A   1      34.098  32.732  27.972  1.00  0.00     0.023 C 
ENDROOT
BRANCH   1   2
ATOM      2  C   UNL A   1      33.183  31.531  27.798  1.00  0.00     0.116 C 
BRANCH   2   3
ATOM      3  N   UNL A   1      33.830  30.231  27.691  1.00  0.00    -0.352 N 
ATOM      4  C   UNL A   1      33.500  29.148  26.898  1.00  0.00     0.251 C 
ATOM      5  O   UNL A   1      34.204  28.141  26.936  1.00  0.00    -0.269 OA
ATOM      6  H   UNL A   1      34.617  30.104  28.270  1.00  0.00     0.163 HD
BRANCH   4   7
ATOM      7  C   UNL A   1      32.268  29.141  26.060  1.00  0.00     0.040 A 
ATOM      8  C   UNL A   1      30.662  27.898  24.721  1.00  0.00    -0.025 A 
ATOM      9  C   UNL A   1      30.226  29.110  24.167  1.00  0.00     0.006 A 
ATOM     10  C   UNL A   1      31.553  27.972  25.796  1.00  0.00     0.019 A 
ATOM     11  C   UNL A   1      30.817  30.323  24.535  1.00  0.00     0.001 A 
ATOM     12  C   UNL A   1      31.874  30.331  25.442  1.00  0.00     0.014 A 
BRANCH   8  13
ATOM     13  C   UNL A   1      30.282  26.552  24.107  1.00  0.00     0.113 C 
ATOM     14  C   UNL A   1      32.746  22.197  25.483  1.00  0.00     0.088 A 
ATOM     15  C   UNL A   1      31.491  22.168  26.110  1.00  0.00     0.024 A 
ATOM     16  C   UNL A   1      33.160  23.362  24.851  1.00  0.00     0.028 A 
ATOM     17  C   UNL A   1      30.632  23.282  26.046  1.00  0.00     0.027 A 
ATOM     18  C   UNL A   1      32.266  24.429  24.707  1.00  0.00    -0.020 A 
ATOM     19  C   UNL A   1      30.988  24.419  25.316  1.00  0.00     0.038 A 
ATOM     20  C   UNL A   1      32.594  25.623  23.873  1.00  0.00     0.030 C 
ATOM     21  N   UNL A   1      30.093  25.481  25.137  1.00  0.00    -0.378 N 
ATOM     22  C   UNL A   1      33.647  25.665  22.749  1.00  0.00    -0.003 C 
ATOM     23  C   UNL A   1      31.302  25.981  23.105  1.00  0.00     0.027 C 
ATOM     24  H   UNL A   1      29.299  25.527  25.718  1.00  0.00     0.161 HD
ATOM     25  C   UNL A   1      33.290  24.751  21.560  1.00  0.00     0.004 C 
ATOM     26  C   UNL A   1      33.300  27.050  22.181  1.00  0.00     0.008 C 
ATOM     27  C   UNL A   1      31.854  26.661  21.831  1.00  0.00    -0.005 C 
ATOM     28  C   UNL A   1      32.159  25.511  20.842  1.00  0.00     0.004 C 
BRANCH  14  29
ATOM     29  S   UNL A   1      33.699  20.684  25.454  1.00  0.00     0.263 S 
ATOM     30  O   UNL A   1      33.573  20.068  26.762  1.00  0.00    -0.201 OA
ATOM     31  O   UNL A   1      34.997  21.048  24.933  1.00  0.00    -0.201 OA
BRANCH  29  32
ATOM     32  N   UNL A   1      33.067  19.666  24.294  1.00  0.00    -0.261 N 
ATOM     33  H   UNL A   1      32.544  20.087  23.574  1.00  0.00     0.182 HD
BRANCH  32  34
ATOM     34  C   UNL A   1      33.200  18.290  24.238  1.00  0.00     0.183 A 
ATOM     35  C   UNL A   1      32.705  14.906  25.527  1.00  0.00     0.091 C 
ATOM     36  C   UNL A   1      32.950  16.197  24.861  1.00  0.00     0.135 A 
ATOM     37  C   UNL A   1      32.285  17.399  24.842  1.00  0.00     0.096 A 
ATOM     38  O   UNL A   1      34.103  16.320  24.153  1.00  0.00    -0.360 OA
ATOM     39  N   UNL A   1      34.255  17.634  23.749  1.00  0.00    -0.061 NA
ENDBRANCH  32  34
ENDBRANCH  29  32
ENDBRANCH  14  29
ENDBRANCH   8  13
ENDBRANCH   4   7
ENDBRANCH   2   3
ENDBRANCH   1   2
BRANCH   1  40
ATOM     40  C   UNL A   1      35.556  32.430  28.268  1.00  0.00     0.023 C 
BRANCH  40  41
ATOM     41  C   UNL A   1      35.964  32.523  29.730  1.00  0.00     0.116 C 
BRANCH  41  42
ATOM     42  N   UNL A   1      35.740  31.302  30.494  1.00  0.00    -0.352 N 
ATOM     43  C   UNL A   1      36.596  30.246  30.735  1.00  0.00     0.251 C 
ATOM     44  H   UNL A   1      34.847  31.217  30.898  1.00  0.00     0.163 HD
ATOM     45  O   UNL A   1      36.219  29.271  31.375  1.00  0.00    -0.269 OA
BRANCH  43  46
ATOM     46  C   UNL A   1      37.955  30.282  30.153  1.00  0.00     0.039 A 
ATOM     47  C   UNL A   1      38.142  30.048  28.791  1.00  0.00     0.014 A 
ATOM     48  C   UNL A   1      39.053  30.419  31.004  1.00  0.00     0.014 A 
ATOM     49  C   UNL A   1      39.405  29.697  28.332  1.00  0.00     0.010 A 
ATOM     50  C   UNL A   1      40.338  30.176  30.511  1.00  0.00     0.010 A 
ATOM     51  C   UNL A   1      40.516  29.734  29.190  1.00  0.00    -0.014 A 
BRANCH  51  52
ATOM     52  C   UNL A   1      41.843  29.266  28.707  1.00  0.00     0.031 A 
ATOM     53  C   UNL A   1      43.023  30.206  28.674  1.00  0.00     0.074 A 
ATOM     54  C   UNL A   1      42.002  27.975  28.349  1.00  0.00     0.049 A 
ATOM     55  N   UNL A   1      44.238  29.983  28.241  1.00  0.00    -0.248 NA
ATOM     56  C   UNL A   1      42.820  31.571  29.192  1.00  0.00     0.031 C 
ATOM     57  C   UNL A   1      40.950  26.958  28.391  1.00  0.00     0.029 A 
ATOM     58  N   UNL A   1      43.106  27.294  27.905  1.00  0.00    -0.354 N 
ATOM     59  C   UNL A   1      44.931  31.178  28.407  1.00  0.00     0.074 A 
ATOM     60  C   UNL A   1      43.998  32.134  28.958  1.00  0.00     0.031 C 
ATOM     61  C   UNL A   1      41.472  25.774  28.043  1.00  0.00     0.029 A 
ATOM     62  C   UNL A   1      42.868  25.961  27.662  1.00  0.00     0.049 A 
ATOM     63  H   UNL A   1      43.985  27.717  27.772  1.00  0.00     0.167 HD
ATOM     64  C   UNL A   1      46.230  31.447  28.134  1.00  0.00     0.031 A 
ATOM     65  C   UNL A   1      43.665  24.997  27.160  1.00  0.00     0.031 A 
ATOM     66  C   UNL A   1      47.158  30.478  27.612  1.00  0.00     0.049 A 
ATOM     67  C   UNL A   1      45.079  25.338  26.790  1.00  0.00     0.074 A 
ATOM     68  C   UNL A   1      48.500  30.651  27.324  1.00  0.00     0.029 A 
ATOM     69  N   UNL A   1      46.850  29.160  27.307  1.00  0.00    -0.354 N 
ATOM     70  N   UNL A   1      45.712  26.476  26.943  1.00  0.00    -0.248 NA
ATOM     71  C   UNL A   1      45.885  24.277  26.171  1.00  0.00     0.031 C 
ATOM     72  C   UNL A   1      48.986  29.463  26.778  1.00  0.00     0.029 A 
ATOM     73  C   UNL A   1      47.968  28.522  26.798  1.00  0.00     0.049 A 
ATOM     74  H   UNL A   1      45.967  28.742  27.433  1.00  0.00     0.167 HD
ATOM     75  C   UNL A   1      46.992  26.269  26.447  1.00  0.00     0.074 A 
ATOM     76  C   UNL A   1      47.052  24.890  26.005  1.00  0.00     0.031 C 
ATOM     77  C   UNL A   1      48.019  27.147  26.361  1.00  0.00     0.031 A 
BRANCH  64  78
ATOM     78  C   UNL A   1      46.751  32.841  28.382  1.00  0.00    -0.014 A 
ATOM     79  C   UNL A   1      47.235  33.186  29.659  1.00  0.00     0.010 A 
ATOM     80  C   UNL A   1      46.636  33.844  27.404  1.00  0.00     0.010 A 
ATOM     81  C   UNL A   1      47.564  34.511  29.963  1.00  0.00     0.020 A 
ATOM     82  C   UNL A   1      46.991  35.167  27.696  1.00  0.00     0.020 A 
ATOM     83  C   UNL A   1      47.429  35.494  28.982  1.00  0.00     0.054 A 
BRANCH  83  84
ATOM     84  S   UNL A   1      47.835  37.213  29.401  1.00  0.00     0.124 S 
ATOM     85  O   UNL A   1      49.262  37.276  29.103  1.00  0.00    -0.237 OA
ATOM     86  O   UNL A   1      46.966  37.974  28.506  1.00  0.00    -0.237 OA
ATOM     87  O   UNL A   1      47.488  37.310  30.818  1.00  0.00    -0.744 OA
ENDBRANCH  83  84
ENDBRANCH  64  78
BRANCH  65  88
ATOM     88  C   UNL A   1      43.110  23.626  26.984  1.00  0.00    -0.014 A 
ATOM     89  C   UNL A   1      43.227  22.675  28.018  1.00  0.00     0.010 A 
ATOM     90  C   UNL A   1      42.573  23.228  25.749  1.00  0.00     0.010 A 
ATOM     91  C   UNL A   1      42.893  21.338  27.794  1.00  0.00     0.020 A 
ATOM     92  C   UNL A   1      42.204  21.896  25.532  1.00  0.00     0.020 A 
ATOM     93  C   UNL A   1      42.402  20.954  26.545  1.00  0.00     0.054 A 
BRANCH  93  94
ATOM     94  S   UNL A   1      42.051  19.198  26.252  1.00  0.00     0.124 S 
ATOM     95  O   UNL A   1      42.309  18.619  27.568  1.00  0.00    -0.237 OA
ATOM     96  O   UNL A   1      40.651  19.217  25.837  1.00  0.00    -0.237 OA
ATOM     97  O   UNL A   1      43.003  18.829  25.208  1.00  0.00    -0.744 OA
ENDBRANCH  93  94
ENDBRANCH  65  88
BRANCH  77  98
ATOM     98  C   UNL A   1      49.318  26.678  25.762  1.00  0.00    -0.014 A 
ATOM     99  C   UNL A   1      50.261  26.019  26.573  1.00  0.00     0.010 A 
ATOM    100  C   UNL A   1      49.677  27.053  24.456  1.00  0.00     0.010 A 
ATOM    101  C   UNL A   1      51.561  25.801  26.112  1.00  0.00     0.020 A 
ATOM    102  C   UNL A   1      50.969  26.810  23.981  1.00  0.00     0.020 A 
ATOM    103  C   UNL A   1      51.911  26.217  24.825  1.00  0.00     0.054 A 
BRANCH 103 104
ATOM    104  S   UNL A   1      53.629  26.010  24.280  1.00  0.00     0.124 S 
ATOM    105  O   UNL A   1      53.505  26.104  22.828  1.00  0.00    -0.237 OA
ATOM    106  O   UNL A   1      54.308  27.130  24.928  1.00  0.00    -0.237 OA
ATOM    107  O   UNL A   1      53.996  24.690  24.791  1.00  0.00    -0.744 OA
ENDBRANCH 103 104
ENDBRANCH  77  98
ENDBRANCH  51  52
ENDBRANCH  43  46
ENDBRANCH  41  42
ENDBRANCH  40  41
ENDBRANCH   1  40
TORSDOF 18
ENDMDL
MODEL 2
REMARK VINA RESULT:     -13.1      5.918     11.835
REMARK SMILES Cc1cc(NS(=O)(=O)c2ccc3c(c2)[C@H]2[C@H]4CC[C@H](C4)[C@@H]2[C@H](c2cccc(C(=O)NCCCCNC(=O)c4ccc(-c5c6nc(c(-c7ccc(S(=O)(=O)[O-])cc7)c7ccc([nH]7)c(-c7ccc(S(=O)(=O)[O-])cc7)c7nc(c(-c8ccc(S(=O)(=O)[O-])cc8)c8ccc5[nH]8)C=C7)C=C6)cc4)c2)N3)no1
REMARK SMILES IDX 32 1 31 2 30 3 28 4 29 5 27 7 23 8 24 9 98 10 25 11 26 12
REMARK SMILES IDX 22 13 9 14 10 15 14 16 11 17 13 18 12 19 15 20 99 21 16 22
REMARK SMILES IDX 21 23 17 25 20 26 19 27 18 28 6 29 7 30 8 31 5 32 4 34 1 35
REMARK SMILES IDX 2 36 3 37 101 38 100 39 33 40 34 41 35 42 36 43 37 45 38 46
REMARK SMILES IDX 39 47 97 48 40 49 96 50 41 51 42 52 43 53 90 54 44 55 95 56
REMARK SMILES IDX 89 57 91 58 45 59 94 60 88 61 87 62 46 64 76 65 57 66 75 67
REMARK SMILES IDX 58 68 61 69 74 70 92 71 59 72 60 73 73 75 93 76 62 77 47 78
REMARK SMILES IDX 48 79 56 80 49 81 55 82 50 83 51 84 52 85 53 86 54 87 77 88
REMARK SMILES IDX 78 89 86 90 79 91 85 92 80 93 81 94 82 95 83 96 84 97 63 98
REMARK SMILES IDX 64 99 72 100 65 101 71 102 66 103 67 104 68 105 69 106
REMARK SMILES IDX 70 107
REMARK H PARENT 30 6 99 24 5 33 35 44 91 63 61 74
REMARK Flexibility Score: inf
ROOT
ATOM      1  C   UNL A   1      40.379  21.207  26.873  1.00  0.00     0.023 C 
ENDROOT
BRANCH   1   2
ATOM      2  C   UNL A   1      39.308  21.432  25.819  1.00  0.00     0.116 C 
BRANCH   2   3
ATOM      3  N   UNL A   1      38.613  22.710  25.861  1.00  0.00    -0.352 N 
ATOM      4  C   UNL A   1      37.291  23.002  25.583  1.00  0.00     0.251 C 
ATOM      5  O   UNL A   1      36.892  24.157  25.711  1.00  0.00    -0.269 OA
ATOM      6  H   UNL A   1      39.166  23.481  26.126  1.00  0.00     0.163 HD
BRANCH   4   7
ATOM      7  C   UNL A   1      36.359  21.966  25.053  1.00  0.00     0.040 A 
ATOM      8  C   UNL A   1      34.211  21.405  24.058  1.00  0.00    -0.025 A 
ATOM      9  C   UNL A   1      34.419  20.069  24.430  1.00  0.00     0.006 A 
ATOM     10  C   UNL A   1      35.285  22.286  24.222  1.00  0.00     0.019 A 
ATOM     11  C   UNL A   1      35.569  19.687  25.127  1.00  0.00     0.001 A 
ATOM     12  C   UNL A   1      36.514  20.646  25.484  1.00  0.00     0.014 A 
BRANCH   8  13
ATOM     13  C   UNL A   1      32.842  21.910  23.608  1.00  0.00     0.113 C 
ATOM     14  C   UNL A   1      31.989  26.966  22.811  1.00  0.00     0.088 A 
ATOM     15  C   UNL A   1      32.088  26.368  21.546  1.00  0.00     0.024 A 
ATOM     16  C   UNL A   1      32.321  26.226  23.938  1.00  0.00     0.028 A 
ATOM     17  C   UNL A   1      32.459  25.015  21.420  1.00  0.00     0.027 A 
ATOM     18  C   UNL A   1      32.594  24.859  23.815  1.00  0.00    -0.020 A 
ATOM     19  C   UNL A   1      32.685  24.228  22.552  1.00  0.00     0.038 A 
ATOM     20  C   UNL A   1      32.768  23.981  25.010  1.00  0.00     0.030 C 
ATOM     21  N   UNL A   1      32.928  22.852  22.446  1.00  0.00    -0.378 N 
ATOM     22  C   UNL A   1      32.244  24.288  26.426  1.00  0.00    -0.003 C 
ATOM     23  C   UNL A   1      32.037  22.660  24.684  1.00  0.00     0.027 C 
ATOM     24  H   UNL A   1      33.169  22.486  21.565  1.00  0.00     0.161 HD
ATOM     25  C   UNL A   1      30.704  24.329  26.499  1.00  0.00     0.004 C 
ATOM     26  C   UNL A   1      32.540  22.921  27.064  1.00  0.00     0.008 C 
ATOM     27  C   UNL A   1      31.637  22.150  26.088  1.00  0.00    -0.005 C 
ATOM     28  C   UNL A   1      30.296  22.845  26.419  1.00  0.00     0.004 C 
BRANCH  14  29
ATOM     29  S   UNL A   1      31.337  28.629  22.898  1.00  0.00     0.263 S 
ATOM     30  O   UNL A   1      30.231  28.710  21.961  1.00  0.00    -0.201 OA
ATOM     31  O   UNL A   1      32.479  29.505  22.766  1.00  0.00    -0.201 OA
BRANCH  29  32
ATOM     32  N   UNL A   1      30.782  28.917  24.444  1.00  0.00    -0.261 N 
ATOM     33  H   UNL A   1      29.806  28.919  24.570  1.00  0.00     0.182 HD
BRANCH  32  34
ATOM     34  C   UNL A   1      31.551  29.153  25.570  1.00  0.00     0.183 A 
ATOM     35  C   UNL A   1      34.119  30.948  27.453  1.00  0.00     0.091 C 
ATOM     36  C   UNL A   1      33.037  30.155  26.842  1.00  0.00     0.135 A 
ATOM     37  C   UNL A   1      32.082  30.422  25.890  1.00  0.00     0.096 A 
ATOM     38  O   UNL A   1      32.952  28.847  27.196  1.00  0.00    -0.360 OA
ATOM     39  N   UNL A   1      32.007  28.218  26.405  1.00  0.00    -0.061 NA
ENDBRANCH  32  34
ENDBRANCH  29  32
ENDBRANCH  14  29
ENDBRANCH   8  13
ENDBRANCH   4   7
ENDBRANCH   2   3
ENDBRANCH   1   2
BRANCH   1  40
ATOM     40  C   UNL A   1      41.805  21.529  26.465  1.00  0.00     0.023 C 
BRANCH  40  41
ATOM     41  C   UNL A   1      42.282  22.936  26.793  1.00  0.00     0.116 C 
BRANCH  41  42
ATOM     42  N   UNL A   1      41.923  23.939  25.797  1.00  0.00    -0.352 N 
ATOM     43  C   UNL A   1      41.591  25.268  25.969  1.00  0.00     0.251 C 
ATOM     44  H   UNL A   1      41.916  23.623  24.866  1.00  0.00     0.163 HD
ATOM     45  O   UNL A   1      41.274  25.961  25.008  1.00  0.00    -0.269 OA
BRANCH  43  46
ATOM     46  C   UNL A   1      41.560  25.825  27.338  1.00  0.00     0.039 A 
ATOM     47  C   UNL A   1      40.414  25.699  28.121  1.00  0.00     0.014 A 
ATOM     48  C   UNL A   1      42.639  26.591  27.782  1.00  0.00     0.014 A 
ATOM     49  C   UNL A   1      40.246  26.538  29.215  1.00  0.00     0.010 A 
ATOM     50  C   UNL A   1      42.509  27.349  28.949  1.00  0.00     0.010 A 
ATOM     51  C   UNL A   1      41.282  27.391  29.631  1.00  0.00    -0.014 A 
BRANCH  51  52
ATOM     52  C   UNL A   1      41.053  28.350  30.746  1.00  0.00     0.031 A 
ATOM     53  C   UNL A   1      41.960  28.354  31.952  1.00  0.00     0.074 A 
ATOM     54  C   UNL A   1      40.060  29.256  30.648  1.00  0.00     0.049 A 
ATOM     55  N   UNL A   1      41.881  29.085  33.035  1.00  0.00    -0.248 NA
ATOM     56  C   UNL A   1      43.102  27.422  31.948  1.00  0.00     0.031 C 
ATOM     57  C   UNL A   1      39.152  29.386  29.507  1.00  0.00     0.029 A 
ATOM     58  N   UNL A   1      39.662  30.251  31.505  1.00  0.00    -0.354 N 
ATOM     59  C   UNL A   1      42.937  28.686  33.847  1.00  0.00     0.074 A 
ATOM     60  C   UNL A   1      43.632  27.630  33.145  1.00  0.00     0.031 C 
ATOM     61  C   UNL A   1      38.342  30.435  29.708  1.00  0.00     0.029 A 
ATOM     62  C   UNL A   1      38.605  30.994  31.031  1.00  0.00     0.049 A 
ATOM     63  H   UNL A   1      40.090  30.418  32.375  1.00  0.00     0.167 HD
ATOM     64  C   UNL A   1      43.300  29.165  35.061  1.00  0.00     0.031 A 
ATOM     65  C   UNL A   1      37.900  31.992  31.599  1.00  0.00     0.031 A 
ATOM     66  C   UNL A   1      42.616  30.237  35.737  1.00  0.00     0.049 A 
ATOM     67  C   UNL A   1      38.269  32.453  32.978  1.00  0.00     0.074 A 
ATOM     68  C   UNL A   1      42.923  30.806  36.960  1.00  0.00     0.029 A 
ATOM     69  N   UNL A   1      41.502  30.905  35.252  1.00  0.00    -0.354 N 
ATOM     70  N   UNL A   1      39.264  32.054  33.734  1.00  0.00    -0.248 NA
ATOM     71  C   UNL A   1      37.422  33.485  33.590  1.00  0.00     0.031 C 
ATOM     72  C   UNL A   1      41.953  31.767  37.248  1.00  0.00     0.029 A 
ATOM     73  C   UNL A   1      41.086  31.854  36.170  1.00  0.00     0.049 A 
ATOM     74  H   UNL A   1      41.070  30.730  34.384  1.00  0.00     0.167 HD
ATOM     75  C   UNL A   1      39.168  32.790  34.908  1.00  0.00     0.074 A 
ATOM     76  C   UNL A   1      38.029  33.674  34.756  1.00  0.00     0.031 C 
ATOM     77  C   UNL A   1      39.951  32.732  36.011  1.00  0.00     0.031 A 
BRANCH  64  78
ATOM     78  C   UNL A   1      44.484  28.547  35.762  1.00  0.00    -0.014 A 
ATOM     79  C   UNL A   1      44.271  27.610  36.792  1.00  0.00     0.010 A 
ATOM     80  C   UNL A   1      45.794  28.989  35.504  1.00  0.00     0.010 A 
ATOM     81  C   UNL A   1      45.338  27.151  37.570  1.00  0.00     0.020 A 
ATOM     82  C   UNL A   1      46.868  28.510  36.263  1.00  0.00     0.020 A 
ATOM     83  C   UNL A   1      46.629  27.612  37.307  1.00  0.00     0.054 A 
BRANCH  83  84
ATOM     84  S   UNL A   1      47.999  27.027  38.343  1.00  0.00     0.124 S 
ATOM     85  O   UNL A   1      48.938  26.510  37.353  1.00  0.00    -0.237 OA
ATOM     86  O   UNL A   1      48.416  28.242  39.039  1.00  0.00    -0.237 OA
ATOM     87  O   UNL A   1      47.373  26.018  39.197  1.00  0.00    -0.744 OA
ENDBRANCH  83  84
ENDBRANCH  64  78
BRANCH  65  88
ATOM     88  C   UNL A   1      36.772  32.597  30.838  1.00  0.00    -0.014 A 
ATOM     89  C   UNL A   1      37.019  33.609  29.888  1.00  0.00     0.010 A 
ATOM     90  C   UNL A   1      35.444  32.256  31.140  1.00  0.00     0.010 A 
ATOM     91  C   UNL A   1      35.963  34.321  29.317  1.00  0.00     0.020 A 
ATOM     92  C   UNL A   1      34.382  32.943  30.543  1.00  0.00     0.020 A 
ATOM     93  C   UNL A   1      34.650  33.995  29.664  1.00  0.00     0.054 A 
BRANCH  93  94
ATOM     94  S   UNL A   1      33.297  34.986  28.971  1.00  0.00     0.124 S 
ATOM     95  O   UNL A   1      34.021  36.110  28.384  1.00  0.00    -0.237 OA
ATOM     96  O   UNL A   1      32.683  34.066  28.017  1.00  0.00    -0.237 OA
ATOM     97  O   UNL A   1      32.478  35.309  30.137  1.00  0.00    -0.744 OA
ENDBRANCH  93  94
ENDBRANCH  65  88
BRANCH  77  98
ATOM     98  C   UNL A   1      39.627  33.633  37.172  1.00  0.00    -0.014 A 
ATOM     99  C   UNL A   1      40.228  34.904  37.255  1.00  0.00     0.010 A 
ATOM    100  C   UNL A   1      38.883  33.152  38.262  1.00  0.00     0.010 A 
ATOM    101  C   UNL A   1      40.144  35.650  38.433  1.00  0.00     0.020 A 
ATOM    102  C   UNL A   1      38.773  33.909  39.432  1.00  0.00     0.020 A 
ATOM    103  C   UNL A   1      39.433  35.137  39.521  1.00  0.00     0.054 A 
BRANCH 103 104
ATOM    104  S   UNL A   1      39.416  36.078  41.072  1.00  0.00     0.124 S 
ATOM    105  O   UNL A   1      38.088  36.685  41.049  1.00  0.00    -0.237 OA
ATOM    106  O   UNL A   1      39.616  35.039  42.079  1.00  0.00    -0.237 OA
ATOM    107  O   UNL A   1      40.531  37.011  40.920  1.00  0.00    -0.744 OA
ENDBRANCH 103 104
ENDBRANCH  77  98
ENDBRANCH  51  52
ENDBRANCH  43  46
ENDBRANCH  41  42
ENDBRANCH  40  41
ENDBRANCH   1  40
TORSDOF 18
ENDMDL
MODEL 3
REMARK VINA RESULT:     -12.8      6.712     13.593
REMARK SMILES Cc1cc(NS(=O)(=O)c2ccc3c(c2)[C@H]2[C@H]4CC[C@H](C4)[C@@H]2[C@H](c2cccc(C(=O)NCCCCNC(=O)c4ccc(-c5c6nc(c(-c7ccc(S(=O)(=O)[O-])cc7)c7ccc([nH]7)c(-c7ccc(S(=O)(=O)[O-])cc7)c7nc(c(-c8ccc(S(=O)(=O)[O-])cc8)c8ccc5[nH]8)C=C7)C=C6)cc4)c2)N3)no1
REMARK SMILES IDX 32 1 31 2 30 3 28 4 29 5 27 7 23 8 24 9 98 10 25 11 26 12
REMARK SMILES IDX 22 13 9 14 10 15 14 16 11 17 13 18 12 19 15 20 99 21 16 22
REMARK SMILES IDX 21 23 17 25 20 26 19 27 18 28 6 29 7 30 8 31 5 32 4 34 1 35
REMARK SMILES IDX 2 36 3 37 101 38 100 39 33 40 34 41 35 42 36 43 37 45 38 46
REMARK SMILES IDX 39 47 97 48 40 49 96 50 41 51 42 52 43 53 90 54 44 55 95 56
REMARK SMILES IDX 89 57 91 58 45 59 94 60 88 61 87 62 46 64 76 65 57 66 75 67
REMARK SMILES IDX 58 68 61 69 74 70 92 71 59 72 60 73 73 75 93 76 62 77 47 78
REMARK SMILES IDX 48 79 56 80 49 81 55 82 50 83 51 84 52 85 53 86 54 87 77 88
REMARK SMILES IDX 78 89 86 90 79 91 85 92 80 93 81 94 82 95 83 96 84 97 63 98
REMARK SMILES IDX 64 99 72 100 65 101 71 102 66 103 67 104 68 105 69 106
REMARK SMILES IDX 70 107
REMARK H PARENT 30 6 99 24 5 33 35 44 91 63 61 74
REMARK Flexibility Score: inf
ROOT
ATOM      1  C   UNL A   1      47.113  27.463  25.034  1.00  0.00     0.023 C 
ENDROOT
BRANCH   1   2
ATOM      2  C   UNL A   1      45.977  26.455  25.033  1.00  0.00     0.116 C 
BRANCH   2   3
ATOM      3  N   UNL A   1      46.353  25.051  24.975  1.00  0.00    -0.352 N 
ATOM      4  C   UNL A   1      45.985  24.007  25.804  1.00  0.00     0.251 C 
ATOM      5  O   UNL A   1      46.395  22.874  25.558  1.00  0.00    -0.269 OA
ATOM      6  H   UNL A   1      46.959  24.808  24.237  1.00  0.00     0.163 HD
BRANCH   4   7
ATOM      7  C   UNL A   1      45.173  24.235  27.032  1.00  0.00     0.040 A 
ATOM      8  C   UNL A   1      43.989  25.777  28.494  1.00  0.00    -0.025 A 
ATOM      9  C   UNL A   1      44.011  24.799  29.498  1.00  0.00     0.006 A 
ATOM     10  C   UNL A   1      44.414  25.391  27.219  1.00  0.00     0.019 A 
ATOM     11  C   UNL A   1      44.626  23.562  29.284  1.00  0.00     0.001 A 
ATOM     12  C   UNL A   1      45.253  23.301  28.068  1.00  0.00     0.014 A 
BRANCH   8  13
ATOM     13  C   UNL A   1      43.636  27.232  28.798  1.00  0.00     0.113 C 
ATOM     14  C   UNL A   1      39.351  28.441  31.462  1.00  0.00     0.088 A 
ATOM     15  C   UNL A   1      40.434  28.611  32.337  1.00  0.00     0.024 A 
ATOM     16  C   UNL A   1      39.563  27.830  30.233  1.00  0.00     0.028 A 
ATOM     17  C   UNL A   1      41.733  28.227  31.953  1.00  0.00     0.027 A 
ATOM     18  C   UNL A   1      40.868  27.540  29.818  1.00  0.00    -0.020 A 
ATOM     19  C   UNL A   1      41.980  27.716  30.677  1.00  0.00     0.038 A 
ATOM     20  C   UNL A   1      41.166  27.063  28.436  1.00  0.00     0.030 C 
ATOM     21  N   UNL A   1      43.283  27.451  30.236  1.00  0.00    -0.378 N 
ATOM     22  C   UNL A   1      40.256  27.259  27.208  1.00  0.00    -0.003 C 
ATOM     23  C   UNL A   1      42.452  27.798  27.994  1.00  0.00     0.027 C 
ATOM     24  H   UNL A   1      44.003  27.405  30.906  1.00  0.00     0.161 HD
ATOM     25  C   UNL A   1      40.089  28.742  26.817  1.00  0.00     0.004 C 
ATOM     26  C   UNL A   1      41.239  26.772  26.132  1.00  0.00     0.008 C 
ATOM     27  C   UNL A   1      42.292  27.844  26.457  1.00  0.00    -0.005 C 
ATOM     28  C   UNL A   1      41.438  29.100  26.163  1.00  0.00     0.004 C 
BRANCH  14  29
ATOM     29  S   UNL A   1      37.770  29.119  31.950  1.00  0.00     0.263 S 
ATOM     30  O   UNL A   1      37.314  28.367  33.104  1.00  0.00    -0.201 OA
ATOM     31  O   UNL A   1      36.976  29.170  30.743  1.00  0.00    -0.201 OA
BRANCH  29  32
ATOM     32  N   UNL A   1      37.971  30.721  32.370  1.00  0.00    -0.261 N 
ATOM     33  H   UNL A   1      37.875  30.942  33.325  1.00  0.00     0.182 HD
BRANCH  32  34
ATOM     34  C   UNL A   1      38.257  31.771  31.518  1.00  0.00     0.183 A 
ATOM     35  C   UNL A   1      40.500  34.217  29.986  1.00  0.00     0.091 C 
ATOM     36  C   UNL A   1      39.484  33.272  30.482  1.00  0.00     0.135 A 
ATOM     37  C   UNL A   1      39.532  31.981  30.949  1.00  0.00     0.096 A 
ATOM     38  O   UNL A   1      38.212  33.735  30.597  1.00  0.00    -0.360 OA
ATOM     39  N   UNL A   1      37.435  32.786  31.237  1.00  0.00    -0.061 NA
ENDBRANCH  32  34
ENDBRANCH  29  32
ENDBRANCH  14  29
ENDBRANCH   8  13
ENDBRANCH   4   7
ENDBRANCH   2   3
ENDBRANCH   1   2
BRANCH   1  40
ATOM     40  C   UNL A   1      48.419  27.006  24.409  1.00  0.00     0.023 C 
BRANCH  40  41
ATOM     41  C   UNL A   1      49.685  27.443  25.132  1.00  0.00     0.116 C 
BRANCH  41  42
ATOM     42  N   UNL A   1      50.653  26.374  25.346  1.00  0.00    -0.352 N 
ATOM     43  C   UNL A   1      50.867  25.594  26.464  1.00  0.00     0.251 C 
ATOM     44  H   UNL A   1      51.240  26.179  24.580  1.00  0.00     0.163 HD
ATOM     45  O   UNL A   1      51.764  24.758  26.479  1.00  0.00    -0.269 OA
BRANCH  43  46
ATOM     46  C   UNL A   1      50.041  25.829  27.668  1.00  0.00     0.039 A 
ATOM     47  C   UNL A   1      48.743  25.326  27.736  1.00  0.00     0.014 A 
ATOM     48  C   UNL A   1      50.528  26.670  28.670  1.00  0.00     0.014 A 
ATOM     49  C   UNL A   1      47.856  25.865  28.659  1.00  0.00     0.010 A 
ATOM     50  C   UNL A   1      49.660  27.122  29.668  1.00  0.00     0.010 A 
ATOM     51  C   UNL A   1      48.296  26.787  29.624  1.00  0.00    -0.014 A 
BRANCH  51  52
ATOM     52  C   UNL A   1      47.317  27.424  30.545  1.00  0.00     0.031 A 
ATOM     53  C   UNL A   1      46.926  26.749  31.836  1.00  0.00     0.074 A 
ATOM     54  C   UNL A   1      46.818  28.641  30.244  1.00  0.00     0.049 A 
ATOM     55  N   UNL A   1      46.055  27.135  32.734  1.00  0.00    -0.248 NA
ATOM     56  C   UNL A   1      47.596  25.479  32.169  1.00  0.00     0.031 C 
ATOM     57  C   UNL A   1      47.162  29.417  29.052  1.00  0.00     0.029 A 
ATOM     58  N   UNL A   1      45.939  29.445  30.923  1.00  0.00    -0.354 N 
ATOM     59  C   UNL A   1      46.051  26.150  33.715  1.00  0.00     0.074 A 
ATOM     60  C   UNL A   1      46.989  25.133  33.296  1.00  0.00     0.031 C 
ATOM     61  C   UNL A   1      46.547  30.606  29.111  1.00  0.00     0.029 A 
ATOM     62  C   UNL A   1      45.690  30.642  30.292  1.00  0.00     0.049 A 
ATOM     63  H   UNL A   1      45.525  29.192  31.779  1.00  0.00     0.167 HD
ATOM     64  C   UNL A   1      45.338  26.106  34.866  1.00  0.00     0.031 A 
ATOM     65  C   UNL A   1      44.849  31.648  30.603  1.00  0.00     0.031 A 
ATOM     66  C   UNL A   1      44.429  27.140  35.287  1.00  0.00     0.049 A 
ATOM     67  C   UNL A   1      44.010  31.541  31.842  1.00  0.00     0.074 A 
ATOM     68  C   UNL A   1      43.678  27.194  36.448  1.00  0.00     0.029 A 
ATOM     69  N   UNL A   1      44.150  28.297  34.576  1.00  0.00    -0.354 N 
ATOM     70  N   UNL A   1      44.012  30.596  32.751  1.00  0.00    -0.248 NA
ATOM     71  C   UNL A   1      43.048  32.622  32.096  1.00  0.00     0.031 C 
ATOM     72  C   UNL A   1      42.892  28.346  36.405  1.00  0.00     0.029 A 
ATOM     73  C   UNL A   1      43.210  29.052  35.255  1.00  0.00     0.049 A 
ATOM     74  H   UNL A   1      44.560  28.545  33.714  1.00  0.00     0.167 HD
ATOM     75  C   UNL A   1      43.059  30.970  33.690  1.00  0.00     0.074 A 
ATOM     76  C   UNL A   1      42.512  32.238  33.250  1.00  0.00     0.031 C 
ATOM     77  C   UNL A   1      42.671  30.315  34.810  1.00  0.00     0.031 A 
BRANCH  64  78
ATOM     78  C   UNL A   1      45.491  24.908  35.770  1.00  0.00    -0.014 A 
ATOM     79  C   UNL A   1      46.424  24.945  36.824  1.00  0.00     0.010 A 
ATOM     80  C   UNL A   1      44.820  23.702  35.499  1.00  0.00     0.010 A 
ATOM     81  C   UNL A   1      46.707  23.796  37.568  1.00  0.00     0.020 A 
ATOM     82  C   UNL A   1      45.080  22.557  36.260  1.00  0.00     0.020 A 
ATOM     83  C   UNL A   1      46.040  22.606  37.274  1.00  0.00     0.054 A 
BRANCH  83  84
ATOM     84  S   UNL A   1      46.438  21.117  38.231  1.00  0.00     0.124 S 
ATOM     85  O   UNL A   1      45.807  21.397  39.517  1.00  0.00    -0.237 OA
ATOM     86  O   UNL A   1      45.822  20.054  37.440  1.00  0.00    -0.237 OA
ATOM     87  O   UNL A   1      47.900  21.100  38.243  1.00  0.00    -0.744 OA
ENDBRANCH  83  84
ENDBRANCH  64  78
BRANCH  65  88
ATOM     88  C   UNL A   1      44.778  32.829  29.698  1.00  0.00    -0.014 A 
ATOM     89  C   UNL A   1      45.564  33.971  29.958  1.00  0.00     0.010 A 
ATOM     90  C   UNL A   1      43.844  32.869  28.651  1.00  0.00     0.010 A 
ATOM     91  C   UNL A   1      45.360  35.151  29.241  1.00  0.00     0.020 A 
ATOM     92  C   UNL A   1      43.662  34.039  27.906  1.00  0.00     0.020 A 
ATOM     93  C   UNL A   1      44.396  35.182  28.231  1.00  0.00     0.054 A 
BRANCH  93  94
ATOM     94  S   UNL A   1      44.093  36.749  27.367  1.00  0.00     0.124 S 
ATOM     95  O   UNL A   1      43.001  36.387  26.468  1.00  0.00    -0.237 OA
ATOM     96  O   UNL A   1      43.738  37.652  28.458  1.00  0.00    -0.237 OA
ATOM     97  O   UNL A   1      45.371  37.032  26.717  1.00  0.00    -0.744 OA
ENDBRANCH  93  94
ENDBRANCH  65  88
BRANCH  77  98
ATOM     98  C   UNL A   1      41.594  30.928  35.665  1.00  0.00    -0.014 A 
ATOM     99  C   UNL A   1      40.242  30.677  35.366  1.00  0.00     0.010 A 
ATOM    100  C   UNL A   1      41.917  31.890  36.637  1.00  0.00     0.010 A 
ATOM    101  C   UNL A   1      39.232  31.425  35.977  1.00  0.00     0.020 A 
ATOM    102  C   UNL A   1      40.907  32.620  37.272  1.00  0.00     0.020 A 
ATOM    103  C   UNL A   1      39.575  32.405  36.912  1.00  0.00     0.054 A 
BRANCH 103 104
ATOM    104  S   UNL A   1      38.256  33.428  37.624  1.00  0.00     0.124 S 
ATOM    105  O   UNL A   1      38.397  34.675  36.877  1.00  0.00    -0.237 OA
ATOM    106  O   UNL A   1      37.054  32.651  37.330  1.00  0.00    -0.237 OA
ATOM    107  O   UNL A   1      38.608  33.506  39.040  1.00  0.00    -0.744 OA
ENDBRANCH 103 104
ENDBRANCH  77  98
ENDBRANCH  51  52
ENDBRANCH  43  46
ENDBRANCH  41  42
ENDBRANCH  40  41
ENDBRANCH   1  40
TORSDOF 18
ENDMDL
