MODEL 1
REMARK VINA RESULT:     -11.4      0.000      0.000
REMARK SMILES O=C(NCCCCNC(=O)c1cc(-c2ccc(Cl)cc2)nc2c3c(C4CC4)cc(C(F)(F)F)nc3nn12)c1ccc(-c2c3nc(c(-c4ccc(S(=O)(=O)[O-])cc4)c4ccc([nH]4)c(-c4ccc(S(=O)(=O)[O-])cc4)c4nc(c(-c5ccc(S(=O)(=O)[O-])cc5)c5ccc2[nH]5)C=C4)C=C3)cc1
REMARK SMILES IDX 4 1 3 2 1 3 2 4 38 6 39 7 97 8 40 9 96 10 41 11 42 12 43 13
REMARK SMILES IDX 90 14 44 15 95 16 89 17 91 18 45 19 94 20 88 21 87 22 46 24
REMARK SMILES IDX 76 25 57 26 75 27 58 28 61 29 74 30 92 31 59 32 60 33 73 35
REMARK SMILES IDX 93 36 62 37 47 38 48 39 56 40 49 41 55 42 50 43 51 44 52 45
REMARK SMILES IDX 53 46 54 47 77 48 78 49 86 50 79 51 85 52 80 53 81 54 82 55
REMARK SMILES IDX 83 56 84 57 63 58 64 59 72 60 65 61 71 62 66 63 67 64 68 65
REMARK SMILES IDX 69 66 70 67 5 68 6 69 7 70 8 71 9 72 10 74 11 75 12 76 37 77
REMARK SMILES IDX 13 78 22 79 36 80 21 81 23 82 35 83 24 84 34 85 28 86 29 87
REMARK SMILES IDX 14 88 15 89 20 90 16 91 19 92 17 93 18 94 25 95 26 96 27 97
REMARK SMILES IDX 30 98 31 99 32 100 33 101
REMARK H PARENT 3 5 91 23 61 34 8 73
REMARK Flexibility Score: inf
ROOT
ATOM      1  C   UNL A   1      43.369  26.390  36.356  1.00  0.00     0.116 C 
ENDROOT
BRANCH   1   2
ATOM      2  N   UNL A   1      43.814  25.015  36.491  1.00  0.00    -0.352 N 
ATOM      3  O   UNL A   1      44.631  23.047  35.711  1.00  0.00    -0.269 OA
ATOM      4  C   UNL A   1      44.393  24.228  35.521  1.00  0.00     0.251 C 
ATOM      5  H   UNL A   1      43.689  24.600  37.375  1.00  0.00     0.163 HD
BRANCH   4   6
ATOM      6  C   UNL A   1      44.701  24.865  34.228  1.00  0.00     0.039 A 
ATOM      7  C   UNL A   1      45.586  25.948  34.186  1.00  0.00     0.014 A 
ATOM      8  C   UNL A   1      44.028  24.433  33.087  1.00  0.00     0.014 A 
ATOM      9  C   UNL A   1      45.757  26.645  32.996  1.00  0.00     0.010 A 
ATOM     10  C   UNL A   1      44.217  25.123  31.892  1.00  0.00     0.010 A 
ATOM     11  C   UNL A   1      45.078  26.232  31.841  1.00  0.00    -0.014 A 
BRANCH  11  12
ATOM     12  C   UNL A   1      45.399  26.902  30.571  1.00  0.00     0.031 A 
ATOM     13  C   UNL A   1      45.361  26.023  29.371  1.00  0.00     0.074 A 
ATOM     14  C   UNL A   1      45.252  28.228  30.373  1.00  0.00     0.049 A 
ATOM     15  N   UNL A   1      44.249  25.753  28.755  1.00  0.00    -0.248 NA
ATOM     16  C   UNL A   1      46.493  25.196  28.963  1.00  0.00     0.031 C 
ATOM     17  C   UNL A   1      44.336  29.085  31.132  1.00  0.00     0.029 A 
ATOM     18  N   UNL A   1      45.688  29.023  29.342  1.00  0.00    -0.354 N 
ATOM     19  C   UNL A   1      44.499  24.671  27.938  1.00  0.00     0.074 A 
ATOM     20  C   UNL A   1      45.910  24.380  28.072  1.00  0.00     0.031 C 
ATOM     21  C   UNL A   1      44.126  30.217  30.425  1.00  0.00     0.029 A 
ATOM     22  C   UNL A   1      45.018  30.239  29.272  1.00  0.00     0.049 A 
ATOM     23  H   UNL A   1      46.401  28.759  28.717  1.00  0.00     0.167 HD
ATOM     24  C   UNL A   1      43.528  24.038  27.231  1.00  0.00     0.031 A 
ATOM     25  C   UNL A   1      44.812  30.961  28.139  1.00  0.00     0.031 A 
ATOM     26  C   UNL A   1      42.206  24.569  27.367  1.00  0.00     0.049 A 
ATOM     27  C   UNL A   1      43.901  30.048  27.356  1.00  0.00     0.074 A 
ATOM     28  C   UNL A   1      41.103  24.331  28.160  1.00  0.00     0.029 A 
ATOM     29  N   UNL A   1      41.876  25.683  26.633  1.00  0.00    -0.354 N 
ATOM     30  N   UNL A   1      42.614  29.903  27.529  1.00  0.00    -0.248 NA
ATOM     31  C   UNL A   1      44.523  29.008  26.533  1.00  0.00     0.031 C 
ATOM     32  C   UNL A   1      40.366  25.557  28.174  1.00  0.00     0.029 A 
ATOM     33  C   UNL A   1      41.099  26.483  27.434  1.00  0.00     0.049 A 
ATOM     34  H   UNL A   1      42.147  25.873  25.705  1.00  0.00     0.167 HD
ATOM     35  C   UNL A   1      42.323  28.608  27.098  1.00  0.00     0.074 A 
ATOM     36  C   UNL A   1      43.534  28.126  26.462  1.00  0.00     0.031 C 
ATOM     37  C   UNL A   1      41.193  27.930  27.450  1.00  0.00     0.031 A 
BRANCH  24  38
ATOM     38  C   UNL A   1      43.816  22.932  26.301  1.00  0.00    -0.014 A 
ATOM     39  C   UNL A   1      43.158  21.707  26.493  1.00  0.00     0.010 A 
ATOM     40  C   UNL A   1      44.813  23.042  25.321  1.00  0.00     0.010 A 
ATOM     41  C   UNL A   1      43.515  20.591  25.740  1.00  0.00     0.020 A 
ATOM     42  C   UNL A   1      45.171  21.925  24.558  1.00  0.00     0.020 A 
ATOM     43  C   UNL A   1      44.528  20.704  24.784  1.00  0.00     0.054 A 
BRANCH  43  44
ATOM     44  S   UNL A   1      45.026  19.207  23.891  1.00  0.00     0.124 S 
ATOM     45  O   UNL A   1      44.320  18.158  24.621  1.00  0.00    -0.237 OA
ATOM     46  O   UNL A   1      44.532  19.477  22.544  1.00  0.00    -0.237 OA
ATOM     47  O   UNL A   1      46.481  19.189  24.028  1.00  0.00    -0.744 OA
ENDBRANCH  43  44
ENDBRANCH  24  38
BRANCH  25  48
ATOM     48  C   UNL A   1      46.049  31.565  27.534  1.00  0.00    -0.014 A 
ATOM     49  C   UNL A   1      45.906  32.715  26.723  1.00  0.00     0.010 A 
ATOM     50  C   UNL A   1      47.348  31.056  27.706  1.00  0.00     0.010 A 
ATOM     51  C   UNL A   1      47.015  33.400  26.219  1.00  0.00     0.020 A 
ATOM     52  C   UNL A   1      48.470  31.750  27.224  1.00  0.00     0.020 A 
ATOM     53  C   UNL A   1      48.295  32.932  26.505  1.00  0.00     0.054 A 
BRANCH  53  54
ATOM     54  S   UNL A   1      49.715  33.912  25.950  1.00  0.00     0.124 S 
ATOM     55  O   UNL A   1      50.181  34.521  27.193  1.00  0.00    -0.237 OA
ATOM     56  O   UNL A   1      50.589  32.889  25.383  1.00  0.00    -0.237 OA
ATOM     57  O   UNL A   1      49.136  34.840  24.981  1.00  0.00    -0.744 OA
ENDBRANCH  53  54
ENDBRANCH  25  48
BRANCH  37  58
ATOM     58  C   UNL A   1      40.118  28.719  28.130  1.00  0.00    -0.014 A 
ATOM     59  C   UNL A   1      39.110  29.328  27.367  1.00  0.00     0.010 A 
ATOM     60  C   UNL A   1      40.047  28.781  29.534  1.00  0.00     0.010 A 
ATOM     61  C   UNL A   1      38.020  29.939  27.994  1.00  0.00     0.020 A 
ATOM     62  C   UNL A   1      38.953  29.380  30.167  1.00  0.00     0.020 A 
ATOM     63  C   UNL A   1      37.935  29.938  29.390  1.00  0.00     0.054 A 
BRANCH  63  64
ATOM     64  S   UNL A   1      36.457  30.641  30.169  1.00  0.00     0.124 S 
ATOM     65  O   UNL A   1      35.678  31.105  29.025  1.00  0.00    -0.237 OA
ATOM     66  O   UNL A   1      35.903  29.491  30.881  1.00  0.00    -0.237 OA
ATOM     67  O   UNL A   1      36.983  31.700  31.030  1.00  0.00    -0.744 OA
ENDBRANCH  63  64
ENDBRANCH  37  58
ENDBRANCH  11  12
ENDBRANCH   4   6
ENDBRANCH   1   2
BRANCH   1  68
ATOM     68  C   UNL A   1      41.980  26.485  35.732  1.00  0.00     0.023 C 
BRANCH  68  69
ATOM     69  C   UNL A   1      41.981  26.914  34.265  1.00  0.00     0.023 C 
BRANCH  69  70
ATOM     70  C   UNL A   1      41.294  28.247  33.980  1.00  0.00     0.116 C 
BRANCH  70  71
ATOM     71  N   UNL A   1      39.884  28.110  33.644  1.00  0.00    -0.351 N 
ATOM     72  C   UNL A   1      38.928  29.074  33.546  1.00  0.00     0.270 C 
ATOM     73  H   UNL A   1      39.581  27.192  33.462  1.00  0.00     0.163 HD
ATOM     74  O   UNL A   1      37.781  28.784  33.211  1.00  0.00    -0.268 OA
BRANCH  72  75
ATOM     75  C   UNL A   1      39.261  30.445  33.958  1.00  0.00     0.134 A 
ATOM     76  C   UNL A   1      39.869  31.187  33.022  1.00  0.00     0.063 A 
ATOM     77  N   UNL A   1      38.953  30.972  35.206  1.00  0.00    -0.207 N 
ATOM     78  C   UNL A   1      40.185  32.582  33.431  1.00  0.00     0.075 A 
ATOM     79  C   UNL A   1      39.242  32.321  35.494  1.00  0.00     0.166 A 
ATOM     80  N   UNL A   1      38.335  30.348  36.240  1.00  0.00    -0.145 NA
ATOM     81  N   UNL A   1      39.913  33.111  34.589  1.00  0.00    -0.228 NA
ATOM     82  C   UNL A   1      38.660  32.559  36.724  1.00  0.00     0.069 A 
ATOM     83  C   UNL A   1      38.104  31.308  37.121  1.00  0.00     0.184 A 
ATOM     84  C   UNL A   1      38.585  33.768  37.433  1.00  0.00    -0.028 A 
ATOM     85  N   UNL A   1      37.409  31.148  38.271  1.00  0.00    -0.222 NA
ATOM     86  C   UNL A   1      37.841  33.562  38.617  1.00  0.00     0.038 A 
ATOM     87  C   UNL A   1      37.289  32.302  38.996  1.00  0.00     0.147 A 
BRANCH  78  88
ATOM     88  C   UNL A   1      40.889  33.368  32.396  1.00  0.00     0.000 A 
ATOM     89  C   UNL A   1      42.273  33.531  32.495  1.00  0.00     0.012 A 
ATOM     90  C   UNL A   1      40.185  33.888  31.303  1.00  0.00     0.012 A 
ATOM     91  C   UNL A   1      42.961  34.196  31.478  1.00  0.00     0.021 A 
ATOM     92  C   UNL A   1      40.876  34.560  30.293  1.00  0.00     0.021 A 
ATOM     93  C   UNL A   1      42.261  34.705  30.381  1.00  0.00     0.041 A 
ATOM     94  Cl  UNL A   1      43.116  35.514  29.127  1.00  0.00    -0.084 Cl
ENDBRANCH  78  88
BRANCH  84  95
ATOM     95  C   UNL A   1      39.230  35.039  36.977  1.00  0.00     0.020 C 
ATOM     96  C   UNL A   1      39.651  36.130  37.931  1.00  0.00     0.009 C 
ATOM     97  C   UNL A   1      40.692  35.254  37.300  1.00  0.00     0.009 C 
ENDBRANCH  84  95
BRANCH  87  98
ATOM     98  C   UNL A   1      36.497  32.216  40.298  1.00  0.00     0.433 C 
ATOM     99  F   UNL A   1      35.889  33.391  40.630  1.00  0.00    -0.165 F 
ATOM    100  F   UNL A   1      35.514  31.272  40.267  1.00  0.00    -0.165 F 
ATOM    101  F   UNL A   1      37.270  31.894  41.380  1.00  0.00    -0.165 F 
ENDBRANCH  87  98
ENDBRANCH  72  75
ENDBRANCH  70  71
ENDBRANCH  69  70
ENDBRANCH  68  69
ENDBRANCH   1  68
TORSDOF 17
ENDMDL
MODEL 2
REMARK VINA RESULT:     -11.3      3.341      4.694
REMARK SMILES O=C(NCCCCNC(=O)c1cc(-c2ccc(Cl)cc2)nc2c3c(C4CC4)cc(C(F)(F)F)nc3nn12)c1ccc(-c2c3nc(c(-c4ccc(S(=O)(=O)[O-])cc4)c4ccc([nH]4)c(-c4ccc(S(=O)(=O)[O-])cc4)c4nc(c(-c5ccc(S(=O)(=O)[O-])cc5)c5ccc2[nH]5)C=C4)C=C3)cc1
REMARK SMILES IDX 4 1 3 2 1 3 2 4 38 6 39 7 97 8 40 9 96 10 41 11 42 12 43 13
REMARK SMILES IDX 90 14 44 15 95 16 89 17 91 18 45 19 94 20 88 21 87 22 46 24
REMARK SMILES IDX 76 25 57 26 75 27 58 28 61 29 74 30 92 31 59 32 60 33 73 35
REMARK SMILES IDX 93 36 62 37 47 38 48 39 56 40 49 41 55 42 50 43 51 44 52 45
REMARK SMILES IDX 53 46 54 47 77 48 78 49 86 50 79 51 85 52 80 53 81 54 82 55
REMARK SMILES IDX 83 56 84 57 63 58 64 59 72 60 65 61 71 62 66 63 67 64 68 65
REMARK SMILES IDX 69 66 70 67 5 68 6 69 7 70 8 71 9 72 10 74 11 75 12 76 37 77
REMARK SMILES IDX 13 78 22 79 36 80 21 81 23 82 35 83 24 84 34 85 28 86 29 87
REMARK SMILES IDX 14 88 15 89 20 90 16 91 19 92 17 93 18 94 25 95 26 96 27 97
REMARK SMILES IDX 30 98 31 99 32 100 33 101
REMARK H PARENT 3 5 91 23 61 34 8 73
REMARK Flexibility Score: inf
ROOT
ATOM      1  C   UNL A   1      41.826  24.731  35.598  1.00  0.00     0.116 C 
ENDROOT
BRANCH   1   2
ATOM      2  N   UNL A   1      42.951  24.025  36.183  1.00  0.00    -0.352 N 
ATOM      3  O   UNL A   1      45.046  23.153  36.169  1.00  0.00    -0.269 OA
ATOM      4  C   UNL A   1      44.205  23.859  35.638  1.00  0.00     0.251 C 
ATOM      5  H   UNL A   1      42.802  23.621  37.069  1.00  0.00     0.163 HD
BRANCH   4   6
ATOM      6  C   UNL A   1      44.489  24.556  34.371  1.00  0.00     0.039 A 
ATOM      7  C   UNL A   1      45.113  25.809  34.397  1.00  0.00     0.014 A 
ATOM      8  C   UNL A   1      44.044  23.993  33.177  1.00  0.00     0.014 A 
ATOM      9  C   UNL A   1      45.241  26.533  33.219  1.00  0.00     0.010 A 
ATOM     10  C   UNL A   1      44.192  24.714  31.995  1.00  0.00     0.010 A 
ATOM     11  C   UNL A   1      44.787  25.987  32.010  1.00  0.00    -0.014 A 
BRANCH  11  12
ATOM     12  C   UNL A   1      45.075  26.719  30.767  1.00  0.00     0.031 A 
ATOM     13  C   UNL A   1      45.095  25.883  29.537  1.00  0.00     0.074 A 
ATOM     14  C   UNL A   1      44.851  28.040  30.614  1.00  0.00     0.049 A 
ATOM     15  N   UNL A   1      44.004  25.569  28.903  1.00  0.00    -0.248 NA
ATOM     16  C   UNL A   1      46.276  25.138  29.108  1.00  0.00     0.031 C 
ATOM     17  C   UNL A   1      43.882  28.815  31.396  1.00  0.00     0.029 A 
ATOM     18  N   UNL A   1      45.245  28.896  29.615  1.00  0.00    -0.354 N 
ATOM     19  C   UNL A   1      44.322  24.534  28.050  1.00  0.00     0.074 A 
ATOM     20  C   UNL A   1      45.748  24.322  28.185  1.00  0.00     0.031 C 
ATOM     21  C   UNL A   1      43.609  29.956  30.727  1.00  0.00     0.029 A 
ATOM     22  C   UNL A   1      44.504  30.072  29.583  1.00  0.00     0.049 A 
ATOM     23  H   UNL A   1      45.975  28.697  28.986  1.00  0.00     0.167 HD
ATOM     24  C   UNL A   1      43.395  23.869  27.315  1.00  0.00     0.031 A 
ATOM     25  C   UNL A   1      44.262  30.820  28.474  1.00  0.00     0.031 A 
ATOM     26  C   UNL A   1      42.043  24.317  27.459  1.00  0.00     0.049 A 
ATOM     27  C   UNL A   1      43.411  29.883  27.653  1.00  0.00     0.074 A 
ATOM     28  C   UNL A   1      40.951  23.987  28.235  1.00  0.00     0.029 A 
ATOM     29  N   UNL A   1      41.652  25.435  26.762  1.00  0.00    -0.354 N 
ATOM     30  N   UNL A   1      42.134  29.657  27.810  1.00  0.00    -0.248 NA
ATOM     31  C   UNL A   1      44.098  28.911  26.798  1.00  0.00     0.031 C 
ATOM     32  C   UNL A   1      40.143  25.166  28.286  1.00  0.00     0.029 A 
ATOM     33  C   UNL A   1      40.824  26.159  27.585  1.00  0.00     0.049 A 
ATOM     34  H   UNL A   1      41.916  25.673  25.844  1.00  0.00     0.167 HD
ATOM     35  C   UNL A   1      41.922  28.362  27.333  1.00  0.00     0.074 A 
ATOM     36  C   UNL A   1      43.163  27.975  26.690  1.00  0.00     0.031 C 
ATOM     37  C   UNL A   1      40.833  27.607  27.652  1.00  0.00     0.031 A 
BRANCH  24  38
ATOM     38  C   UNL A   1      43.753  22.816  26.349  1.00  0.00    -0.014 A 
ATOM     39  C   UNL A   1      43.076  21.588  26.416  1.00  0.00     0.010 A 
ATOM     40  C   UNL A   1      44.827  22.973  25.460  1.00  0.00     0.010 A 
ATOM     41  C   UNL A   1      43.489  20.513  25.632  1.00  0.00     0.020 A 
ATOM     42  C   UNL A   1      45.240  21.898  24.666  1.00  0.00     0.020 A 
ATOM     43  C   UNL A   1      44.576  20.672  24.769  1.00  0.00     0.054 A 
BRANCH  43  44
ATOM     44  S   UNL A   1      45.139  19.224  23.834  1.00  0.00     0.124 S 
ATOM     45  O   UNL A   1      44.521  19.436  22.528  1.00  0.00    -0.237 OA
ATOM     46  O   UNL A   1      46.589  19.379  23.877  1.00  0.00    -0.237 OA
ATOM     47  O   UNL A   1      44.610  18.094  24.595  1.00  0.00    -0.744 OA
ENDBRANCH  43  44
ENDBRANCH  24  38
BRANCH  25  48
ATOM     48  C   UNL A   1      45.465  31.517  27.900  1.00  0.00    -0.014 A 
ATOM     49  C   UNL A   1      45.475  32.931  27.883  1.00  0.00     0.010 A 
ATOM     50  C   UNL A   1      46.583  30.858  27.360  1.00  0.00     0.010 A 
ATOM     51  C   UNL A   1      46.600  33.651  27.471  1.00  0.00     0.020 A 
ATOM     52  C   UNL A   1      47.727  31.572  26.967  1.00  0.00     0.020 A 
ATOM     53  C   UNL A   1      47.736  32.964  27.051  1.00  0.00     0.054 A 
BRANCH  53  54
ATOM     54  S   UNL A   1      49.222  33.920  26.649  1.00  0.00     0.124 S 
ATOM     55  O   UNL A   1      48.851  35.268  27.071  1.00  0.00    -0.237 OA
ATOM     56  O   UNL A   1      50.238  33.262  27.466  1.00  0.00    -0.237 OA
ATOM     57  O   UNL A   1      49.371  33.737  25.207  1.00  0.00    -0.744 OA
ENDBRANCH  53  54
ENDBRANCH  25  48
BRANCH  37  58
ATOM     58  C   UNL A   1      39.709  28.307  28.351  1.00  0.00    -0.014 A 
ATOM     59  C   UNL A   1      39.618  28.258  29.751  1.00  0.00     0.010 A 
ATOM     60  C   UNL A   1      38.792  29.098  27.633  1.00  0.00     0.010 A 
ATOM     61  C   UNL A   1      38.667  29.028  30.425  1.00  0.00     0.020 A 
ATOM     62  C   UNL A   1      37.846  29.879  28.303  1.00  0.00     0.020 A 
ATOM     63  C   UNL A   1      37.804  29.854  29.699  1.00  0.00     0.054 A 
BRANCH  63  64
ATOM     64  S   UNL A   1      36.655  30.922  30.607  1.00  0.00     0.124 S 
ATOM     65  O   UNL A   1      37.504  32.040  31.010  1.00  0.00    -0.237 OA
ATOM     66  O   UNL A   1      35.649  31.232  29.593  1.00  0.00    -0.237 OA
ATOM     67  O   UNL A   1      36.182  30.079  31.704  1.00  0.00    -0.744 OA
ENDBRANCH  63  64
ENDBRANCH  37  58
ENDBRANCH  11  12
ENDBRANCH   4   6
ENDBRANCH   1   2
BRANCH   1  68
ATOM     68  C   UNL A   1      41.760  26.185  36.054  1.00  0.00     0.023 C 
BRANCH  68  69
ATOM     69  C   UNL A   1      41.582  27.190  34.917  1.00  0.00     0.023 C 
BRANCH  69  70
ATOM     70  C   UNL A   1      42.574  28.350  34.917  1.00  0.00     0.116 C 
BRANCH  70  71
ATOM     71  N   UNL A   1      42.599  29.088  36.173  1.00  0.00    -0.351 N 
ATOM     72  C   UNL A   1      42.267  30.386  36.412  1.00  0.00     0.270 C 
ATOM     73  H   UNL A   1      42.897  28.575  36.958  1.00  0.00     0.163 HD
ATOM     74  O   UNL A   1      42.311  30.843  37.552  1.00  0.00    -0.268 OA
BRANCH  72  75
ATOM     75  C   UNL A   1      41.967  31.262  35.270  1.00  0.00     0.134 A 
ATOM     76  C   UNL A   1      40.710  31.724  35.223  1.00  0.00     0.063 A 
ATOM     77  N   UNL A   1      42.904  31.626  34.311  1.00  0.00    -0.207 N 
ATOM     78  C   UNL A   1      40.413  32.629  34.080  1.00  0.00     0.075 A 
ATOM     79  C   UNL A   1      42.552  32.529  33.287  1.00  0.00     0.166 A 
ATOM     80  N   UNL A   1      44.204  31.247  34.235  1.00  0.00    -0.145 NA
ATOM     81  N   UNL A   1      41.263  32.993  33.163  1.00  0.00    -0.228 NA
ATOM     82  C   UNL A   1      43.735  32.805  32.629  1.00  0.00     0.069 A 
ATOM     83  C   UNL A   1      44.716  31.996  33.271  1.00  0.00     0.184 A 
ATOM     84  C   UNL A   1      43.957  33.709  31.578  1.00  0.00    -0.028 A 
ATOM     85  N   UNL A   1      46.025  32.019  32.927  1.00  0.00    -0.222 NA
ATOM     86  C   UNL A   1      45.333  33.714  31.257  1.00  0.00     0.038 A 
ATOM     87  C   UNL A   1      46.302  32.899  31.916  1.00  0.00     0.147 A 
BRANCH  78  88
ATOM     88  C   UNL A   1      39.011  33.095  34.030  1.00  0.00     0.000 A 
ATOM     89  C   UNL A   1      38.731  34.334  33.448  1.00  0.00     0.012 A 
ATOM     90  C   UNL A   1      37.978  32.278  34.506  1.00  0.00     0.012 A 
ATOM     91  C   UNL A   1      37.403  34.745  33.315  1.00  0.00     0.021 A 
ATOM     92  C   UNL A   1      36.653  32.699  34.379  1.00  0.00     0.021 A 
ATOM     93  C   UNL A   1      36.371  33.926  33.779  1.00  0.00     0.041 A 
ATOM     94  Cl  UNL A   1      34.737  34.436  33.603  1.00  0.00    -0.084 Cl
ENDBRANCH  78  88
BRANCH  84  95
ATOM     95  C   UNL A   1      42.870  34.498  30.918  1.00  0.00     0.020 C 
ATOM     96  C   UNL A   1      43.051  35.186  29.587  1.00  0.00     0.009 C 
ATOM     97  C   UNL A   1      42.234  33.932  29.668  1.00  0.00     0.009 C 
ENDBRANCH  84  95
BRANCH  87  98
ATOM     98  C   UNL A   1      47.761  33.006  31.479  1.00  0.00     0.433 C 
ATOM     99  F   UNL A   1      48.025  32.323  30.329  1.00  0.00    -0.165 F 
ATOM    100  F   UNL A   1      48.163  34.291  31.262  1.00  0.00    -0.165 F 
ATOM    101  F   UNL A   1      48.639  32.507  32.403  1.00  0.00    -0.165 F 
ENDBRANCH  87  98
ENDBRANCH  72  75
ENDBRANCH  70  71
ENDBRANCH  69  70
ENDBRANCH  68  69
ENDBRANCH   1  68
TORSDOF 17
ENDMDL
MODEL 3
REMARK VINA RESULT:     -11.3      4.658      7.297
REMARK SMILES O=C(NCCCCNC(=O)c1cc(-c2ccc(Cl)cc2)nc2c3c(C4CC4)cc(C(F)(F)F)nc3nn12)c1ccc(-c2c3nc(c(-c4ccc(S(=O)(=O)[O-])cc4)c4ccc([nH]4)c(-c4ccc(S(=O)(=O)[O-])cc4)c4nc(c(-c5ccc(S(=O)(=O)[O-])cc5)c5ccc2[nH]5)C=C4)C=C3)cc1
REMARK SMILES IDX 4 1 3 2 1 3 2 4 38 6 39 7 97 8 40 9 96 10 41 11 42 12 43 13
REMARK SMILES IDX 90 14 44 15 95 16 89 17 91 18 45 19 94 20 88 21 87 22 46 24
REMARK SMILES IDX 76 25 57 26 75 27 58 28 61 29 74 30 92 31 59 32 60 33 73 35
REMARK SMILES IDX 93 36 62 37 47 38 48 39 56 40 49 41 55 42 50 43 51 44 52 45
REMARK SMILES IDX 53 46 54 47 77 48 78 49 86 50 79 51 85 52 80 53 81 54 82 55
REMARK SMILES IDX 83 56 84 57 63 58 64 59 72 60 65 61 71 62 66 63 67 64 68 65
REMARK SMILES IDX 69 66 70 67 5 68 6 69 7 70 8 71 9 72 10 74 11 75 12 76 37 77
REMARK SMILES IDX 13 78 22 79 36 80 21 81 23 82 35 83 24 84 34 85 28 86 29 87
REMARK SMILES IDX 14 88 15 89 20 90 16 91 19 92 17 93 18 94 25 95 26 96 27 97
REMARK SMILES IDX 30 98 31 99 32 100 33 101
REMARK H PARENT 3 5 91 23 61 34 8 73
REMARK Flexibility Score: inf
ROOT
ATOM      1  C   UNL A   1      41.490  25.208  35.807  1.00  0.00     0.116 C 
ENDROOT
BRANCH   1   2
ATOM      2  N   UNL A   1      42.353  24.072  36.075  1.00  0.00    -0.352 N 
ATOM      3  O   UNL A   1      43.947  22.548  35.541  1.00  0.00    -0.269 OA
ATOM      4  C   UNL A   1      43.353  23.578  35.267  1.00  0.00     0.251 C 
ATOM      5  H   UNL A   1      42.208  23.604  36.928  1.00  0.00     0.163 HD
BRANCH   4   6
ATOM      6  C   UNL A   1      43.670  24.334  34.043  1.00  0.00     0.039 A 
ATOM      7  C   UNL A   1      44.052  23.645  32.886  1.00  0.00     0.014 A 
ATOM      8  C   UNL A   1      43.674  25.726  34.092  1.00  0.00     0.014 A 
ATOM      9  C   UNL A   1      44.499  24.359  31.781  1.00  0.00     0.010 A 
ATOM     10  C   UNL A   1      44.105  26.439  32.975  1.00  0.00     0.010 A 
ATOM     11  C   UNL A   1      44.521  25.760  31.818  1.00  0.00    -0.014 A 
BRANCH  11  12
ATOM     12  C   UNL A   1      44.859  26.480  30.580  1.00  0.00     0.031 A 
ATOM     13  C   UNL A   1      44.862  25.644  29.349  1.00  0.00     0.074 A 
ATOM     14  C   UNL A   1      44.693  27.809  30.425  1.00  0.00     0.049 A 
ATOM     15  N   UNL A   1      43.770  25.377  28.698  1.00  0.00    -0.248 NA
ATOM     16  C   UNL A   1      46.017  24.850  28.938  1.00  0.00     0.031 C 
ATOM     17  C   UNL A   1      43.745  28.624  31.192  1.00  0.00     0.029 A 
ATOM     18  N   UNL A   1      45.138  28.648  29.432  1.00  0.00    -0.354 N 
ATOM     19  C   UNL A   1      44.057  24.329  27.850  1.00  0.00     0.074 A 
ATOM     20  C   UNL A   1      45.470  24.057  28.006  1.00  0.00     0.031 C 
ATOM     21  C   UNL A   1      43.531  29.776  30.520  1.00  0.00     0.029 A 
ATOM     22  C   UNL A   1      44.448  29.854  29.390  1.00  0.00     0.049 A 
ATOM     23  H   UNL A   1      45.869  28.418  28.815  1.00  0.00     0.167 HD
ATOM     24  C   UNL A   1      43.114  23.705  27.099  1.00  0.00     0.031 A 
ATOM     25  C   UNL A   1      44.255  30.612  28.278  1.00  0.00     0.031 A 
ATOM     26  C   UNL A   1      41.780  24.209  27.223  1.00  0.00     0.049 A 
ATOM     27  C   UNL A   1      43.378  29.712  27.443  1.00  0.00     0.074 A 
ATOM     28  C   UNL A   1      40.663  23.925  27.982  1.00  0.00     0.029 A 
ATOM     29  N   UNL A   1      41.447  25.343  26.521  1.00  0.00    -0.354 N 
ATOM     30  N   UNL A   1      42.091  29.540  27.580  1.00  0.00    -0.248 NA
ATOM     31  C   UNL A   1      44.037  28.712  26.599  1.00  0.00     0.031 C 
ATOM     32  C   UNL A   1      39.905  25.137  28.021  1.00  0.00     0.029 A 
ATOM     33  C   UNL A   1      40.638  26.101  27.331  1.00  0.00     0.049 A 
ATOM     34  H   UNL A   1      41.735  25.570  25.607  1.00  0.00     0.167 HD
ATOM     35  C   UNL A   1      41.832  28.256  27.098  1.00  0.00     0.074 A 
ATOM     36  C   UNL A   1      43.065  27.817  26.474  1.00  0.00     0.031 C 
ATOM     37  C   UNL A   1      40.707  27.547  27.400  1.00  0.00     0.031 A 
BRANCH  24  38
ATOM     38  C   UNL A   1      43.442  22.638  26.138  1.00  0.00    -0.014 A 
ATOM     39  C   UNL A   1      42.958  21.343  26.385  1.00  0.00     0.010 A 
ATOM     40  C   UNL A   1      44.318  22.863  25.066  1.00  0.00     0.010 A 
ATOM     41  C   UNL A   1      43.374  20.274  25.593  1.00  0.00     0.020 A 
ATOM     42  C   UNL A   1      44.732  21.793  24.265  1.00  0.00     0.020 A 
ATOM     43  C   UNL A   1      44.267  20.505  24.544  1.00  0.00     0.054 A 
BRANCH  43  44
ATOM     44  S   UNL A   1      44.854  19.075  23.596  1.00  0.00     0.124 S 
ATOM     45  O   UNL A   1      44.028  17.991  24.121  1.00  0.00    -0.237 OA
ATOM     46  O   UNL A   1      44.564  19.479  22.224  1.00  0.00    -0.237 OA
ATOM     47  O   UNL A   1      46.273  18.994  23.935  1.00  0.00    -0.744 OA
ENDBRANCH  43  44
ENDBRANCH  24  38
BRANCH  25  48
ATOM     48  C   UNL A   1      45.495  31.258  27.723  1.00  0.00    -0.014 A 
ATOM     49  C   UNL A   1      45.344  32.362  26.852  1.00  0.00     0.010 A 
ATOM     50  C   UNL A   1      46.806  30.829  27.999  1.00  0.00     0.010 A 
ATOM     51  C   UNL A   1      46.445  33.085  26.387  1.00  0.00     0.020 A 
ATOM     52  C   UNL A   1      47.918  31.564  27.556  1.00  0.00     0.020 A 
ATOM     53  C   UNL A   1      47.727  32.703  26.773  1.00  0.00     0.054 A 
BRANCH  53  54
ATOM     54  S   UNL A   1      49.126  33.736  26.262  1.00  0.00     0.124 S 
ATOM     55  O   UNL A   1      50.146  32.743  25.935  1.00  0.00    -0.237 OA
ATOM     56  O   UNL A   1      48.568  34.463  25.125  1.00  0.00    -0.237 OA
ATOM     57  O   UNL A   1      49.404  34.549  27.443  1.00  0.00    -0.744 OA
ENDBRANCH  53  54
ENDBRANCH  25  48
BRANCH  37  58
ATOM     58  C   UNL A   1      39.603  28.294  28.082  1.00  0.00    -0.014 A 
ATOM     59  C   UNL A   1      39.446  28.192  29.473  1.00  0.00     0.010 A 
ATOM     60  C   UNL A   1      38.776  29.177  27.362  1.00  0.00     0.010 A 
ATOM     61  C   UNL A   1      38.519  28.997  30.141  1.00  0.00     0.020 A 
ATOM     62  C   UNL A   1      37.856  29.993  28.027  1.00  0.00     0.020 A 
ATOM     63  C   UNL A   1      37.748  29.912  29.417  1.00  0.00     0.054 A 
BRANCH  63  64
ATOM     64  S   UNL A   1      36.635  31.019  30.324  1.00  0.00     0.124 S 
ATOM     65  O   UNL A   1      37.541  32.050  30.822  1.00  0.00    -0.237 OA
ATOM     66  O   UNL A   1      35.706  31.450  29.281  1.00  0.00    -0.237 OA
ATOM     67  O   UNL A   1      36.048  30.161  31.354  1.00  0.00    -0.744 OA
ENDBRANCH  63  64
ENDBRANCH  37  58
ENDBRANCH  11  12
ENDBRANCH   4   6
ENDBRANCH   1   2
BRANCH   1  68
ATOM     68  C   UNL A   1      41.608  26.285  36.881  1.00  0.00     0.023 C 
BRANCH  68  69
ATOM     69  C   UNL A   1      42.873  26.182  37.734  1.00  0.00     0.023 C 
BRANCH  69  70
ATOM     70  C   UNL A   1      43.982  27.164  37.366  1.00  0.00     0.116 C 
BRANCH  70  71
ATOM     71  N   UNL A   1      45.070  27.195  38.334  1.00  0.00    -0.351 N 
ATOM     72  C   UNL A   1      46.302  26.620  38.260  1.00  0.00     0.270 C 
ATOM     73  H   UNL A   1      44.888  27.703  39.157  1.00  0.00     0.163 HD
ATOM     74  O   UNL A   1      47.120  26.780  39.162  1.00  0.00    -0.268 OA
BRANCH  72  75
ATOM     75  C   UNL A   1      46.592  25.712  37.141  1.00  0.00     0.134 A 
ATOM     76  C   UNL A   1      46.992  26.313  36.011  1.00  0.00     0.063 A 
ATOM     77  N   UNL A   1      46.499  24.329  37.226  1.00  0.00    -0.207 N 
ATOM     78  C   UNL A   1      47.309  25.394  34.886  1.00  0.00     0.075 A 
ATOM     79  C   UNL A   1      46.868  23.528  36.125  1.00  0.00     0.166 A 
ATOM     80  N   UNL A   1      46.122  23.587  38.297  1.00  0.00    -0.145 NA
ATOM     81  N   UNL A   1      47.234  24.094  34.927  1.00  0.00    -0.228 NA
ATOM     82  C   UNL A   1      46.825  22.230  36.596  1.00  0.00     0.069 A 
ATOM     83  C   UNL A   1      46.375  22.336  37.944  1.00  0.00     0.184 A 
ATOM     84  C   UNL A   1      47.180  21.048  35.927  1.00  0.00    -0.028 A 
ATOM     85  N   UNL A   1      46.242  21.264  38.759  1.00  0.00    -0.222 NA
ATOM     86  C   UNL A   1      47.041  19.956  36.813  1.00  0.00     0.038 A 
ATOM     87  C   UNL A   1      46.592  20.084  38.161  1.00  0.00     0.147 A 
BRANCH  78  88
ATOM     88  C   UNL A   1      47.710  26.082  33.641  1.00  0.00     0.000 A 
ATOM     89  C   UNL A   1      48.189  25.321  32.572  1.00  0.00     0.012 A 
ATOM     90  C   UNL A   1      47.556  27.469  33.520  1.00  0.00     0.012 A 
ATOM     91  C   UNL A   1      48.488  25.950  31.362  1.00  0.00     0.021 A 
ATOM     92  C   UNL A   1      47.866  28.094  32.310  1.00  0.00     0.021 A 
ATOM     93  C   UNL A   1      48.323  27.331  31.235  1.00  0.00     0.041 A 
ATOM     94  Cl  UNL A   1      48.685  28.097  29.738  1.00  0.00    -0.084 Cl
ENDBRANCH  78  88
BRANCH  84  95
ATOM     95  C   UNL A   1      47.606  21.003  34.493  1.00  0.00     0.020 C 
ATOM     96  C   UNL A   1      49.006  21.342  34.045  1.00  0.00     0.009 C 
ATOM     97  C   UNL A   1      48.561  19.911  34.066  1.00  0.00     0.009 C 
ENDBRANCH  84  95
BRANCH  87  98
ATOM     98  C   UNL A   1      46.494  18.824  39.019  1.00  0.00     0.433 C 
ATOM     99  F   UNL A   1      45.894  19.045  40.223  1.00  0.00    -0.165 F 
ATOM    100  F   UNL A   1      45.791  17.821  38.420  1.00  0.00    -0.165 F 
ATOM    101  F   UNL A   1      47.712  18.280  39.319  1.00  0.00    -0.165 F 
ENDBRANCH  87  98
ENDBRANCH  72  75
ENDBRANCH  70  71
ENDBRANCH  69  70
ENDBRANCH  68  69
ENDBRANCH   1  68
TORSDOF 17
ENDMDL
