MODEL 1
REMARK VINA RESULT:     -11.6      0.000      0.000
REMARK SMILES Cc1ncccc1NC(=O)Nc1ccc(C(=O)NCCCCNC(=O)c2ccc(-c3c4nc(c(-c5ccc(S(=O)(=O)[O-])cc5)c5ccc([nH]5)c(-c5ccc(S(=O)(=O)[O-])cc5)c5nc(c(-c6ccc(S(=O)(=O)[O-])cc6)c6ccc3[nH]6)C=C5)C=C4)cc2)c(O)c1
REMARK SMILES IDX 21 1 20 2 19 3 18 4 16 5 17 6 15 8 12 9 13 10 88 11 14 12
REMARK SMILES IDX 86 13 11 14 8 15 9 16 10 18 7 20 1 21 2 22 3 23 4 24 6 25
REMARK SMILES IDX 5 26 87 27 22 29 23 30 24 31 25 33 26 34 27 35 85 36 28 37
REMARK SMILES IDX 84 38 29 39 30 40 31 41 78 42 32 43 83 44 77 45 79 46 33 47
REMARK SMILES IDX 82 48 76 49 75 50 34 52 64 53 45 54 63 55 46 56 49 57 62 58
REMARK SMILES IDX 80 59 47 60 48 61 61 63 81 64 50 65 35 66 36 67 44 68 37 69
REMARK SMILES IDX 43 70 38 71 39 72 40 73 41 74 42 75 65 76 66 77 74 78 67 79
REMARK SMILES IDX 73 80 68 81 69 82 70 83 71 84 72 85 51 86 52 87 60 88 53 89
REMARK SMILES IDX 59 90 54 91 55 92 56 93 57 94 58 95
REMARK H PARENT 18 7 8 17 11 19 87 28 23 32 79 51 49 62
REMARK Flexibility Score: inf
ROOT
ATOM      1  C   UNL A   1      33.616  28.362  25.815  1.00  0.00     0.023 C 
ENDROOT
BRANCH   1   2
ATOM      2  C   UNL A   1      33.209  29.517  24.900  1.00  0.00     0.023 C 
BRANCH   2   3
ATOM      3  C   UNL A   1      33.259  29.265  23.393  1.00  0.00     0.116 C 
BRANCH   3   4
ATOM      4  N   UNL A   1      31.965  29.226  22.728  1.00  0.00    -0.352 N 
ATOM      5  C   UNL A   1      31.117  28.170  22.472  1.00  0.00     0.255 C 
ATOM      6  O   UNL A   1      30.038  28.391  21.931  1.00  0.00    -0.269 OA
ATOM      7  H   UNL A   1      31.641  30.100  22.408  1.00  0.00     0.163 HD
BRANCH   5   8
ATOM      8  C   UNL A   1      31.515  26.765  22.744  1.00  0.00     0.081 A 
ATOM      9  C   UNL A   1      31.612  23.988  23.016  1.00  0.00     0.046 A 
ATOM     10  C   UNL A   1      30.957  24.752  23.980  1.00  0.00     0.027 A 
ATOM     11  C   UNL A   1      32.434  24.627  22.084  1.00  0.00     0.073 A 
ATOM     12  C   UNL A   1      30.885  26.139  23.829  1.00  0.00     0.020 A 
ATOM     13  C   UNL A   1      32.396  26.017  21.964  1.00  0.00     0.130 A 
BRANCH   9  14
ATOM     14  N   UNL A   1      31.430  22.604  22.876  1.00  0.00    -0.308 N 
ATOM     15  N   UNL A   1      33.567  21.588  23.265  1.00  0.00    -0.306 N 
ATOM     16  C   UNL A   1      32.295  21.567  22.804  1.00  0.00     0.323 C 
ATOM     17  H   UNL A   1      34.135  20.899  22.848  1.00  0.00     0.171 HD
ATOM     18  O   UNL A   1      31.895  20.516  22.288  1.00  0.00    -0.248 OA
ATOM     19  H   UNL A   1      30.484  22.334  22.817  1.00  0.00     0.171 HD
BRANCH  15  20
ATOM     20  C   UNL A   1      34.265  22.375  24.209  1.00  0.00     0.064 A 
ATOM     21  C   UNL A   1      32.657  21.734  26.108  1.00  0.00     0.069 C 
ATOM     22  C   UNL A   1      33.915  22.353  25.571  1.00  0.00     0.061 A 
ATOM     23  N   UNL A   1      34.682  22.932  26.535  1.00  0.00    -0.259 NA
ATOM     24  C   UNL A   1      35.791  23.593  26.151  1.00  0.00     0.111 A 
ATOM     25  C   UNL A   1      35.336  23.198  23.851  1.00  0.00     0.030 A 
ATOM     26  C   UNL A   1      36.133  23.788  24.830  1.00  0.00     0.022 A 
ENDBRANCH  15  20
ENDBRANCH   9  14
BRANCH  13  27
ATOM     27  O   UNL A   1      33.237  26.562  21.035  1.00  0.00    -0.507 OA
ATOM     28  H   UNL A   1      33.941  27.117  21.309  1.00  0.00     0.293 HD
ENDBRANCH  13  27
ENDBRANCH   5   8
ENDBRANCH   3   4
ENDBRANCH   2   3
ENDBRANCH   1   2
BRANCH   1  29
ATOM     29  C   UNL A   1      33.464  28.578  27.317  1.00  0.00     0.116 C 
BRANCH  29  30
ATOM     30  N   UNL A   1      33.496  29.973  27.722  1.00  0.00    -0.352 N 
ATOM     31  C   UNL A   1      34.520  30.724  28.263  1.00  0.00     0.251 C 
ATOM     32  H   UNL A   1      32.652  30.461  27.591  1.00  0.00     0.163 HD
ATOM     33  O   UNL A   1      34.303  31.882  28.593  1.00  0.00    -0.269 OA
BRANCH  31  34
ATOM     34  C   UNL A   1      35.860  30.129  28.490  1.00  0.00     0.039 A 
ATOM     35  C   UNL A   1      36.781  30.138  27.436  1.00  0.00     0.014 A 
ATOM     36  C   UNL A   1      36.224  29.575  29.718  1.00  0.00     0.014 A 
ATOM     37  C   UNL A   1      38.087  29.684  27.643  1.00  0.00     0.010 A 
ATOM     38  C   UNL A   1      37.547  29.196  29.947  1.00  0.00     0.010 A 
ATOM     39  C   UNL A   1      38.498  29.257  28.917  1.00  0.00    -0.014 A 
BRANCH  39  40
ATOM     40  C   UNL A   1      39.917  28.904  29.198  1.00  0.00     0.031 A 
ATOM     41  C   UNL A   1      40.859  29.928  29.774  1.00  0.00     0.074 A 
ATOM     42  C   UNL A   1      40.383  27.683  28.859  1.00  0.00     0.049 A 
ATOM     43  N   UNL A   1      42.145  29.831  29.998  1.00  0.00    -0.248 NA
ATOM     44  C   UNL A   1      40.288  31.241  30.119  1.00  0.00     0.031 C 
ATOM     45  C   UNL A   1      39.591  26.612  28.249  1.00  0.00     0.029 A 
ATOM     46  N   UNL A   1      41.641  27.143  28.965  1.00  0.00    -0.354 N 
ATOM     47  C   UNL A   1      42.542  31.073  30.482  1.00  0.00     0.074 A 
ATOM     48  C   UNL A   1      41.368  31.919  30.482  1.00  0.00     0.031 C 
ATOM     49  C   UNL A   1      40.376  25.539  28.055  1.00  0.00     0.029 A 
ATOM     50  C   UNL A   1      41.734  25.856  28.485  1.00  0.00     0.049 A 
ATOM     51  H   UNL A   1      42.406  27.630  29.348  1.00  0.00     0.167 HD
ATOM     52  C   UNL A   1      43.767  31.471  30.904  1.00  0.00     0.031 A 
ATOM     53  C   UNL A   1      42.791  25.026  28.388  1.00  0.00     0.031 A 
ATOM     54  C   UNL A   1      44.930  30.624  30.927  1.00  0.00     0.049 A 
ATOM     55  C   UNL A   1      44.137  25.486  28.875  1.00  0.00     0.074 A 
ATOM     56  C   UNL A   1      46.198  30.920  31.399  1.00  0.00     0.029 A 
ATOM     57  N   UNL A   1      44.970  29.319  30.464  1.00  0.00    -0.354 N 
ATOM     58  N   UNL A   1      44.473  26.644  29.391  1.00  0.00    -0.248 NA
ATOM     59  C   UNL A   1      45.244  24.523  28.779  1.00  0.00     0.031 C 
ATOM     60  C   UNL A   1      47.016  29.807  31.181  1.00  0.00     0.029 A 
ATOM     61  C   UNL A   1      46.246  28.801  30.621  1.00  0.00     0.049 A 
ATOM     62  H   UNL A   1      44.207  28.832  30.079  1.00  0.00     0.167 HD
ATOM     63  C   UNL A   1      45.825  26.538  29.706  1.00  0.00     0.074 A 
ATOM     64  C   UNL A   1      46.239  25.201  29.335  1.00  0.00     0.031 C 
ATOM     65  C   UNL A   1      46.646  27.467  30.255  1.00  0.00     0.031 A 
BRANCH  52  66
ATOM     66  C   UNL A   1      43.914  32.893  31.376  1.00  0.00    -0.014 A 
ATOM     67  C   UNL A   1      44.197  33.933  30.471  1.00  0.00     0.010 A 
ATOM     68  C   UNL A   1      43.715  33.204  32.734  1.00  0.00     0.010 A 
ATOM     69  C   UNL A   1      44.317  35.250  30.921  1.00  0.00     0.020 A 
ATOM     70  C   UNL A   1      43.809  34.524  33.183  1.00  0.00     0.020 A 
ATOM     71  C   UNL A   1      44.126  35.537  32.276  1.00  0.00     0.054 A 
BRANCH  71  72
ATOM     72  S   UNL A   1      44.262  37.259  32.827  1.00  0.00     0.124 S 
ATOM     73  O   UNL A   1      43.025  37.429  33.587  1.00  0.00    -0.237 OA
ATOM     74  O   UNL A   1      45.488  37.248  33.621  1.00  0.00    -0.237 OA
ATOM     75  O   UNL A   1      44.337  38.017  31.582  1.00  0.00    -0.744 OA
ENDBRANCH  71  72
ENDBRANCH  52  66
BRANCH  53  76
ATOM     76  C   UNL A   1      42.617  23.663  27.814  1.00  0.00    -0.014 A 
ATOM     77  C   UNL A   1      42.828  23.434  26.443  1.00  0.00     0.010 A 
ATOM     78  C   UNL A   1      42.243  22.586  28.638  1.00  0.00     0.010 A 
ATOM     79  C   UNL A   1      42.646  22.158  25.901  1.00  0.00     0.020 A 
ATOM     80  C   UNL A   1      42.087  21.303  28.104  1.00  0.00     0.020 A 
ATOM     81  C   UNL A   1      42.277  21.100  26.736  1.00  0.00     0.054 A 
BRANCH  81  82
ATOM     82  S   UNL A   1      42.092  19.441  26.021  1.00  0.00     0.124 S 
ATOM     83  O   UNL A   1      42.589  18.592  27.099  1.00  0.00    -0.237 OA
ATOM     84  O   UNL A   1      40.656  19.366  25.765  1.00  0.00    -0.237 OA
ATOM     85  O   UNL A   1      42.928  19.491  24.824  1.00  0.00    -0.744 OA
ENDBRANCH  81  82
ENDBRANCH  53  76
BRANCH  65  86
ATOM     86  C   UNL A   1      48.069  27.062  30.528  1.00  0.00    -0.014 A 
ATOM     87  C   UNL A   1      49.080  27.253  29.571  1.00  0.00     0.010 A 
ATOM     88  C   UNL A   1      48.407  26.534  31.789  1.00  0.00     0.010 A 
ATOM     89  C   UNL A   1      50.401  26.900  29.859  1.00  0.00     0.020 A 
ATOM     90  C   UNL A   1      49.731  26.203  32.089  1.00  0.00     0.020 A 
ATOM     91  C   UNL A   1      50.718  26.377  31.117  1.00  0.00     0.054 A 
BRANCH  91  92
ATOM     92  S   UNL A   1      52.447  25.971  31.485  1.00  0.00     0.124 S 
ATOM     93  O   UNL A   1      52.795  26.992  32.470  1.00  0.00    -0.237 OA
ATOM     94  O   UNL A   1      52.355  24.607  32.000  1.00  0.00    -0.237 OA
ATOM     95  O   UNL A   1      53.116  26.099  30.193  1.00  0.00    -0.744 OA
ENDBRANCH  91  92
ENDBRANCH  65  86
ENDBRANCH  39  40
ENDBRANCH  31  34
ENDBRANCH  29  30
ENDBRANCH   1  29
TORSDOF 17
ENDMDL
MODEL 2
REMARK VINA RESULT:     -11.5      2.931      3.713
REMARK SMILES Cc1ncccc1NC(=O)Nc1ccc(C(=O)NCCCCNC(=O)c2ccc(-c3c4nc(c(-c5ccc(S(=O)(=O)[O-])cc5)c5ccc([nH]5)c(-c5ccc(S(=O)(=O)[O-])cc5)c5nc(c(-c6ccc(S(=O)(=O)[O-])cc6)c6ccc3[nH]6)C=C5)C=C4)cc2)c(O)c1
REMARK SMILES IDX 21 1 20 2 19 3 18 4 16 5 17 6 15 8 12 9 13 10 88 11 14 12
REMARK SMILES IDX 86 13 11 14 8 15 9 16 10 18 7 20 1 21 2 22 3 23 4 24 6 25
REMARK SMILES IDX 5 26 87 27 22 29 23 30 24 31 25 33 26 34 27 35 85 36 28 37
REMARK SMILES IDX 84 38 29 39 30 40 31 41 78 42 32 43 83 44 77 45 79 46 33 47
REMARK SMILES IDX 82 48 76 49 75 50 34 52 64 53 45 54 63 55 46 56 49 57 62 58
REMARK SMILES IDX 80 59 47 60 48 61 61 63 81 64 50 65 35 66 36 67 44 68 37 69
REMARK SMILES IDX 43 70 38 71 39 72 40 73 41 74 42 75 65 76 66 77 74 78 67 79
REMARK SMILES IDX 73 80 68 81 69 82 70 83 71 84 72 85 51 86 52 87 60 88 53 89
REMARK SMILES IDX 59 90 54 91 55 92 56 93 57 94 58 95
REMARK H PARENT 18 7 8 17 11 19 87 28 23 32 79 51 49 62
REMARK Flexibility Score: inf
ROOT
ATOM      1  C   UNL A   1      34.674  29.458  27.049  1.00  0.00     0.023 C 
ENDROOT
BRANCH   1   2
ATOM      2  C   UNL A   1      33.175  29.752  27.112  1.00  0.00     0.023 C 
BRANCH   2   3
ATOM      3  C   UNL A   1      32.459  30.016  25.787  1.00  0.00     0.116 C 
BRANCH   3   4
ATOM      4  N   UNL A   1      33.220  29.674  24.594  1.00  0.00    -0.352 N 
ATOM      5  C   UNL A   1      33.306  28.490  23.892  1.00  0.00     0.255 C 
ATOM      6  O   UNL A   1      33.986  28.453  22.870  1.00  0.00    -0.269 OA
ATOM      7  H   UNL A   1      33.764  30.409  24.228  1.00  0.00     0.163 HD
BRANCH   5   8
ATOM      8  C   UNL A   1      32.680  27.239  24.389  1.00  0.00     0.081 A 
ATOM      9  C   UNL A   1      31.468  25.249  25.927  1.00  0.00     0.046 A 
ATOM     10  C   UNL A   1      32.841  25.460  26.033  1.00  0.00     0.027 A 
ATOM     11  C   UNL A   1      30.768  25.838  24.870  1.00  0.00     0.073 A 
ATOM     12  C   UNL A   1      33.443  26.474  25.283  1.00  0.00     0.020 A 
ATOM     13  C   UNL A   1      31.383  26.819  24.092  1.00  0.00     0.130 A 
BRANCH   9  14
ATOM     14  N   UNL A   1      30.723  24.533  26.876  1.00  0.00    -0.308 N 
ATOM     15  N   UNL A   1      30.886  22.217  26.272  1.00  0.00    -0.306 N 
ATOM     16  C   UNL A   1      30.314  23.245  26.941  1.00  0.00     0.323 C 
ATOM     17  H   UNL A   1      30.284  21.444  26.173  1.00  0.00     0.171 HD
ATOM     18  O   UNL A   1      29.352  22.981  27.672  1.00  0.00    -0.248 OA
ATOM     19  H   UNL A   1      30.442  25.076  27.648  1.00  0.00     0.171 HD
BRANCH  15  20
ATOM     20  C   UNL A   1      32.153  22.003  25.683  1.00  0.00     0.064 A 
ATOM     21  C   UNL A   1      33.359  22.137  27.948  1.00  0.00     0.069 C 
ATOM     22  C   UNL A   1      33.303  21.844  26.477  1.00  0.00     0.061 A 
ATOM     23  N   UNL A   1      34.497  21.436  25.965  1.00  0.00    -0.259 NA
ATOM     24  C   UNL A   1      34.580  21.230  24.636  1.00  0.00     0.111 A 
ATOM     25  C   UNL A   1      32.331  21.924  24.300  1.00  0.00     0.030 A 
ATOM     26  C   UNL A   1      33.547  21.499  23.766  1.00  0.00     0.022 A 
ENDBRANCH  15  20
ENDBRANCH   9  14
BRANCH  13  27
ATOM     27  O   UNL A   1      30.633  27.338  23.075  1.00  0.00    -0.507 OA
ATOM     28  H   UNL A   1      29.719  27.137  23.017  1.00  0.00     0.293 HD
ENDBRANCH  13  27
ENDBRANCH   5   8
ENDBRANCH   3   4
ENDBRANCH   2   3
ENDBRANCH   1   2
BRANCH   1  29
ATOM     29  C   UNL A   1      35.592  30.341  27.888  1.00  0.00     0.116 C 
BRANCH  29  30
ATOM     30  N   UNL A   1      35.492  30.109  29.319  1.00  0.00    -0.352 N 
ATOM     31  C   UNL A   1      36.465  29.779  30.241  1.00  0.00     0.251 C 
ATOM     32  H   UNL A   1      34.586  30.200  29.690  1.00  0.00     0.163 HD
ATOM     33  O   UNL A   1      36.141  29.564  31.401  1.00  0.00    -0.269 OA
BRANCH  31  34
ATOM     34  C   UNL A   1      37.884  29.637  29.831  1.00  0.00     0.039 A 
ATOM     35  C   UNL A   1      38.852  29.471  30.827  1.00  0.00     0.014 A 
ATOM     36  C   UNL A   1      38.271  29.657  28.490  1.00  0.00     0.014 A 
ATOM     37  C   UNL A   1      40.184  29.229  30.475  1.00  0.00     0.010 A 
ATOM     38  C   UNL A   1      39.582  29.337  28.138  1.00  0.00     0.010 A 
ATOM     39  C   UNL A   1      40.553  29.106  29.125  1.00  0.00    -0.014 A 
BRANCH  39  40
ATOM     40  C   UNL A   1      41.931  28.708  28.728  1.00  0.00     0.031 A 
ATOM     41  C   UNL A   1      43.029  29.736  28.645  1.00  0.00     0.074 A 
ATOM     42  C   UNL A   1      42.180  27.434  28.361  1.00  0.00     0.049 A 
ATOM     43  N   UNL A   1      44.262  29.594  28.231  1.00  0.00    -0.248 NA
ATOM     44  C   UNL A   1      42.690  31.109  29.057  1.00  0.00     0.031 C 
ATOM     45  C   UNL A   1      41.197  26.347  28.347  1.00  0.00     0.029 A 
ATOM     46  N   UNL A   1      43.334  26.839  27.912  1.00  0.00    -0.354 N 
ATOM     47  C   UNL A   1      44.838  30.857  28.304  1.00  0.00     0.074 A 
ATOM     48  C   UNL A   1      43.807  31.762  28.766  1.00  0.00     0.031 C 
ATOM     49  C   UNL A   1      41.795  25.217  27.933  1.00  0.00     0.029 A 
ATOM     50  C   UNL A   1      43.189  25.504  27.611  1.00  0.00     0.049 A 
ATOM     51  H   UNL A   1      44.186  27.322  27.814  1.00  0.00     0.167 HD
ATOM     52  C   UNL A   1      46.111  31.230  28.029  1.00  0.00     0.031 A 
ATOM     53  C   UNL A   1      44.070  24.610  27.120  1.00  0.00     0.031 A 
ATOM     54  C   UNL A   1      47.143  30.328  27.593  1.00  0.00     0.049 A 
ATOM     55  C   UNL A   1      45.481  25.046  26.835  1.00  0.00     0.074 A 
ATOM     56  C   UNL A   1      48.479  30.603  27.354  1.00  0.00     0.029 A 
ATOM     57  N   UNL A   1      46.960  28.979  27.334  1.00  0.00    -0.354 N 
ATOM     58  N   UNL A   1      46.019  26.234  26.976  1.00  0.00    -0.248 NA
ATOM     59  C   UNL A   1      46.407  24.019  26.337  1.00  0.00     0.031 C 
ATOM     60  C   UNL A   1      49.095  29.429  26.907  1.00  0.00     0.029 A 
ATOM     61  C   UNL A   1      48.154  28.412  26.919  1.00  0.00     0.049 A 
ATOM     62  H   UNL A   1      46.109  28.496  27.430  1.00  0.00     0.167 HD
ATOM     63  C   UNL A   1      47.354  26.088  26.610  1.00  0.00     0.074 A 
ATOM     64  C   UNL A   1      47.543  24.697  26.254  1.00  0.00     0.031 C 
ATOM     65  C   UNL A   1      48.333  27.025  26.574  1.00  0.00     0.031 A 
BRANCH  52  66
ATOM     66  C   UNL A   1      46.462  32.686  28.191  1.00  0.00    -0.014 A 
ATOM     67  C   UNL A   1      46.319  33.590  27.123  1.00  0.00     0.010 A 
ATOM     68  C   UNL A   1      46.889  33.168  29.442  1.00  0.00     0.010 A 
ATOM     69  C   UNL A   1      46.635  34.940  27.291  1.00  0.00     0.020 A 
ATOM     70  C   UNL A   1      47.181  34.524  29.621  1.00  0.00     0.020 A 
ATOM     71  C   UNL A   1      47.068  35.398  28.539  1.00  0.00     0.054 A 
BRANCH  71  72
ATOM     72  S   UNL A   1      47.445  37.161  28.735  1.00  0.00     0.124 S 
ATOM     73  O   UNL A   1      48.290  37.155  29.928  1.00  0.00    -0.237 OA
ATOM     74  O   UNL A   1      48.128  37.486  27.485  1.00  0.00    -0.237 OA
ATOM     75  O   UNL A   1      46.134  37.780  28.904  1.00  0.00    -0.744 OA
ENDBRANCH  71  72
ENDBRANCH  52  66
BRANCH  53  76
ATOM     76  C   UNL A   1      43.646  23.204  26.875  1.00  0.00    -0.014 A 
ATOM     77  C   UNL A   1      43.825  22.615  25.611  1.00  0.00     0.010 A 
ATOM     78  C   UNL A   1      43.066  22.445  27.907  1.00  0.00     0.010 A 
ATOM     79  C   UNL A   1      43.410  21.300  25.377  1.00  0.00     0.020 A 
ATOM     80  C   UNL A   1      42.675  21.122  27.684  1.00  0.00     0.020 A 
ATOM     81  C   UNL A   1      42.837  20.562  26.415  1.00  0.00     0.054 A 
BRANCH  81  82
ATOM     82  S   UNL A   1      42.348  18.841  26.104  1.00  0.00     0.124 S 
ATOM     83  O   UNL A   1      43.284  18.447  25.056  1.00  0.00    -0.237 OA
ATOM     84  O   UNL A   1      42.553  18.214  27.407  1.00  0.00    -0.237 OA
ATOM     85  O   UNL A   1      40.951  18.954  25.690  1.00  0.00    -0.744 OA
ENDBRANCH  81  82
ENDBRANCH  53  76
BRANCH  65  86
ATOM     86  C   UNL A   1      49.712  26.574  26.174  1.00  0.00    -0.014 A 
ATOM     87  C   UNL A   1      50.195  26.771  24.869  1.00  0.00     0.010 A 
ATOM     88  C   UNL A   1      50.557  25.997  27.140  1.00  0.00     0.010 A 
ATOM     89  C   UNL A   1      51.491  26.374  24.529  1.00  0.00     0.020 A 
ATOM     90  C   UNL A   1      51.863  25.622  26.810  1.00  0.00     0.020 A 
ATOM     91  C   UNL A   1      52.317  25.802  25.502  1.00  0.00     0.054 A 
BRANCH  91  92
ATOM     92  S   UNL A   1      54.012  25.339  25.051  1.00  0.00     0.124 S 
ATOM     93  O   UNL A   1      54.200  26.065  23.798  1.00  0.00    -0.237 OA
ATOM     94  O   UNL A   1      54.792  25.829  26.184  1.00  0.00    -0.237 OA
ATOM     95  O   UNL A   1      53.953  23.885  24.924  1.00  0.00    -0.744 OA
ENDBRANCH  91  92
ENDBRANCH  65  86
ENDBRANCH  39  40
ENDBRANCH  31  34
ENDBRANCH  29  30
ENDBRANCH   1  29
TORSDOF 17
ENDMDL
MODEL 3
REMARK VINA RESULT:     -11.5      1.265      2.308
REMARK SMILES Cc1ncccc1NC(=O)Nc1ccc(C(=O)NCCCCNC(=O)c2ccc(-c3c4nc(c(-c5ccc(S(=O)(=O)[O-])cc5)c5ccc([nH]5)c(-c5ccc(S(=O)(=O)[O-])cc5)c5nc(c(-c6ccc(S(=O)(=O)[O-])cc6)c6ccc3[nH]6)C=C5)C=C4)cc2)c(O)c1
REMARK SMILES IDX 21 1 20 2 19 3 18 4 16 5 17 6 15 8 12 9 13 10 88 11 14 12
REMARK SMILES IDX 86 13 11 14 8 15 9 16 10 18 7 20 1 21 2 22 3 23 4 24 6 25
REMARK SMILES IDX 5 26 87 27 22 29 23 30 24 31 25 33 26 34 27 35 85 36 28 37
REMARK SMILES IDX 84 38 29 39 30 40 31 41 78 42 32 43 83 44 77 45 79 46 33 47
REMARK SMILES IDX 82 48 76 49 75 50 34 52 64 53 45 54 63 55 46 56 49 57 62 58
REMARK SMILES IDX 80 59 47 60 48 61 61 63 81 64 50 65 35 66 36 67 44 68 37 69
REMARK SMILES IDX 43 70 38 71 39 72 40 73 41 74 42 75 65 76 66 77 74 78 67 79
REMARK SMILES IDX 73 80 68 81 69 82 70 83 71 84 72 85 51 86 52 87 60 88 53 89
REMARK SMILES IDX 59 90 54 91 55 92 56 93 57 94 58 95
REMARK H PARENT 18 7 8 17 11 19 87 28 23 32 79 51 49 62
REMARK Flexibility Score: inf
ROOT
ATOM      1  C   UNL A   1      32.445  27.848  27.455  1.00  0.00     0.023 C 
ENDROOT
BRANCH   1   2
ATOM      2  C   UNL A   1      31.270  27.469  26.553  1.00  0.00     0.023 C 
BRANCH   2   3
ATOM      3  C   UNL A   1      31.575  27.231  25.074  1.00  0.00     0.116 C 
BRANCH   3   4
ATOM      4  N   UNL A   1      30.933  26.062  24.490  1.00  0.00    -0.352 N 
ATOM      5  C   UNL A   1      31.468  24.871  24.047  1.00  0.00     0.255 C 
ATOM      6  O   UNL A   1      30.712  23.998  23.630  1.00  0.00    -0.269 OA
ATOM      7  H   UNL A   1      29.955  26.133  24.396  1.00  0.00     0.163 HD
BRANCH   5   8
ATOM      8  C   UNL A   1      32.935  24.654  23.968  1.00  0.00     0.081 A 
ATOM      9  C   UNL A   1      35.567  23.803  24.354  1.00  0.00     0.046 A 
ATOM     10  C   UNL A   1      35.024  24.770  25.199  1.00  0.00     0.027 A 
ATOM     11  C   UNL A   1      34.892  23.475  23.174  1.00  0.00     0.073 A 
ATOM     12  C   UNL A   1      33.699  25.175  25.022  1.00  0.00     0.020 A 
ATOM     13  C   UNL A   1      33.584  23.918  22.977  1.00  0.00     0.130 A 
BRANCH   9  14
ATOM     14  N   UNL A   1      36.725  23.074  24.660  1.00  0.00    -0.308 N 
ATOM     15  N   UNL A   1      36.048  21.290  26.115  1.00  0.00    -0.306 N 
ATOM     16  C   UNL A   1      36.983  22.095  25.557  1.00  0.00     0.323 C 
ATOM     17  H   UNL A   1      36.351  20.880  26.958  1.00  0.00     0.171 HD
ATOM     18  O   UNL A   1      38.160  21.912  25.889  1.00  0.00    -0.248 OA
ATOM     19  H   UNL A   1      37.505  23.325  24.115  1.00  0.00     0.171 HD
BRANCH  15  20
ATOM     20  C   UNL A   1      34.735  20.906  25.759  1.00  0.00     0.064 A 
ATOM     21  C   UNL A   1      33.684  22.380  27.583  1.00  0.00     0.069 C 
ATOM     22  C   UNL A   1      33.616  21.506  26.364  1.00  0.00     0.061 A 
ATOM     23  N   UNL A   1      32.347  21.314  25.911  1.00  0.00    -0.259 NA
ATOM     24  C   UNL A   1      32.163  20.475  24.873  1.00  0.00     0.111 A 
ATOM     25  C   UNL A   1      34.477  19.933  24.791  1.00  0.00     0.030 A 
ATOM     26  C   UNL A   1      33.182  19.735  24.313  1.00  0.00     0.022 A 
ENDBRANCH  15  20
ENDBRANCH   9  14
BRANCH  13  27
ATOM     27  O   UNL A   1      33.001  23.560  21.794  1.00  0.00    -0.507 OA
ATOM     28  H   UNL A   1      32.753  22.669  21.644  1.00  0.00     0.293 HD
ENDBRANCH  13  27
ENDBRANCH   5   8
ENDBRANCH   3   4
ENDBRANCH   2   3
ENDBRANCH   1   2
BRANCH   1  29
ATOM     29  C   UNL A   1      33.487  28.800  26.877  1.00  0.00     0.116 C 
BRANCH  29  30
ATOM     30  N   UNL A   1      33.458  30.132  27.456  1.00  0.00    -0.352 N 
ATOM     31  C   UNL A   1      34.425  30.821  28.161  1.00  0.00     0.251 C 
ATOM     32  H   UNL A   1      32.614  30.621  27.328  1.00  0.00     0.163 HD
ATOM     33  O   UNL A   1      34.159  31.924  28.619  1.00  0.00    -0.269 OA
BRANCH  31  34
ATOM     34  C   UNL A   1      35.760  30.221  28.406  1.00  0.00     0.039 A 
ATOM     35  C   UNL A   1      36.698  30.235  27.368  1.00  0.00     0.014 A 
ATOM     36  C   UNL A   1      36.101  29.657  29.636  1.00  0.00     0.014 A 
ATOM     37  C   UNL A   1      37.999  29.775  27.594  1.00  0.00     0.010 A 
ATOM     38  C   UNL A   1      37.418  29.273  29.885  1.00  0.00     0.010 A 
ATOM     39  C   UNL A   1      38.387  29.338  28.871  1.00  0.00    -0.014 A 
BRANCH  39  40
ATOM     40  C   UNL A   1      39.800  28.979  29.174  1.00  0.00     0.031 A 
ATOM     41  C   UNL A   1      40.738  29.999  29.764  1.00  0.00     0.074 A 
ATOM     42  C   UNL A   1      40.265  27.756  28.843  1.00  0.00     0.049 A 
ATOM     43  N   UNL A   1      42.020  29.897  30.007  1.00  0.00    -0.248 NA
ATOM     44  C   UNL A   1      40.168  31.315  30.098  1.00  0.00     0.031 C 
ATOM     45  C   UNL A   1      39.478  26.688  28.222  1.00  0.00     0.029 A 
ATOM     46  N   UNL A   1      41.520  27.210  28.968  1.00  0.00    -0.354 N 
ATOM     47  C   UNL A   1      42.415  31.138  30.495  1.00  0.00     0.074 A 
ATOM     48  C   UNL A   1      41.245  31.989  30.477  1.00  0.00     0.031 C 
ATOM     49  C   UNL A   1      40.261  25.611  28.041  1.00  0.00     0.029 A 
ATOM     50  C   UNL A   1      41.614  25.923  28.490  1.00  0.00     0.049 A 
ATOM     51  H   UNL A   1      42.281  27.694  29.362  1.00  0.00     0.167 HD
ATOM     52  C   UNL A   1      43.636  31.530  30.935  1.00  0.00     0.031 A 
ATOM     53  C   UNL A   1      42.668  25.087  28.410  1.00  0.00     0.031 A 
ATOM     54  C   UNL A   1      44.794  30.678  30.977  1.00  0.00     0.049 A 
ATOM     55  C   UNL A   1      44.009  25.542  28.917  1.00  0.00     0.074 A 
ATOM     56  C   UNL A   1      46.056  30.968  31.468  1.00  0.00     0.029 A 
ATOM     57  N   UNL A   1      44.836  29.372  30.515  1.00  0.00    -0.354 N 
ATOM     58  N   UNL A   1      44.343  26.699  29.437  1.00  0.00    -0.248 NA
ATOM     59  C   UNL A   1      45.113  24.574  28.838  1.00  0.00     0.031 C 
ATOM     60  C   UNL A   1      46.873  29.852  31.263  1.00  0.00     0.029 A 
ATOM     61  C   UNL A   1      46.106  28.849  30.692  1.00  0.00     0.049 A 
ATOM     62  H   UNL A   1      44.076  28.888  30.119  1.00  0.00     0.167 HD
ATOM     63  C   UNL A   1      45.689  26.587  29.772  1.00  0.00     0.074 A 
ATOM     64  C   UNL A   1      46.102  25.248  29.409  1.00  0.00     0.031 C 
ATOM     65  C   UNL A   1      46.506  27.512  30.333  1.00  0.00     0.031 A 
BRANCH  52  66
ATOM     66  C   UNL A   1      43.782  32.952  31.409  1.00  0.00    -0.014 A 
ATOM     67  C   UNL A   1      43.554  33.297  32.753  1.00  0.00     0.010 A 
ATOM     68  C   UNL A   1      44.205  33.949  30.509  1.00  0.00     0.010 A 
ATOM     69  C   UNL A   1      43.707  34.618  33.181  1.00  0.00     0.020 A 
ATOM     70  C   UNL A   1      44.384  35.267  30.940  1.00  0.00     0.020 A 
ATOM     71  C   UNL A   1      44.118  35.596  32.270  1.00  0.00     0.054 A 
BRANCH  71  72
ATOM     72  S   UNL A   1      44.334  37.297  32.859  1.00  0.00     0.124 S 
ATOM     73  O   UNL A   1      45.701  37.264  33.375  1.00  0.00    -0.237 OA
ATOM     74  O   UNL A   1      44.141  38.086  31.644  1.00  0.00    -0.237 OA
ATOM     75  O   UNL A   1      43.291  37.450  33.869  1.00  0.00    -0.744 OA
ENDBRANCH  71  72
ENDBRANCH  52  66
BRANCH  53  76
ATOM     76  C   UNL A   1      42.497  23.725  27.835  1.00  0.00    -0.014 A 
ATOM     77  C   UNL A   1      42.203  22.631  28.667  1.00  0.00     0.010 A 
ATOM     78  C   UNL A   1      42.624  23.516  26.450  1.00  0.00     0.010 A 
ATOM     79  C   UNL A   1      42.061  21.348  28.128  1.00  0.00     0.020 A 
ATOM     80  C   UNL A   1      42.455  22.240  25.904  1.00  0.00     0.020 A 
ATOM     81  C   UNL A   1      42.188  21.160  26.750  1.00  0.00     0.054 A 
BRANCH  81  82
ATOM     82  S   UNL A   1      41.954  19.496  26.065  1.00  0.00     0.124 S 
ATOM     83  O   UNL A   1      42.803  19.536  24.878  1.00  0.00    -0.237 OA
ATOM     84  O   UNL A   1      42.421  18.639  27.151  1.00  0.00    -0.237 OA
ATOM     85  O   UNL A   1      40.517  19.433  25.807  1.00  0.00    -0.744 OA
ENDBRANCH  81  82
ENDBRANCH  53  76
BRANCH  65  86
ATOM     86  C   UNL A   1      47.923  27.101  30.628  1.00  0.00    -0.014 A 
ATOM     87  C   UNL A   1      48.948  27.286  29.685  1.00  0.00     0.010 A 
ATOM     88  C   UNL A   1      48.240  26.575  31.894  1.00  0.00     0.010 A 
ATOM     89  C   UNL A   1      50.263  26.927  29.993  1.00  0.00     0.020 A 
ATOM     90  C   UNL A   1      49.558  26.239  32.214  1.00  0.00     0.020 A 
ATOM     91  C   UNL A   1      50.560  26.405  31.256  1.00  0.00     0.054 A 
BRANCH  91  92
ATOM     92  S   UNL A   1      52.281  25.992  31.651  1.00  0.00     0.124 S 
ATOM     93  O   UNL A   1      52.953  26.246  30.379  1.00  0.00    -0.237 OA
ATOM     94  O   UNL A   1      52.598  26.928  32.727  1.00  0.00    -0.237 OA
ATOM     95  O   UNL A   1      52.218  24.589  32.052  1.00  0.00    -0.744 OA
ENDBRANCH  91  92
ENDBRANCH  65  86
ENDBRANCH  39  40
ENDBRANCH  31  34
ENDBRANCH  29  30
ENDBRANCH   1  29
TORSDOF 17
ENDMDL
