MODEL 1
REMARK VINA RESULT:     -11.3      0.000      0.000
REMARK SMILES C[C@@H]1[C@@H](C(=O)NCCCCNC(=O)c2ccc(-c3c4nc(c(-c5ccc(S(=O)(=O)[O-])cc5)c5ccc([nH]5)c(-c5ccc(S(=O)(=O)[O-])cc5)c5nc(c(-c6ccc(S(=O)(=O)[O-])cc6)c6ccc3[nH]6)C=C5)C=C4)cc2)CCN1C(=O)N1CCC[C@H]2CCC[C@@H]21
REMARK SMILES IDX 9 1 8 2 7 3 6 4 4 5 5 6 3 8 1 9 2 10 76 11 74 12 75 13 77 14
REMARK SMILES IDX 78 15 79 16 80 17 87 18 81 19 83 20 86 21 82 22 84 23 85 24
REMARK SMILES IDX 10 25 11 26 12 27 13 29 14 30 15 31 73 32 16 33 72 34 17 35
REMARK SMILES IDX 18 36 19 37 66 38 20 39 71 40 65 41 67 42 21 43 70 44 64 45
REMARK SMILES IDX 63 46 22 48 52 49 33 50 51 51 34 52 37 53 50 54 68 55 35 56
REMARK SMILES IDX 36 57 49 59 69 60 38 61 23 62 24 63 32 64 25 65 31 66 26 67
REMARK SMILES IDX 27 68 28 69 29 70 30 71 53 72 54 73 62 74 55 75 61 76 56 77
REMARK SMILES IDX 57 78 58 79 59 80 60 81 39 82 40 83 48 84 41 85 47 86 42 87
REMARK SMILES IDX 43 88 44 89 45 90 46 91
REMARK H PARENT 6 7 11 28 67 47 37 58
REMARK Flexibility Score: inf
ROOT
ATOM      1  C   UNL A   1      33.764  27.995  25.948  1.00  0.00     0.023 C 
ENDROOT
BRANCH   1   2
ATOM      2  C   UNL A   1      33.349  29.036  24.912  1.00  0.00     0.023 C 
BRANCH   2   3
ATOM      3  C   UNL A   1      32.666  28.491  23.663  1.00  0.00     0.116 C 
BRANCH   3   4
ATOM      4  N   UNL A   1      33.238  27.250  23.175  1.00  0.00    -0.356 N 
ATOM      5  C   UNL A   1      32.664  26.008  23.113  1.00  0.00     0.225 C 
ATOM      6  O   UNL A   1      33.313  25.095  22.607  1.00  0.00    -0.275 OA
ATOM      7  H   UNL A   1      34.164  27.308  22.844  1.00  0.00     0.163 HD
BRANCH   5   8
ATOM      8  C   UNL A   1      31.302  25.797  23.765  1.00  0.00     0.102 C 
ATOM      9  C   UNL A   1      30.210  26.097  25.981  1.00  0.00     0.032 C 
ATOM     10  C   UNL A   1      31.403  25.442  25.270  1.00  0.00     0.096 C 
ATOM     11  N   UNL A   1      31.358  23.964  25.301  1.00  0.00    -0.321 N 
ATOM     12  C   UNL A   1      30.497  24.622  23.203  1.00  0.00     0.037 C 
ATOM     13  C   UNL A   1      30.981  23.434  24.007  1.00  0.00     0.122 C 
BRANCH  11  14
ATOM     14  C   UNL A   1      32.036  23.098  26.147  1.00  0.00     0.320 C 
ATOM     15  O   UNL A   1      31.734  22.982  27.335  1.00  0.00    -0.248 OA
BRANCH  14  16
ATOM     16  N   UNL A   1      32.975  22.287  25.566  1.00  0.00    -0.321 N 
ATOM     17  C   UNL A   1      32.608  21.052  24.891  1.00  0.00     0.121 C 
ATOM     18  C   UNL A   1      34.271  22.790  25.156  1.00  0.00     0.090 C 
ATOM     19  C   UNL A   1      33.622  19.948  25.203  1.00  0.00     0.022 C 
ATOM     20  C   UNL A   1      35.307  21.768  25.630  1.00  0.00     0.012 C 
ATOM     21  C   UNL A   1      34.818  24.086  25.743  1.00  0.00     0.025 C 
ATOM     22  C   UNL A   1      35.072  20.412  24.963  1.00  0.00     0.007 C 
ATOM     23  C   UNL A   1      36.629  22.461  25.348  1.00  0.00     0.006 C 
ATOM     24  C   UNL A   1      36.341  23.946  25.608  1.00  0.00     0.002 C 
ENDBRANCH  14  16
ENDBRANCH  11  14
ENDBRANCH   5   8
ENDBRANCH   3   4
ENDBRANCH   2   3
ENDBRANCH   1   2
BRANCH   1  25
ATOM     25  C   UNL A   1      33.492  28.363  27.402  1.00  0.00     0.116 C 
BRANCH  25  26
ATOM     26  N   UNL A   1      33.458  29.800  27.630  1.00  0.00    -0.352 N 
ATOM     27  C   UNL A   1      34.440  30.639  28.108  1.00  0.00     0.251 C 
ATOM     28  H   UNL A   1      32.605  30.238  27.410  1.00  0.00     0.163 HD
ATOM     29  O   UNL A   1      34.171  31.804  28.364  1.00  0.00    -0.269 OA
BRANCH  27  30
ATOM     30  C   UNL A   1      35.808  30.121  28.341  1.00  0.00     0.039 A 
ATOM     31  C   UNL A   1      36.727  30.135  27.288  1.00  0.00     0.014 A 
ATOM     32  C   UNL A   1      36.190  29.634  29.593  1.00  0.00     0.014 A 
ATOM     33  C   UNL A   1      38.047  29.733  27.513  1.00  0.00     0.010 A 
ATOM     34  C   UNL A   1      37.524  29.325  29.839  1.00  0.00     0.010 A 
ATOM     35  C   UNL A   1      38.468  29.364  28.801  1.00  0.00    -0.014 A 
BRANCH  35  36
ATOM     36  C   UNL A   1      39.883  29.005  29.084  1.00  0.00     0.031 A 
ATOM     37  C   UNL A   1      40.815  30.026  29.684  1.00  0.00     0.074 A 
ATOM     38  C   UNL A   1      40.351  27.787  28.742  1.00  0.00     0.049 A 
ATOM     39  N   UNL A   1      42.094  29.927  29.940  1.00  0.00    -0.248 NA
ATOM     40  C   UNL A   1      40.238  31.340  30.014  1.00  0.00     0.031 C 
ATOM     41  C   UNL A   1      39.565  26.720  28.119  1.00  0.00     0.029 A 
ATOM     42  N   UNL A   1      41.606  27.244  28.865  1.00  0.00    -0.354 N 
ATOM     43  C   UNL A   1      42.477  31.166  30.441  1.00  0.00     0.074 A 
ATOM     44  C   UNL A   1      41.309  32.019  30.397  1.00  0.00     0.031 C 
ATOM     45  C   UNL A   1      40.346  25.641  27.944  1.00  0.00     0.029 A 
ATOM     46  C   UNL A   1      41.697  25.953  28.398  1.00  0.00     0.049 A 
ATOM     47  H   UNL A   1      42.369  27.731  29.251  1.00  0.00     0.167 HD
ATOM     48  C   UNL A   1      43.685  31.557  30.915  1.00  0.00     0.031 A 
ATOM     49  C   UNL A   1      42.751  25.114  28.335  1.00  0.00     0.031 A 
ATOM     50  C   UNL A   1      44.844  30.706  30.965  1.00  0.00     0.049 A 
ATOM     51  C   UNL A   1      44.087  25.574  28.855  1.00  0.00     0.074 A 
ATOM     52  C   UNL A   1      46.099  30.991  31.472  1.00  0.00     0.029 A 
ATOM     53  N   UNL A   1      44.890  29.404  30.490  1.00  0.00    -0.354 N 
ATOM     54  N   UNL A   1      44.414  26.731  29.378  1.00  0.00    -0.248 NA
ATOM     55  C   UNL A   1      45.192  24.608  28.787  1.00  0.00     0.031 C 
ATOM     56  C   UNL A   1      46.921  29.881  31.253  1.00  0.00     0.029 A 
ATOM     57  C   UNL A   1      46.159  28.880  30.673  1.00  0.00     0.049 A 
ATOM     58  H   UNL A   1      44.134  28.923  30.083  1.00  0.00     0.167 HD
ATOM     59  C   UNL A   1      45.753  26.619  29.736  1.00  0.00     0.074 A 
ATOM     60  C   UNL A   1      46.171  25.279  29.378  1.00  0.00     0.031 C 
ATOM     61  C   UNL A   1      46.562  27.541  30.315  1.00  0.00     0.031 A 
BRANCH  48  62
ATOM     62  C   UNL A   1      43.811  32.975  31.411  1.00  0.00    -0.014 A 
ATOM     63  C   UNL A   1      44.269  34.004  30.566  1.00  0.00     0.010 A 
ATOM     64  C   UNL A   1      43.442  33.291  32.731  1.00  0.00     0.010 A 
ATOM     65  C   UNL A   1      44.404  35.309  31.048  1.00  0.00     0.020 A 
ATOM     66  C   UNL A   1      43.544  34.602  33.206  1.00  0.00     0.020 A 
ATOM     67  C   UNL A   1      44.043  35.598  32.366  1.00  0.00     0.054 A 
BRANCH  67  68
ATOM     68  S   UNL A   1      44.218  37.304  32.959  1.00  0.00     0.124 S 
ATOM     69  O   UNL A   1      45.650  37.381  33.236  1.00  0.00    -0.237 OA
ATOM     70  O   UNL A   1      43.757  38.088  31.816  1.00  0.00    -0.237 OA
ATOM     71  O   UNL A   1      43.353  37.353  34.135  1.00  0.00    -0.744 OA
ENDBRANCH  67  68
ENDBRANCH  48  62
BRANCH  49  72
ATOM     72  C   UNL A   1      42.578  23.741  27.781  1.00  0.00    -0.014 A 
ATOM     73  C   UNL A   1      42.280  22.661  28.631  1.00  0.00     0.010 A 
ATOM     74  C   UNL A   1      42.696  23.510  26.399  1.00  0.00     0.010 A 
ATOM     75  C   UNL A   1      42.122  21.372  28.111  1.00  0.00     0.020 A 
ATOM     76  C   UNL A   1      42.508  22.228  25.872  1.00  0.00     0.020 A 
ATOM     77  C   UNL A   1      42.233  21.165  26.733  1.00  0.00     0.054 A 
BRANCH  77  78
ATOM     78  S   UNL A   1      41.967  19.494  26.077  1.00  0.00     0.124 S 
ATOM     79  O   UNL A   1      42.443  18.658  27.174  1.00  0.00    -0.237 OA
ATOM     80  O   UNL A   1      40.526  19.474  25.842  1.00  0.00    -0.237 OA
ATOM     81  O   UNL A   1      42.787  19.468  24.867  1.00  0.00    -0.744 OA
ENDBRANCH  77  78
ENDBRANCH  49  72
BRANCH  61  82
ATOM     82  C   UNL A   1      47.970  27.123  30.649  1.00  0.00    -0.014 A 
ATOM     83  C   UNL A   1      49.050  27.425  29.801  1.00  0.00     0.010 A 
ATOM     84  C   UNL A   1      48.221  26.459  31.865  1.00  0.00     0.010 A 
ATOM     85  C   UNL A   1      50.349  27.040  30.146  1.00  0.00     0.020 A 
ATOM     86  C   UNL A   1      49.520  26.101  32.229  1.00  0.00     0.020 A 
ATOM     87  C   UNL A   1      50.575  26.380  31.359  1.00  0.00     0.054 A 
BRANCH  87  88
ATOM     88  S   UNL A   1      52.274  25.925  31.802  1.00  0.00     0.124 S 
ATOM     89  O   UNL A   1      52.104  24.564  32.302  1.00  0.00    -0.237 OA
ATOM     90  O   UNL A   1      52.979  26.043  30.527  1.00  0.00    -0.237 OA
ATOM     91  O   UNL A   1      52.648  26.916  32.808  1.00  0.00    -0.744 OA
ENDBRANCH  87  88
ENDBRANCH  61  82
ENDBRANCH  35  36
ENDBRANCH  27  30
ENDBRANCH  25  26
ENDBRANCH   1  25
TORSDOF 16
ENDMDL
MODEL 2
REMARK VINA RESULT:     -11.3      4.508     10.289
REMARK SMILES C[C@@H]1[C@@H](C(=O)NCCCCNC(=O)c2ccc(-c3c4nc(c(-c5ccc(S(=O)(=O)[O-])cc5)c5ccc([nH]5)c(-c5ccc(S(=O)(=O)[O-])cc5)c5nc(c(-c6ccc(S(=O)(=O)[O-])cc6)c6ccc3[nH]6)C=C5)C=C4)cc2)CCN1C(=O)N1CCC[C@H]2CCC[C@@H]21
REMARK SMILES IDX 9 1 8 2 7 3 6 4 4 5 5 6 3 8 1 9 2 10 76 11 74 12 75 13 77 14
REMARK SMILES IDX 78 15 79 16 80 17 87 18 81 19 83 20 86 21 82 22 84 23 85 24
REMARK SMILES IDX 10 25 11 26 12 27 13 29 14 30 15 31 73 32 16 33 72 34 17 35
REMARK SMILES IDX 18 36 19 37 66 38 20 39 71 40 65 41 67 42 21 43 70 44 64 45
REMARK SMILES IDX 63 46 22 48 52 49 33 50 51 51 34 52 37 53 50 54 68 55 35 56
REMARK SMILES IDX 36 57 49 59 69 60 38 61 23 62 24 63 32 64 25 65 31 66 26 67
REMARK SMILES IDX 27 68 28 69 29 70 30 71 53 72 54 73 62 74 55 75 61 76 56 77
REMARK SMILES IDX 57 78 58 79 59 80 60 81 39 82 40 83 48 84 41 85 47 86 42 87
REMARK SMILES IDX 43 88 44 89 45 90 46 91
REMARK H PARENT 6 7 11 28 67 47 37 58
REMARK Flexibility Score: inf
ROOT
ATOM      1  C   UNL A   1      37.673  23.246  25.652  1.00  0.00     0.023 C 
ENDROOT
BRANCH   1   2
ATOM      2  C   UNL A   1      37.937  21.752  25.485  1.00  0.00     0.023 C 
BRANCH   2   3
ATOM      3  C   UNL A   1      36.795  20.941  24.885  1.00  0.00     0.116 C 
BRANCH   3   4
ATOM      4  N   UNL A   1      35.662  20.773  25.776  1.00  0.00    -0.356 N 
ATOM      5  C   UNL A   1      34.370  21.195  25.607  1.00  0.00     0.225 C 
ATOM      6  O   UNL A   1      33.547  20.897  26.470  1.00  0.00    -0.275 OA
ATOM      7  H   UNL A   1      35.847  20.291  26.614  1.00  0.00     0.163 HD
BRANCH   5   8
ATOM      8  C   UNL A   1      34.043  22.098  24.423  1.00  0.00     0.102 C 
ATOM      9  C   UNL A   1      34.442  24.437  23.673  1.00  0.00     0.032 C 
ATOM     10  C   UNL A   1      33.887  23.587  24.824  1.00  0.00     0.096 C 
ATOM     11  N   UNL A   1      32.433  23.761  25.027  1.00  0.00    -0.321 N 
ATOM     12  C   UNL A   1      32.705  21.801  23.740  1.00  0.00     0.037 C 
ATOM     13  C   UNL A   1      31.704  22.610  24.537  1.00  0.00     0.122 C 
BRANCH  11  14
ATOM     14  C   UNL A   1      31.782  24.548  25.966  1.00  0.00     0.320 C 
ATOM     15  O   UNL A   1      31.740  24.238  27.157  1.00  0.00    -0.248 OA
BRANCH  14  16
ATOM     16  N   UNL A   1      31.295  25.750  25.523  1.00  0.00    -0.321 N 
ATOM     17  C   UNL A   1      29.885  25.940  25.221  1.00  0.00     0.121 C 
ATOM     18  C   UNL A   1      31.991  26.996  25.775  1.00  0.00     0.090 C 
ATOM     19  C   UNL A   1      29.716  26.795  23.962  1.00  0.00     0.022 C 
ATOM     20  C   UNL A   1      31.979  27.777  24.458  1.00  0.00     0.012 C 
ATOM     21  C   UNL A   1      33.474  26.995  26.126  1.00  0.00     0.025 C 
ATOM     22  C   UNL A   1      30.545  28.092  24.030  1.00  0.00     0.007 C 
ATOM     23  C   UNL A   1      32.892  28.956  24.748  1.00  0.00     0.006 C 
ATOM     24  C   UNL A   1      33.965  28.382  25.685  1.00  0.00     0.002 C 
ENDBRANCH  14  16
ENDBRANCH  11  14
ENDBRANCH   5   8
ENDBRANCH   3   4
ENDBRANCH   2   3
ENDBRANCH   1   2
BRANCH   1  25
ATOM     25  C   UNL A   1      38.598  23.978  26.617  1.00  0.00     0.116 C 
BRANCH  25  26
ATOM     26  N   UNL A   1      39.981  24.014  26.165  1.00  0.00    -0.352 N 
ATOM     27  C   UNL A   1      40.981  24.913  26.461  1.00  0.00     0.251 C 
ATOM     28  H   UNL A   1      40.241  23.286  25.555  1.00  0.00     0.163 HD
ATOM     29  O   UNL A   1      42.048  24.853  25.864  1.00  0.00    -0.269 OA
BRANCH  27  30
ATOM     30  C   UNL A   1      40.752  25.970  27.473  1.00  0.00     0.039 A 
ATOM     31  C   UNL A   1      39.782  25.767  28.458  1.00  0.00     0.014 A 
ATOM     32  C   UNL A   1      41.497  27.152  27.462  1.00  0.00     0.014 A 
ATOM     33  C   UNL A   1      39.614  26.713  29.473  1.00  0.00     0.010 A 
ATOM     34  C   UNL A   1      41.395  28.045  28.523  1.00  0.00     0.010 A 
ATOM     35  C   UNL A   1      40.448  27.841  29.538  1.00  0.00    -0.014 A 
BRANCH  35  36
ATOM     36  C   UNL A   1      40.341  28.824  30.649  1.00  0.00     0.031 A 
ATOM     37  C   UNL A   1      41.216  28.684  31.868  1.00  0.00     0.074 A 
ATOM     38  C   UNL A   1      39.415  29.803  30.596  1.00  0.00     0.049 A 
ATOM     39  N   UNL A   1      41.225  29.396  32.965  1.00  0.00    -0.248 NA
ATOM     40  C   UNL A   1      42.191  27.580  31.862  1.00  0.00     0.031 C 
ATOM     41  C   UNL A   1      38.479  30.028  29.492  1.00  0.00     0.029 A 
ATOM     42  N   UNL A   1      39.104  30.791  31.498  1.00  0.00    -0.354 N 
ATOM     43  C   UNL A   1      42.186  28.816  33.785  1.00  0.00     0.074 A 
ATOM     44  C   UNL A   1      42.698  27.660  33.084  1.00  0.00     0.031 C 
ATOM     45  C   UNL A   1      37.723  31.103  29.767  1.00  0.00     0.029 A 
ATOM     46  C   UNL A   1      38.084  31.617  31.084  1.00  0.00     0.049 A 
ATOM     47  H   UNL A   1      39.567  30.899  32.360  1.00  0.00     0.167 HD
ATOM     48  C   UNL A   1      42.622  29.220  35.003  1.00  0.00     0.031 A 
ATOM     49  C   UNL A   1      37.501  32.666  31.697  1.00  0.00     0.031 A 
ATOM     50  C   UNL A   1      42.117  30.375  35.696  1.00  0.00     0.049 A 
ATOM     51  C   UNL A   1      37.991  33.089  33.055  1.00  0.00     0.074 A 
ATOM     52  C   UNL A   1      42.527  30.896  36.911  1.00  0.00     0.029 A 
ATOM     53  N   UNL A   1      41.091  31.188  35.238  1.00  0.00    -0.354 N 
ATOM     54  N   UNL A   1      38.942  32.562  33.789  1.00  0.00    -0.248 NA
ATOM     55  C   UNL A   1      37.337  34.256  33.662  1.00  0.00     0.031 C 
ATOM     56  C   UNL A   1      41.711  31.991  37.214  1.00  0.00     0.029 A 
ATOM     57  C   UNL A   1      40.840  32.194  36.155  1.00  0.00     0.049 A 
ATOM     58  H   UNL A   1      40.613  31.068  34.386  1.00  0.00     0.167 HD
ATOM     59  C   UNL A   1      39.026  33.357  34.927  1.00  0.00     0.074 A 
ATOM     60  C   UNL A   1      38.036  34.404  34.779  1.00  0.00     0.031 C 
ATOM     61  C   UNL A   1      39.853  33.234  35.995  1.00  0.00     0.031 A 
BRANCH  48  62
ATOM     62  C   UNL A   1      43.697  28.395  35.665  1.00  0.00    -0.014 A 
ATOM     63  C   UNL A   1      43.371  27.330  36.525  1.00  0.00     0.010 A 
ATOM     64  C   UNL A   1      45.051  28.671  35.403  1.00  0.00     0.010 A 
ATOM     65  C   UNL A   1      44.379  26.591  37.151  1.00  0.00     0.020 A 
ATOM     66  C   UNL A   1      46.062  27.912  36.001  1.00  0.00     0.020 A 
ATOM     67  C   UNL A   1      45.718  26.889  36.887  1.00  0.00     0.054 A 
BRANCH  67  68
ATOM     68  S   UNL A   1      47.003  25.904  37.703  1.00  0.00     0.124 S 
ATOM     69  O   UNL A   1      48.218  26.627  37.333  1.00  0.00    -0.237 OA
ATOM     70  O   UNL A   1      46.627  25.991  39.112  1.00  0.00    -0.237 OA
ATOM     71  O   UNL A   1      46.861  24.580  37.103  1.00  0.00    -0.744 OA
ENDBRANCH  67  68
ENDBRANCH  48  62
BRANCH  49  72
ATOM     72  C   UNL A   1      36.402  33.409  31.016  1.00  0.00    -0.014 A 
ATOM     73  C   UNL A   1      36.618  34.012  29.764  1.00  0.00     0.010 A 
ATOM     74  C   UNL A   1      35.130  33.504  31.609  1.00  0.00     0.010 A 
ATOM     75  C   UNL A   1      35.588  34.712  29.127  1.00  0.00     0.020 A 
ATOM     76  C   UNL A   1      34.089  34.177  30.961  1.00  0.00     0.020 A 
ATOM     77  C   UNL A   1      34.328  34.786  29.729  1.00  0.00     0.054 A 
BRANCH  77  78
ATOM     78  S   UNL A   1      32.993  35.652  28.856  1.00  0.00     0.124 S 
ATOM     79  O   UNL A   1      32.152  36.103  29.960  1.00  0.00    -0.237 OA
ATOM     80  O   UNL A   1      33.714  36.700  28.139  1.00  0.00    -0.237 OA
ATOM     81  O   UNL A   1      32.411  34.615  28.007  1.00  0.00    -0.744 OA
ENDBRANCH  77  78
ENDBRANCH  49  72
BRANCH  61  82
ATOM     82  C   UNL A   1      39.765  34.286  37.071  1.00  0.00    -0.014 A 
ATOM     83  C   UNL A   1      38.953  34.112  38.206  1.00  0.00     0.010 A 
ATOM     84  C   UNL A   1      40.553  35.447  36.964  1.00  0.00     0.010 A 
ATOM     85  C   UNL A   1      38.905  35.098  39.196  1.00  0.00     0.020 A 
ATOM     86  C   UNL A   1      40.532  36.418  37.966  1.00  0.00     0.020 A 
ATOM     87  C   UNL A   1      39.696  36.244  39.070  1.00  0.00     0.054 A 
BRANCH  87  88
ATOM     88  S   UNL A   1      39.646  37.490  40.388  1.00  0.00     0.124 S 
ATOM     89  O   UNL A   1      39.036  36.745  41.486  1.00  0.00    -0.237 OA
ATOM     90  O   UNL A   1      41.057  37.825  40.564  1.00  0.00    -0.237 OA
ATOM     91  O   UNL A   1      38.823  38.558  39.827  1.00  0.00    -0.744 OA
ENDBRANCH  87  88
ENDBRANCH  61  82
ENDBRANCH  35  36
ENDBRANCH  27  30
ENDBRANCH  25  26
ENDBRANCH   1  25
TORSDOF 16
ENDMDL
MODEL 3
REMARK VINA RESULT:     -11.3      2.728      3.573
REMARK SMILES C[C@@H]1[C@@H](C(=O)NCCCCNC(=O)c2ccc(-c3c4nc(c(-c5ccc(S(=O)(=O)[O-])cc5)c5ccc([nH]5)c(-c5ccc(S(=O)(=O)[O-])cc5)c5nc(c(-c6ccc(S(=O)(=O)[O-])cc6)c6ccc3[nH]6)C=C5)C=C4)cc2)CCN1C(=O)N1CCC[C@H]2CCC[C@@H]21
REMARK SMILES IDX 9 1 8 2 7 3 6 4 4 5 5 6 3 8 1 9 2 10 76 11 74 12 75 13 77 14
REMARK SMILES IDX 78 15 79 16 80 17 87 18 81 19 83 20 86 21 82 22 84 23 85 24
REMARK SMILES IDX 10 25 11 26 12 27 13 29 14 30 15 31 73 32 16 33 72 34 17 35
REMARK SMILES IDX 18 36 19 37 66 38 20 39 71 40 65 41 67 42 21 43 70 44 64 45
REMARK SMILES IDX 63 46 22 48 52 49 33 50 51 51 34 52 37 53 50 54 68 55 35 56
REMARK SMILES IDX 36 57 49 59 69 60 38 61 23 62 24 63 32 64 25 65 31 66 26 67
REMARK SMILES IDX 27 68 28 69 29 70 30 71 53 72 54 73 62 74 55 75 61 76 56 77
REMARK SMILES IDX 57 78 58 79 59 80 60 81 39 82 40 83 48 84 41 85 47 86 42 87
REMARK SMILES IDX 43 88 44 89 45 90 46 91
REMARK H PARENT 6 7 11 28 67 47 37 58
REMARK Flexibility Score: inf
ROOT
ATOM      1  C   UNL A   1      33.948  29.387  27.193  1.00  0.00     0.023 C 
ENDROOT
BRANCH   1   2
ATOM      2  C   UNL A   1      32.847  30.444  27.174  1.00  0.00     0.023 C 
BRANCH   2   3
ATOM      3  C   UNL A   1      31.812  30.300  26.065  1.00  0.00     0.116 C 
BRANCH   3   4
ATOM      4  N   UNL A   1      32.382  29.998  24.765  1.00  0.00    -0.356 N 
ATOM      5  C   UNL A   1      32.313  28.831  24.051  1.00  0.00     0.225 C 
ATOM      6  O   UNL A   1      32.826  28.806  22.934  1.00  0.00    -0.275 OA
ATOM      7  H   UNL A   1      32.884  30.729  24.339  1.00  0.00     0.163 HD
BRANCH   5   8
ATOM      8  C   UNL A   1      31.706  27.599  24.714  1.00  0.00     0.102 C 
ATOM      9  C   UNL A   1      32.419  25.679  26.126  1.00  0.00     0.032 C 
ATOM     10  C   UNL A   1      32.699  26.414  24.807  1.00  0.00     0.096 C 
ATOM     11  N   UNL A   1      32.404  25.595  23.611  1.00  0.00    -0.321 N 
ATOM     12  C   UNL A   1      30.525  26.981  23.960  1.00  0.00     0.037 C 
ATOM     13  C   UNL A   1      31.179  26.035  22.976  1.00  0.00     0.122 C 
BRANCH  11  14
ATOM     14  C   UNL A   1      33.288  24.882  22.815  1.00  0.00     0.320 C 
ATOM     15  O   UNL A   1      33.955  25.428  21.935  1.00  0.00    -0.248 OA
BRANCH  14  16
ATOM     16  N   UNL A   1      33.476  23.564  23.138  1.00  0.00    -0.321 N 
ATOM     17  C   UNL A   1      32.814  22.495  22.407  1.00  0.00     0.121 C 
ATOM     18  C   UNL A   1      34.651  23.113  23.857  1.00  0.00     0.090 C 
ATOM     19  C   UNL A   1      32.343  21.399  23.367  1.00  0.00     0.022 C 
ATOM     20  C   UNL A   1      34.157  22.150  24.940  1.00  0.00     0.012 C 
ATOM     21  C   UNL A   1      35.486  24.097  24.668  1.00  0.00     0.025 C 
ATOM     22  C   UNL A   1      33.469  20.938  24.313  1.00  0.00     0.007 C 
ATOM     23  C   UNL A   1      35.407  21.890  25.764  1.00  0.00     0.006 C 
ATOM     24  C   UNL A   1      36.167  23.223  25.731  1.00  0.00     0.002 C 
ENDBRANCH  14  16
ENDBRANCH  11  14
ENDBRANCH   5   8
ENDBRANCH   3   4
ENDBRANCH   2   3
ENDBRANCH   1   2
BRANCH   1  25
ATOM     25  C   UNL A   1      35.326  29.874  27.627  1.00  0.00     0.116 C 
BRANCH  25  26
ATOM     26  N   UNL A   1      35.352  30.368  28.996  1.00  0.00    -0.352 N 
ATOM     27  C   UNL A   1      36.351  30.292  29.941  1.00  0.00     0.251 C 
ATOM     28  H   UNL A   1      34.532  30.825  29.291  1.00  0.00     0.163 HD
ATOM     29  O   UNL A   1      36.127  30.646  31.091  1.00  0.00    -0.269 OA
BRANCH  27  30
ATOM     30  C   UNL A   1      37.680  29.753  29.572  1.00  0.00     0.039 A 
ATOM     31  C   UNL A   1      38.091  29.815  28.238  1.00  0.00     0.014 A 
ATOM     32  C   UNL A   1      38.525  29.199  30.537  1.00  0.00     0.014 A 
ATOM     33  C   UNL A   1      39.376  29.393  27.888  1.00  0.00     0.010 A 
ATOM     34  C   UNL A   1      39.834  28.867  30.203  1.00  0.00     0.010 A 
ATOM     35  C   UNL A   1      40.275  28.954  28.874  1.00  0.00    -0.014 A 
BRANCH  35  36
ATOM     36  C   UNL A   1      41.672  28.570  28.539  1.00  0.00     0.031 A 
ATOM     37  C   UNL A   1      42.760  29.612  28.534  1.00  0.00     0.074 A 
ATOM     38  C   UNL A   1      41.953  27.302  28.174  1.00  0.00     0.049 A 
ATOM     39  N   UNL A   1      44.020  29.489  28.205  1.00  0.00    -0.248 NA
ATOM     40  C   UNL A   1      42.374  30.978  28.926  1.00  0.00     0.031 C 
ATOM     41  C   UNL A   1      40.986  26.205  28.100  1.00  0.00     0.029 A 
ATOM     42  N   UNL A   1      43.139  26.724  27.791  1.00  0.00    -0.354 N 
ATOM     43  C   UNL A   1      44.570  30.760  28.329  1.00  0.00     0.074 A 
ATOM     44  C   UNL A   1      43.494  31.650  28.707  1.00  0.00     0.031 C 
ATOM     45  C   UNL A   1      41.621  25.082  27.727  1.00  0.00     0.029 A 
ATOM     46  C   UNL A   1      43.029  25.385  27.491  1.00  0.00     0.049 A 
ATOM     47  H   UNL A   1      43.987  27.219  27.736  1.00  0.00     0.167 HD
ATOM     48  C   UNL A   1      45.857  31.151  28.166  1.00  0.00     0.031 A 
ATOM     49  C   UNL A   1      43.955  24.501  27.068  1.00  0.00     0.031 A 
ATOM     50  C   UNL A   1      46.927  30.263  27.797  1.00  0.00     0.049 A 
ATOM     51  C   UNL A   1      45.376  24.961  26.880  1.00  0.00     0.074 A 
ATOM     52  C   UNL A   1      48.273  30.551  27.655  1.00  0.00     0.029 A 
ATOM     53  N   UNL A   1      46.774  28.915  27.512  1.00  0.00    -0.354 N 
ATOM     54  N   UNL A   1      45.887  26.155  27.059  1.00  0.00    -0.248 NA
ATOM     55  C   UNL A   1      46.347  23.948  26.444  1.00  0.00     0.031 C 
ATOM     56  C   UNL A   1      48.925  29.389  27.228  1.00  0.00     0.029 A 
ATOM     57  C   UNL A   1      47.998  28.362  27.173  1.00  0.00     0.049 A 
ATOM     58  H   UNL A   1      45.922  28.423  27.545  1.00  0.00     0.167 HD
ATOM     59  C   UNL A   1      47.247  26.029  26.795  1.00  0.00     0.074 A 
ATOM     60  C   UNL A   1      47.478  24.640  26.452  1.00  0.00     0.031 C 
ATOM     61  C   UNL A   1      48.216  26.976  26.838  1.00  0.00     0.031 A 
BRANCH  48  62
ATOM     62  C   UNL A   1      46.172  32.610  28.379  1.00  0.00    -0.014 A 
ATOM     63  C   UNL A   1      46.551  33.096  29.644  1.00  0.00     0.010 A 
ATOM     64  C   UNL A   1      46.115  33.504  27.294  1.00  0.00     0.010 A 
ATOM     65  C   UNL A   1      46.816  34.455  29.831  1.00  0.00     0.020 A 
ATOM     66  C   UNL A   1      46.412  34.859  27.470  1.00  0.00     0.020 A 
ATOM     67  C   UNL A   1      46.742  35.328  28.743  1.00  0.00     0.054 A 
BRANCH  67  68
ATOM     68  S   UNL A   1      47.104  37.085  29.014  1.00  0.00     0.124 S 
ATOM     69  O   UNL A   1      46.085  37.732  28.191  1.00  0.00    -0.237 OA
ATOM     70  O   UNL A   1      46.929  37.228  30.456  1.00  0.00    -0.237 OA
ATOM     71  O   UNL A   1      48.476  37.235  28.537  1.00  0.00    -0.744 OA
ENDBRANCH  67  68
ENDBRANCH  48  62
BRANCH  49  72
ATOM     72  C   UNL A   1      43.571  23.083  26.818  1.00  0.00    -0.014 A 
ATOM     73  C   UNL A   1      43.858  22.473  25.584  1.00  0.00     0.010 A 
ATOM     74  C   UNL A   1      42.928  22.331  27.818  1.00  0.00     0.010 A 
ATOM     75  C   UNL A   1      43.494  21.143  25.349  1.00  0.00     0.020 A 
ATOM     76  C   UNL A   1      42.590  20.993  27.597  1.00  0.00     0.020 A 
ATOM     77  C   UNL A   1      42.865  20.410  26.359  1.00  0.00     0.054 A 
BRANCH  77  78
ATOM     78  S   UNL A   1      42.453  18.670  26.049  1.00  0.00     0.124 S 
ATOM     79  O   UNL A   1      43.347  18.338  24.946  1.00  0.00    -0.237 OA
ATOM     80  O   UNL A   1      42.765  18.040  27.330  1.00  0.00    -0.237 OA
ATOM     81  O   UNL A   1      41.031  18.710  25.715  1.00  0.00    -0.744 OA
ENDBRANCH  77  78
ENDBRANCH  49  72
BRANCH  61  82
ATOM     82  C   UNL A   1      49.631  26.539  26.558  1.00  0.00    -0.014 A 
ATOM     83  C   UNL A   1      50.446  25.992  27.566  1.00  0.00     0.010 A 
ATOM     84  C   UNL A   1      50.133  26.631  25.246  1.00  0.00     0.010 A 
ATOM     85  C   UNL A   1      51.749  25.579  27.272  1.00  0.00     0.020 A 
ATOM     86  C   UNL A   1      51.422  26.190  24.943  1.00  0.00     0.020 A 
ATOM     87  C   UNL A   1      52.229  25.680  25.962  1.00  0.00     0.054 A 
BRANCH  87  88
ATOM     88  S   UNL A   1      53.909  25.101  25.599  1.00  0.00     0.124 S 
ATOM     89  O   UNL A   1      54.648  25.556  26.773  1.00  0.00    -0.237 OA
ATOM     90  O   UNL A   1      53.731  23.654  25.491  1.00  0.00    -0.237 OA
ATOM     91  O   UNL A   1      54.247  25.775  24.349  1.00  0.00    -0.744 OA
ENDBRANCH  87  88
ENDBRANCH  61  82
ENDBRANCH  35  36
ENDBRANCH  27  30
ENDBRANCH  25  26
ENDBRANCH   1  25
TORSDOF 16
ENDMDL
