MODEL 1
REMARK VINA RESULT:     -13.3      0.000      0.000
REMARK SMILES COc1ccccc1[C@@H]1C[N@@H+](Cc2cn3cc(C)ccc3n2)C[C@H]1C(=O)NCCCCNC(=O)c1ccc(-c2c3nc(c(-c4ccc(S(=O)(=O)[O-])cc4)c4ccc([nH]4)c(-c4ccc(S(=O)(=O)[O-])cc4)c4nc(c(-c5ccc(S(=O)(=O)[O-])cc5)c5ccc2[nH]5)C=C4)C=C3)cc1
REMARK SMILES IDX 30 1 29 2 28 3 27 4 25 5 26 6 24 8 9 9 10 10 11 11 23 12
REMARK SMILES IDX 8 14 3 15 4 16 5 17 7 18 6 19 2 20 1 21 12 22 13 23 14 24
REMARK SMILES IDX 22 25 15 26 21 27 16 28 20 29 17 30 19 31 18 32 31 33 32 34
REMARK SMILES IDX 33 35 34 37 35 38 36 39 94 40 37 41 93 42 38 43 39 44 40 45
REMARK SMILES IDX 87 46 41 47 92 48 86 49 88 50 42 51 91 52 85 53 84 54 43 56
REMARK SMILES IDX 73 57 54 58 72 59 55 60 58 61 71 62 89 63 56 64 57 65 70 67
REMARK SMILES IDX 90 68 59 69 44 70 45 71 53 72 46 73 52 74 47 75 48 76 49 77
REMARK SMILES IDX 50 78 51 79 74 80 75 81 83 82 76 83 82 84 77 85 78 86 79 87
REMARK SMILES IDX 80 88 81 89 60 90 61 91 69 92 62 93 68 94 63 95 64 96 65 97
REMARK SMILES IDX 66 98 67 99
REMARK H PARENT 27 7 11 13 32 36 88 55 58 66
REMARK Flexibility Score: inf
ROOT
ATOM      1  C   UNL A   1      37.116  22.352  25.830  1.00  0.00     0.023 C 
ENDROOT
BRANCH   1   2
ATOM      2  C   UNL A   1      36.268  23.012  24.731  1.00  0.00     0.023 C 
BRANCH   2   3
ATOM      3  C   UNL A   1      35.005  23.815  25.155  1.00  0.00     0.116 C 
BRANCH   3   4
ATOM      4  N   UNL A   1      34.320  23.449  26.391  1.00  0.00    -0.356 N 
ATOM      5  C   UNL A   1      33.063  23.443  26.910  1.00  0.00     0.229 C 
ATOM      6  O   UNL A   1      33.015  22.949  28.053  1.00  0.00    -0.275 OA
ATOM      7  H   UNL A   1      34.964  23.099  27.049  1.00  0.00     0.163 HD
BRANCH   5   8
ATOM      8  C   UNL A   1      31.727  23.926  26.302  1.00  0.00     0.146 C 
ATOM      9  C   UNL A   1      31.881  25.150  25.346  1.00  0.00     0.096 C 
ATOM     10  C   UNL A   1      30.814  24.950  24.263  1.00  0.00     0.272 C 
ATOM     11  N   UNL A   1      30.683  23.494  24.122  1.00  0.00    -0.329 N 
ATOM     12  C   UNL A   1      30.840  22.976  25.494  1.00  0.00     0.276 C 
ATOM     13  H   UNL A   1      29.773  23.251  23.728  1.00  0.00     0.348 HD
BRANCH   9  14
ATOM     14  C   UNL A   1      32.157  26.580  25.776  1.00  0.00     0.004 A 
ATOM     15  C   UNL A   1      33.149  27.431  25.284  1.00  0.00     0.122 A 
ATOM     16  C   UNL A   1      33.431  28.644  25.940  1.00  0.00     0.047 A 
ATOM     17  C   UNL A   1      32.734  29.028  27.088  1.00  0.00     0.004 A 
ATOM     18  C   UNL A   1      31.448  27.018  26.926  1.00  0.00     0.008 A 
ATOM     19  C   UNL A   1      31.737  28.208  27.587  1.00  0.00     0.001 A 
BRANCH  15  20
ATOM     20  O   UNL A   1      34.003  27.105  24.268  1.00  0.00    -0.496 OA
ATOM     21  C   UNL A   1      33.690  27.775  23.050  1.00  0.00     0.278 C 
ENDBRANCH  15  20
ENDBRANCH   9  14
BRANCH  11  22
ATOM     22  C   UNL A   1      31.539  22.848  23.090  1.00  0.00     0.321 C 
BRANCH  22  23
ATOM     23  C   UNL A   1      32.108  21.481  23.388  1.00  0.00     0.114 A 
ATOM     24  C   UNL A   1      32.691  20.946  24.527  1.00  0.00     0.122 A 
ATOM     25  N   UNL A   1      32.144  20.534  22.405  1.00  0.00    -0.228 NA
ATOM     26  N   UNL A   1      33.007  19.632  24.221  1.00  0.00    -0.306 N 
ATOM     27  C   UNL A   1      32.502  19.404  22.959  1.00  0.00     0.137 A 
ATOM     28  C   UNL A   1      33.726  18.660  24.918  1.00  0.00     0.096 A 
ATOM     29  C   UNL A   1      32.540  18.083  22.437  1.00  0.00     0.048 A 
ATOM     30  C   UNL A   1      33.885  17.434  24.370  1.00  0.00    -0.034 A 
ATOM     31  C   UNL A   1      33.206  17.132  23.110  1.00  0.00     0.009 A 
ATOM     32  C   UNL A   1      34.755  16.355  24.930  1.00  0.00     0.046 C 
ENDBRANCH  22  23
ENDBRANCH  11  22
ENDBRANCH   5   8
ENDBRANCH   3   4
ENDBRANCH   2   3
ENDBRANCH   1   2
BRANCH   1  33
ATOM     33  C   UNL A   1      38.647  22.484  25.744  1.00  0.00     0.116 C 
BRANCH  33  34
ATOM     34  N   UNL A   1      39.424  21.945  26.869  1.00  0.00    -0.352 N 
ATOM     35  C   UNL A   1      40.647  22.421  27.349  1.00  0.00     0.251 C 
ATOM     36  H   UNL A   1      39.042  21.166  27.333  1.00  0.00     0.163 HD
ATOM     37  O   UNL A   1      41.402  21.742  28.006  1.00  0.00    -0.269 OA
BRANCH  35  38
ATOM     38  C   UNL A   1      40.941  23.837  27.048  1.00  0.00     0.039 A 
ATOM     39  C   UNL A   1      39.957  24.713  26.592  1.00  0.00     0.014 A 
ATOM     40  C   UNL A   1      42.118  24.304  27.603  1.00  0.00     0.014 A 
ATOM     41  C   UNL A   1      40.092  26.078  26.877  1.00  0.00     0.010 A 
ATOM     42  C   UNL A   1      42.152  25.613  28.032  1.00  0.00     0.010 A 
ATOM     43  C   UNL A   1      41.149  26.527  27.690  1.00  0.00    -0.014 A 
BRANCH  43  44
ATOM     44  C   UNL A   1      41.119  27.873  28.301  1.00  0.00     0.031 A 
ATOM     45  C   UNL A   1      42.193  28.851  27.914  1.00  0.00     0.074 A 
ATOM     46  C   UNL A   1      40.080  28.392  28.997  1.00  0.00     0.049 A 
ATOM     47  N   UNL A   1      43.124  29.344  28.669  1.00  0.00    -0.248 NA
ATOM     48  C   UNL A   1      42.253  29.328  26.524  1.00  0.00     0.031 C 
ATOM     49  C   UNL A   1      38.768  27.805  29.296  1.00  0.00     0.029 A 
ATOM     50  N   UNL A   1      39.951  29.658  29.491  1.00  0.00    -0.354 N 
ATOM     51  C   UNL A   1      43.785  30.316  27.915  1.00  0.00     0.074 A 
ATOM     52  C   UNL A   1      43.281  30.182  26.569  1.00  0.00     0.031 C 
ATOM     53  C   UNL A   1      37.900  28.777  29.642  1.00  0.00     0.029 A 
ATOM     54  C   UNL A   1      38.654  29.997  29.835  1.00  0.00     0.049 A 
ATOM     55  H   UNL A   1      40.712  30.274  29.595  1.00  0.00     0.167 HD
ATOM     56  C   UNL A   1      44.575  31.278  28.479  1.00  0.00     0.031 A 
ATOM     57  C   UNL A   1      38.201  31.179  30.304  1.00  0.00     0.031 A 
ATOM     58  C   UNL A   1      44.827  31.027  29.874  1.00  0.00     0.049 A 
ATOM     59  C   UNL A   1      39.346  31.858  30.945  1.00  0.00     0.074 A 
ATOM     60  C   UNL A   1      45.425  30.024  30.607  1.00  0.00     0.029 A 
ATOM     61  N   UNL A   1      44.103  31.767  30.779  1.00  0.00    -0.354 N 
ATOM     62  N   UNL A   1      39.966  31.376  31.988  1.00  0.00    -0.248 NA
ATOM     63  C   UNL A   1      40.063  32.895  30.224  1.00  0.00     0.031 C 
ATOM     64  C   UNL A   1      44.639  29.922  31.796  1.00  0.00     0.029 A 
ATOM     65  C   UNL A   1      43.637  30.893  31.727  1.00  0.00     0.049 A 
ATOM     66  H   UNL A   1      43.948  32.740  30.750  1.00  0.00     0.167 HD
ATOM     67  C   UNL A   1      41.292  31.728  31.812  1.00  0.00     0.074 A 
ATOM     68  C   UNL A   1      41.264  32.780  30.801  1.00  0.00     0.031 C 
ATOM     69  C   UNL A   1      42.305  30.947  32.299  1.00  0.00     0.031 A 
BRANCH  56  70
ATOM     70  C   UNL A   1      44.860  32.638  27.881  1.00  0.00    -0.014 A 
ATOM     71  C   UNL A   1      46.202  33.033  27.671  1.00  0.00     0.010 A 
ATOM     72  C   UNL A   1      43.878  33.642  27.777  1.00  0.00     0.010 A 
ATOM     73  C   UNL A   1      46.545  34.373  27.438  1.00  0.00     0.020 A 
ATOM     74  C   UNL A   1      44.206  34.975  27.502  1.00  0.00     0.020 A 
ATOM     75  C   UNL A   1      45.541  35.340  27.375  1.00  0.00     0.054 A 
BRANCH  75  76
ATOM     76  S   UNL A   1      45.998  37.086  27.210  1.00  0.00     0.124 S 
ATOM     77  O   UNL A   1      47.106  37.017  26.261  1.00  0.00    -0.237 OA
ATOM     78  O   UNL A   1      44.767  37.688  26.702  1.00  0.00    -0.237 OA
ATOM     79  O   UNL A   1      46.360  37.474  28.571  1.00  0.00    -0.744 OA
ENDBRANCH  75  76
ENDBRANCH  56  70
BRANCH  57  80
ATOM     80  C   UNL A   1      36.897  31.800  30.006  1.00  0.00    -0.014 A 
ATOM     81  C   UNL A   1      36.093  32.346  31.017  1.00  0.00     0.010 A 
ATOM     82  C   UNL A   1      36.554  32.075  28.663  1.00  0.00     0.010 A 
ATOM     83  C   UNL A   1      35.013  33.184  30.698  1.00  0.00     0.020 A 
ATOM     84  C   UNL A   1      35.478  32.905  28.336  1.00  0.00     0.020 A 
ATOM     85  C   UNL A   1      34.726  33.475  29.360  1.00  0.00     0.054 A 
BRANCH  85  86
ATOM     86  S   UNL A   1      33.447  34.705  28.970  1.00  0.00     0.124 S 
ATOM     87  O   UNL A   1      34.227  35.783  28.371  1.00  0.00    -0.237 OA
ATOM     88  O   UNL A   1      32.574  33.972  28.056  1.00  0.00    -0.237 OA
ATOM     89  O   UNL A   1      32.858  35.013  30.272  1.00  0.00    -0.744 OA
ENDBRANCH  85  86
ENDBRANCH  57  80
BRANCH  69  90
ATOM     90  C   UNL A   1      41.958  29.851  33.286  1.00  0.00    -0.014 A 
ATOM     91  C   UNL A   1      41.582  28.552  32.889  1.00  0.00     0.010 A 
ATOM     92  C   UNL A   1      42.182  30.089  34.654  1.00  0.00     0.010 A 
ATOM     93  C   UNL A   1      41.416  27.527  33.832  1.00  0.00     0.020 A 
ATOM     94  C   UNL A   1      42.035  29.066  35.598  1.00  0.00     0.020 A 
ATOM     95  C   UNL A   1      41.646  27.791  35.183  1.00  0.00     0.054 A 
BRANCH  95  96
ATOM     96  S   UNL A   1      41.498  26.440  36.388  1.00  0.00     0.124 S 
ATOM     97  O   UNL A   1      40.774  27.073  37.487  1.00  0.00    -0.237 OA
ATOM     98  O   UNL A   1      40.753  25.423  35.648  1.00  0.00    -0.237 OA
ATOM     99  O   UNL A   1      42.885  26.084  36.684  1.00  0.00    -0.744 OA
ENDBRANCH  95  96
ENDBRANCH  69  90
ENDBRANCH  43  44
ENDBRANCH  35  38
ENDBRANCH  33  34
ENDBRANCH   1  33
TORSDOF 18
ENDMDL
MODEL 2
REMARK VINA RESULT:     -13.2      3.080      9.491
REMARK SMILES COc1ccccc1[C@@H]1C[N@@H+](Cc2cn3cc(C)ccc3n2)C[C@H]1C(=O)NCCCCNC(=O)c1ccc(-c2c3nc(c(-c4ccc(S(=O)(=O)[O-])cc4)c4ccc([nH]4)c(-c4ccc(S(=O)(=O)[O-])cc4)c4nc(c(-c5ccc(S(=O)(=O)[O-])cc5)c5ccc2[nH]5)C=C4)C=C3)cc1
REMARK SMILES IDX 30 1 29 2 28 3 27 4 25 5 26 6 24 8 9 9 10 10 11 11 23 12
REMARK SMILES IDX 8 14 3 15 4 16 5 17 7 18 6 19 2 20 1 21 12 22 13 23 14 24
REMARK SMILES IDX 22 25 15 26 21 27 16 28 20 29 17 30 19 31 18 32 31 33 32 34
REMARK SMILES IDX 33 35 34 37 35 38 36 39 94 40 37 41 93 42 38 43 39 44 40 45
REMARK SMILES IDX 87 46 41 47 92 48 86 49 88 50 42 51 91 52 85 53 84 54 43 56
REMARK SMILES IDX 73 57 54 58 72 59 55 60 58 61 71 62 89 63 56 64 57 65 70 67
REMARK SMILES IDX 90 68 59 69 44 70 45 71 53 72 46 73 52 74 47 75 48 76 49 77
REMARK SMILES IDX 50 78 51 79 74 80 75 81 83 82 76 83 82 84 77 85 78 86 79 87
REMARK SMILES IDX 80 88 81 89 60 90 61 91 69 92 62 93 68 94 63 95 64 96 65 97
REMARK SMILES IDX 66 98 67 99
REMARK H PARENT 27 7 11 13 32 36 88 55 58 66
REMARK Flexibility Score: inf
ROOT
ATOM      1  C   UNL A   1      32.337  29.538  27.169  1.00  0.00     0.023 C 
ENDROOT
BRANCH   1   2
ATOM      2  C   UNL A   1      31.711  28.273  27.778  1.00  0.00     0.023 C 
BRANCH   2   3
ATOM      3  C   UNL A   1      31.084  27.223  26.818  1.00  0.00     0.116 C 
BRANCH   3   4
ATOM      4  N   UNL A   1      31.534  25.836  26.903  1.00  0.00    -0.356 N 
ATOM      5  C   UNL A   1      32.504  25.034  26.388  1.00  0.00     0.229 C 
ATOM      6  O   UNL A   1      32.476  23.880  26.858  1.00  0.00    -0.275 OA
ATOM      7  H   UNL A   1      30.960  25.327  27.520  1.00  0.00     0.163 HD
BRANCH   5   8
ATOM      8  C   UNL A   1      33.613  25.340  25.356  1.00  0.00     0.146 C 
ATOM      9  C   UNL A   1      33.944  24.136  24.419  1.00  0.00     0.096 C 
ATOM     10  C   UNL A   1      34.306  24.767  23.069  1.00  0.00     0.272 C 
ATOM     11  N   UNL A   1      33.497  25.991  22.991  1.00  0.00    -0.329 N 
ATOM     12  C   UNL A   1      33.475  26.504  24.373  1.00  0.00     0.276 C 
ATOM     13  H   UNL A   1      33.918  26.659  22.345  1.00  0.00     0.348 HD
BRANCH   9  14
ATOM     14  C   UNL A   1      34.714  22.890  24.818  1.00  0.00     0.004 A 
ATOM     15  C   UNL A   1      36.063  22.810  25.170  1.00  0.00     0.122 A 
ATOM     16  C   UNL A   1      36.690  21.556  25.291  1.00  0.00     0.047 A 
ATOM     17  C   UNL A   1      35.990  20.368  25.066  1.00  0.00     0.004 A 
ATOM     18  C   UNL A   1      34.026  21.661  24.630  1.00  0.00     0.008 A 
ATOM     19  C   UNL A   1      34.649  20.421  24.731  1.00  0.00     0.001 A 
BRANCH  15  20
ATOM     20  O   UNL A   1      36.895  23.890  25.265  1.00  0.00    -0.496 OA
ATOM     21  C   UNL A   1      38.023  23.645  26.101  1.00  0.00     0.278 C 
ENDBRANCH  15  20
ENDBRANCH   9  14
BRANCH  11  22
ATOM     22  C   UNL A   1      32.169  25.866  22.331  1.00  0.00     0.321 C 
BRANCH  22  23
ATOM     23  C   UNL A   1      31.162  26.974  22.537  1.00  0.00     0.114 A 
ATOM     24  C   UNL A   1      31.213  28.336  22.277  1.00  0.00     0.122 A 
ATOM     25  N   UNL A   1      29.962  26.697  23.126  1.00  0.00    -0.228 NA
ATOM     26  N   UNL A   1      29.984  28.849  22.656  1.00  0.00    -0.306 N 
ATOM     27  C   UNL A   1      29.214  27.765  23.019  1.00  0.00     0.137 A 
ATOM     28  C   UNL A   1      29.512  30.159  22.755  1.00  0.00     0.096 A 
ATOM     29  C   UNL A   1      27.839  27.971  23.311  1.00  0.00     0.048 A 
ATOM     30  C   UNL A   1      28.240  30.376  23.161  1.00  0.00    -0.034 A 
ATOM     31  C   UNL A   1      27.365  29.225  23.383  1.00  0.00     0.009 A 
ATOM     32  C   UNL A   1      27.656  31.719  23.458  1.00  0.00     0.046 C 
ENDBRANCH  22  23
ENDBRANCH  11  22
ENDBRANCH   5   8
ENDBRANCH   3   4
ENDBRANCH   2   3
ENDBRANCH   1   2
BRANCH   1  33
ATOM     33  C   UNL A   1      33.860  29.722  27.281  1.00  0.00     0.116 C 
BRANCH  33  34
ATOM     34  N   UNL A   1      34.397  31.047  26.939  1.00  0.00    -0.352 N 
ATOM     35  C   UNL A   1      35.268  31.824  27.706  1.00  0.00     0.251 C 
ATOM     36  H   UNL A   1      34.112  31.426  26.077  1.00  0.00     0.163 HD
ATOM     37  O   UNL A   1      35.378  33.020  27.565  1.00  0.00    -0.269 OA
BRANCH  35  38
ATOM     38  C   UNL A   1      36.097  31.079  28.677  1.00  0.00     0.039 A 
ATOM     39  C   UNL A   1      36.200  29.690  28.645  1.00  0.00     0.014 A 
ATOM     40  C   UNL A   1      37.031  31.855  29.340  1.00  0.00     0.014 A 
ATOM     41  C   UNL A   1      37.370  29.095  29.133  1.00  0.00     0.010 A 
ATOM     42  C   UNL A   1      38.243  31.278  29.649  1.00  0.00     0.010 A 
ATOM     43  C   UNL A   1      38.448  29.897  29.551  1.00  0.00    -0.014 A 
BRANCH  43  44
ATOM     44  C   UNL A   1      39.800  29.324  29.723  1.00  0.00     0.031 A 
ATOM     45  C   UNL A   1      40.277  29.039  31.120  1.00  0.00     0.074 A 
ATOM     46  C   UNL A   1      40.562  28.809  28.730  1.00  0.00     0.049 A 
ATOM     47  N   UNL A   1      41.250  29.611  31.757  1.00  0.00    -0.248 NA
ATOM     48  C   UNL A   1      39.586  28.009  31.911  1.00  0.00     0.031 C 
ATOM     49  C   UNL A   1      40.262  28.664  27.299  1.00  0.00     0.029 A 
ATOM     50  N   UNL A   1      41.766  28.174  28.839  1.00  0.00    -0.354 N 
ATOM     51  C   UNL A   1      41.415  28.916  32.955  1.00  0.00     0.074 A 
ATOM     52  C   UNL A   1      40.291  28.014  33.047  1.00  0.00     0.031 C 
ATOM     53  C   UNL A   1      41.089  27.753  26.748  1.00  0.00     0.029 A 
ATOM     54  C   UNL A   1      42.124  27.452  27.714  1.00  0.00     0.049 A 
ATOM     55  H   UNL A   1      42.329  28.226  29.645  1.00  0.00     0.167 HD
ATOM     56  C   UNL A   1      42.551  29.003  33.710  1.00  0.00     0.031 A 
ATOM     57  C   UNL A   1      43.222  26.688  27.533  1.00  0.00     0.031 A 
ATOM     58  C   UNL A   1      43.427  30.051  33.256  1.00  0.00     0.049 A 
ATOM     59  C   UNL A   1      44.257  27.190  28.460  1.00  0.00     0.074 A 
ATOM     60  C   UNL A   1      43.344  31.420  33.119  1.00  0.00     0.029 A 
ATOM     61  N   UNL A   1      44.521  29.668  32.516  1.00  0.00    -0.354 N 
ATOM     62  N   UNL A   1      44.755  28.394  28.386  1.00  0.00    -0.248 NA
ATOM     63  C   UNL A   1      44.495  26.498  29.715  1.00  0.00     0.031 C 
ATOM     64  C   UNL A   1      44.072  31.712  31.925  1.00  0.00     0.029 A 
ATOM     65  C   UNL A   1      44.583  30.508  31.434  1.00  0.00     0.049 A 
ATOM     66  H   UNL A   1      45.141  28.931  32.723  1.00  0.00     0.167 HD
ATOM     67  C   UNL A   1      44.987  28.768  29.698  1.00  0.00     0.074 A 
ATOM     68  C   UNL A   1      44.953  27.517  30.450  1.00  0.00     0.031 C 
ATOM     69  C   UNL A   1      44.912  30.077  30.088  1.00  0.00     0.031 A 
BRANCH  56  70
ATOM     70  C   UNL A   1      43.056  27.937  34.657  1.00  0.00    -0.014 A 
ATOM     71  C   UNL A   1      43.406  28.297  35.980  1.00  0.00     0.010 A 
ATOM     72  C   UNL A   1      43.460  26.661  34.218  1.00  0.00     0.010 A 
ATOM     73  C   UNL A   1      44.177  27.451  36.791  1.00  0.00     0.020 A 
ATOM     74  C   UNL A   1      44.193  25.792  35.036  1.00  0.00     0.020 A 
ATOM     75  C   UNL A   1      44.582  26.209  36.303  1.00  0.00     0.054 A 
BRANCH  75  76
ATOM     76  S   UNL A   1      45.689  25.179  37.302  1.00  0.00     0.124 S 
ATOM     77  O   UNL A   1      46.600  26.174  37.860  1.00  0.00    -0.237 OA
ATOM     78  O   UNL A   1      44.770  24.559  38.254  1.00  0.00    -0.237 OA
ATOM     79  O   UNL A   1      46.278  24.265  36.327  1.00  0.00    -0.744 OA
ENDBRANCH  75  76
ENDBRANCH  56  70
BRANCH  57  80
ATOM     80  C   UNL A   1      43.300  25.431  26.765  1.00  0.00    -0.014 A 
ATOM     81  C   UNL A   1      43.847  25.390  25.474  1.00  0.00     0.010 A 
ATOM     82  C   UNL A   1      43.050  24.205  27.420  1.00  0.00     0.010 A 
ATOM     83  C   UNL A   1      44.183  24.164  24.879  1.00  0.00     0.020 A 
ATOM     84  C   UNL A   1      43.378  22.979  26.833  1.00  0.00     0.020 A 
ATOM     85  C   UNL A   1      43.966  22.967  25.571  1.00  0.00     0.054 A 
BRANCH  85  86
ATOM     86  S   UNL A   1      44.576  21.407  24.869  1.00  0.00     0.124 S 
ATOM     87  O   UNL A   1      44.623  21.708  23.442  1.00  0.00    -0.237 OA
ATOM     88  O   UNL A   1      45.871  21.251  25.527  1.00  0.00    -0.237 OA
ATOM     89  O   UNL A   1      43.562  20.432  25.265  1.00  0.00    -0.744 OA
ENDBRANCH  85  86
ENDBRANCH  57  80
BRANCH  69  90
ATOM     90  C   UNL A   1      44.864  31.146  29.015  1.00  0.00    -0.014 A 
ATOM     91  C   UNL A   1      46.005  31.849  28.581  1.00  0.00     0.010 A 
ATOM     92  C   UNL A   1      43.663  31.326  28.305  1.00  0.00     0.010 A 
ATOM     93  C   UNL A   1      45.945  32.721  27.483  1.00  0.00     0.020 A 
ATOM     94  C   UNL A   1      43.599  32.182  27.199  1.00  0.00     0.020 A 
ATOM     95  C   UNL A   1      44.740  32.880  26.797  1.00  0.00     0.054 A 
BRANCH  95  96
ATOM     96  S   UNL A   1      44.688  33.956  25.335  1.00  0.00     0.124 S 
ATOM     97  O   UNL A   1      44.252  33.042  24.283  1.00  0.00    -0.237 OA
ATOM     98  O   UNL A   1      43.719  34.981  25.718  1.00  0.00    -0.237 OA
ATOM     99  O   UNL A   1      46.063  34.436  25.207  1.00  0.00    -0.744 OA
ENDBRANCH  95  96
ENDBRANCH  69  90
ENDBRANCH  43  44
ENDBRANCH  35  38
ENDBRANCH  33  34
ENDBRANCH   1  33
TORSDOF 18
ENDMDL
MODEL 3
REMARK VINA RESULT:     -13.0      3.014      8.735
REMARK SMILES COc1ccccc1[C@@H]1C[N@@H+](Cc2cn3cc(C)ccc3n2)C[C@H]1C(=O)NCCCCNC(=O)c1ccc(-c2c3nc(c(-c4ccc(S(=O)(=O)[O-])cc4)c4ccc([nH]4)c(-c4ccc(S(=O)(=O)[O-])cc4)c4nc(c(-c5ccc(S(=O)(=O)[O-])cc5)c5ccc2[nH]5)C=C4)C=C3)cc1
REMARK SMILES IDX 30 1 29 2 28 3 27 4 25 5 26 6 24 8 9 9 10 10 11 11 23 12
REMARK SMILES IDX 8 14 3 15 4 16 5 17 7 18 6 19 2 20 1 21 12 22 13 23 14 24
REMARK SMILES IDX 22 25 15 26 21 27 16 28 20 29 17 30 19 31 18 32 31 33 32 34
REMARK SMILES IDX 33 35 34 37 35 38 36 39 94 40 37 41 93 42 38 43 39 44 40 45
REMARK SMILES IDX 87 46 41 47 92 48 86 49 88 50 42 51 91 52 85 53 84 54 43 56
REMARK SMILES IDX 73 57 54 58 72 59 55 60 58 61 71 62 89 63 56 64 57 65 70 67
REMARK SMILES IDX 90 68 59 69 44 70 45 71 53 72 46 73 52 74 47 75 48 76 49 77
REMARK SMILES IDX 50 78 51 79 74 80 75 81 83 82 76 83 82 84 77 85 78 86 79 87
REMARK SMILES IDX 80 88 81 89 60 90 61 91 69 92 62 93 68 94 63 95 64 96 65 97
REMARK SMILES IDX 66 98 67 99
REMARK H PARENT 27 7 11 13 32 36 88 55 58 66
REMARK Flexibility Score: inf
ROOT
ATOM      1  C   UNL A   1      33.236  30.444  26.711  1.00  0.00     0.023 C 
ENDROOT
BRANCH   1   2
ATOM      2  C   UNL A   1      31.842  29.804  26.813  1.00  0.00     0.023 C 
BRANCH   2   3
ATOM      3  C   UNL A   1      31.686  28.501  27.646  1.00  0.00     0.116 C 
BRANCH   3   4
ATOM      4  N   UNL A   1      31.203  27.294  26.982  1.00  0.00    -0.356 N 
ATOM      5  C   UNL A   1      31.658  26.328  26.139  1.00  0.00     0.229 C 
ATOM      6  O   UNL A   1      30.809  25.445  25.913  1.00  0.00    -0.275 OA
ATOM      7  H   UNL A   1      30.260  27.130  27.214  1.00  0.00     0.163 HD
BRANCH   5   8
ATOM      8  C   UNL A   1      33.036  26.160  25.460  1.00  0.00     0.146 C 
ATOM      9  C   UNL A   1      33.221  24.781  24.753  1.00  0.00     0.096 C 
ATOM     10  C   UNL A   1      34.095  25.073  23.528  1.00  0.00     0.272 C 
ATOM     11  N   UNL A   1      33.742  26.441  23.125  1.00  0.00    -0.329 N 
ATOM     12  C   UNL A   1      33.517  27.151  24.398  1.00  0.00     0.276 C 
ATOM     13  H   UNL A   1      34.499  26.863  22.585  1.00  0.00     0.348 HD
BRANCH   9  14
ATOM     14  C   UNL A   1      33.447  23.453  25.452  1.00  0.00     0.004 A 
ATOM     15  C   UNL A   1      32.778  22.250  25.212  1.00  0.00     0.122 A 
ATOM     16  C   UNL A   1      32.933  21.165  26.094  1.00  0.00     0.047 A 
ATOM     17  C   UNL A   1      33.753  21.256  27.222  1.00  0.00     0.004 A 
ATOM     18  C   UNL A   1      34.297  23.498  26.589  1.00  0.00     0.008 A 
ATOM     19  C   UNL A   1      34.438  22.432  27.472  1.00  0.00     0.001 A 
BRANCH  15  20
ATOM     20  O   UNL A   1      31.833  22.081  24.239  1.00  0.00    -0.496 OA
ATOM     21  C   UNL A   1      32.389  21.644  23.002  1.00  0.00     0.278 C 
ENDBRANCH  15  20
ENDBRANCH   9  14
BRANCH  11  22
ATOM     22  C   UNL A   1      32.659  26.576  22.114  1.00  0.00     0.321 C 
BRANCH  22  23
ATOM     23  C   UNL A   1      31.521  27.525  22.409  1.00  0.00     0.114 A 
ATOM     24  C   UNL A   1      31.426  28.908  22.351  1.00  0.00     0.122 A 
ATOM     25  N   UNL A   1      30.333  27.035  22.868  1.00  0.00    -0.228 NA
ATOM     26  N   UNL A   1      30.128  29.224  22.715  1.00  0.00    -0.306 N 
ATOM     27  C   UNL A   1      29.472  28.020  22.866  1.00  0.00     0.137 A 
ATOM     28  C   UNL A   1      29.502  30.445  22.969  1.00  0.00     0.096 A 
ATOM     29  C   UNL A   1      28.069  28.031  23.091  1.00  0.00     0.048 A 
ATOM     30  C   UNL A   1      28.195  30.460  23.315  1.00  0.00    -0.034 A 
ATOM     31  C   UNL A   1      27.450  29.201  23.310  1.00  0.00     0.009 A 
ATOM     32  C   UNL A   1      27.444  31.673  23.762  1.00  0.00     0.046 C 
ENDBRANCH  22  23
ENDBRANCH  11  22
ENDBRANCH   5   8
ENDBRANCH   3   4
ENDBRANCH   2   3
ENDBRANCH   1   2
BRANCH   1  33
ATOM     33  C   UNL A   1      33.626  31.506  27.753  1.00  0.00     0.116 C 
BRANCH  33  34
ATOM     34  N   UNL A   1      32.994  32.826  27.626  1.00  0.00    -0.352 N 
ATOM     35  C   UNL A   1      33.172  33.928  28.466  1.00  0.00     0.251 C 
ATOM     36  H   UNL A   1      32.379  32.947  26.867  1.00  0.00     0.163 HD
ATOM     37  O   UNL A   1      32.374  34.834  28.539  1.00  0.00    -0.269 OA
BRANCH  35  38
ATOM     38  C   UNL A   1      34.436  33.946  29.231  1.00  0.00     0.039 A 
ATOM     39  C   UNL A   1      34.640  33.123  30.337  1.00  0.00     0.014 A 
ATOM     40  C   UNL A   1      35.498  34.528  28.561  1.00  0.00     0.014 A 
ATOM     41  C   UNL A   1      35.949  32.735  30.649  1.00  0.00     0.010 A 
ATOM     42  C   UNL A   1      36.754  34.000  28.765  1.00  0.00     0.010 A 
ATOM     43  C   UNL A   1      37.012  33.094  29.801  1.00  0.00    -0.014 A 
BRANCH  43  44
ATOM     44  C   UNL A   1      38.322  32.414  29.893  1.00  0.00     0.031 A 
ATOM     45  C   UNL A   1      38.395  30.961  29.513  1.00  0.00     0.074 A 
ATOM     46  C   UNL A   1      39.514  33.033  30.060  1.00  0.00     0.049 A 
ATOM     47  N   UNL A   1      38.654  29.953  30.285  1.00  0.00    -0.248 NA
ATOM     48  C   UNL A   1      38.134  30.577  28.117  1.00  0.00     0.031 C 
ATOM     49  C   UNL A   1      39.817  34.467  30.164  1.00  0.00     0.029 A 
ATOM     50  N   UNL A   1      40.760  32.474  30.047  1.00  0.00    -0.354 N 
ATOM     51  C   UNL A   1      38.760  28.830  29.463  1.00  0.00     0.074 A 
ATOM     52  C   UNL A   1      38.319  29.253  28.157  1.00  0.00     0.031 C 
ATOM     53  C   UNL A   1      41.125  34.678  29.912  1.00  0.00     0.029 A 
ATOM     54  C   UNL A   1      41.785  33.389  29.886  1.00  0.00     0.049 A 
ATOM     55  H   UNL A   1      40.914  31.506  30.145  1.00  0.00     0.167 HD
ATOM     56  C   UNL A   1      39.365  27.672  29.868  1.00  0.00     0.031 A 
ATOM     57  C   UNL A   1      43.109  33.144  29.789  1.00  0.00     0.031 A 
ATOM     58  C   UNL A   1      39.653  27.673  31.279  1.00  0.00     0.049 A 
ATOM     59  C   UNL A   1      43.360  31.850  30.455  1.00  0.00     0.074 A 
ATOM     60  C   UNL A   1      38.914  27.761  32.439  1.00  0.00     0.029 A 
ATOM     61  N   UNL A   1      40.954  27.919  31.647  1.00  0.00    -0.354 N 
ATOM     62  N   UNL A   1      43.144  31.651  31.727  1.00  0.00    -0.248 NA
ATOM     63  C   UNL A   1      43.504  30.646  29.656  1.00  0.00     0.031 C 
ATOM     64  C   UNL A   1      39.721  28.535  33.328  1.00  0.00     0.029 A 
ATOM     65  C   UNL A   1      40.913  28.836  32.665  1.00  0.00     0.049 A 
ATOM     66  H   UNL A   1      41.762  27.514  31.253  1.00  0.00     0.167 HD
ATOM     67  C   UNL A   1      42.707  30.341  31.816  1.00  0.00     0.074 A 
ATOM     68  C   UNL A   1      43.092  29.736  30.545  1.00  0.00     0.031 C 
ATOM     69  C   UNL A   1      41.835  29.949  32.795  1.00  0.00     0.031 A 
BRANCH  56  70
ATOM     70  C   UNL A   1      40.015  26.658  28.953  1.00  0.00    -0.014 A 
ATOM     71  C   UNL A   1      39.238  25.594  28.437  1.00  0.00     0.010 A 
ATOM     72  C   UNL A   1      41.412  26.555  28.805  1.00  0.00     0.010 A 
ATOM     73  C   UNL A   1      39.834  24.459  27.868  1.00  0.00     0.020 A 
ATOM     74  C   UNL A   1      42.014  25.445  28.200  1.00  0.00     0.020 A 
ATOM     75  C   UNL A   1      41.224  24.386  27.772  1.00  0.00     0.054 A 
BRANCH  75  76
ATOM     76  S   UNL A   1      41.993  22.862  27.161  1.00  0.00     0.124 S 
ATOM     77  O   UNL A   1      43.131  22.719  28.065  1.00  0.00    -0.237 OA
ATOM     78  O   UNL A   1      40.925  21.879  27.330  1.00  0.00    -0.237 OA
ATOM     79  O   UNL A   1      42.327  23.180  25.775  1.00  0.00    -0.744 OA
ENDBRANCH  75  76
ENDBRANCH  56  70
BRANCH  57  80
ATOM     80  C   UNL A   1      44.078  33.878  28.953  1.00  0.00    -0.014 A 
ATOM     81  C   UNL A   1      45.105  34.648  29.519  1.00  0.00     0.010 A 
ATOM     82  C   UNL A   1      44.134  33.612  27.566  1.00  0.00     0.010 A 
ATOM     83  C   UNL A   1      46.181  35.092  28.735  1.00  0.00     0.020 A 
ATOM     84  C   UNL A   1      45.200  34.054  26.777  1.00  0.00     0.020 A 
ATOM     85  C   UNL A   1      46.232  34.773  27.373  1.00  0.00     0.054 A 
BRANCH  85  86
ATOM     86  S   UNL A   1      47.716  35.193  26.414  1.00  0.00     0.124 S 
ATOM     87  O   UNL A   1      48.785  34.636  27.238  1.00  0.00    -0.237 OA
ATOM     88  O   UNL A   1      47.475  34.511  25.145  1.00  0.00    -0.237 OA
ATOM     89  O   UNL A   1      47.681  36.653  26.347  1.00  0.00    -0.744 OA
ENDBRANCH  85  86
ENDBRANCH  57  80
BRANCH  69  90
ATOM     90  C   UNL A   1      41.584  30.891  33.956  1.00  0.00    -0.014 A 
ATOM     91  C   UNL A   1      40.639  31.935  33.906  1.00  0.00     0.010 A 
ATOM     92  C   UNL A   1      42.197  30.608  35.190  1.00  0.00     0.010 A 
ATOM     93  C   UNL A   1      40.330  32.687  35.049  1.00  0.00     0.020 A 
ATOM     94  C   UNL A   1      41.881  31.343  36.338  1.00  0.00     0.020 A 
ATOM     95  C   UNL A   1      40.952  32.384  36.261  1.00  0.00     0.054 A 
BRANCH  95  96
ATOM     96  S   UNL A   1      40.494  33.316  37.751  1.00  0.00     0.124 S 
ATOM     97  O   UNL A   1      40.551  32.295  38.793  1.00  0.00    -0.237 OA
ATOM     98  O   UNL A   1      41.528  34.346  37.822  1.00  0.00    -0.237 OA
ATOM     99  O   UNL A   1      39.154  33.818  37.448  1.00  0.00    -0.744 OA
ENDBRANCH  95  96
ENDBRANCH  69  90
ENDBRANCH  43  44
ENDBRANCH  35  38
ENDBRANCH  33  34
ENDBRANCH   1  33
TORSDOF 18
ENDMDL
