MODEL 1
REMARK VINA RESULT:     -10.8      0.000      0.000
REMARK SMILES COc1ccc(OCc2nc(C)no2)c(/C=C/C(=O)NCCCCNC(=O)c2ccc(-c3c4nc(c(-c5ccc(S(=O)(=O)[O-])cc5)c5ccc([nH]5)c(-c5ccc(S(=O)(=O)[O-])cc5)c5nc(c(-c6ccc(S(=O)(=O)[O-])cc6)c6ccc3[nH]6)C=C5)C=C4)cc2)c1
REMARK SMILES IDX 22 1 21 2 20 3 18 4 19 5 17 7 16 8 15 9 3 10 4 11 88 12 5 13
REMARK SMILES IDX 6 14 2 15 1 16 7 17 8 18 9 19 10 20 14 21 11 22 13 23 12 24
REMARK SMILES IDX 23 25 24 26 25 27 26 28 27 30 28 31 29 32 87 33 30 34 86 35
REMARK SMILES IDX 31 36 32 37 33 38 80 39 34 40 85 41 79 42 81 43 35 44 84 45
REMARK SMILES IDX 78 46 77 47 36 49 66 50 47 51 65 52 48 53 51 54 64 55 82 56
REMARK SMILES IDX 49 57 50 58 63 60 83 61 52 62 37 63 38 64 46 65 39 66 45 67
REMARK SMILES IDX 40 68 41 69 42 70 43 71 44 72 67 73 68 74 76 75 69 76 75 77
REMARK SMILES IDX 70 78 71 79 72 80 73 81 74 82 53 83 54 84 62 85 55 86 61 87
REMARK SMILES IDX 56 88 57 89 58 90 59 91 60 92
REMARK H PARENT 20 6 25 29 81 48 51 59
REMARK Flexibility Score: inf
ROOT
ATOM      1  C   UNL A   1      33.032  25.874  25.931  1.00  0.00     0.023 C 
ENDROOT
BRANCH   1   2
ATOM      2  C   UNL A   1      31.514  25.769  25.830  1.00  0.00     0.116 C 
BRANCH   2   3
ATOM      3  N   UNL A   1      30.963  24.881  26.836  1.00  0.00    -0.353 N 
ATOM      4  C   UNL A   1      30.630  23.567  26.766  1.00  0.00     0.244 C 
ATOM      5  O   UNL A   1      30.031  23.038  27.701  1.00  0.00    -0.270 OA
ATOM      6  H   UNL A   1      30.803  25.300  27.712  1.00  0.00     0.163 HD
BRANCH   4   7
ATOM      7  C   UNL A   1      30.970  22.731  25.587  1.00  0.00     0.072 C 
ATOM      8  C   UNL A   1      32.042  21.928  25.591  1.00  0.00     0.018 C 
BRANCH   8   9
ATOM      9  C   UNL A   1      32.289  20.819  24.664  1.00  0.00     0.020 A 
ATOM     10  C   UNL A   1      32.355  18.389  24.449  1.00  0.00     0.119 A 
ATOM     11  C   UNL A   1      32.492  18.506  23.074  1.00  0.00     0.050 A 
ATOM     12  C   UNL A   1      32.309  19.535  25.245  1.00  0.00     0.058 A 
ATOM     13  C   UNL A   1      32.485  19.770  22.489  1.00  0.00     0.051 A 
ATOM     14  C   UNL A   1      32.329  20.934  23.262  1.00  0.00     0.127 A 
BRANCH  10  15
ATOM     15  O   UNL A   1      32.285  17.123  24.962  1.00  0.00    -0.497 OA
ATOM     16  C   UNL A   1      33.276  16.260  24.400  1.00  0.00     0.278 C 
ENDBRANCH  10  15
BRANCH  14  17
ATOM     17  O   UNL A   1      32.154  22.027  22.460  1.00  0.00    -0.483 OA
BRANCH  17  18
ATOM     18  C   UNL A   1      33.212  22.894  22.040  1.00  0.00     0.329 C 
BRANCH  18  19
ATOM     19  C   UNL A   1      32.866  24.344  22.092  1.00  0.00     0.264 A 
ATOM     20  N   UNL A   1      31.726  24.905  22.442  1.00  0.00    -0.193 NA
ATOM     21  O   UNL A   1      33.785  25.255  21.651  1.00  0.00    -0.336 OA
ATOM     22  C   UNL A   1      31.951  26.227  22.156  1.00  0.00     0.169 A 
ATOM     23  N   UNL A   1      33.163  26.500  21.662  1.00  0.00    -0.063 NA
ATOM     24  C   UNL A   1      30.942  27.274  22.396  1.00  0.00     0.093 C 
ENDBRANCH  18  19
ENDBRANCH  17  18
ENDBRANCH  14  17
ENDBRANCH   8   9
ENDBRANCH   4   7
ENDBRANCH   2   3
ENDBRANCH   1   2
BRANCH   1  25
ATOM     25  C   UNL A   1      33.585  27.230  25.491  1.00  0.00     0.023 C 
BRANCH  25  26
ATOM     26  C   UNL A   1      34.413  27.958  26.545  1.00  0.00     0.116 C 
BRANCH  26  27
ATOM     27  N   UNL A   1      33.831  29.226  26.965  1.00  0.00    -0.352 N 
ATOM     28  C   UNL A   1      34.414  30.210  27.725  1.00  0.00     0.251 C 
ATOM     29  H   UNL A   1      32.909  29.399  26.667  1.00  0.00     0.163 HD
ATOM     30  O   UNL A   1      33.768  31.187  28.087  1.00  0.00    -0.269 OA
BRANCH  28  31
ATOM     31  C   UNL A   1      35.821  30.040  28.134  1.00  0.00     0.039 A 
ATOM     32  C   UNL A   1      36.097  29.595  29.427  1.00  0.00     0.014 A 
ATOM     33  C   UNL A   1      36.850  30.254  27.213  1.00  0.00     0.014 A 
ATOM     34  C   UNL A   1      37.413  29.299  29.780  1.00  0.00     0.010 A 
ATOM     35  C   UNL A   1      38.151  29.899  27.547  1.00  0.00     0.010 A 
ATOM     36  C   UNL A   1      38.445  29.416  28.832  1.00  0.00    -0.014 A 
BRANCH  36  37
ATOM     37  C   UNL A   1      39.837  29.034  29.165  1.00  0.00     0.031 A 
ATOM     38  C   UNL A   1      40.759  30.038  29.799  1.00  0.00     0.074 A 
ATOM     39  C   UNL A   1      40.286  27.805  28.841  1.00  0.00     0.049 A 
ATOM     40  N   UNL A   1      42.024  29.915  30.107  1.00  0.00    -0.248 NA
ATOM     41  C   UNL A   1      40.192  31.364  30.101  1.00  0.00     0.031 C 
ATOM     42  C   UNL A   1      39.500  26.761  28.179  1.00  0.00     0.029 A 
ATOM     43  N   UNL A   1      41.519  27.229  29.014  1.00  0.00    -0.354 N 
ATOM     44  C   UNL A   1      42.406  31.145  30.628  1.00  0.00     0.074 A 
ATOM     45  C   UNL A   1      41.256  32.017  30.546  1.00  0.00     0.031 C 
ATOM     46  C   UNL A   1      40.263  25.667  28.022  1.00  0.00     0.029 A 
ATOM     47  C   UNL A   1      41.600  25.942  28.539  1.00  0.00     0.049 A 
ATOM     48  H   UNL A   1      42.275  27.694  29.441  1.00  0.00     0.167 HD
ATOM     49  C   UNL A   1      43.601  31.509  31.150  1.00  0.00     0.031 A 
ATOM     50  C   UNL A   1      42.636  25.081  28.516  1.00  0.00     0.031 A 
ATOM     51  C   UNL A   1      44.738  30.634  31.242  1.00  0.00     0.049 A 
ATOM     52  C   UNL A   1      43.953  25.507  29.106  1.00  0.00     0.074 A 
ATOM     53  C   UNL A   1      45.981  30.892  31.794  1.00  0.00     0.029 A 
ATOM     54  N   UNL A   1      44.771  29.329  30.774  1.00  0.00    -0.354 N 
ATOM     55  N   UNL A   1      44.276  26.658  29.648  1.00  0.00    -0.248 NA
ATOM     56  C   UNL A   1      45.037  24.516  29.095  1.00  0.00     0.031 C 
ATOM     57  C   UNL A   1      46.779  29.756  31.624  1.00  0.00     0.029 A 
ATOM     58  C   UNL A   1      46.016  28.773  31.013  1.00  0.00     0.049 A 
ATOM     59  H   UNL A   1      44.020  28.867  30.338  1.00  0.00     0.167 HD
ATOM     60  C   UNL A   1      45.596  26.518  30.065  1.00  0.00     0.074 A 
ATOM     61  C   UNL A   1      46.002  25.170  29.728  1.00  0.00     0.031 C 
ATOM     62  C   UNL A   1      46.399  27.427  30.673  1.00  0.00     0.031 A 
BRANCH  49  63
ATOM     63  C   UNL A   1      43.732  32.915  31.671  1.00  0.00    -0.014 A 
ATOM     64  C   UNL A   1      43.332  33.238  32.980  1.00  0.00     0.010 A 
ATOM     65  C   UNL A   1      44.295  33.917  30.859  1.00  0.00     0.010 A 
ATOM     66  C   UNL A   1      43.458  34.546  33.456  1.00  0.00     0.020 A 
ATOM     67  C   UNL A   1      44.447  35.220  31.342  1.00  0.00     0.020 A 
ATOM     68  C   UNL A   1      44.013  35.529  32.632  1.00  0.00     0.054 A 
BRANCH  68  69
ATOM     69  S   UNL A   1      44.189  37.211  33.286  1.00  0.00     0.124 S 
ATOM     70  O   UNL A   1      43.267  37.192  34.419  1.00  0.00    -0.237 OA
ATOM     71  O   UNL A   1      45.607  37.275  33.632  1.00  0.00    -0.237 OA
ATOM     72  O   UNL A   1      43.785  38.062  32.169  1.00  0.00    -0.744 OA
ENDBRANCH  68  69
ENDBRANCH  49  63
BRANCH  50  73
ATOM     73  C   UNL A   1      42.467  23.726  27.924  1.00  0.00    -0.014 A 
ATOM     74  C   UNL A   1      42.855  23.471  26.596  1.00  0.00     0.010 A 
ATOM     75  C   UNL A   1      41.917  22.681  28.687  1.00  0.00     0.010 A 
ATOM     76  C   UNL A   1      42.669  22.204  26.035  1.00  0.00     0.020 A 
ATOM     77  C   UNL A   1      41.755  21.405  28.138  1.00  0.00     0.020 A 
ATOM     78  C   UNL A   1      42.120  21.179  26.810  1.00  0.00     0.054 A 
BRANCH  78  79
ATOM     79  S   UNL A   1      41.923  19.532  26.074  1.00  0.00     0.124 S 
ATOM     80  O   UNL A   1      42.751  19.634  24.878  1.00  0.00    -0.237 OA
ATOM     81  O   UNL A   1      42.431  18.653  27.124  1.00  0.00    -0.237 OA
ATOM     82  O   UNL A   1      40.484  19.437  25.835  1.00  0.00    -0.744 OA
ENDBRANCH  78  79
ENDBRANCH  50  73
BRANCH  62  83
ATOM     83  C   UNL A   1      47.788  26.982  31.044  1.00  0.00    -0.014 A 
ATOM     84  C   UNL A   1      48.884  27.240  30.202  1.00  0.00     0.010 A 
ATOM     85  C   UNL A   1      48.004  26.348  32.281  1.00  0.00     0.010 A 
ATOM     86  C   UNL A   1      50.169  26.845  30.579  1.00  0.00     0.020 A 
ATOM     87  C   UNL A   1      49.292  25.975  32.672  1.00  0.00     0.020 A 
ATOM     88  C   UNL A   1      50.365  26.214  31.811  1.00  0.00     0.054 A 
BRANCH  88  89
ATOM     89  S   UNL A   1      52.050  25.754  32.299  1.00  0.00     0.124 S 
ATOM     90  O   UNL A   1      51.831  24.482  32.984  1.00  0.00    -0.237 OA
ATOM     91  O   UNL A   1      52.744  25.664  31.016  1.00  0.00    -0.237 OA
ATOM     92  O   UNL A   1      52.477  26.858  33.156  1.00  0.00    -0.744 OA
ENDBRANCH  88  89
ENDBRANCH  62  83
ENDBRANCH  36  37
ENDBRANCH  28  31
ENDBRANCH  26  27
ENDBRANCH  25  26
ENDBRANCH   1  25
TORSDOF 19
ENDMDL
MODEL 2
REMARK VINA RESULT:     -10.3      4.464      5.861
REMARK SMILES COc1ccc(OCc2nc(C)no2)c(/C=C/C(=O)NCCCCNC(=O)c2ccc(-c3c4nc(c(-c5ccc(S(=O)(=O)[O-])cc5)c5ccc([nH]5)c(-c5ccc(S(=O)(=O)[O-])cc5)c5nc(c(-c6ccc(S(=O)(=O)[O-])cc6)c6ccc3[nH]6)C=C5)C=C4)cc2)c1
REMARK SMILES IDX 22 1 21 2 20 3 18 4 19 5 17 7 16 8 15 9 3 10 4 11 88 12 5 13
REMARK SMILES IDX 6 14 2 15 1 16 7 17 8 18 9 19 10 20 14 21 11 22 13 23 12 24
REMARK SMILES IDX 23 25 24 26 25 27 26 28 27 30 28 31 29 32 87 33 30 34 86 35
REMARK SMILES IDX 31 36 32 37 33 38 80 39 34 40 85 41 79 42 81 43 35 44 84 45
REMARK SMILES IDX 78 46 77 47 36 49 66 50 47 51 65 52 48 53 51 54 64 55 82 56
REMARK SMILES IDX 49 57 50 58 63 60 83 61 52 62 37 63 38 64 46 65 39 66 45 67
REMARK SMILES IDX 40 68 41 69 42 70 43 71 44 72 67 73 68 74 76 75 69 76 75 77
REMARK SMILES IDX 70 78 71 79 72 80 73 81 74 82 53 83 54 84 62 85 55 86 61 87
REMARK SMILES IDX 56 88 57 89 58 90 59 91 60 92
REMARK H PARENT 20 6 25 29 81 48 51 59
REMARK Flexibility Score: inf
ROOT
ATOM      1  C   UNL A   1      35.283  30.997  28.005  1.00  0.00     0.023 C 
ENDROOT
BRANCH   1   2
ATOM      2  C   UNL A   1      35.128  29.527  27.634  1.00  0.00     0.116 C 
BRANCH   2   3
ATOM      3  N   UNL A   1      33.790  29.037  27.905  1.00  0.00    -0.353 N 
ATOM      4  C   UNL A   1      32.995  28.200  27.190  1.00  0.00     0.244 C 
ATOM      5  O   UNL A   1      31.825  28.030  27.529  1.00  0.00    -0.270 OA
ATOM      6  H   UNL A   1      33.394  29.364  28.744  1.00  0.00     0.163 HD
BRANCH   4   7
ATOM      7  C   UNL A   1      33.494  27.468  25.998  1.00  0.00     0.072 C 
ATOM      8  C   UNL A   1      33.638  26.137  26.011  1.00  0.00     0.018 C 
BRANCH   8   9
ATOM      9  C   UNL A   1      33.776  25.276  24.832  1.00  0.00     0.020 A 
ATOM     10  C   UNL A   1      34.470  23.069  24.056  1.00  0.00     0.119 A 
ATOM     11  C   UNL A   1      33.949  23.337  22.799  1.00  0.00     0.050 A 
ATOM     12  C   UNL A   1      34.434  24.048  25.050  1.00  0.00     0.058 A 
ATOM     13  C   UNL A   1      33.306  24.551  22.568  1.00  0.00     0.051 A 
ATOM     14  C   UNL A   1      33.161  25.508  23.587  1.00  0.00     0.127 A 
BRANCH  10  15
ATOM     15  O   UNL A   1      35.017  21.830  24.251  1.00  0.00    -0.497 OA
ATOM     16  C   UNL A   1      34.878  21.387  25.603  1.00  0.00     0.278 C 
ENDBRANCH  10  15
BRANCH  14  17
ATOM     17  O   UNL A   1      32.333  26.519  23.186  1.00  0.00    -0.483 OA
BRANCH  17  18
ATOM     18  C   UNL A   1      30.955  26.342  22.842  1.00  0.00     0.329 C 
BRANCH  18  19
ATOM     19  C   UNL A   1      30.195  27.617  22.703  1.00  0.00     0.264 A 
ATOM     20  N   UNL A   1      29.132  28.017  23.371  1.00  0.00    -0.193 NA
ATOM     21  O   UNL A   1      30.550  28.488  21.710  1.00  0.00    -0.336 OA
ATOM     22  C   UNL A   1      28.796  29.176  22.719  1.00  0.00     0.169 A 
ATOM     23  N   UNL A   1      29.599  29.505  21.702  1.00  0.00    -0.063 NA
ATOM     24  C   UNL A   1      27.651  30.011  23.123  1.00  0.00     0.093 C 
ENDBRANCH  18  19
ENDBRANCH  17  18
ENDBRANCH  14  17
ENDBRANCH   8   9
ENDBRANCH   4   7
ENDBRANCH   2   3
ENDBRANCH   1   2
BRANCH   1  25
ATOM     25  C   UNL A   1      33.971  31.782  27.969  1.00  0.00     0.023 C 
BRANCH  25  26
ATOM     26  C   UNL A   1      34.091  33.208  27.438  1.00  0.00     0.116 C 
BRANCH  26  27
ATOM     27  N   UNL A   1      33.253  34.163  28.150  1.00  0.00    -0.352 N 
ATOM     28  C   UNL A   1      33.371  34.579  29.454  1.00  0.00     0.251 C 
ATOM     29  H   UNL A   1      32.513  34.558  27.635  1.00  0.00     0.163 HD
ATOM     30  O   UNL A   1      32.530  35.318  29.953  1.00  0.00    -0.269 OA
BRANCH  28  31
ATOM     31  C   UNL A   1      34.508  34.081  30.249  1.00  0.00     0.039 A 
ATOM     32  C   UNL A   1      34.263  33.160  31.269  1.00  0.00     0.014 A 
ATOM     33  C   UNL A   1      35.811  34.472  29.934  1.00  0.00     0.014 A 
ATOM     34  C   UNL A   1      35.340  32.577  31.936  1.00  0.00     0.010 A 
ATOM     35  C   UNL A   1      36.883  33.845  30.557  1.00  0.00     0.010 A 
ATOM     36  C   UNL A   1      36.658  32.891  31.561  1.00  0.00    -0.014 A 
BRANCH  36  37
ATOM     37  C   UNL A   1      37.815  32.226  32.205  1.00  0.00     0.031 A 
ATOM     38  C   UNL A   1      38.294  32.692  33.552  1.00  0.00     0.074 A 
ATOM     39  C   UNL A   1      38.470  31.246  31.551  1.00  0.00     0.049 A 
ATOM     40  N   UNL A   1      39.321  32.282  34.248  1.00  0.00    -0.248 NA
ATOM     41  C   UNL A   1      37.533  33.782  34.187  1.00  0.00     0.031 C 
ATOM     42  C   UNL A   1      38.129  30.740  30.218  1.00  0.00     0.029 A 
ATOM     43  N   UNL A   1      39.567  30.506  31.914  1.00  0.00    -0.354 N 
ATOM     44  C   UNL A   1      39.337  33.066  35.395  1.00  0.00     0.074 A 
ATOM     45  C   UNL A   1      38.250  34.013  35.277  1.00  0.00     0.031 C 
ATOM     46  C   UNL A   1      38.986  29.761  29.886  1.00  0.00     0.029 A 
ATOM     47  C   UNL A   1      39.956  29.592  30.963  1.00  0.00     0.049 A 
ATOM     48  H   UNL A   1      40.031  30.619  32.774  1.00  0.00     0.167 HD
ATOM     49  C   UNL A   1      40.169  32.991  36.461  1.00  0.00     0.031 A 
ATOM     50  C   UNL A   1      40.983  28.720  30.957  1.00  0.00     0.031 A 
ATOM     51  C   UNL A   1      41.240  32.040  36.579  1.00  0.00     0.049 A 
ATOM     52  C   UNL A   1      41.890  28.651  32.155  1.00  0.00     0.074 A 
ATOM     53  C   UNL A   1      42.112  31.852  37.637  1.00  0.00     0.029 A 
ATOM     54  N   UNL A   1      41.585  31.113  35.607  1.00  0.00    -0.354 N 
ATOM     55  N   UNL A   1      41.851  29.364  33.257  1.00  0.00    -0.248 NA
ATOM     56  C   UNL A   1      42.967  27.654  32.117  1.00  0.00     0.031 C 
ATOM     57  C   UNL A   1      43.009  30.837  37.289  1.00  0.00     0.029 A 
ATOM     58  C   UNL A   1      42.663  30.358  36.035  1.00  0.00     0.049 A 
ATOM     59  H   UNL A   1      41.129  31.006  34.741  1.00  0.00     0.167 HD
ATOM     60  C   UNL A   1      42.885  28.882  34.053  1.00  0.00     0.074 A 
ATOM     61  C   UNL A   1      43.518  27.808  33.314  1.00  0.00     0.031 C 
ATOM     62  C   UNL A   1      43.275  29.291  35.286  1.00  0.00     0.031 A 
BRANCH  49  63
ATOM     63  C   UNL A   1      39.941  33.962  37.588  1.00  0.00    -0.014 A 
ATOM     64  C   UNL A   1      39.107  33.626  38.670  1.00  0.00     0.010 A 
ATOM     65  C   UNL A   1      40.596  35.206  37.589  1.00  0.00     0.010 A 
ATOM     66  C   UNL A   1      38.901  34.532  39.714  1.00  0.00     0.020 A 
ATOM     67  C   UNL A   1      40.414  36.104  38.644  1.00  0.00     0.020 A 
ATOM     68  C   UNL A   1      39.556  35.767  39.692  1.00  0.00     0.054 A 
BRANCH  68  69
ATOM     69  S   UNL A   1      39.292  36.912  41.074  1.00  0.00     0.124 S 
ATOM     70  O   UNL A   1      38.537  36.084  42.011  1.00  0.00    -0.237 OA
ATOM     71  O   UNL A   1      40.655  37.241  41.483  1.00  0.00    -0.237 OA
ATOM     72  O   UNL A   1      38.543  38.014  40.473  1.00  0.00    -0.744 OA
ENDBRANCH  68  69
ENDBRANCH  49  63
BRANCH  50  73
ATOM     73  C   UNL A   1      41.201  27.832  29.783  1.00  0.00    -0.014 A 
ATOM     74  C   UNL A   1      42.234  28.097  28.867  1.00  0.00     0.010 A 
ATOM     75  C   UNL A   1      40.373  26.714  29.574  1.00  0.00     0.010 A 
ATOM     76  C   UNL A   1      42.419  27.277  27.749  1.00  0.00     0.020 A 
ATOM     77  C   UNL A   1      40.573  25.876  28.473  1.00  0.00     0.020 A 
ATOM     78  C   UNL A   1      41.586  26.172  27.560  1.00  0.00     0.054 A 
BRANCH  78  79
ATOM     79  S   UNL A   1      41.867  25.098  26.123  1.00  0.00     0.124 S 
ATOM     80  O   UNL A   1      40.897  24.032  26.348  1.00  0.00    -0.237 OA
ATOM     81  O   UNL A   1      41.581  25.988  25.001  1.00  0.00    -0.237 OA
ATOM     82  O   UNL A   1      43.269  24.710  26.259  1.00  0.00    -0.744 OA
ENDBRANCH  78  79
ENDBRANCH  50  73
BRANCH  62  83
ATOM     83  C   UNL A   1      44.419  28.554  35.928  1.00  0.00    -0.014 A 
ATOM     84  C   UNL A   1      45.747  28.984  35.761  1.00  0.00     0.010 A 
ATOM     85  C   UNL A   1      44.152  27.451  36.758  1.00  0.00     0.010 A 
ATOM     86  C   UNL A   1      46.792  28.304  36.390  1.00  0.00     0.020 A 
ATOM     87  C   UNL A   1      45.193  26.784  37.410  1.00  0.00     0.020 A 
ATOM     88  C   UNL A   1      46.508  27.207  37.210  1.00  0.00     0.054 A 
BRANCH  88  89
ATOM     89  S   UNL A   1      47.877  26.370  38.054  1.00  0.00     0.124 S 
ATOM     90  O   UNL A   1      47.370  26.259  39.420  1.00  0.00    -0.237 OA
ATOM     91  O   UNL A   1      47.986  25.111  37.321  1.00  0.00    -0.237 OA
ATOM     92  O   UNL A   1      49.003  27.285  37.879  1.00  0.00    -0.744 OA
ENDBRANCH  88  89
ENDBRANCH  62  83
ENDBRANCH  36  37
ENDBRANCH  28  31
ENDBRANCH  26  27
ENDBRANCH  25  26
ENDBRANCH   1  25
TORSDOF 19
ENDMDL
MODEL 3
REMARK VINA RESULT:     -10.3      3.995      9.497
REMARK SMILES COc1ccc(OCc2nc(C)no2)c(/C=C/C(=O)NCCCCNC(=O)c2ccc(-c3c4nc(c(-c5ccc(S(=O)(=O)[O-])cc5)c5ccc([nH]5)c(-c5ccc(S(=O)(=O)[O-])cc5)c5nc(c(-c6ccc(S(=O)(=O)[O-])cc6)c6ccc3[nH]6)C=C5)C=C4)cc2)c1
REMARK SMILES IDX 22 1 21 2 20 3 18 4 19 5 17 7 16 8 15 9 3 10 4 11 88 12 5 13
REMARK SMILES IDX 6 14 2 15 1 16 7 17 8 18 9 19 10 20 14 21 11 22 13 23 12 24
REMARK SMILES IDX 23 25 24 26 25 27 26 28 27 30 28 31 29 32 87 33 30 34 86 35
REMARK SMILES IDX 31 36 32 37 33 38 80 39 34 40 85 41 79 42 81 43 35 44 84 45
REMARK SMILES IDX 78 46 77 47 36 49 66 50 47 51 65 52 48 53 51 54 64 55 82 56
REMARK SMILES IDX 49 57 50 58 63 60 83 61 52 62 37 63 38 64 46 65 39 66 45 67
REMARK SMILES IDX 40 68 41 69 42 70 43 71 44 72 67 73 68 74 76 75 69 76 75 77
REMARK SMILES IDX 70 78 71 79 72 80 73 81 74 82 53 83 54 84 62 85 55 86 61 87
REMARK SMILES IDX 56 88 57 89 58 90 59 91 60 92
REMARK H PARENT 20 6 25 29 81 48 51 59
REMARK Flexibility Score: inf
ROOT
ATOM      1  C   UNL A   1      39.742  23.211  27.009  1.00  0.00     0.023 C 
ENDROOT
BRANCH   1   2
ATOM      2  C   UNL A   1      38.531  24.042  26.602  1.00  0.00     0.116 C 
BRANCH   2   3
ATOM      3  N   UNL A   1      38.144  23.801  25.226  1.00  0.00    -0.353 N 
ATOM      4  C   UNL A   1      36.956  23.410  24.699  1.00  0.00     0.244 C 
ATOM      5  O   UNL A   1      36.883  23.116  23.506  1.00  0.00    -0.270 OA
ATOM      6  H   UNL A   1      38.860  23.943  24.566  1.00  0.00     0.163 HD
BRANCH   4   7
ATOM      7  C   UNL A   1      35.721  23.326  25.519  1.00  0.00     0.072 C 
ATOM      8  C   UNL A   1      34.624  24.023  25.195  1.00  0.00     0.018 C 
BRANCH   8   9
ATOM      9  C   UNL A   1      33.268  23.771  25.692  1.00  0.00     0.020 A 
ATOM     10  C   UNL A   1      31.118  24.806  26.209  1.00  0.00     0.119 A 
ATOM     11  C   UNL A   1      30.553  23.554  26.404  1.00  0.00     0.050 A 
ATOM     12  C   UNL A   1      32.477  24.919  25.910  1.00  0.00     0.058 A 
ATOM     13  C   UNL A   1      31.327  22.414  26.204  1.00  0.00     0.051 A 
ATOM     14  C   UNL A   1      32.669  22.502  25.794  1.00  0.00     0.127 A 
BRANCH  10  15
ATOM     15  O   UNL A   1      30.292  25.888  26.339  1.00  0.00    -0.497 OA
ATOM     16  C   UNL A   1      29.583  26.171  25.130  1.00  0.00     0.278 C 
ENDBRANCH  10  15
BRANCH  14  17
ATOM     17  O   UNL A   1      33.158  21.266  25.473  1.00  0.00    -0.483 OA
BRANCH  17  18
ATOM     18  C   UNL A   1      32.607  20.422  24.457  1.00  0.00     0.329 C 
BRANCH  18  19
ATOM     19  C   UNL A   1      32.907  18.973  24.643  1.00  0.00     0.264 A 
ATOM     20  N   UNL A   1      32.133  18.031  25.143  1.00  0.00    -0.193 NA
ATOM     21  O   UNL A   1      34.163  18.520  24.352  1.00  0.00    -0.336 OA
ATOM     22  C   UNL A   1      32.981  16.954  25.199  1.00  0.00     0.169 A 
ATOM     23  N   UNL A   1      34.220  17.188  24.753  1.00  0.00    -0.063 NA
ATOM     24  C   UNL A   1      32.554  15.633  25.689  1.00  0.00     0.093 C 
ENDBRANCH  18  19
ENDBRANCH  17  18
ENDBRANCH  14  17
ENDBRANCH   8   9
ENDBRANCH   4   7
ENDBRANCH   2   3
ENDBRANCH   1   2
BRANCH   1  25
ATOM     25  C   UNL A   1      39.720  21.783  26.460  1.00  0.00     0.023 C 
BRANCH  25  26
ATOM     26  C   UNL A   1      40.609  20.795  27.210  1.00  0.00     0.116 C 
BRANCH  26  27
ATOM     27  N   UNL A   1      41.393  19.940  26.330  1.00  0.00    -0.352 N 
ATOM     28  C   UNL A   1      42.566  20.246  25.683  1.00  0.00     0.251 C 
ATOM     29  H   UNL A   1      41.041  19.033  26.179  1.00  0.00     0.163 HD
ATOM     30  O   UNL A   1      43.068  19.457  24.889  1.00  0.00    -0.269 OA
BRANCH  28  31
ATOM     31  C   UNL A   1      43.181  21.562  25.932  1.00  0.00     0.039 A 
ATOM     32  C   UNL A   1      43.016  22.573  24.984  1.00  0.00     0.014 A 
ATOM     33  C   UNL A   1      43.854  21.807  27.131  1.00  0.00     0.014 A 
ATOM     34  C   UNL A   1      43.474  23.859  25.270  1.00  0.00     0.010 A 
ATOM     35  C   UNL A   1      44.253  23.102  27.440  1.00  0.00     0.010 A 
ATOM     36  C   UNL A   1      44.065  24.139  26.514  1.00  0.00    -0.014 A 
BRANCH  36  37
ATOM     37  C   UNL A   1      44.489  25.515  26.866  1.00  0.00     0.031 A 
ATOM     38  C   UNL A   1      45.889  25.969  26.564  1.00  0.00     0.074 A 
ATOM     39  C   UNL A   1      43.632  26.331  27.512  1.00  0.00     0.049 A 
ATOM     40  N   UNL A   1      46.466  27.107  26.849  1.00  0.00    -0.248 NA
ATOM     41  C   UNL A   1      46.766  25.006  25.875  1.00  0.00     0.031 C 
ATOM     42  C   UNL A   1      42.262  25.986  27.902  1.00  0.00     0.029 A 
ATOM     43  N   UNL A   1      43.790  27.617  27.963  1.00  0.00    -0.354 N 
ATOM     44  C   UNL A   1      47.771  26.995  26.386  1.00  0.00     0.074 A 
ATOM     45  C   UNL A   1      47.918  25.660  25.850  1.00  0.00     0.031 C 
ATOM     46  C   UNL A   1      41.700  27.041  28.515  1.00  0.00     0.029 A 
ATOM     47  C   UNL A   1      42.676  28.122  28.593  1.00  0.00     0.049 A 
ATOM     48  H   UNL A   1      44.622  28.130  27.847  1.00  0.00     0.167 HD
ATOM     49  C   UNL A   1      48.753  27.928  26.387  1.00  0.00     0.031 A 
ATOM     50  C   UNL A   1      42.469  29.320  29.174  1.00  0.00     0.031 A 
ATOM     51  C   UNL A   1      48.597  29.259  26.910  1.00  0.00     0.049 A 
ATOM     52  C   UNL A   1      43.573  30.342  29.157  1.00  0.00     0.074 A 
ATOM     53  C   UNL A   1      49.516  30.293  26.918  1.00  0.00     0.029 A 
ATOM     54  N   UNL A   1      47.446  29.741  27.514  1.00  0.00    -0.354 N 
ATOM     55  N   UNL A   1      44.783  30.236  28.660  1.00  0.00    -0.248 NA
ATOM     56  C   UNL A   1      43.280  31.647  29.764  1.00  0.00     0.031 C 
ATOM     57  C   UNL A   1      48.934  31.389  27.563  1.00  0.00     0.029 A 
ATOM     58  C   UNL A   1      47.635  31.053  27.910  1.00  0.00     0.049 A 
ATOM     59  H   UNL A   1      46.617  29.226  27.641  1.00  0.00     0.167 HD
ATOM     60  C   UNL A   1      45.386  31.470  28.874  1.00  0.00     0.074 A 
ATOM     61  C   UNL A   1      44.404  32.310  29.528  1.00  0.00     0.031 C 
ATOM     62  C   UNL A   1      46.642  31.872  28.556  1.00  0.00     0.031 A 
BRANCH  49  63
ATOM     63  C   UNL A   1      50.079  27.539  25.792  1.00  0.00    -0.014 A 
ATOM     64  C   UNL A   1      50.361  27.787  24.436  1.00  0.00     0.010 A 
ATOM     65  C   UNL A   1      51.070  26.957  26.603  1.00  0.00     0.010 A 
ATOM     66  C   UNL A   1      51.596  27.424  23.892  1.00  0.00     0.020 A 
ATOM     67  C   UNL A   1      52.316  26.617  26.068  1.00  0.00     0.020 A 
ATOM     68  C   UNL A   1      52.565  26.839  24.713  1.00  0.00     0.054 A 
BRANCH  68  69
ATOM     69  S   UNL A   1      54.169  26.404  23.986  1.00  0.00     0.124 S 
ATOM     70  O   UNL A   1      54.478  25.149  24.668  1.00  0.00    -0.237 OA
ATOM     71  O   UNL A   1      53.854  26.283  22.564  1.00  0.00    -0.237 OA
ATOM     72  O   UNL A   1      55.027  27.532  24.337  1.00  0.00    -0.744 OA
ENDBRANCH  68  69
ENDBRANCH  49  63
BRANCH  50  73
ATOM     73  C   UNL A   1      41.157  29.624  29.808  1.00  0.00    -0.014 A 
ATOM     74  C   UNL A   1      40.958  29.401  31.183  1.00  0.00     0.010 A 
ATOM     75  C   UNL A   1      40.097  30.138  29.040  1.00  0.00     0.010 A 
ATOM     76  C   UNL A   1      39.716  29.662  31.771  1.00  0.00     0.020 A 
ATOM     77  C   UNL A   1      38.863  30.425  29.629  1.00  0.00     0.020 A 
ATOM     78  C   UNL A   1      38.676  30.171  30.989  1.00  0.00     0.054 A 
BRANCH  78  79
ATOM     79  S   UNL A   1      37.084  30.538  31.779  1.00  0.00     0.124 S 
ATOM     80  O   UNL A   1      36.335  29.311  31.535  1.00  0.00    -0.237 OA
ATOM     81  O   UNL A   1      37.468  30.781  33.167  1.00  0.00    -0.237 OA
ATOM     82  O   UNL A   1      36.611  31.717  31.057  1.00  0.00    -0.744 OA
ENDBRANCH  78  79
ENDBRANCH  50  73
BRANCH  62  83
ATOM     83  C   UNL A   1      47.015  33.294  28.882  1.00  0.00    -0.014 A 
ATOM     84  C   UNL A   1      47.629  33.623  30.102  1.00  0.00     0.010 A 
ATOM     85  C   UNL A   1      46.798  34.302  27.925  1.00  0.00     0.010 A 
ATOM     86  C   UNL A   1      47.994  34.944  30.373  1.00  0.00     0.020 A 
ATOM     87  C   UNL A   1      47.187  35.620  28.182  1.00  0.00     0.020 A 
ATOM     88  C   UNL A   1      47.770  35.934  29.410  1.00  0.00     0.054 A 
BRANCH  88  89
ATOM     89  S   UNL A   1      48.296  37.633  29.766  1.00  0.00     0.124 S 
ATOM     90  O   UNL A   1      47.218  38.416  29.168  1.00  0.00    -0.237 OA
ATOM     91  O   UNL A   1      48.353  37.654  31.225  1.00  0.00    -0.237 OA
ATOM     92  O   UNL A   1      49.591  37.742  29.097  1.00  0.00    -0.744 OA
ENDBRANCH  88  89
ENDBRANCH  62  83
ENDBRANCH  36  37
ENDBRANCH  28  31
ENDBRANCH  26  27
ENDBRANCH  25  26
ENDBRANCH   1  25
TORSDOF 19
ENDMDL
