MODEL 1
REMARK VINA RESULT:     -11.7      0.000      0.000
REMARK SMILES COc1ccc2c(c1)OC[C@@]1(C(=O)NCCCCNC(=O)c3ccc(-c4c5nc(c(-c6ccc(S(=O)(=O)[O-])cc6)c6ccc([nH]6)c(-c6ccc(S(=O)(=O)[O-])cc6)c6nc(c(-c7ccc(S(=O)(=O)[O-])cc7)c7ccc4[nH]7)C=C6)C=C5)cc3)C[N@@H+](Cc3cc(C(C)(C)C)n[nH]3)C[C@H]21
REMARK SMILES IDX 16 1 15 2 14 3 12 4 13 5 11 7 3 8 4 9 8 10 5 11 7 12 6 13
REMARK SMILES IDX 9 14 95 15 10 16 94 17 82 18 83 19 2 21 1 22 84 23 85 24
REMARK SMILES IDX 86 25 93 26 87 27 92 28 88 30 89 31 90 32 91 33 17 34 18 35
REMARK SMILES IDX 19 36 20 37 21 39 22 40 23 41 81 42 24 43 80 44 25 45 26 46
REMARK SMILES IDX 27 47 74 48 28 49 79 50 73 51 75 52 29 53 78 54 72 55 71 56
REMARK SMILES IDX 30 58 60 59 41 60 59 61 42 62 45 63 58 64 76 65 43 66 44 67
REMARK SMILES IDX 57 69 77 70 46 71 31 72 32 73 40 74 33 75 39 76 34 77 35 78
REMARK SMILES IDX 36 79 37 80 38 81 61 82 62 83 70 84 63 85 69 86 64 87 65 88
REMARK SMILES IDX 66 89 67 90 68 91 47 92 48 93 56 94 49 95 55 96 50 97 51 98
REMARK SMILES IDX 52 99 53 100 54 101
REMARK H PARENT 14 6 83 20 93 29 19 38 75 57 45 68
REMARK Flexibility Score: inf
ROOT
ATOM      1  C   UNL A   1      34.059  30.000  27.117  1.00  0.00     0.023 C 
ENDROOT
BRANCH   1   2
ATOM      2  C   UNL A   1      34.202  28.678  26.382  1.00  0.00     0.116 C 
BRANCH   2   3
ATOM      3  N   UNL A   1      33.347  27.614  26.875  1.00  0.00    -0.355 N 
ATOM      4  C   UNL A   1      32.656  26.744  26.070  1.00  0.00     0.236 C 
ATOM      5  O   UNL A   1      32.582  25.566  26.436  1.00  0.00    -0.274 OA
ATOM      6  H   UNL A   1      33.256  27.511  27.850  1.00  0.00     0.163 HD
BRANCH   4   7
ATOM      7  C   UNL A   1      32.026  27.309  24.773  1.00  0.00     0.144 C 
ATOM      8  C   UNL A   1      29.031  31.176  22.826  1.00  0.00     0.122 A 
ATOM      9  C   UNL A   1      28.910  30.141  21.897  1.00  0.00     0.047 A 
ATOM     10  C   UNL A   1      29.791  30.977  23.977  1.00  0.00     0.093 A 
ATOM     11  C   UNL A   1      29.590  28.937  22.085  1.00  0.00     0.012 A 
ATOM     12  C   UNL A   1      30.424  29.749  24.179  1.00  0.00     0.126 A 
ATOM     13  C   UNL A   1      30.385  28.747  23.222  1.00  0.00     0.005 A 
ATOM     14  O   UNL A   1      31.049  29.528  25.368  1.00  0.00    -0.492 OA
ATOM     15  C   UNL A   1      31.072  27.433  23.513  1.00  0.00     0.103 C 
ATOM     16  C   UNL A   1      31.021  28.118  25.720  1.00  0.00     0.253 C 
ATOM     17  C   UNL A   1      31.943  27.003  22.334  1.00  0.00     0.272 C 
ATOM     18  C   UNL A   1      32.212  25.756  24.277  1.00  0.00     0.284 C 
ATOM     19  N   UNL A   1      32.722  25.919  22.898  1.00  0.00    -0.328 N 
ATOM     20  H   UNL A   1      33.715  26.151  22.916  1.00  0.00     0.348 HD
BRANCH   8  21
ATOM     21  O   UNL A   1      28.315  32.303  22.528  1.00  0.00    -0.497 OA
ATOM     22  C   UNL A   1      27.973  32.466  21.157  1.00  0.00     0.278 C 
ENDBRANCH   8  21
BRANCH  19  23
ATOM     23  C   UNL A   1      32.820  24.710  22.084  1.00  0.00     0.319 C 
BRANCH  23  24
ATOM     24  C   UNL A   1      33.630  23.651  22.727  1.00  0.00     0.090 A 
ATOM     25  C   UNL A   1      33.286  22.449  23.301  1.00  0.00     0.055 A 
ATOM     26  N   UNL A   1      34.966  23.804  22.970  1.00  0.00    -0.277 N 
ATOM     27  C   UNL A   1      34.416  22.078  24.066  1.00  0.00     0.068 A 
ATOM     28  N   UNL A   1      35.464  22.866  23.787  1.00  0.00    -0.180 NA
ATOM     29  H   UNL A   1      35.507  24.530  22.583  1.00  0.00     0.190 HD
BRANCH  27  30
ATOM     30  C   UNL A   1      34.513  21.016  25.142  1.00  0.00     0.006 C 
ATOM     31  C   UNL A   1      34.495  21.671  26.532  1.00  0.00     0.017 C 
ATOM     32  C   UNL A   1      33.326  20.035  25.017  1.00  0.00     0.017 C 
ATOM     33  C   UNL A   1      35.809  20.188  25.002  1.00  0.00     0.017 C 
ENDBRANCH  27  30
ENDBRANCH  23  24
ENDBRANCH  19  23
ENDBRANCH   4   7
ENDBRANCH   2   3
ENDBRANCH   1   2
BRANCH   1  34
ATOM     34  C   UNL A   1      35.311  30.529  27.811  1.00  0.00     0.023 C 
BRANCH  34  35
ATOM     35  C   UNL A   1      35.929  29.643  28.884  1.00  0.00     0.116 C 
BRANCH  35  36
ATOM     36  N   UNL A   1      35.795  30.153  30.239  1.00  0.00    -0.352 N 
ATOM     37  C   UNL A   1      36.777  30.555  31.119  1.00  0.00     0.251 C 
ATOM     38  H   UNL A   1      34.872  30.223  30.575  1.00  0.00     0.163 HD
ATOM     39  O   UNL A   1      36.480  30.930  32.250  1.00  0.00    -0.269 OA
BRANCH  37  40
ATOM     40  C   UNL A   1      38.195  30.465  30.711  1.00  0.00     0.039 A 
ATOM     41  C   UNL A   1      38.620  31.003  29.496  1.00  0.00     0.014 A 
ATOM     42  C   UNL A   1      39.084  29.739  31.508  1.00  0.00     0.014 A 
ATOM     43  C   UNL A   1      39.854  30.624  28.978  1.00  0.00     0.010 A 
ATOM     44  C   UNL A   1      40.364  29.447  31.027  1.00  0.00     0.010 A 
ATOM     45  C   UNL A   1      40.734  29.826  29.728  1.00  0.00    -0.014 A 
BRANCH  45  46
ATOM     46  C   UNL A   1      42.021  29.385  29.126  1.00  0.00     0.031 A 
ATOM     47  C   UNL A   1      43.212  30.310  29.077  1.00  0.00     0.074 A 
ATOM     48  C   UNL A   1      42.137  28.120  28.673  1.00  0.00     0.049 A 
ATOM     49  N   UNL A   1      44.405  30.084  28.588  1.00  0.00    -0.248 NA
ATOM     50  C   UNL A   1      43.051  31.660  29.646  1.00  0.00     0.031 C 
ATOM     51  C   UNL A   1      41.063  27.124  28.683  1.00  0.00     0.029 A 
ATOM     52  N   UNL A   1      43.210  27.446  28.146  1.00  0.00    -0.354 N 
ATOM     53  C   UNL A   1      45.124  31.261  28.765  1.00  0.00     0.074 A 
ATOM     54  C   UNL A   1      44.230  32.211  29.390  1.00  0.00     0.031 C 
ATOM     55  C   UNL A   1      41.545  25.954  28.240  1.00  0.00     0.029 A 
ATOM     56  C   UNL A   1      42.938  26.132  27.844  1.00  0.00     0.049 A 
ATOM     57  H   UNL A   1      44.089  27.863  27.998  1.00  0.00     0.167 HD
ATOM     58  C   UNL A   1      46.413  31.521  28.445  1.00  0.00     0.031 A 
ATOM     59  C   UNL A   1      43.709  25.174  27.293  1.00  0.00     0.031 A 
ATOM     60  C   UNL A   1      47.310  30.560  27.854  1.00  0.00     0.049 A 
ATOM     61  C   UNL A   1      45.128  25.492  26.929  1.00  0.00     0.074 A 
ATOM     62  C   UNL A   1      48.642  30.731  27.519  1.00  0.00     0.029 A 
ATOM     63  N   UNL A   1      46.978  29.256  27.524  1.00  0.00    -0.354 N 
ATOM     64  N   UNL A   1      45.783  26.616  27.099  1.00  0.00    -0.248 NA
ATOM     65  C   UNL A   1      45.914  24.424  26.297  1.00  0.00     0.031 C 
ATOM     66  C   UNL A   1      49.101  29.549  26.936  1.00  0.00     0.029 A 
ATOM     67  C   UNL A   1      48.073  28.619  26.965  1.00  0.00     0.049 A 
ATOM     68  H   UNL A   1      46.095  28.844  27.664  1.00  0.00     0.167 HD
ATOM     69  C   UNL A   1      47.057  26.391  26.591  1.00  0.00     0.074 A 
ATOM     70  C   UNL A   1      47.091  25.017  26.136  1.00  0.00     0.031 C 
ATOM     71  C   UNL A   1      48.097  27.254  26.506  1.00  0.00     0.031 A 
BRANCH  58  72
ATOM     72  C   UNL A   1      46.968  32.894  28.719  1.00  0.00    -0.014 A 
ATOM     73  C   UNL A   1      46.951  33.866  27.700  1.00  0.00     0.010 A 
ATOM     74  C   UNL A   1      47.649  33.171  29.917  1.00  0.00     0.010 A 
ATOM     75  C   UNL A   1      47.639  35.072  27.856  1.00  0.00     0.020 A 
ATOM     76  C   UNL A   1      48.320  34.388  30.086  1.00  0.00     0.020 A 
ATOM     77  C   UNL A   1      48.333  35.319  29.043  1.00  0.00     0.054 A 
BRANCH  77  78
ATOM     78  S   UNL A   1      49.267  36.866  29.207  1.00  0.00     0.124 S 
ATOM     79  O   UNL A   1      48.344  37.845  28.644  1.00  0.00    -0.237 OA
ATOM     80  O   UNL A   1      49.482  36.957  30.650  1.00  0.00    -0.237 OA
ATOM     81  O   UNL A   1      50.475  36.618  28.423  1.00  0.00    -0.744 OA
ENDBRANCH  77  78
ENDBRANCH  58  72
BRANCH  59  82
ATOM     82  C   UNL A   1      43.119  23.829  27.053  1.00  0.00    -0.014 A 
ATOM     83  C   UNL A   1      43.154  22.854  28.069  1.00  0.00     0.010 A 
ATOM     84  C   UNL A   1      42.620  23.480  25.787  1.00  0.00     0.010 A 
ATOM     85  C   UNL A   1      42.765  21.540  27.806  1.00  0.00     0.020 A 
ATOM     86  C   UNL A   1      42.199  22.171  25.529  1.00  0.00     0.020 A 
ATOM     87  C   UNL A   1      42.306  21.203  26.532  1.00  0.00     0.054 A 
BRANCH  87  88
ATOM     88  S   UNL A   1      41.860  19.478  26.191  1.00  0.00     0.124 S 
ATOM     89  O   UNL A   1      42.660  19.193  25.003  1.00  0.00    -0.237 OA
ATOM     90  O   UNL A   1      42.277  18.790  27.410  1.00  0.00    -0.237 OA
ATOM     91  O   UNL A   1      40.417  19.537  25.976  1.00  0.00    -0.744 OA
ENDBRANCH  87  88
ENDBRANCH  59  82
BRANCH  71  92
ATOM     92  C   UNL A   1      49.376  26.764  25.883  1.00  0.00    -0.014 A 
ATOM     93  C   UNL A   1      50.333  26.104  26.678  1.00  0.00     0.010 A 
ATOM     94  C   UNL A   1      49.690  27.085  24.551  1.00  0.00     0.010 A 
ATOM     95  C   UNL A   1      51.595  25.805  26.161  1.00  0.00     0.020 A 
ATOM     96  C   UNL A   1      50.944  26.764  24.025  1.00  0.00     0.020 A 
ATOM     97  C   UNL A   1      51.898  26.150  24.841  1.00  0.00     0.054 A 
BRANCH  97  98
ATOM     98  S   UNL A   1      53.555  25.791  24.198  1.00  0.00     0.124 S 
ATOM     99  O   UNL A   1      54.371  26.798  24.870  1.00  0.00    -0.237 OA
ATOM    100  O   UNL A   1      53.776  24.412  24.628  1.00  0.00    -0.237 OA
ATOM    101  O   UNL A   1      53.408  25.967  22.754  1.00  0.00    -0.744 OA
ENDBRANCH  97  98
ENDBRANCH  71  92
ENDBRANCH  45  46
ENDBRANCH  37  40
ENDBRANCH  35  36
ENDBRANCH  34  35
ENDBRANCH   1  34
TORSDOF 18
ENDMDL
MODEL 2
REMARK VINA RESULT:     -11.6      5.861     11.933
REMARK SMILES COc1ccc2c(c1)OC[C@@]1(C(=O)NCCCCNC(=O)c3ccc(-c4c5nc(c(-c6ccc(S(=O)(=O)[O-])cc6)c6ccc([nH]6)c(-c6ccc(S(=O)(=O)[O-])cc6)c6nc(c(-c7ccc(S(=O)(=O)[O-])cc7)c7ccc4[nH]7)C=C6)C=C5)cc3)C[N@@H+](Cc3cc(C(C)(C)C)n[nH]3)C[C@H]21
REMARK SMILES IDX 16 1 15 2 14 3 12 4 13 5 11 7 3 8 4 9 8 10 5 11 7 12 6 13
REMARK SMILES IDX 9 14 95 15 10 16 94 17 82 18 83 19 2 21 1 22 84 23 85 24
REMARK SMILES IDX 86 25 93 26 87 27 92 28 88 30 89 31 90 32 91 33 17 34 18 35
REMARK SMILES IDX 19 36 20 37 21 39 22 40 23 41 81 42 24 43 80 44 25 45 26 46
REMARK SMILES IDX 27 47 74 48 28 49 79 50 73 51 75 52 29 53 78 54 72 55 71 56
REMARK SMILES IDX 30 58 60 59 41 60 59 61 42 62 45 63 58 64 76 65 43 66 44 67
REMARK SMILES IDX 57 69 77 70 46 71 31 72 32 73 40 74 33 75 39 76 34 77 35 78
REMARK SMILES IDX 36 79 37 80 38 81 61 82 62 83 70 84 63 85 69 86 64 87 65 88
REMARK SMILES IDX 66 89 67 90 68 91 47 92 48 93 56 94 49 95 55 96 50 97 51 98
REMARK SMILES IDX 52 99 53 100 54 101
REMARK H PARENT 14 6 83 20 93 29 19 38 75 57 45 68
REMARK Flexibility Score: inf
ROOT
ATOM      1  C   UNL A   1      38.071  24.064  26.681  1.00  0.00     0.023 C 
ENDROOT
BRANCH   1   2
ATOM      2  C   UNL A   1      36.698  23.587  26.236  1.00  0.00     0.116 C 
BRANCH   2   3
ATOM      3  N   UNL A   1      36.224  24.176  24.997  1.00  0.00    -0.355 N 
ATOM      4  C   UNL A   1      34.910  24.188  24.603  1.00  0.00     0.236 C 
ATOM      5  O   UNL A   1      34.494  25.204  24.037  1.00  0.00    -0.274 OA
ATOM      6  H   UNL A   1      36.888  24.592  24.401  1.00  0.00     0.163 HD
BRANCH   4   7
ATOM      7  C   UNL A   1      34.058  22.929  24.898  1.00  0.00     0.144 C 
ATOM      8  C   UNL A   1      34.020  17.668  24.696  1.00  0.00     0.122 A 
ATOM      9  C   UNL A   1      32.671  18.026  24.688  1.00  0.00     0.047 A 
ATOM     10  C   UNL A   1      34.993  18.666  24.700  1.00  0.00     0.093 A 
ATOM     11  C   UNL A   1      32.294  19.369  24.746  1.00  0.00     0.012 A 
ATOM     12  C   UNL A   1      34.603  20.006  24.703  1.00  0.00     0.126 A 
ATOM     13  C   UNL A   1      33.268  20.373  24.787  1.00  0.00     0.005 A 
ATOM     14  O   UNL A   1      35.563  20.964  24.571  1.00  0.00    -0.492 OA
ATOM     15  C   UNL A   1      32.913  21.842  24.763  1.00  0.00     0.103 C 
ATOM     16  C   UNL A   1      35.037  22.144  23.905  1.00  0.00     0.253 C 
ATOM     17  C   UNL A   1      31.932  22.181  25.885  1.00  0.00     0.272 C 
ATOM     18  C   UNL A   1      32.829  24.007  24.759  1.00  0.00     0.284 C 
ATOM     19  N   UNL A   1      31.944  23.630  25.884  1.00  0.00    -0.328 N 
ATOM     20  H   UNL A   1      32.316  23.995  26.760  1.00  0.00     0.348 HD
BRANCH   8  21
ATOM     21  O   UNL A   1      34.259  16.323  24.636  1.00  0.00    -0.497 OA
ATOM     22  C   UNL A   1      33.281  15.499  25.261  1.00  0.00     0.278 C 
ENDBRANCH   8  21
BRANCH  19  23
ATOM     23  C   UNL A   1      30.638  24.281  25.942  1.00  0.00     0.319 C 
BRANCH  23  24
ATOM     24  C   UNL A   1      30.732  25.758  25.923  1.00  0.00     0.090 A 
ATOM     25  C   UNL A   1      30.500  26.683  24.931  1.00  0.00     0.055 A 
ATOM     26  N   UNL A   1      31.237  26.467  26.976  1.00  0.00    -0.277 N 
ATOM     27  C   UNL A   1      31.120  27.868  25.392  1.00  0.00     0.068 A 
ATOM     28  N   UNL A   1      31.489  27.749  26.675  1.00  0.00    -0.180 NA
ATOM     29  H   UNL A   1      31.401  26.076  27.864  1.00  0.00     0.190 HD
BRANCH  27  30
ATOM     30  C   UNL A   1      31.451  29.120  24.606  1.00  0.00     0.006 C 
ATOM     31  C   UNL A   1      30.231  29.563  23.782  1.00  0.00     0.017 C 
ATOM     32  C   UNL A   1      31.860  30.251  25.575  1.00  0.00     0.017 C 
ATOM     33  C   UNL A   1      32.638  28.887  23.646  1.00  0.00     0.017 C 
ENDBRANCH  27  30
ENDBRANCH  23  24
ENDBRANCH  19  23
ENDBRANCH   4   7
ENDBRANCH   2   3
ENDBRANCH   1   2
BRANCH   1  34
ATOM     34  C   UNL A   1      39.250  23.163  26.328  1.00  0.00     0.023 C 
BRANCH  34  35
ATOM     35  C   UNL A   1      40.625  23.613  26.804  1.00  0.00     0.116 C 
BRANCH  35  36
ATOM     36  N   UNL A   1      41.402  24.333  25.808  1.00  0.00    -0.352 N 
ATOM     37  C   UNL A   1      42.119  25.503  25.942  1.00  0.00     0.251 C 
ATOM     38  H   UNL A   1      41.419  23.928  24.911  1.00  0.00     0.163 HD
ATOM     39  O   UNL A   1      42.692  25.993  24.973  1.00  0.00    -0.269 OA
BRANCH  37  40
ATOM     40  C   UNL A   1      42.133  26.197  27.248  1.00  0.00     0.039 A 
ATOM     41  C   UNL A   1      41.310  25.769  28.289  1.00  0.00     0.014 A 
ATOM     42  C   UNL A   1      42.904  27.353  27.391  1.00  0.00     0.014 A 
ATOM     43  C   UNL A   1      41.086  26.613  29.371  1.00  0.00     0.010 A 
ATOM     44  C   UNL A   1      42.753  28.149  28.530  1.00  0.00     0.010 A 
ATOM     45  C   UNL A   1      41.790  27.822  29.497  1.00  0.00    -0.014 A 
BRANCH  45  46
ATOM     46  C   UNL A   1      41.487  28.735  30.632  1.00  0.00     0.031 A 
ATOM     47  C   UNL A   1      40.306  29.672  30.579  1.00  0.00     0.074 A 
ATOM     48  C   UNL A   1      42.247  28.678  31.744  1.00  0.00     0.049 A 
ATOM     49  N   UNL A   1      39.901  30.532  31.480  1.00  0.00    -0.248 NA
ATOM     50  C   UNL A   1      39.469  29.648  29.367  1.00  0.00     0.031 C 
ATOM     51  C   UNL A   1      43.406  27.800  31.924  1.00  0.00     0.029 A 
ATOM     52  N   UNL A   1      42.147  29.345  32.940  1.00  0.00    -0.354 N 
ATOM     53  C   UNL A   1      38.788  31.164  30.937  1.00  0.00     0.074 A 
ATOM     54  C   UNL A   1      38.587  30.605  29.619  1.00  0.00     0.031 C 
ATOM     55  C   UNL A   1      43.872  27.939  33.173  1.00  0.00     0.029 A 
ATOM     56  C   UNL A   1      43.097  28.969  33.859  1.00  0.00     0.049 A 
ATOM     57  H   UNL A   1      41.460  30.026  33.121  1.00  0.00     0.167 HD
ATOM     58  C   UNL A   1      38.001  32.115  31.493  1.00  0.00     0.031 A 
ATOM     59  C   UNL A   1      43.341  29.408  35.110  1.00  0.00     0.031 A 
ATOM     60  C   UNL A   1      38.184  32.643  32.821  1.00  0.00     0.049 A 
ATOM     61  C   UNL A   1      42.466  30.476  35.696  1.00  0.00     0.074 A 
ATOM     62  C   UNL A   1      37.417  33.592  33.474  1.00  0.00     0.029 A 
ATOM     63  N   UNL A   1      39.188  32.266  33.698  1.00  0.00    -0.354 N 
ATOM     64  N   UNL A   1      41.424  31.064  35.159  1.00  0.00    -0.248 NA
ATOM     65  C   UNL A   1      42.797  30.946  37.049  1.00  0.00     0.031 C 
ATOM     66  C   UNL A   1      37.988  33.830  34.726  1.00  0.00     0.029 A 
ATOM     67  C   UNL A   1      39.075  32.982  34.878  1.00  0.00     0.049 A 
ATOM     68  H   UNL A   1      39.879  31.590  33.511  1.00  0.00     0.167 HD
ATOM     69  C   UNL A   1      40.976  31.976  36.107  1.00  0.00     0.074 A 
ATOM     70  C   UNL A   1      41.841  31.842  37.261  1.00  0.00     0.031 C 
ATOM     71  C   UNL A   1      39.944  32.849  36.019  1.00  0.00     0.031 A 
BRANCH  58  72
ATOM     72  C   UNL A   1      36.851  32.667  30.692  1.00  0.00    -0.014 A 
ATOM     73  C   UNL A   1      37.051  33.798  29.877  1.00  0.00     0.010 A 
ATOM     74  C   UNL A   1      35.546  32.173  30.867  1.00  0.00     0.010 A 
ATOM     75  C   UNL A   1      35.966  34.451  29.289  1.00  0.00     0.020 A 
ATOM     76  C   UNL A   1      34.459  32.811  30.260  1.00  0.00     0.020 A 
ATOM     77  C   UNL A   1      34.674  33.963  29.497  1.00  0.00     0.054 A 
BRANCH  77  78
ATOM     78  S   UNL A   1      33.271  34.856  28.771  1.00  0.00     0.124 S 
ATOM     79  O   UNL A   1      33.917  36.028  28.191  1.00  0.00    -0.237 OA
ATOM     80  O   UNL A   1      32.739  33.889  27.813  1.00  0.00    -0.237 OA
ATOM     81  O   UNL A   1      32.405  35.120  29.919  1.00  0.00    -0.744 OA
ENDBRANCH  77  78
ENDBRANCH  58  72
BRANCH  59  82
ATOM     82  C   UNL A   1      44.481  28.823  35.867  1.00  0.00    -0.014 A 
ATOM     83  C   UNL A   1      45.775  29.355  35.711  1.00  0.00     0.010 A 
ATOM     84  C   UNL A   1      44.304  27.674  36.655  1.00  0.00     0.010 A 
ATOM     85  C   UNL A   1      46.879  28.714  36.274  1.00  0.00     0.020 A 
ATOM     86  C   UNL A   1      45.405  27.047  37.248  1.00  0.00     0.020 A 
ATOM     87  C   UNL A   1      46.688  27.553  37.025  1.00  0.00     0.054 A 
BRANCH  87  88
ATOM     88  S   UNL A   1      48.140  26.699  37.700  1.00  0.00     0.124 S 
ATOM     89  O   UNL A   1      48.571  27.627  38.743  1.00  0.00    -0.237 OA
ATOM     90  O   UNL A   1      47.579  25.436  38.175  1.00  0.00    -0.237 OA
ATOM     91  O   UNL A   1      49.033  26.586  36.551  1.00  0.00    -0.744 OA
ENDBRANCH  87  88
ENDBRANCH  59  82
BRANCH  71  92
ATOM     92  C   UNL A   1      39.681  33.757  37.190  1.00  0.00    -0.014 A 
ATOM     93  C   UNL A   1      40.372  34.978  37.297  1.00  0.00     0.010 A 
ATOM     94  C   UNL A   1      38.859  33.335  38.249  1.00  0.00     0.010 A 
ATOM     95  C   UNL A   1      40.276  35.745  38.460  1.00  0.00     0.020 A 
ATOM     96  C   UNL A   1      38.742  34.113  39.405  1.00  0.00     0.020 A 
ATOM     97  C   UNL A   1      39.472  35.299  39.513  1.00  0.00     0.054 A 
BRANCH  97  98
ATOM     98  S   UNL A   1      39.389  36.287  41.033  1.00  0.00     0.124 S 
ATOM     99  O   UNL A   1      40.801  36.504  41.335  1.00  0.00    -0.237 OA
ATOM    100  O   UNL A   1      38.647  37.471  40.607  1.00  0.00    -0.237 OA
ATOM    101  O   UNL A   1      38.676  35.418  41.966  1.00  0.00    -0.744 OA
ENDBRANCH  97  98
ENDBRANCH  71  92
ENDBRANCH  45  46
ENDBRANCH  37  40
ENDBRANCH  35  36
ENDBRANCH  34  35
ENDBRANCH   1  34
TORSDOF 18
ENDMDL
MODEL 3
REMARK VINA RESULT:     -11.5      2.864      8.547
REMARK SMILES COc1ccc2c(c1)OC[C@@]1(C(=O)NCCCCNC(=O)c3ccc(-c4c5nc(c(-c6ccc(S(=O)(=O)[O-])cc6)c6ccc([nH]6)c(-c6ccc(S(=O)(=O)[O-])cc6)c6nc(c(-c7ccc(S(=O)(=O)[O-])cc7)c7ccc4[nH]7)C=C6)C=C5)cc3)C[N@@H+](Cc3cc(C(C)(C)C)n[nH]3)C[C@H]21
REMARK SMILES IDX 16 1 15 2 14 3 12 4 13 5 11 7 3 8 4 9 8 10 5 11 7 12 6 13
REMARK SMILES IDX 9 14 95 15 10 16 94 17 82 18 83 19 2 21 1 22 84 23 85 24
REMARK SMILES IDX 86 25 93 26 87 27 92 28 88 30 89 31 90 32 91 33 17 34 18 35
REMARK SMILES IDX 19 36 20 37 21 39 22 40 23 41 81 42 24 43 80 44 25 45 26 46
REMARK SMILES IDX 27 47 74 48 28 49 79 50 73 51 75 52 29 53 78 54 72 55 71 56
REMARK SMILES IDX 30 58 60 59 41 60 59 61 42 62 45 63 58 64 76 65 43 66 44 67
REMARK SMILES IDX 57 69 77 70 46 71 31 72 32 73 40 74 33 75 39 76 34 77 35 78
REMARK SMILES IDX 36 79 37 80 38 81 61 82 62 83 70 84 63 85 69 86 64 87 65 88
REMARK SMILES IDX 66 89 67 90 68 91 47 92 48 93 56 94 49 95 55 96 50 97 51 98
REMARK SMILES IDX 52 99 53 100 54 101
REMARK H PARENT 14 6 83 20 93 29 19 38 75 57 45 68
REMARK Flexibility Score: inf
ROOT
ATOM      1  C   UNL A   1      36.362  22.849  23.609  1.00  0.00     0.023 C 
ENDROOT
BRANCH   1   2
ATOM      2  C   UNL A   1      35.044  23.538  23.923  1.00  0.00     0.116 C 
BRANCH   2   3
ATOM      3  N   UNL A   1      34.144  23.670  22.793  1.00  0.00    -0.355 N 
ATOM      4  C   UNL A   1      33.346  24.763  22.566  1.00  0.00     0.236 C 
ATOM      5  O   UNL A   1      33.208  25.133  21.395  1.00  0.00    -0.274 OA
ATOM      6  H   UNL A   1      34.102  22.926  22.149  1.00  0.00     0.163 HD
BRANCH   4   7
ATOM      7  C   UNL A   1      32.686  25.440  23.792  1.00  0.00     0.144 C 
ATOM      8  C   UNL A   1      32.257  29.973  26.434  1.00  0.00     0.122 A 
ATOM      9  C   UNL A   1      31.939  28.992  27.374  1.00  0.00     0.047 A 
ATOM     10  C   UNL A   1      32.633  29.593  25.147  1.00  0.00     0.093 A 
ATOM     11  C   UNL A   1      31.938  27.643  27.017  1.00  0.00     0.012 A 
ATOM     12  C   UNL A   1      32.680  28.237  24.818  1.00  0.00     0.126 A 
ATOM     13  C   UNL A   1      32.281  27.259  25.715  1.00  0.00     0.005 A 
ATOM     14  O   UNL A   1      33.178  27.881  23.601  1.00  0.00    -0.492 OA
ATOM     15  C   UNL A   1      32.378  25.808  25.302  1.00  0.00     0.103 C 
ATOM     16  C   UNL A   1      33.810  26.572  23.657  1.00  0.00     0.253 C 
ATOM     17  C   UNL A   1      31.079  25.066  25.616  1.00  0.00     0.272 C 
ATOM     18  C   UNL A   1      32.611  23.890  24.322  1.00  0.00     0.284 C 
ATOM     19  N   UNL A   1      31.252  23.816  24.904  1.00  0.00    -0.328 N 
ATOM     20  H   UNL A   1      30.558  23.716  24.164  1.00  0.00     0.348 HD
BRANCH   8  21
ATOM     21  O   UNL A   1      32.222  31.256  26.908  1.00  0.00    -0.497 OA
ATOM     22  C   UNL A   1      33.378  31.677  27.622  1.00  0.00     0.278 C 
ENDBRANCH   8  21
BRANCH  19  23
ATOM     23  C   UNL A   1      30.918  22.604  25.648  1.00  0.00     0.319 C 
BRANCH  23  24
ATOM     24  C   UNL A   1      31.897  21.514  25.436  1.00  0.00     0.090 A 
ATOM     25  C   UNL A   1      32.066  20.615  24.408  1.00  0.00     0.055 A 
ATOM     26  N   UNL A   1      32.786  21.137  26.403  1.00  0.00    -0.277 N 
ATOM     27  C   UNL A   1      32.894  19.604  24.946  1.00  0.00     0.068 A 
ATOM     28  N   UNL A   1      33.398  19.976  26.132  1.00  0.00    -0.180 NA
ATOM     29  H   UNL A   1      32.959  21.665  27.215  1.00  0.00     0.190 HD
BRANCH  27  30
ATOM     30  C   UNL A   1      33.172  18.222  24.390  1.00  0.00     0.006 C 
ATOM     31  C   UNL A   1      32.617  18.109  22.961  1.00  0.00     0.017 C 
ATOM     32  C   UNL A   1      34.694  17.960  24.376  1.00  0.00     0.017 C 
ATOM     33  C   UNL A   1      32.525  17.122  25.260  1.00  0.00     0.017 C 
ENDBRANCH  27  30
ENDBRANCH  23  24
ENDBRANCH  19  23
ENDBRANCH   4   7
ENDBRANCH   2   3
ENDBRANCH   1   2
BRANCH   1  34
ATOM     34  C   UNL A   1      36.805  21.757  24.577  1.00  0.00     0.023 C 
BRANCH  34  35
ATOM     35  C   UNL A   1      37.744  22.174  25.701  1.00  0.00     0.116 C 
BRANCH  35  36
ATOM     36  N   UNL A   1      38.985  21.417  25.762  1.00  0.00    -0.352 N 
ATOM     37  C   UNL A   1      40.220  21.806  26.236  1.00  0.00     0.251 C 
ATOM     38  H   UNL A   1      38.935  20.497  25.417  1.00  0.00     0.163 HD
ATOM     39  O   UNL A   1      41.176  21.039  26.177  1.00  0.00    -0.269 OA
BRANCH  37  40
ATOM     40  C   UNL A   1      40.395  23.179  26.755  1.00  0.00     0.039 A 
ATOM     41  C   UNL A   1      40.262  24.281  25.910  1.00  0.00     0.014 A 
ATOM     42  C   UNL A   1      40.802  23.355  28.080  1.00  0.00     0.014 A 
ATOM     43  C   UNL A   1      40.752  25.517  26.319  1.00  0.00     0.010 A 
ATOM     44  C   UNL A   1      41.197  24.622  28.520  1.00  0.00     0.010 A 
ATOM     45  C   UNL A   1      41.243  25.699  27.623  1.00  0.00    -0.014 A 
BRANCH  45  46
ATOM     46  C   UNL A   1      41.817  27.014  28.015  1.00  0.00     0.031 A 
ATOM     47  C   UNL A   1      40.941  28.105  28.583  1.00  0.00     0.074 A 
ATOM     48  C   UNL A   1      43.147  27.208  27.915  1.00  0.00     0.049 A 
ATOM     49  N   UNL A   1      41.281  29.307  28.974  1.00  0.00    -0.248 NA
ATOM     50  C   UNL A   1      39.504  27.817  28.732  1.00  0.00     0.031 C 
ATOM     51  C   UNL A   1      44.102  26.224  27.399  1.00  0.00     0.029 A 
ATOM     52  N   UNL A   1      43.931  28.280  28.266  1.00  0.00    -0.354 N 
ATOM     53  C   UNL A   1      40.105  29.924  29.388  1.00  0.00     0.074 A 
ATOM     54  C   UNL A   1      39.035  28.972  29.185  1.00  0.00     0.031 C 
ATOM     55  C   UNL A   1      45.344  26.713  27.520  1.00  0.00     0.029 A 
ATOM     56  C   UNL A   1      45.273  28.071  28.050  1.00  0.00     0.049 A 
ATOM     57  H   UNL A   1      43.567  29.116  28.636  1.00  0.00     0.167 HD
ATOM     58  C   UNL A   1      39.937  31.165  29.901  1.00  0.00     0.031 A 
ATOM     59  C   UNL A   1      46.335  28.881  28.235  1.00  0.00     0.031 A 
ATOM     60  C   UNL A   1      41.011  32.097  30.134  1.00  0.00     0.049 A 
ATOM     61  C   UNL A   1      46.119  30.258  28.786  1.00  0.00     0.074 A 
ATOM     62  C   UNL A   1      40.933  33.369  30.675  1.00  0.00     0.029 A 
ATOM     63  N   UNL A   1      42.348  31.860  29.858  1.00  0.00    -0.354 N 
ATOM     64  N   UNL A   1      44.997  30.822  29.163  1.00  0.00    -0.248 NA
ATOM     65  C   UNL A   1      47.306  31.114  28.934  1.00  0.00     0.031 C 
ATOM     66  C   UNL A   1      42.215  33.923  30.674  1.00  0.00     0.029 A 
ATOM     67  C   UNL A   1      43.101  32.972  30.193  1.00  0.00     0.049 A 
ATOM     68  H   UNL A   1      42.708  31.025  29.479  1.00  0.00     0.167 HD
ATOM     69  C   UNL A   1      45.340  32.099  29.590  1.00  0.00     0.074 A 
ATOM     70  C   UNL A   1      46.777  32.216  29.453  1.00  0.00     0.031 C 
ATOM     71  C   UNL A   1      44.530  33.084  30.045  1.00  0.00     0.031 A 
BRANCH  58  72
ATOM     72  C   UNL A   1      38.547  31.621  30.262  1.00  0.00    -0.014 A 
ATOM     73  C   UNL A   1      37.829  32.436  29.366  1.00  0.00     0.010 A 
ATOM     74  C   UNL A   1      38.020  31.382  31.543  1.00  0.00     0.010 A 
ATOM     75  C   UNL A   1      36.632  33.040  29.758  1.00  0.00     0.020 A 
ATOM     76  C   UNL A   1      36.809  31.966  31.931  1.00  0.00     0.020 A 
ATOM     77  C   UNL A   1      36.137  32.813  31.044  1.00  0.00     0.054 A 
BRANCH  77  78
ATOM     78  S   UNL A   1      34.609  33.649  31.556  1.00  0.00     0.124 S 
ATOM     79  O   UNL A   1      35.118  34.863  32.186  1.00  0.00    -0.237 OA
ATOM     80  O   UNL A   1      33.910  33.841  30.287  1.00  0.00    -0.237 OA
ATOM     81  O   UNL A   1      33.982  32.688  32.461  1.00  0.00    -0.744 OA
ENDBRANCH  77  78
ENDBRANCH  58  72
BRANCH  59  82
ATOM     82  C   UNL A   1      47.689  28.380  27.875  1.00  0.00    -0.014 A 
ATOM     83  C   UNL A   1      48.151  28.492  26.550  1.00  0.00     0.010 A 
ATOM     84  C   UNL A   1      48.475  27.698  28.818  1.00  0.00     0.010 A 
ATOM     85  C   UNL A   1      49.340  27.876  26.157  1.00  0.00     0.020 A 
ATOM     86  C   UNL A   1      49.684  27.106  28.436  1.00  0.00     0.020 A 
ATOM     87  C   UNL A   1      50.091  27.172  27.100  1.00  0.00     0.054 A 
BRANCH  87  88
ATOM     88  S   UNL A   1      51.603  26.327  26.561  1.00  0.00     0.124 S 
ATOM     89  O   UNL A   1      51.631  26.650  25.136  1.00  0.00    -0.237 OA
ATOM     90  O   UNL A   1      52.636  26.967  27.371  1.00  0.00    -0.237 OA
ATOM     91  O   UNL A   1      51.343  24.927  26.882  1.00  0.00    -0.744 OA
ENDBRANCH  87  88
ENDBRANCH  59  82
BRANCH  71  92
ATOM     92  C   UNL A   1      45.156  34.399  30.424  1.00  0.00    -0.014 A 
ATOM     93  C   UNL A   1      45.521  34.641  31.761  1.00  0.00     0.010 A 
ATOM     94  C   UNL A   1      45.247  35.442  29.485  1.00  0.00     0.010 A 
ATOM     95  C   UNL A   1      45.933  35.913  32.162  1.00  0.00     0.020 A 
ATOM     96  C   UNL A   1      45.683  36.710  29.880  1.00  0.00     0.020 A 
ATOM     97  C   UNL A   1      45.998  36.944  31.221  1.00  0.00     0.054 A 
BRANCH  97  98
ATOM     98  S   UNL A   1      46.496  38.601  31.766  1.00  0.00     0.124 S 
ATOM     99  O   UNL A   1      45.767  38.743  33.022  1.00  0.00    -0.237 OA
ATOM    100  O   UNL A   1      47.947  38.476  31.890  1.00  0.00    -0.237 OA
ATOM    101  O   UNL A   1      46.046  39.468  30.679  1.00  0.00    -0.744 OA
ENDBRANCH  97  98
ENDBRANCH  71  92
ENDBRANCH  45  46
ENDBRANCH  37  40
ENDBRANCH  35  36
ENDBRANCH  34  35
ENDBRANCH   1  34
TORSDOF 18
ENDMDL
