MODEL 1
REMARK VINA RESULT:     -10.1      0.000      0.000
REMARK SMILES CCCCNC(=O)[C@@H](C)Oc1ccc(N)cc1C(=O)NCCCCNC(=O)c1ccc(-c2c3nc(c(-c4ccc(S(=O)(=O)[O-])cc4)c4ccc([nH]4)c(-c4ccc(S(=O)(=O)[O-])cc4)c4nc(c(-c5ccc(S(=O)(=O)[O-])cc5)c5ccc2[nH]5)C=C4)C=C3)cc1
REMARK SMILES IDX 21 1 20 2 18 3 19 4 17 6 11 7 12 8 13 9 16 10 14 11 10 12
REMARK SMILES IDX 8 13 9 14 6 15 5 16 7 18 4 19 3 20 2 21 1 22 15 23 22 26
REMARK SMILES IDX 23 27 24 28 25 29 26 30 27 32 28 33 29 34 87 35 30 36 86 37
REMARK SMILES IDX 31 38 32 39 33 40 80 41 34 42 85 43 79 44 81 45 35 46 84 47
REMARK SMILES IDX 78 48 77 49 36 51 66 52 47 53 65 54 48 55 51 56 64 57 82 58
REMARK SMILES IDX 49 59 50 60 63 62 83 63 52 64 37 65 38 66 46 67 39 68 45 69
REMARK SMILES IDX 40 70 41 71 42 72 43 73 44 74 67 75 68 76 76 77 69 78 75 79
REMARK SMILES IDX 70 80 71 81 72 82 73 83 74 84 53 85 54 86 62 87 55 88 61 89
REMARK SMILES IDX 56 90 57 91 58 92 59 93 60 94
REMARK H PARENT 20 5 5 17 15 24 15 25 25 31 81 50 51 61
REMARK Flexibility Score: inf
ROOT
ATOM      1  C   UNL A   1      31.023  27.154  26.184  1.00  0.00     0.116 C 
ENDROOT
BRANCH   1   2
ATOM      2  N   UNL A   1      30.971  25.854  26.812  1.00  0.00    -0.352 N 
ATOM      3  C   UNL A   1      31.617  24.660  26.671  1.00  0.00     0.255 C 
ATOM      4  O   UNL A   1      31.066  23.726  27.268  1.00  0.00    -0.269 OA
ATOM      5  H   UNL A   1      30.295  25.819  27.526  1.00  0.00     0.163 HD
BRANCH   3   6
ATOM      6  C   UNL A   1      32.917  24.376  25.975  1.00  0.00     0.083 A 
ATOM      7  C   UNL A   1      33.498  24.973  24.851  1.00  0.00     0.133 A 
ATOM      8  C   UNL A   1      34.852  24.731  24.568  1.00  0.00     0.049 A 
ATOM      9  C   UNL A   1      35.561  23.726  25.233  1.00  0.00     0.029 A 
ATOM     10  C   UNL A   1      33.653  23.336  26.600  1.00  0.00     0.043 A 
ATOM     11  C   UNL A   1      34.929  22.950  26.191  1.00  0.00     0.032 A 
BRANCH   7  12
ATOM     12  O   UNL A   1      32.859  25.855  24.043  1.00  0.00    -0.480 OA
BRANCH  12  13
ATOM     13  C   UNL A   1      32.117  25.347  22.928  1.00  0.00     0.258 C 
ATOM     14  C   UNL A   1      30.836  24.599  23.316  1.00  0.00     0.064 C 
BRANCH  13  15
ATOM     15  C   UNL A   1      32.821  24.759  21.674  1.00  0.00     0.260 C 
ATOM     16  N   UNL A   1      33.127  23.436  21.554  1.00  0.00    -0.353 N 
ATOM     17  H   UNL A   1      33.346  23.134  20.643  1.00  0.00     0.163 HD
ATOM     18  O   UNL A   1      33.104  25.483  20.713  1.00  0.00    -0.271 OA
BRANCH  16  19
ATOM     19  C   UNL A   1      33.176  22.412  22.575  1.00  0.00     0.116 C 
BRANCH  19  20
ATOM     20  C   UNL A   1      32.116  21.334  22.401  1.00  0.00     0.021 C 
BRANCH  20  21
ATOM     21  C   UNL A   1      32.181  20.215  23.445  1.00  0.00    -0.002 C 
ATOM     22  C   UNL A   1      32.126  20.718  24.883  1.00  0.00     0.004 C 
ENDBRANCH  20  21
ENDBRANCH  19  20
ENDBRANCH  16  19
ENDBRANCH  13  15
ENDBRANCH  12  13
ENDBRANCH   7  12
BRANCH  11  23
ATOM     23  N   UNL A   1      35.589  21.916  26.832  1.00  0.00    -0.399 N 
ATOM     24  H   UNL A   1      36.338  21.459  26.386  1.00  0.00     0.156 HD
ATOM     25  H   UNL A   1      35.309  21.638  27.733  1.00  0.00     0.156 HD
ENDBRANCH  11  23
ENDBRANCH   3   6
ENDBRANCH   1   2
BRANCH   1  26
ATOM     26  C   UNL A   1      31.817  28.110  27.081  1.00  0.00     0.023 C 
BRANCH  26  27
ATOM     27  C   UNL A   1      33.330  27.989  26.940  1.00  0.00     0.023 C 
BRANCH  27  28
ATOM     28  C   UNL A   1      33.984  29.172  26.248  1.00  0.00     0.116 C 
BRANCH  28  29
ATOM     29  N   UNL A   1      33.565  30.468  26.762  1.00  0.00    -0.352 N 
ATOM     30  C   UNL A   1      34.234  31.266  27.668  1.00  0.00     0.251 C 
ATOM     31  H   UNL A   1      32.707  30.815  26.425  1.00  0.00     0.163 HD
ATOM     32  O   UNL A   1      33.751  32.303  28.079  1.00  0.00    -0.269 OA
BRANCH  30  33
ATOM     33  C   UNL A   1      35.538  30.780  28.163  1.00  0.00     0.039 A 
ATOM     34  C   UNL A   1      36.687  31.513  27.868  1.00  0.00     0.014 A 
ATOM     35  C   UNL A   1      35.584  29.692  29.037  1.00  0.00     0.014 A 
ATOM     36  C   UNL A   1      37.878  31.197  28.519  1.00  0.00     0.010 A 
ATOM     37  C   UNL A   1      36.742  29.452  29.761  1.00  0.00     0.010 A 
ATOM     38  C   UNL A   1      37.904  30.195  29.504  1.00  0.00    -0.014 A 
BRANCH  38  39
ATOM     39  C   UNL A   1      39.143  29.883  30.258  1.00  0.00     0.031 A 
ATOM     40  C   UNL A   1      40.051  28.786  29.765  1.00  0.00     0.074 A 
ATOM     41  C   UNL A   1      39.418  30.532  31.408  1.00  0.00     0.049 A 
ATOM     42  N   UNL A   1      41.137  28.308  30.313  1.00  0.00    -0.248 NA
ATOM     43  C   UNL A   1      39.663  28.110  28.515  1.00  0.00     0.031 C 
ATOM     44  C   UNL A   1      38.585  31.568  32.025  1.00  0.00     0.029 A 
ATOM     45  N   UNL A   1      40.482  30.413  32.266  1.00  0.00    -0.354 N 
ATOM     46  C   UNL A   1      41.541  27.262  29.492  1.00  0.00     0.074 A 
ATOM     47  C   UNL A   1      40.551  27.131  28.448  1.00  0.00     0.031 C 
ATOM     48  C   UNL A   1      39.190  32.018  33.137  1.00  0.00     0.029 A 
ATOM     49  C   UNL A   1      40.434  31.282  33.332  1.00  0.00     0.049 A 
ATOM     50  H   UNL A   1      41.212  29.766  32.131  1.00  0.00     0.167 HD
ATOM     51  C   UNL A   1      42.656  26.500  29.574  1.00  0.00     0.031 A 
ATOM     52  C   UNL A   1      41.300  31.467  34.346  1.00  0.00     0.031 A 
ATOM     53  C   UNL A   1      43.665  26.667  30.583  1.00  0.00     0.049 A 
ATOM     54  C   UNL A   1      42.555  30.636  34.393  1.00  0.00     0.074 A 
ATOM     55  C   UNL A   1      44.867  25.993  30.718  1.00  0.00     0.029 A 
ATOM     56  N   UNL A   1      43.599  27.585  31.619  1.00  0.00    -0.354 N 
ATOM     57  N   UNL A   1      42.950  29.694  33.569  1.00  0.00    -0.248 NA
ATOM     58  C   UNL A   1      43.487  30.904  35.496  1.00  0.00     0.031 C 
ATOM     59  C   UNL A   1      45.514  26.487  31.855  1.00  0.00     0.029 A 
ATOM     60  C   UNL A   1      44.735  27.494  32.402  1.00  0.00     0.049 A 
ATOM     61  H   UNL A   1      42.853  28.209  31.774  1.00  0.00     0.167 HD
ATOM     62  C   UNL A   1      44.189  29.275  34.041  1.00  0.00     0.074 A 
ATOM     63  C   UNL A   1      44.485  30.079  35.210  1.00  0.00     0.031 C 
ATOM     64  C   UNL A   1      45.009  28.312  33.555  1.00  0.00     0.031 A 
BRANCH  51  65
ATOM     65  C   UNL A   1      42.847  25.438  28.526  1.00  0.00    -0.014 A 
ATOM     66  C   UNL A   1      43.580  25.704  27.355  1.00  0.00     0.010 A 
ATOM     67  C   UNL A   1      42.312  24.153  28.722  1.00  0.00     0.010 A 
ATOM     68  C   UNL A   1      43.736  24.719  26.378  1.00  0.00     0.020 A 
ATOM     69  C   UNL A   1      42.490  23.155  27.760  1.00  0.00     0.020 A 
ATOM     70  C   UNL A   1      43.187  23.450  26.586  1.00  0.00     0.054 A 
BRANCH  70  71
ATOM     71  S   UNL A   1      43.430  22.181  25.314  1.00  0.00     0.124 S 
ATOM     72  O   UNL A   1      43.382  22.973  24.087  1.00  0.00    -0.237 OA
ATOM     73  O   UNL A   1      44.739  21.630  25.655  1.00  0.00    -0.237 OA
ATOM     74  O   UNL A   1      42.304  21.272  25.513  1.00  0.00    -0.744 OA
ENDBRANCH  70  71
ENDBRANCH  51  65
BRANCH  52  75
ATOM     75  C   UNL A   1      41.036  32.500  35.385  1.00  0.00    -0.014 A 
ATOM     76  C   UNL A   1      40.279  32.181  36.527  1.00  0.00     0.010 A 
ATOM     77  C   UNL A   1      41.527  33.809  35.234  1.00  0.00     0.010 A 
ATOM     78  C   UNL A   1      39.989  33.160  37.482  1.00  0.00     0.020 A 
ATOM     79  C   UNL A   1      41.259  34.785  36.200  1.00  0.00     0.020 A 
ATOM     80  C   UNL A   1      40.477  34.457  37.310  1.00  0.00     0.054 A 
BRANCH  80  81
ATOM     81  S   UNL A   1      40.111  35.708  38.573  1.00  0.00     0.124 S 
ATOM     82  O   UNL A   1      41.406  35.867  39.226  1.00  0.00    -0.237 OA
ATOM     83  O   UNL A   1      39.660  36.844  37.775  1.00  0.00    -0.237 OA
ATOM     84  O   UNL A   1      39.072  35.077  39.385  1.00  0.00    -0.744 OA
ENDBRANCH  80  81
ENDBRANCH  52  75
BRANCH  64  85
ATOM     85  C   UNL A   1      46.318  28.097  34.263  1.00  0.00    -0.014 A 
ATOM     86  C   UNL A   1      47.463  28.828  33.908  1.00  0.00     0.010 A 
ATOM     87  C   UNL A   1      46.383  27.189  35.336  1.00  0.00     0.010 A 
ATOM     88  C   UNL A   1      48.663  28.634  34.595  1.00  0.00     0.020 A 
ATOM     89  C   UNL A   1      47.575  27.011  36.041  1.00  0.00     0.020 A 
ATOM     90  C   UNL A   1      48.711  27.725  35.657  1.00  0.00     0.054 A 
BRANCH  90  91
ATOM     91  S   UNL A   1      50.270  27.521  36.562  1.00  0.00     0.124 S 
ATOM     92  O   UNL A   1      51.205  28.270  35.727  1.00  0.00    -0.237 OA
ATOM     93  O   UNL A   1      49.969  28.119  37.861  1.00  0.00    -0.237 OA
ATOM     94  O   UNL A   1      50.471  26.074  36.581  1.00  0.00    -0.744 OA
ENDBRANCH  90  91
ENDBRANCH  64  85
ENDBRANCH  38  39
ENDBRANCH  30  33
ENDBRANCH  28  29
ENDBRANCH  27  28
ENDBRANCH  26  27
ENDBRANCH   1  26
TORSDOF 21
ENDMDL
MODEL 2
REMARK VINA RESULT:      -9.8      2.360      8.916
REMARK SMILES CCCCNC(=O)[C@@H](C)Oc1ccc(N)cc1C(=O)NCCCCNC(=O)c1ccc(-c2c3nc(c(-c4ccc(S(=O)(=O)[O-])cc4)c4ccc([nH]4)c(-c4ccc(S(=O)(=O)[O-])cc4)c4nc(c(-c5ccc(S(=O)(=O)[O-])cc5)c5ccc2[nH]5)C=C4)C=C3)cc1
REMARK SMILES IDX 21 1 20 2 18 3 19 4 17 6 11 7 12 8 13 9 16 10 14 11 10 12
REMARK SMILES IDX 8 13 9 14 6 15 5 16 7 18 4 19 3 20 2 21 1 22 15 23 22 26
REMARK SMILES IDX 23 27 24 28 25 29 26 30 27 32 28 33 29 34 87 35 30 36 86 37
REMARK SMILES IDX 31 38 32 39 33 40 80 41 34 42 85 43 79 44 81 45 35 46 84 47
REMARK SMILES IDX 78 48 77 49 36 51 66 52 47 53 65 54 48 55 51 56 64 57 82 58
REMARK SMILES IDX 49 59 50 60 63 62 83 63 52 64 37 65 38 66 46 67 39 68 45 69
REMARK SMILES IDX 40 70 41 71 42 72 43 73 44 74 67 75 68 76 76 77 69 78 75 79
REMARK SMILES IDX 70 80 71 81 72 82 73 83 74 84 53 85 54 86 62 87 55 88 61 89
REMARK SMILES IDX 56 90 57 91 58 92 59 93 60 94
REMARK H PARENT 20 5 5 17 15 24 15 25 25 31 81 50 51 61
REMARK Flexibility Score: inf
ROOT
ATOM      1  C   UNL A   1      33.128  28.795  27.050  1.00  0.00     0.116 C 
ENDROOT
BRANCH   1   2
ATOM      2  N   UNL A   1      33.646  27.828  26.110  1.00  0.00    -0.352 N 
ATOM      3  C   UNL A   1      33.149  27.087  25.078  1.00  0.00     0.255 C 
ATOM      4  O   UNL A   1      33.912  26.187  24.703  1.00  0.00    -0.269 OA
ATOM      5  H   UNL A   1      34.605  27.660  26.250  1.00  0.00     0.163 HD
BRANCH   3   6
ATOM      6  C   UNL A   1      31.871  27.284  24.315  1.00  0.00     0.083 A 
ATOM      7  C   UNL A   1      30.638  26.631  24.418  1.00  0.00     0.133 A 
ATOM      8  C   UNL A   1      29.510  27.191  23.798  1.00  0.00     0.049 A 
ATOM      9  C   UNL A   1      29.634  28.243  22.886  1.00  0.00     0.029 A 
ATOM     10  C   UNL A   1      31.965  28.323  23.352  1.00  0.00     0.043 A 
ATOM     11  C   UNL A   1      30.886  28.752  22.581  1.00  0.00     0.032 A 
BRANCH   7  12
ATOM     12  O   UNL A   1      30.429  25.514  25.159  1.00  0.00    -0.480 OA
BRANCH  12  13
ATOM     13  C   UNL A   1      31.005  24.280  24.713  1.00  0.00     0.258 C 
ATOM     14  C   UNL A   1      30.615  23.886  23.284  1.00  0.00     0.064 C 
BRANCH  13  15
ATOM     15  C   UNL A   1      31.178  23.065  25.665  1.00  0.00     0.260 C 
ATOM     16  N   UNL A   1      32.391  22.498  25.922  1.00  0.00    -0.353 N 
ATOM     17  H   UNL A   1      32.421  21.904  26.706  1.00  0.00     0.163 HD
ATOM     18  O   UNL A   1      30.204  22.583  26.254  1.00  0.00    -0.271 OA
BRANCH  16  19
ATOM     19  C   UNL A   1      33.640  22.645  25.207  1.00  0.00     0.116 C 
BRANCH  19  20
ATOM     20  C   UNL A   1      34.043  21.400  24.432  1.00  0.00     0.021 C 
BRANCH  20  21
ATOM     21  C   UNL A   1      35.336  20.743  24.925  1.00  0.00    -0.002 C 
ATOM     22  C   UNL A   1      36.229  21.681  25.729  1.00  0.00     0.004 C 
ENDBRANCH  20  21
ENDBRANCH  19  20
ENDBRANCH  16  19
ENDBRANCH  13  15
ENDBRANCH  12  13
ENDBRANCH   7  12
BRANCH  11  23
ATOM     23  N   UNL A   1      31.047  29.759  21.647  1.00  0.00    -0.399 N 
ATOM     24  H   UNL A   1      31.300  29.538  20.721  1.00  0.00     0.156 HD
ATOM     25  H   UNL A   1      30.910  30.699  21.907  1.00  0.00     0.156 HD
ENDBRANCH  11  23
ENDBRANCH   3   6
ENDBRANCH   1   2
BRANCH   1  26
ATOM     26  C   UNL A   1      33.279  30.200  26.457  1.00  0.00     0.023 C 
BRANCH  26  27
ATOM     27  C   UNL A   1      32.716  31.313  27.333  1.00  0.00     0.023 C 
BRANCH  27  28
ATOM     28  C   UNL A   1      33.703  32.430  27.624  1.00  0.00     0.116 C 
BRANCH  28  29
ATOM     29  N   UNL A   1      33.080  33.702  27.962  1.00  0.00    -0.352 N 
ATOM     30  C   UNL A   1      33.414  34.550  28.998  1.00  0.00     0.251 C 
ATOM     31  H   UNL A   1      32.335  33.989  27.386  1.00  0.00     0.163 HD
ATOM     32  O   UNL A   1      32.774  35.558  29.225  1.00  0.00    -0.269 OA
BRANCH  30  33
ATOM     33  C   UNL A   1      34.550  34.154  29.855  1.00  0.00     0.039 A 
ATOM     34  C   UNL A   1      34.310  33.326  30.952  1.00  0.00     0.014 A 
ATOM     35  C   UNL A   1      35.852  34.482  29.472  1.00  0.00     0.014 A 
ATOM     36  C   UNL A   1      35.393  32.760  31.623  1.00  0.00     0.010 A 
ATOM     37  C   UNL A   1      36.920  33.833  30.074  1.00  0.00     0.010 A 
ATOM     38  C   UNL A   1      36.704  32.972  31.160  1.00  0.00    -0.014 A 
BRANCH  38  39
ATOM     39  C   UNL A   1      37.869  32.330  31.816  1.00  0.00     0.031 A 
ATOM     40  C   UNL A   1      38.315  32.817  33.170  1.00  0.00     0.074 A 
ATOM     41  C   UNL A   1      38.559  31.364  31.177  1.00  0.00     0.049 A 
ATOM     42  N   UNL A   1      39.348  32.444  33.881  1.00  0.00    -0.248 NA
ATOM     43  C   UNL A   1      37.521  33.894  33.787  1.00  0.00     0.031 C 
ATOM     44  C   UNL A   1      38.267  30.850  29.835  1.00  0.00     0.029 A 
ATOM     45  N   UNL A   1      39.654  30.639  31.573  1.00  0.00    -0.354 N 
ATOM     46  C   UNL A   1      39.340  33.258  35.007  1.00  0.00     0.074 A 
ATOM     47  C   UNL A   1      38.244  34.187  34.856  1.00  0.00     0.031 C 
ATOM     48  C   UNL A   1      39.134  29.867  29.540  1.00  0.00     0.029 A 
ATOM     49  C   UNL A   1      40.063  29.702  30.652  1.00  0.00     0.049 A 
ATOM     50  H   UNL A   1      40.106  30.777  32.437  1.00  0.00     0.167 HD
ATOM     51  C   UNL A   1      40.149  33.215  36.090  1.00  0.00     0.031 A 
ATOM     52  C   UNL A   1      41.068  28.808  30.705  1.00  0.00     0.031 A 
ATOM     53  C   UNL A   1      41.206  32.256  36.261  1.00  0.00     0.049 A 
ATOM     54  C   UNL A   1      41.928  28.750  31.939  1.00  0.00     0.074 A 
ATOM     55  C   UNL A   1      42.041  32.082  37.351  1.00  0.00     0.029 A 
ATOM     56  N   UNL A   1      41.559  31.298  35.324  1.00  0.00    -0.354 N 
ATOM     57  N   UNL A   1      41.865  29.488  33.022  1.00  0.00    -0.248 NA
ATOM     58  C   UNL A   1      42.985  27.730  31.964  1.00  0.00     0.031 C 
ATOM     59  C   UNL A   1      42.920  31.034  37.058  1.00  0.00     0.029 A 
ATOM     60  C   UNL A   1      42.604  30.532  35.806  1.00  0.00     0.049 A 
ATOM     61  H   UNL A   1      41.130  31.182  34.446  1.00  0.00     0.167 HD
ATOM     62  C   UNL A   1      42.856  29.003  33.868  1.00  0.00     0.074 A 
ATOM     63  C   UNL A   1      43.492  27.899  33.177  1.00  0.00     0.031 C 
ATOM     64  C   UNL A   1      43.213  29.432  35.103  1.00  0.00     0.031 A 
BRANCH  51  65
ATOM     65  C   UNL A   1      39.899  34.220  37.181  1.00  0.00    -0.014 A 
ATOM     66  C   UNL A   1      40.431  35.520  37.098  1.00  0.00     0.010 A 
ATOM     67  C   UNL A   1      39.105  33.875  38.288  1.00  0.00     0.010 A 
ATOM     68  C   UNL A   1      40.212  36.442  38.123  1.00  0.00     0.020 A 
ATOM     69  C   UNL A   1      38.858  34.803  39.303  1.00  0.00     0.020 A 
ATOM     70  C   UNL A   1      39.428  36.076  39.222  1.00  0.00     0.054 A 
BRANCH  70  71
ATOM     71  S   UNL A   1      39.134  37.303  40.525  1.00  0.00     0.124 S 
ATOM     72  O   UNL A   1      38.208  38.222  39.868  1.00  0.00    -0.237 OA
ATOM     73  O   UNL A   1      38.563  36.498  41.601  1.00  0.00    -0.237 OA
ATOM     74  O   UNL A   1      40.464  37.845  40.795  1.00  0.00    -0.744 OA
ENDBRANCH  70  71
ENDBRANCH  51  65
BRANCH  52  75
ATOM     75  C   UNL A   1      41.302  27.869  29.573  1.00  0.00    -0.014 A 
ATOM     76  C   UNL A   1      40.470  26.749  29.396  1.00  0.00     0.010 A 
ATOM     77  C   UNL A   1      42.365  28.079  28.676  1.00  0.00     0.010 A 
ATOM     78  C   UNL A   1      40.716  25.838  28.363  1.00  0.00     0.020 A 
ATOM     79  C   UNL A   1      42.599  27.184  27.627  1.00  0.00     0.020 A 
ATOM     80  C   UNL A   1      41.782  26.060  27.488  1.00  0.00     0.054 A 
BRANCH  80  81
ATOM     81  S   UNL A   1      42.069  24.881  26.138  1.00  0.00     0.124 S 
ATOM     82  O   UNL A   1      43.360  24.308  26.505  1.00  0.00    -0.237 OA
ATOM     83  O   UNL A   1      40.923  23.983  26.251  1.00  0.00    -0.237 OA
ATOM     84  O   UNL A   1      42.072  25.724  24.945  1.00  0.00    -0.744 OA
ENDBRANCH  80  81
ENDBRANCH  52  75
BRANCH  64  85
ATOM     85  C   UNL A   1      44.315  28.686  35.801  1.00  0.00    -0.014 A 
ATOM     86  C   UNL A   1      44.038  27.571  36.608  1.00  0.00     0.010 A 
ATOM     87  C   UNL A   1      45.651  29.078  35.600  1.00  0.00     0.010 A 
ATOM     88  C   UNL A   1      45.078  26.874  37.228  1.00  0.00     0.020 A 
ATOM     89  C   UNL A   1      46.695  28.369  36.197  1.00  0.00     0.020 A 
ATOM     90  C   UNL A   1      46.401  27.279  37.019  1.00  0.00     0.054 A 
BRANCH  90  91
ATOM     91  S   UNL A   1      47.737  26.333  37.798  1.00  0.00     0.124 S 
ATOM     92  O   UNL A   1      47.042  25.121  38.223  1.00  0.00    -0.237 OA
ATOM     93  O   UNL A   1      48.691  26.161  36.706  1.00  0.00    -0.237 OA
ATOM     94  O   UNL A   1      48.190  27.204  38.881  1.00  0.00    -0.744 OA
ENDBRANCH  90  91
ENDBRANCH  64  85
ENDBRANCH  38  39
ENDBRANCH  30  33
ENDBRANCH  28  29
ENDBRANCH  27  28
ENDBRANCH  26  27
ENDBRANCH   1  26
TORSDOF 21
ENDMDL
MODEL 3
REMARK VINA RESULT:      -9.8      1.366      8.475
REMARK SMILES CCCCNC(=O)[C@@H](C)Oc1ccc(N)cc1C(=O)NCCCCNC(=O)c1ccc(-c2c3nc(c(-c4ccc(S(=O)(=O)[O-])cc4)c4ccc([nH]4)c(-c4ccc(S(=O)(=O)[O-])cc4)c4nc(c(-c5ccc(S(=O)(=O)[O-])cc5)c5ccc2[nH]5)C=C4)C=C3)cc1
REMARK SMILES IDX 21 1 20 2 18 3 19 4 17 6 11 7 12 8 13 9 16 10 14 11 10 12
REMARK SMILES IDX 8 13 9 14 6 15 5 16 7 18 4 19 3 20 2 21 1 22 15 23 22 26
REMARK SMILES IDX 23 27 24 28 25 29 26 30 27 32 28 33 29 34 87 35 30 36 86 37
REMARK SMILES IDX 31 38 32 39 33 40 80 41 34 42 85 43 79 44 81 45 35 46 84 47
REMARK SMILES IDX 78 48 77 49 36 51 66 52 47 53 65 54 48 55 51 56 64 57 82 58
REMARK SMILES IDX 49 59 50 60 63 62 83 63 52 64 37 65 38 66 46 67 39 68 45 69
REMARK SMILES IDX 40 70 41 71 42 72 43 73 44 74 67 75 68 76 76 77 69 78 75 79
REMARK SMILES IDX 70 80 71 81 72 82 73 83 74 84 53 85 54 86 62 87 55 88 61 89
REMARK SMILES IDX 56 90 57 91 58 92 59 93 60 94
REMARK H PARENT 20 5 5 17 15 24 15 25 25 31 81 50 51 61
REMARK Flexibility Score: inf
ROOT
ATOM      1  C   UNL A   1      33.778  26.308  25.300  1.00  0.00     0.116 C 
ENDROOT
BRANCH   1   2
ATOM      2  N   UNL A   1      33.843  25.543  24.075  1.00  0.00    -0.352 N 
ATOM      3  C   UNL A   1      34.441  24.390  23.659  1.00  0.00     0.255 C 
ATOM      4  O   UNL A   1      34.426  24.241  22.430  1.00  0.00    -0.269 OA
ATOM      5  H   UNL A   1      33.322  25.964  23.354  1.00  0.00     0.163 HD
BRANCH   3   6
ATOM      6  C   UNL A   1      35.015  23.280  24.492  1.00  0.00     0.083 A 
ATOM      7  C   UNL A   1      34.385  22.233  25.173  1.00  0.00     0.133 A 
ATOM      8  C   UNL A   1      35.156  21.155  25.638  1.00  0.00     0.049 A 
ATOM      9  C   UNL A   1      36.552  21.219  25.655  1.00  0.00     0.029 A 
ATOM     10  C   UNL A   1      36.431  23.330  24.564  1.00  0.00     0.043 A 
ATOM     11  C   UNL A   1      37.199  22.359  25.205  1.00  0.00     0.032 A 
BRANCH   7  12
ATOM     12  O   UNL A   1      33.044  22.137  25.348  1.00  0.00    -0.480 OA
BRANCH  12  13
ATOM     13  C   UNL A   1      32.439  22.875  26.416  1.00  0.00     0.258 C 
ATOM     14  C   UNL A   1      32.955  22.497  27.810  1.00  0.00     0.064 C 
BRANCH  13  15
ATOM     15  C   UNL A   1      30.935  23.262  26.398  1.00  0.00     0.260 C 
ATOM     16  N   UNL A   1      30.299  23.691  25.270  1.00  0.00    -0.353 N 
ATOM     17  H   UNL A   1      29.316  23.678  25.310  1.00  0.00     0.163 HD
ATOM     18  O   UNL A   1      30.246  23.162  27.419  1.00  0.00    -0.271 OA
BRANCH  16  19
ATOM     19  C   UNL A   1      30.863  24.163  24.025  1.00  0.00     0.116 C 
BRANCH  19  20
ATOM     20  C   UNL A   1      29.978  25.167  23.303  1.00  0.00     0.021 C 
BRANCH  20  21
ATOM     21  C   UNL A   1      29.500  26.328  24.181  1.00  0.00    -0.002 C 
ATOM     22  C   UNL A   1      29.542  27.682  23.480  1.00  0.00     0.004 C 
ENDBRANCH  20  21
ENDBRANCH  19  20
ENDBRANCH  16  19
ENDBRANCH  13  15
ENDBRANCH  12  13
ENDBRANCH   7  12
BRANCH  11  23
ATOM     23  N   UNL A   1      38.577  22.473  25.254  1.00  0.00    -0.399 N 
ATOM     24  H   UNL A   1      39.054  22.323  26.102  1.00  0.00     0.156 HD
ATOM     25  H   UNL A   1      39.081  22.704  24.441  1.00  0.00     0.156 HD
ENDBRANCH  11  23
ENDBRANCH   3   6
ENDBRANCH   1   2
BRANCH   1  26
ATOM     26  C   UNL A   1      32.957  27.577  25.053  1.00  0.00     0.023 C 
BRANCH  26  27
ATOM     27  C   UNL A   1      32.356  28.189  26.313  1.00  0.00     0.023 C 
BRANCH  27  28
ATOM     28  C   UNL A   1      33.384  28.761  27.275  1.00  0.00     0.116 C 
BRANCH  28  29
ATOM     29  N   UNL A   1      33.364  30.213  27.374  1.00  0.00    -0.352 N 
ATOM     30  C   UNL A   1      34.356  31.033  27.871  1.00  0.00     0.251 C 
ATOM     31  H   UNL A   1      32.549  30.661  27.049  1.00  0.00     0.163 HD
ATOM     32  O   UNL A   1      34.198  32.234  27.968  1.00  0.00    -0.269 OA
BRANCH  30  33
ATOM     33  C   UNL A   1      35.599  30.384  28.335  1.00  0.00     0.039 A 
ATOM     34  C   UNL A   1      36.773  30.579  27.608  1.00  0.00     0.014 A 
ATOM     35  C   UNL A   1      35.615  29.720  29.563  1.00  0.00     0.014 A 
ATOM     36  C   UNL A   1      37.987  30.171  28.159  1.00  0.00     0.010 A 
ATOM     37  C   UNL A   1      36.833  29.414  30.153  1.00  0.00     0.010 A 
ATOM     38  C   UNL A   1      38.031  29.628  29.454  1.00  0.00    -0.014 A 
BRANCH  38  39
ATOM     39  C   UNL A   1      39.316  29.245  30.090  1.00  0.00     0.031 A 
ATOM     40  C   UNL A   1      39.781  29.983  31.318  1.00  0.00     0.074 A 
ATOM     41  C   UNL A   1      40.089  28.290  29.534  1.00  0.00     0.049 A 
ATOM     42  N   UNL A   1      40.901  29.856  31.981  1.00  0.00    -0.248 NA
ATOM     43  C   UNL A   1      38.888  31.030  31.845  1.00  0.00     0.031 C 
ATOM     44  C   UNL A   1      39.780  27.547  28.308  1.00  0.00     0.029 A 
ATOM     45  N   UNL A   1      41.298  27.779  29.931  1.00  0.00    -0.354 N 
ATOM     46  C   UNL A   1      40.856  30.823  32.979  1.00  0.00     0.074 A 
ATOM     47  C   UNL A   1      39.634  31.571  32.795  1.00  0.00     0.031 C 
ATOM     48  C   UNL A   1      40.753  26.650  28.079  1.00  0.00     0.029 A 
ATOM     49  C   UNL A   1      41.769  26.774  29.118  1.00  0.00     0.049 A 
ATOM     50  H   UNL A   1      41.784  28.102  30.725  1.00  0.00     0.167 HD
ATOM     51  C   UNL A   1      41.735  31.047  33.983  1.00  0.00     0.031 A 
ATOM     52  C   UNL A   1      42.890  26.033  29.208  1.00  0.00     0.031 A 
ATOM     53  C   UNL A   1      42.923  30.268  34.193  1.00  0.00     0.049 A 
ATOM     54  C   UNL A   1      43.832  26.272  30.358  1.00  0.00     0.074 A 
ATOM     55  C   UNL A   1      43.847  30.367  35.219  1.00  0.00     0.029 A 
ATOM     56  N   UNL A   1      43.342  29.233  33.372  1.00  0.00    -0.354 N 
ATOM     57  N   UNL A   1      43.740  27.150  31.328  1.00  0.00    -0.248 NA
ATOM     58  C   UNL A   1      45.019  25.411  30.433  1.00  0.00     0.031 C 
ATOM     59  C   UNL A   1      44.841  29.408  35.001  1.00  0.00     0.029 A 
ATOM     60  C   UNL A   1      44.514  28.687  33.863  1.00  0.00     0.049 A 
ATOM     61  H   UNL A   1      42.875  28.932  32.560  1.00  0.00     0.167 HD
ATOM     62  C   UNL A   1      44.844  26.929  32.144  1.00  0.00     0.074 A 
ATOM     63  C   UNL A   1      45.579  25.823  31.562  1.00  0.00     0.031 C 
ATOM     64  C   UNL A   1      45.220  27.581  33.271  1.00  0.00     0.031 A 
BRANCH  51  65
ATOM     65  C   UNL A   1      41.422  32.165  34.939  1.00  0.00    -0.014 A 
ATOM     66  C   UNL A   1      41.880  33.472  34.694  1.00  0.00     0.010 A 
ATOM     67  C   UNL A   1      40.642  31.915  36.082  1.00  0.00     0.010 A 
ATOM     68  C   UNL A   1      41.603  34.501  35.596  1.00  0.00     0.020 A 
ATOM     69  C   UNL A   1      40.337  32.948  36.973  1.00  0.00     0.020 A 
ATOM     70  C   UNL A   1      40.834  34.231  36.732  1.00  0.00     0.054 A 
BRANCH  70  71
ATOM     71  S   UNL A   1      40.464  35.592  37.872  1.00  0.00     0.124 S 
ATOM     72  O   UNL A   1      41.764  35.822  38.498  1.00  0.00    -0.237 OA
ATOM     73  O   UNL A   1      40.004  36.648  36.975  1.00  0.00    -0.237 OA
ATOM     74  O   UNL A   1      39.439  35.036  38.753  1.00  0.00    -0.744 OA
ENDBRANCH  70  71
ENDBRANCH  51  65
BRANCH  52  75
ATOM     75  C   UNL A   1      43.176  24.972  28.203  1.00  0.00    -0.014 A 
ATOM     76  C   UNL A   1      42.684  23.668  28.388  1.00  0.00     0.010 A 
ATOM     77  C   UNL A   1      43.952  25.255  27.064  1.00  0.00     0.010 A 
ATOM     78  C   UNL A   1      42.990  22.657  27.472  1.00  0.00     0.020 A 
ATOM     79  C   UNL A   1      44.238  24.252  26.132  1.00  0.00     0.020 A 
ATOM     80  C   UNL A   1      43.769  22.955  26.351  1.00  0.00     0.054 A 
BRANCH  80  81
ATOM     81  S   UNL A   1      44.134  21.635  25.159  1.00  0.00     0.124 S 
ATOM     82  O   UNL A   1      43.997  22.332  23.885  1.00  0.00    -0.237 OA
ATOM     83  O   UNL A   1      45.492  21.243  25.525  1.00  0.00    -0.237 OA
ATOM     84  O   UNL A   1      43.109  20.632  25.439  1.00  0.00    -0.744 OA
ENDBRANCH  80  81
ENDBRANCH  52  75
BRANCH  64  85
ATOM     85  C   UNL A   1      46.460  27.095  33.968  1.00  0.00    -0.014 A 
ATOM     86  C   UNL A   1      47.718  27.646  33.676  1.00  0.00     0.010 A 
ATOM     87  C   UNL A   1      46.353  26.112  34.968  1.00  0.00     0.010 A 
ATOM     88  C   UNL A   1      48.856  27.201  34.353  1.00  0.00     0.020 A 
ATOM     89  C   UNL A   1      47.484  25.682  35.665  1.00  0.00     0.020 A 
ATOM     90  C   UNL A   1      48.731  26.220  35.342  1.00  0.00     0.054 A 
BRANCH  90  91
ATOM     91  S   UNL A   1      50.216  25.689  36.238  1.00  0.00     0.124 S 
ATOM     92  O   UNL A   1      50.702  24.597  35.399  1.00  0.00    -0.237 OA
ATOM     93  O   UNL A   1      51.040  26.895  36.240  1.00  0.00    -0.237 OA
ATOM     94  O   UNL A   1      49.705  25.290  37.547  1.00  0.00    -0.744 OA
ENDBRANCH  90  91
ENDBRANCH  64  85
ENDBRANCH  38  39
ENDBRANCH  30  33
ENDBRANCH  28  29
ENDBRANCH  27  28
ENDBRANCH  26  27
ENDBRANCH   1  26
TORSDOF 21
ENDMDL
