MODEL 1
REMARK VINA RESULT:     -10.4      0.000      0.000
REMARK SMILES CC(C)C[C@H](NC(=O)Cc1ccccc1)C(=O)NCCCCNC(=O)c1ccc(-c2c3nc(c(-c4ccc(S(=O)(=O)[O-])cc4)c4ccc([nH]4)c(-c4ccc(S(=O)(=O)[O-])cc4)c4nc(c(-c5ccc(S(=O)(=O)[O-])cc5)c5ccc2[nH]5)C=C4)C=C3)cc1
REMARK SMILES IDX 20 1 19 2 18 3 16 4 17 5 5 7 4 8 2 9 1 10 3 11 6 12 7 13
REMARK SMILES IDX 8 15 9 16 10 17 11 18 15 19 12 20 14 21 13 22 21 23 22 24
REMARK SMILES IDX 23 25 24 26 25 28 26 29 27 30 85 31 28 32 84 33 29 34 30 35
REMARK SMILES IDX 31 36 78 37 32 38 83 39 77 40 79 41 33 42 82 43 76 44 75 45
REMARK SMILES IDX 34 47 64 48 45 49 63 50 46 51 49 52 62 53 80 54 47 55 48 56
REMARK SMILES IDX 61 58 81 59 50 60 35 61 36 62 44 63 37 64 43 65 38 66 39 67
REMARK SMILES IDX 40 68 41 69 42 70 65 71 66 72 74 73 67 74 73 75 68 76 69 77
REMARK SMILES IDX 70 78 71 79 72 80 51 81 52 82 60 83 53 84 59 85 54 86 55 87
REMARK SMILES IDX 56 88 57 89 58 90
REMARK H PARENT 18 6 6 14 23 27 79 46 49 57
REMARK Flexibility Score: inf
ROOT
ATOM      1  C   UNL A   1      32.161  26.700  25.668  1.00  0.00     0.023 C 
ENDROOT
BRANCH   1   2
ATOM      2  C   UNL A   1      31.584  26.004  24.437  1.00  0.00     0.116 C 
BRANCH   2   3
ATOM      3  N   UNL A   1      32.442  26.131  23.262  1.00  0.00    -0.354 N 
ATOM      4  C   UNL A   1      33.200  25.185  22.616  1.00  0.00     0.242 C 
ATOM      5  O   UNL A   1      33.630  25.450  21.492  1.00  0.00    -0.273 OA
ATOM      6  H   UNL A   1      32.482  27.034  22.873  1.00  0.00     0.163 HD
BRANCH   4   7
ATOM      7  C   UNL A   1      33.429  23.792  23.247  1.00  0.00     0.171 C 
BRANCH   7   8
ATOM      8  C   UNL A   1      34.939  23.585  23.464  1.00  0.00     0.038 C 
BRANCH   8   9
ATOM      9  C   UNL A   1      35.401  23.164  24.877  1.00  0.00    -0.015 C 
ATOM     10  C   UNL A   1      36.764  23.712  25.294  1.00  0.00     0.007 C 
ATOM     11  C   UNL A   1      34.351  23.633  25.898  1.00  0.00     0.007 C 
ENDBRANCH   8   9
ENDBRANCH   7   8
BRANCH   7  12
ATOM     12  N   UNL A   1      32.783  22.817  22.348  1.00  0.00    -0.344 N 
ATOM     13  C   UNL A   1      32.239  21.587  22.545  1.00  0.00     0.225 C 
ATOM     14  H   UNL A   1      32.736  23.119  21.412  1.00  0.00     0.164 HD
ATOM     15  O   UNL A   1      31.725  21.028  21.573  1.00  0.00    -0.275 OA
BRANCH  13  16
ATOM     16  C   UNL A   1      32.269  20.926  23.903  1.00  0.00     0.135 C 
BRANCH  16  17
ATOM     17  C   UNL A   1      32.936  19.568  23.979  1.00  0.00    -0.039 A 
ATOM     18  C   UNL A   1      32.406  18.414  23.385  1.00  0.00     0.004 A 
ATOM     19  C   UNL A   1      34.192  19.479  24.600  1.00  0.00     0.004 A 
ATOM     20  C   UNL A   1      33.159  17.241  23.306  1.00  0.00     0.000 A 
ATOM     21  C   UNL A   1      34.928  18.294  24.555  1.00  0.00     0.000 A 
ATOM     22  C   UNL A   1      34.424  17.184  23.883  1.00  0.00     0.000 A 
ENDBRANCH  16  17
ENDBRANCH  13  16
ENDBRANCH   7  12
ENDBRANCH   4   7
ENDBRANCH   2   3
ENDBRANCH   1   2
BRANCH   1  23
ATOM     23  C   UNL A   1      33.541  27.321  25.455  1.00  0.00     0.023 C 
BRANCH  23  24
ATOM     24  C   UNL A   1      34.193  27.890  26.713  1.00  0.00     0.116 C 
BRANCH  24  25
ATOM     25  N   UNL A   1      33.765  29.252  26.998  1.00  0.00    -0.352 N 
ATOM     26  C   UNL A   1      34.421  30.240  27.698  1.00  0.00     0.251 C 
ATOM     27  H   UNL A   1      32.884  29.502  26.639  1.00  0.00     0.163 HD
ATOM     28  O   UNL A   1      33.842  31.277  27.989  1.00  0.00    -0.269 OA
BRANCH  26  29
ATOM     29  C   UNL A   1      35.823  30.023  28.118  1.00  0.00     0.039 A 
ATOM     30  C   UNL A   1      36.083  29.566  29.412  1.00  0.00     0.014 A 
ATOM     31  C   UNL A   1      36.875  30.250  27.227  1.00  0.00     0.014 A 
ATOM     32  C   UNL A   1      37.393  29.262  29.787  1.00  0.00     0.010 A 
ATOM     33  C   UNL A   1      38.170  29.878  27.577  1.00  0.00     0.010 A 
ATOM     34  C   UNL A   1      38.443  29.378  28.859  1.00  0.00    -0.014 A 
BRANCH  34  35
ATOM     35  C   UNL A   1      39.830  28.974  29.206  1.00  0.00     0.031 A 
ATOM     36  C   UNL A   1      40.763  29.958  29.858  1.00  0.00     0.074 A 
ATOM     37  C   UNL A   1      40.274  27.747  28.868  1.00  0.00     0.049 A 
ATOM     38  N   UNL A   1      42.027  29.817  30.167  1.00  0.00    -0.248 NA
ATOM     39  C   UNL A   1      40.211  31.284  30.182  1.00  0.00     0.031 C 
ATOM     40  C   UNL A   1      39.486  26.716  28.189  1.00  0.00     0.029 A 
ATOM     41  N   UNL A   1      41.504  27.162  29.040  1.00  0.00    -0.354 N 
ATOM     42  C   UNL A   1      42.424  31.037  30.702  1.00  0.00     0.074 A 
ATOM     43  C   UNL A   1      41.281  31.921  30.631  1.00  0.00     0.031 C 
ATOM     44  C   UNL A   1      40.244  25.620  28.022  1.00  0.00     0.029 A 
ATOM     45  C   UNL A   1      41.581  25.881  28.546  1.00  0.00     0.049 A 
ATOM     46  H   UNL A   1      42.261  27.617  29.475  1.00  0.00     0.167 HD
ATOM     47  C   UNL A   1      43.624  31.384  31.226  1.00  0.00     0.031 A 
ATOM     48  C   UNL A   1      42.612  25.014  28.511  1.00  0.00     0.031 A 
ATOM     49  C   UNL A   1      44.756  30.501  31.308  1.00  0.00     0.049 A 
ATOM     50  C   UNL A   1      43.933  25.419  29.103  1.00  0.00     0.074 A 
ATOM     51  C   UNL A   1      45.999  30.744  31.867  1.00  0.00     0.029 A 
ATOM     52  N   UNL A   1      44.784  29.203  30.820  1.00  0.00    -0.354 N 
ATOM     53  N   UNL A   1      44.271  26.559  29.659  1.00  0.00    -0.248 NA
ATOM     54  C   UNL A   1      45.009  24.418  29.074  1.00  0.00     0.031 C 
ATOM     55  C   UNL A   1      46.791  29.606  31.679  1.00  0.00     0.029 A 
ATOM     56  C   UNL A   1      46.026  28.637  31.051  1.00  0.00     0.049 A 
ATOM     57  H   UNL A   1      44.031  28.750  30.376  1.00  0.00     0.167 HD
ATOM     58  C   UNL A   1      45.591  26.402  30.068  1.00  0.00     0.074 A 
ATOM     59  C   UNL A   1      45.985  25.055  29.708  1.00  0.00     0.031 C 
ATOM     60  C   UNL A   1      46.403  27.295  30.686  1.00  0.00     0.031 A 
BRANCH  47  61
ATOM     61  C   UNL A   1      43.769  32.789  31.749  1.00  0.00    -0.014 A 
ATOM     62  C   UNL A   1      43.301  33.135  33.030  1.00  0.00     0.010 A 
ATOM     63  C   UNL A   1      44.401  33.770  30.964  1.00  0.00     0.010 A 
ATOM     64  C   UNL A   1      43.418  34.447  33.496  1.00  0.00     0.020 A 
ATOM     65  C   UNL A   1      44.545  35.077  31.437  1.00  0.00     0.020 A 
ATOM     66  C   UNL A   1      44.034  35.412  32.694  1.00  0.00     0.054 A 
BRANCH  66  67
ATOM     67  S   UNL A   1      44.181  37.105  33.327  1.00  0.00     0.124 S 
ATOM     68  O   UNL A   1      43.582  37.882  32.245  1.00  0.00    -0.237 OA
ATOM     69  O   UNL A   1      43.408  37.054  34.565  1.00  0.00    -0.237 OA
ATOM     70  O   UNL A   1      45.620  37.286  33.502  1.00  0.00    -0.744 OA
ENDBRANCH  66  67
ENDBRANCH  47  61
BRANCH  48  71
ATOM     71  C   UNL A   1      42.426  23.666  27.907  1.00  0.00    -0.014 A 
ATOM     72  C   UNL A   1      42.611  23.473  26.527  1.00  0.00     0.010 A 
ATOM     73  C   UNL A   1      42.087  22.565  28.713  1.00  0.00     0.010 A 
ATOM     74  C   UNL A   1      42.443  22.206  25.961  1.00  0.00     0.020 A 
ATOM     75  C   UNL A   1      41.944  21.292  28.155  1.00  0.00     0.020 A 
ATOM     76  C   UNL A   1      42.114  21.122  26.779  1.00  0.00     0.054 A 
BRANCH  76  77
ATOM     77  S   UNL A   1      41.959  19.475  26.034  1.00  0.00     0.124 S 
ATOM     78  O   UNL A   1      40.524  19.386  25.787  1.00  0.00    -0.237 OA
ATOM     79  O   UNL A   1      42.802  19.587  24.844  1.00  0.00    -0.237 OA
ATOM     80  O   UNL A   1      42.475  18.582  27.070  1.00  0.00    -0.744 OA
ENDBRANCH  76  77
ENDBRANCH  48  71
BRANCH  60  81
ATOM     81  C   UNL A   1      47.791  26.836  31.044  1.00  0.00    -0.014 A 
ATOM     82  C   UNL A   1      48.860  26.980  30.142  1.00  0.00     0.010 A 
ATOM     83  C   UNL A   1      48.037  26.306  32.323  1.00  0.00     0.010 A 
ATOM     84  C   UNL A   1      50.148  26.574  30.505  1.00  0.00     0.020 A 
ATOM     85  C   UNL A   1      49.327  25.922  32.698  1.00  0.00     0.020 A 
ATOM     86  C   UNL A   1      50.373  26.047  31.780  1.00  0.00     0.054 A 
BRANCH  86  87
ATOM     87  S   UNL A   1      52.061  25.570  32.245  1.00  0.00     0.124 S 
ATOM     88  O   UNL A   1      52.148  26.064  33.616  1.00  0.00    -0.237 OA
ATOM     89  O   UNL A   1      52.035  24.116  32.101  1.00  0.00    -0.237 OA
ATOM     90  O   UNL A   1      52.898  26.272  31.274  1.00  0.00    -0.744 OA
ENDBRANCH  86  87
ENDBRANCH  60  81
ENDBRANCH  34  35
ENDBRANCH  26  29
ENDBRANCH  24  25
ENDBRANCH  23  24
ENDBRANCH   1  23
TORSDOF 19
ENDMDL
MODEL 2
REMARK VINA RESULT:     -10.0      4.533     10.461
REMARK SMILES CC(C)C[C@H](NC(=O)Cc1ccccc1)C(=O)NCCCCNC(=O)c1ccc(-c2c3nc(c(-c4ccc(S(=O)(=O)[O-])cc4)c4ccc([nH]4)c(-c4ccc(S(=O)(=O)[O-])cc4)c4nc(c(-c5ccc(S(=O)(=O)[O-])cc5)c5ccc2[nH]5)C=C4)C=C3)cc1
REMARK SMILES IDX 20 1 19 2 18 3 16 4 17 5 5 7 4 8 2 9 1 10 3 11 6 12 7 13
REMARK SMILES IDX 8 15 9 16 10 17 11 18 15 19 12 20 14 21 13 22 21 23 22 24
REMARK SMILES IDX 23 25 24 26 25 28 26 29 27 30 85 31 28 32 84 33 29 34 30 35
REMARK SMILES IDX 31 36 78 37 32 38 83 39 77 40 79 41 33 42 82 43 76 44 75 45
REMARK SMILES IDX 34 47 64 48 45 49 63 50 46 51 49 52 62 53 80 54 47 55 48 56
REMARK SMILES IDX 61 58 81 59 50 60 35 61 36 62 44 63 37 64 43 65 38 66 39 67
REMARK SMILES IDX 40 68 41 69 42 70 65 71 66 72 74 73 67 74 73 75 68 76 69 77
REMARK SMILES IDX 70 78 71 79 72 80 51 81 52 82 60 83 53 84 59 85 54 86 55 87
REMARK SMILES IDX 56 88 57 89 58 90
REMARK H PARENT 18 6 6 14 23 27 79 46 49 57
REMARK Flexibility Score: inf
ROOT
ATOM      1  C   UNL A   1      36.943  23.414  24.662  1.00  0.00     0.023 C 
ENDROOT
BRANCH   1   2
ATOM      2  C   UNL A   1      35.448  23.589  24.916  1.00  0.00     0.116 C 
BRANCH   2   3
ATOM      3  N   UNL A   1      34.623  22.844  23.969  1.00  0.00    -0.354 N 
ATOM      4  C   UNL A   1      33.430  23.184  23.379  1.00  0.00     0.242 C 
ATOM      5  O   UNL A   1      33.048  22.523  22.411  1.00  0.00    -0.273 OA
ATOM      6  H   UNL A   1      34.977  21.961  23.714  1.00  0.00     0.163 HD
BRANCH   4   7
ATOM      7  C   UNL A   1      32.635  24.419  23.862  1.00  0.00     0.171 C 
BRANCH   7   8
ATOM      8  C   UNL A   1      33.467  25.685  23.591  1.00  0.00     0.038 C 
BRANCH   8   9
ATOM      9  C   UNL A   1      33.293  26.369  22.217  1.00  0.00    -0.015 C 
ATOM     10  C   UNL A   1      31.886  26.280  21.632  1.00  0.00     0.007 C 
ATOM     11  C   UNL A   1      33.674  27.853  22.354  1.00  0.00     0.007 C 
ENDBRANCH   8   9
ENDBRANCH   7   8
BRANCH   7  12
ATOM     12  N   UNL A   1      32.305  24.174  25.279  1.00  0.00    -0.344 N 
ATOM     13  C   UNL A   1      31.391  24.713  26.129  1.00  0.00     0.225 C 
ATOM     14  H   UNL A   1      32.861  23.476  25.695  1.00  0.00     0.164 HD
ATOM     15  O   UNL A   1      31.333  24.251  27.271  1.00  0.00    -0.275 OA
BRANCH  13  16
ATOM     16  C   UNL A   1      30.487  25.841  25.692  1.00  0.00     0.135 C 
BRANCH  16  17
ATOM     17  C   UNL A   1      31.062  27.240  25.778  1.00  0.00    -0.039 A 
ATOM     18  C   UNL A   1      30.975  28.175  24.737  1.00  0.00     0.004 A 
ATOM     19  C   UNL A   1      31.633  27.649  26.994  1.00  0.00     0.004 A 
ATOM     20  C   UNL A   1      31.333  29.509  24.944  1.00  0.00     0.000 A 
ATOM     21  C   UNL A   1      32.028  28.974  27.187  1.00  0.00     0.000 A 
ATOM     22  C   UNL A   1      31.851  29.910  26.172  1.00  0.00     0.000 A 
ENDBRANCH  16  17
ENDBRANCH  13  16
ENDBRANCH   7  12
ENDBRANCH   4   7
ENDBRANCH   2   3
ENDBRANCH   1   2
BRANCH   1  23
ATOM     23  C   UNL A   1      37.760  23.064  25.907  1.00  0.00     0.023 C 
BRANCH  23  24
ATOM     24  C   UNL A   1      38.577  24.215  26.486  1.00  0.00     0.116 C 
BRANCH  24  25
ATOM     25  N   UNL A   1      39.984  24.141  26.123  1.00  0.00    -0.352 N 
ATOM     26  C   UNL A   1      41.017  24.984  26.469  1.00  0.00     0.251 C 
ATOM     27  H   UNL A   1      40.234  23.381  25.550  1.00  0.00     0.163 HD
ATOM     28  O   UNL A   1      42.111  24.870  25.936  1.00  0.00    -0.269 OA
BRANCH  26  29
ATOM     29  C   UNL A   1      40.781  26.047  27.472  1.00  0.00     0.039 A 
ATOM     30  C   UNL A   1      39.828  25.839  28.472  1.00  0.00     0.014 A 
ATOM     31  C   UNL A   1      41.519  27.233  27.437  1.00  0.00     0.014 A 
ATOM     32  C   UNL A   1      39.669  26.791  29.482  1.00  0.00     0.010 A 
ATOM     33  C   UNL A   1      41.411  28.145  28.482  1.00  0.00     0.010 A 
ATOM     34  C   UNL A   1      40.488  27.933  29.517  1.00  0.00    -0.014 A 
BRANCH  34  35
ATOM     35  C   UNL A   1      40.400  28.913  30.631  1.00  0.00     0.031 A 
ATOM     36  C   UNL A   1      41.277  28.759  31.843  1.00  0.00     0.074 A 
ATOM     37  C   UNL A   1      39.479  29.896  30.585  1.00  0.00     0.049 A 
ATOM     38  N   UNL A   1      41.293  29.467  32.944  1.00  0.00    -0.248 NA
ATOM     39  C   UNL A   1      42.246  27.651  31.827  1.00  0.00     0.031 C 
ATOM     40  C   UNL A   1      38.535  30.126  29.489  1.00  0.00     0.029 A 
ATOM     41  N   UNL A   1      39.179  30.883  31.491  1.00  0.00    -0.354 N 
ATOM     42  C   UNL A   1      42.256  28.879  33.757  1.00  0.00     0.074 A 
ATOM     43  C   UNL A   1      42.767  27.729  33.042  1.00  0.00     0.031 C 
ATOM     44  C   UNL A   1      37.777  31.196  29.777  1.00  0.00     0.029 A 
ATOM     45  C   UNL A   1      38.153  31.707  31.091  1.00  0.00     0.049 A 
ATOM     46  H   UNL A   1      39.653  30.991  32.347  1.00  0.00     0.167 HD
ATOM     47  C   UNL A   1      42.692  29.272  34.978  1.00  0.00     0.031 A 
ATOM     48  C   UNL A   1      37.573  32.753  31.713  1.00  0.00     0.031 A 
ATOM     49  C   UNL A   1      42.193  30.422  35.683  1.00  0.00     0.049 A 
ATOM     50  C   UNL A   1      38.077  33.174  33.066  1.00  0.00     0.074 A 
ATOM     51  C   UNL A   1      42.606  30.931  36.902  1.00  0.00     0.029 A 
ATOM     52  N   UNL A   1      41.172  31.244  35.231  1.00  0.00    -0.354 N 
ATOM     53  N   UNL A   1      39.031  32.640  33.792  1.00  0.00    -0.248 NA
ATOM     54  C   UNL A   1      37.436  34.346  33.678  1.00  0.00     0.031 C 
ATOM     55  C   UNL A   1      41.805  32.037  37.206  1.00  0.00     0.029 A 
ATOM     56  C   UNL A   1      40.930  32.248  36.153  1.00  0.00     0.049 A 
ATOM     57  H   UNL A   1      40.690  31.132  34.380  1.00  0.00     0.167 HD
ATOM     58  C   UNL A   1      39.120  33.427  34.935  1.00  0.00     0.074 A 
ATOM     59  C   UNL A   1      38.134  34.479  34.798  1.00  0.00     0.031 C 
ATOM     60  C   UNL A   1      39.944  33.288  36.003  1.00  0.00     0.031 A 
BRANCH  47  61
ATOM     61  C   UNL A   1      43.767  28.441  35.628  1.00  0.00    -0.014 A 
ATOM     62  C   UNL A   1      45.129  28.709  35.397  1.00  0.00     0.010 A 
ATOM     63  C   UNL A   1      43.415  27.395  36.501  1.00  0.00     0.010 A 
ATOM     64  C   UNL A   1      46.117  27.917  35.985  1.00  0.00     0.020 A 
ATOM     65  C   UNL A   1      44.401  26.617  37.114  1.00  0.00     0.020 A 
ATOM     66  C   UNL A   1      45.747  26.870  36.836  1.00  0.00     0.054 A 
BRANCH  66  67
ATOM     67  S   UNL A   1      47.050  25.863  37.593  1.00  0.00     0.124 S 
ATOM     68  O   UNL A   1      46.272  24.872  38.331  1.00  0.00    -0.237 OA
ATOM     69  O   UNL A   1      47.778  25.353  36.435  1.00  0.00    -0.237 OA
ATOM     70  O   UNL A   1      47.789  26.816  38.418  1.00  0.00    -0.744 OA
ENDBRANCH  66  67
ENDBRANCH  47  61
BRANCH  48  71
ATOM     71  C   UNL A   1      36.460  33.485  31.051  1.00  0.00    -0.014 A 
ATOM     72  C   UNL A   1      36.587  33.918  29.719  1.00  0.00     0.010 A 
ATOM     73  C   UNL A   1      35.260  33.732  31.740  1.00  0.00     0.010 A 
ATOM     74  C   UNL A   1      35.538  34.600  29.095  1.00  0.00     0.020 A 
ATOM     75  C   UNL A   1      34.200  34.390  31.110  1.00  0.00     0.020 A 
ATOM     76  C   UNL A   1      34.350  34.830  29.793  1.00  0.00     0.054 A 
BRANCH  76  77
ATOM     77  S   UNL A   1      32.980  35.664  28.944  1.00  0.00     0.124 S 
ATOM     78  O   UNL A   1      32.416  34.583  28.142  1.00  0.00    -0.237 OA
ATOM     79  O   UNL A   1      32.152  36.124  30.058  1.00  0.00    -0.237 OA
ATOM     80  O   UNL A   1      33.642  36.726  28.191  1.00  0.00    -0.744 OA
ENDBRANCH  76  77
ENDBRANCH  48  71
BRANCH  60  81
ATOM     81  C   UNL A   1      39.841  34.318  37.096  1.00  0.00    -0.014 A 
ATOM     82  C   UNL A   1      39.163  34.039  38.296  1.00  0.00     0.010 A 
ATOM     83  C   UNL A   1      40.480  35.561  36.939  1.00  0.00     0.010 A 
ATOM     84  C   UNL A   1      39.104  34.999  39.311  1.00  0.00     0.020 A 
ATOM     85  C   UNL A   1      40.444  36.513  37.961  1.00  0.00     0.020 A 
ATOM     86  C   UNL A   1      39.743  36.230  39.136  1.00  0.00     0.054 A 
BRANCH  86  87
ATOM     87  S   UNL A   1      39.691  37.442  40.485  1.00  0.00     0.124 S 
ATOM     88  O   UNL A   1      41.105  37.759  40.663  1.00  0.00    -0.237 OA
ATOM     89  O   UNL A   1      38.873  38.515  39.922  1.00  0.00    -0.237 OA
ATOM     90  O   UNL A   1      39.073  36.708  41.587  1.00  0.00    -0.744 OA
ENDBRANCH  86  87
ENDBRANCH  60  81
ENDBRANCH  34  35
ENDBRANCH  26  29
ENDBRANCH  24  25
ENDBRANCH  23  24
ENDBRANCH   1  23
TORSDOF 19
ENDMDL
MODEL 3
REMARK VINA RESULT:     -10.0      3.533      9.004
REMARK SMILES CC(C)C[C@H](NC(=O)Cc1ccccc1)C(=O)NCCCCNC(=O)c1ccc(-c2c3nc(c(-c4ccc(S(=O)(=O)[O-])cc4)c4ccc([nH]4)c(-c4ccc(S(=O)(=O)[O-])cc4)c4nc(c(-c5ccc(S(=O)(=O)[O-])cc5)c5ccc2[nH]5)C=C4)C=C3)cc1
REMARK SMILES IDX 20 1 19 2 18 3 16 4 17 5 5 7 4 8 2 9 1 10 3 11 6 12 7 13
REMARK SMILES IDX 8 15 9 16 10 17 11 18 15 19 12 20 14 21 13 22 21 23 22 24
REMARK SMILES IDX 23 25 24 26 25 28 26 29 27 30 85 31 28 32 84 33 29 34 30 35
REMARK SMILES IDX 31 36 78 37 32 38 83 39 77 40 79 41 33 42 82 43 76 44 75 45
REMARK SMILES IDX 34 47 64 48 45 49 63 50 46 51 49 52 62 53 80 54 47 55 48 56
REMARK SMILES IDX 61 58 81 59 50 60 35 61 36 62 44 63 37 64 43 65 38 66 39 67
REMARK SMILES IDX 40 68 41 69 42 70 65 71 66 72 74 73 67 74 73 75 68 76 69 77
REMARK SMILES IDX 70 78 71 79 72 80 51 81 52 82 60 83 53 84 59 85 54 86 55 87
REMARK SMILES IDX 56 88 57 89 58 90
REMARK H PARENT 18 6 6 14 23 27 79 46 49 57
REMARK Flexibility Score: inf
ROOT
ATOM      1  C   UNL A   1      37.029  21.982  24.437  1.00  0.00     0.023 C 
ENDROOT
BRANCH   1   2
ATOM      2  C   UNL A   1      36.867  23.206  25.334  1.00  0.00     0.116 C 
BRANCH   2   3
ATOM      3  N   UNL A   1      36.107  22.921  26.548  1.00  0.00    -0.354 N 
ATOM      4  C   UNL A   1      34.755  22.995  26.781  1.00  0.00     0.242 C 
ATOM      5  O   UNL A   1      34.307  22.452  27.793  1.00  0.00    -0.273 OA
ATOM      6  H   UNL A   1      36.647  22.630  27.318  1.00  0.00     0.163 HD
BRANCH   4   7
ATOM      7  C   UNL A   1      33.813  23.663  25.753  1.00  0.00     0.171 C 
BRANCH   7   8
ATOM      8  C   UNL A   1      33.858  25.189  25.953  1.00  0.00     0.038 C 
BRANCH   8   9
ATOM      9  C   UNL A   1      33.478  26.074  24.745  1.00  0.00    -0.015 C 
ATOM     10  C   UNL A   1      33.670  25.413  23.383  1.00  0.00     0.007 C 
ATOM     11  C   UNL A   1      32.004  26.490  24.884  1.00  0.00     0.007 C 
ENDBRANCH   8   9
ENDBRANCH   7   8
BRANCH   7  12
ATOM     12  N   UNL A   1      32.487  23.043  25.940  1.00  0.00    -0.344 N 
ATOM     13  C   UNL A   1      31.745  22.188  25.188  1.00  0.00     0.225 C 
ATOM     14  H   UNL A   1      32.049  23.302  26.783  1.00  0.00     0.164 HD
ATOM     15  O   UNL A   1      30.666  21.811  25.651  1.00  0.00    -0.275 OA
BRANCH  13  16
ATOM     16  C   UNL A   1      32.220  21.725  23.831  1.00  0.00     0.135 C 
BRANCH  16  17
ATOM     17  C   UNL A   1      32.835  20.342  23.767  1.00  0.00    -0.039 A 
ATOM     18  C   UNL A   1      33.909  19.937  24.572  1.00  0.00     0.004 A 
ATOM     19  C   UNL A   1      32.244  19.391  22.920  1.00  0.00     0.004 A 
ATOM     20  C   UNL A   1      34.300  18.597  24.621  1.00  0.00     0.000 A 
ATOM     21  C   UNL A   1      32.660  18.059  22.941  1.00  0.00     0.000 A 
ATOM     22  C   UNL A   1      33.668  17.657  23.812  1.00  0.00     0.000 A 
ENDBRANCH  16  17
ENDBRANCH  13  16
ENDBRANCH   7  12
ENDBRANCH   4   7
ENDBRANCH   2   3
ENDBRANCH   1   2
BRANCH   1  23
ATOM     23  C   UNL A   1      37.807  20.830  25.072  1.00  0.00     0.023 C 
BRANCH  23  24
ATOM     24  C   UNL A   1      39.080  21.239  25.807  1.00  0.00     0.116 C 
BRANCH  24  25
ATOM     25  N   UNL A   1      39.961  20.111  26.073  1.00  0.00    -0.352 N 
ATOM     26  C   UNL A   1      41.310  20.108  26.352  1.00  0.00     0.251 C 
ATOM     27  H   UNL A   1      39.532  19.226  26.052  1.00  0.00     0.163 HD
ATOM     28  O   UNL A   1      41.931  19.055  26.382  1.00  0.00    -0.269 OA
BRANCH  26  29
ATOM     29  C   UNL A   1      42.005  21.393  26.588  1.00  0.00     0.039 A 
ATOM     30  C   UNL A   1      42.344  22.193  25.494  1.00  0.00     0.014 A 
ATOM     31  C   UNL A   1      42.298  21.815  27.887  1.00  0.00     0.014 A 
ATOM     32  C   UNL A   1      42.910  23.452  25.709  1.00  0.00     0.010 A 
ATOM     33  C   UNL A   1      42.793  23.097  28.102  1.00  0.00     0.010 A 
ATOM     34  C   UNL A   1      43.102  23.931  27.017  1.00  0.00    -0.014 A 
BRANCH  34  35
ATOM     35  C   UNL A   1      43.616  25.302  27.270  1.00  0.00     0.031 A 
ATOM     36  C   UNL A   1      45.064  25.624  27.022  1.00  0.00     0.074 A 
ATOM     37  C   UNL A   1      42.798  26.237  27.794  1.00  0.00     0.049 A 
ATOM     38  N   UNL A   1      45.713  26.736  27.253  1.00  0.00    -0.248 NA
ATOM     39  C   UNL A   1      45.899  24.547  26.465  1.00  0.00     0.031 C 
ATOM     40  C   UNL A   1      41.385  26.039  28.126  1.00  0.00     0.029 A 
ATOM     41  N   UNL A   1      43.041  27.540  28.150  1.00  0.00    -0.354 N 
ATOM     42  C   UNL A   1      47.032  26.488  26.889  1.00  0.00     0.074 A 
ATOM     43  C   UNL A   1      47.100  25.105  26.468  1.00  0.00     0.031 C 
ATOM     44  C   UNL A   1      40.883  27.184  28.617  1.00  0.00     0.029 A 
ATOM     45  C   UNL A   1      41.944  28.185  28.670  1.00  0.00     0.049 A 
ATOM     46  H   UNL A   1      43.920  27.972  28.045  1.00  0.00     0.167 HD
ATOM     47  C   UNL A   1      48.087  27.338  26.884  1.00  0.00     0.031 A 
ATOM     48  C   UNL A   1      41.805  29.440  29.142  1.00  0.00     0.031 A 
ATOM     49  C   UNL A   1      48.016  28.715  27.291  1.00  0.00     0.049 A 
ATOM     50  C   UNL A   1      42.988  30.367  29.123  1.00  0.00     0.074 A 
ATOM     51  C   UNL A   1      49.018  29.670  27.274  1.00  0.00     0.029 A 
ATOM     52  N   UNL A   1      46.879  29.337  27.786  1.00  0.00    -0.354 N 
ATOM     53  N   UNL A   1      44.214  30.130  28.718  1.00  0.00    -0.248 NA
ATOM     54  C   UNL A   1      42.768  31.736  29.611  1.00  0.00     0.031 C 
ATOM     55  C   UNL A   1      48.496  30.858  27.798  1.00  0.00     0.029 A 
ATOM     56  C   UNL A   1      47.158  30.658  28.092  1.00  0.00     0.049 A 
ATOM     57  H   UNL A   1      46.003  28.903  27.901  1.00  0.00     0.167 HD
ATOM     58  C   UNL A   1      44.903  31.327  28.880  1.00  0.00     0.074 A 
ATOM     59  C   UNL A   1      43.956  32.288  29.407  1.00  0.00     0.031 C 
ATOM     60  C   UNL A   1      46.204  31.603  28.617  1.00  0.00     0.031 A 
BRANCH  47  61
ATOM     61  C   UNL A   1      49.412  26.792  26.423  1.00  0.00    -0.014 A 
ATOM     62  C   UNL A   1      49.824  26.927  25.084  1.00  0.00     0.010 A 
ATOM     63  C   UNL A   1      50.268  26.157  27.341  1.00  0.00     0.010 A 
ATOM     64  C   UNL A   1      51.045  26.394  24.662  1.00  0.00     0.020 A 
ATOM     65  C   UNL A   1      51.503  25.647  26.929  1.00  0.00     0.020 A 
ATOM     66  C   UNL A   1      51.874  25.751  25.586  1.00  0.00     0.054 A 
BRANCH  66  67
ATOM     67  S   UNL A   1      53.457  25.077  25.013  1.00  0.00     0.124 S 
ATOM     68  O   UNL A   1      54.403  25.717  25.923  1.00  0.00    -0.237 OA
ATOM     69  O   UNL A   1      53.281  23.640  25.200  1.00  0.00    -0.237 OA
ATOM     70  O   UNL A   1      53.537  25.516  23.622  1.00  0.00    -0.744 OA
ENDBRANCH  66  67
ENDBRANCH  47  61
BRANCH  48  71
ATOM     71  C   UNL A   1      40.486  29.895  29.659  1.00  0.00    -0.014 A 
ATOM     72  C   UNL A   1      39.481  30.317  28.771  1.00  0.00     0.010 A 
ATOM     73  C   UNL A   1      40.220  29.887  31.040  1.00  0.00     0.010 A 
ATOM     74  C   UNL A   1      38.240  30.739  29.256  1.00  0.00     0.020 A 
ATOM     75  C   UNL A   1      38.971  30.283  31.526  1.00  0.00     0.020 A 
ATOM     76  C   UNL A   1      37.991  30.717  30.631  1.00  0.00     0.054 A 
BRANCH  76  77
ATOM     77  S   UNL A   1      36.353  31.211  31.235  1.00  0.00     0.124 S 
ATOM     78  O   UNL A   1      36.633  32.504  31.849  1.00  0.00    -0.237 OA
ATOM     79  O   UNL A   1      35.562  31.251  30.006  1.00  0.00    -0.237 OA
ATOM     80  O   UNL A   1      35.994  30.140  32.161  1.00  0.00    -0.744 OA
ENDBRANCH  76  77
ENDBRANCH  48  71
BRANCH  60  81
ATOM     81  C   UNL A   1      46.677  33.010  28.862  1.00  0.00    -0.014 A 
ATOM     82  C   UNL A   1      47.247  33.382  30.093  1.00  0.00     0.010 A 
ATOM     83  C   UNL A   1      46.600  33.958  27.826  1.00  0.00     0.010 A 
ATOM     84  C   UNL A   1      47.706  34.687  30.291  1.00  0.00     0.020 A 
ATOM     85  C   UNL A   1      47.081  35.257  28.012  1.00  0.00     0.020 A 
ATOM     86  C   UNL A   1      47.619  35.616  29.250  1.00  0.00     0.054 A 
BRANCH  86  87
ATOM     87  S   UNL A   1      48.264  37.291  29.515  1.00  0.00     0.124 S 
ATOM     88  O   UNL A   1      49.525  37.025  30.202  1.00  0.00    -0.237 OA
ATOM     89  O   UNL A   1      48.388  37.808  28.153  1.00  0.00    -0.237 OA
ATOM     90  O   UNL A   1      47.234  37.934  30.328  1.00  0.00    -0.744 OA
ENDBRANCH  86  87
ENDBRANCH  60  81
ENDBRANCH  34  35
ENDBRANCH  26  29
ENDBRANCH  24  25
ENDBRANCH  23  24
ENDBRANCH   1  23
TORSDOF 19
ENDMDL
