MODEL 1
REMARK VINA RESULT:     -11.4      0.000      0.000
REMARK SMILES C=C(C(=O)NCCCCNC(=O)c1ccc(-c2c3nc(c(-c4ccc(S(=O)(=O)[O-])cc4)c4ccc([nH]4)c(-c4ccc(S(=O)(=O)[O-])cc4)c4nc(c(-c5ccc(S(=O)(=O)[O-])cc5)c5ccc2[nH]5)C=C4)C=C3)cc1)[C@@H]1CC[C@]2(C)C[C@@H](O)CC(=C)[C@H]2C1
REMARK SMILES IDX 8 1 7 2 6 3 5 4 3 5 4 6 2 8 1 9 73 10 74 11 85 12 75 13
REMARK SMILES IDX 84 14 76 15 82 16 77 17 78 18 81 19 83 20 79 21 80 22 9 24
REMARK SMILES IDX 10 25 11 26 12 28 13 29 14 30 72 31 15 32 71 33 16 34 17 35
REMARK SMILES IDX 18 36 65 37 19 38 70 39 64 40 66 41 20 42 69 43 63 44 62 45
REMARK SMILES IDX 21 47 51 48 32 49 50 50 33 51 36 52 49 53 67 54 34 55 35 56
REMARK SMILES IDX 48 58 68 59 37 60 22 61 23 62 31 63 24 64 30 65 25 66 26 67
REMARK SMILES IDX 27 68 28 69 29 70 52 71 53 72 61 73 54 74 60 75 55 76 56 77
REMARK SMILES IDX 57 78 58 79 59 80 38 81 39 82 47 83 40 84 46 85 41 86 42 87
REMARK SMILES IDX 43 88 44 89 45 90
REMARK H PARENT 5 7 80 23 10 27 66 46 36 57
REMARK Flexibility Score: inf
ROOT
ATOM      1  C   UNL A   1      33.295  27.696  25.820  1.00  0.00     0.023 C 
ENDROOT
BRANCH   1   2
ATOM      2  C   UNL A   1      33.874  28.618  24.739  1.00  0.00     0.023 C 
BRANCH   2   3
ATOM      3  C   UNL A   1      32.926  28.918  23.576  1.00  0.00     0.116 C 
BRANCH   3   4
ATOM      4  N   UNL A   1      33.262  28.109  22.426  1.00  0.00    -0.352 N 
ATOM      5  C   UNL A   1      32.899  26.880  21.996  1.00  0.00     0.246 C 
ATOM      6  O   UNL A   1      33.507  26.478  21.006  1.00  0.00    -0.270 OA
ATOM      7  H   UNL A   1      33.898  28.554  21.819  1.00  0.00     0.163 HD
BRANCH   5   8
ATOM      8  C   UNL A   1      31.802  26.053  22.602  1.00  0.00     0.013 C 
ATOM      9  C   UNL A   1      30.708  26.587  23.175  1.00  0.00     0.018 C 
BRANCH   8  10
ATOM     10  C   UNL A   1      31.974  24.524  22.658  1.00  0.00     0.025 C 
ATOM     11  C   UNL A   1      30.950  23.749  23.514  1.00  0.00     0.009 C 
ATOM     12  C   UNL A   1      33.426  24.074  22.881  1.00  0.00     0.017 C 
ATOM     13  C   UNL A   1      31.373  23.368  24.937  1.00  0.00     0.008 C 
ATOM     14  C   UNL A   1      33.798  23.900  24.359  1.00  0.00     0.021 C 
ATOM     15  C   UNL A   1      32.845  22.909  25.091  1.00  0.00    -0.024 C 
ATOM     16  C   UNL A   1      35.251  23.512  24.624  1.00  0.00    -0.071 C 
ATOM     17  C   UNL A   1      32.937  21.471  24.526  1.00  0.00     0.012 C 
ATOM     18  C   UNL A   1      33.197  22.916  26.613  1.00  0.00     0.039 C 
ATOM     19  C   UNL A   1      35.618  23.593  26.093  1.00  0.00     0.062 C 
ATOM     20  C   UNL A   1      36.147  23.125  23.701  1.00  0.00     0.008 C 
ATOM     21  C   UNL A   1      34.683  22.730  26.954  1.00  0.00     0.119 C 
BRANCH  21  22
ATOM     22  O   UNL A   1      35.043  21.350  26.869  1.00  0.00    -0.393 OA
ATOM     23  H   UNL A   1      34.910  21.037  25.960  1.00  0.00     0.210 HD
ENDBRANCH  21  22
ENDBRANCH   8  10
ENDBRANCH   5   8
ENDBRANCH   3   4
ENDBRANCH   2   3
ENDBRANCH   1   2
BRANCH   1  24
ATOM     24  C   UNL A   1      33.474  28.175  27.258  1.00  0.00     0.116 C 
BRANCH  24  25
ATOM     25  N   UNL A   1      33.389  29.620  27.387  1.00  0.00    -0.352 N 
ATOM     26  C   UNL A   1      34.346  30.508  27.813  1.00  0.00     0.251 C 
ATOM     27  H   UNL A   1      32.525  30.017  27.133  1.00  0.00     0.163 HD
ATOM     28  O   UNL A   1      34.065  31.691  27.955  1.00  0.00    -0.269 OA
BRANCH  26  29
ATOM     29  C   UNL A   1      35.702  30.016  28.132  1.00  0.00     0.039 A 
ATOM     30  C   UNL A   1      36.673  30.042  27.127  1.00  0.00     0.014 A 
ATOM     31  C   UNL A   1      36.016  29.551  29.411  1.00  0.00     0.014 A 
ATOM     32  C   UNL A   1      37.980  29.655  27.425  1.00  0.00     0.010 A 
ATOM     33  C   UNL A   1      37.332  29.220  29.720  1.00  0.00     0.010 A 
ATOM     34  C   UNL A   1      38.325  29.271  28.731  1.00  0.00    -0.014 A 
BRANCH  34  35
ATOM     35  C   UNL A   1      39.725  28.928  29.080  1.00  0.00     0.031 A 
ATOM     36  C   UNL A   1      40.615  29.953  29.725  1.00  0.00     0.074 A 
ATOM     37  C   UNL A   1      40.209  27.712  28.760  1.00  0.00     0.049 A 
ATOM     38  N   UNL A   1      41.878  29.858  30.052  1.00  0.00    -0.248 NA
ATOM     39  C   UNL A   1      40.014  31.264  30.020  1.00  0.00     0.031 C 
ATOM     40  C   UNL A   1      39.454  26.648  28.093  1.00  0.00     0.029 A 
ATOM     41  N   UNL A   1      41.455  27.168  28.944  1.00  0.00    -0.354 N 
ATOM     42  C   UNL A   1      42.226  31.097  30.576  1.00  0.00     0.074 A 
ATOM     43  C   UNL A   1      41.055  31.941  30.481  1.00  0.00     0.031 C 
ATOM     44  C   UNL A   1      40.247  25.575  27.940  1.00  0.00     0.029 A 
ATOM     45  C   UNL A   1      41.572  25.884  28.468  1.00  0.00     0.049 A 
ATOM     46  H   UNL A   1      42.196  27.652  29.377  1.00  0.00     0.167 HD
ATOM     47  C   UNL A   1      43.410  31.492  31.104  1.00  0.00     0.031 A 
ATOM     48  C   UNL A   1      42.629  25.049  28.453  1.00  0.00     0.031 A 
ATOM     49  C   UNL A   1      44.569  30.646  31.204  1.00  0.00     0.049 A 
ATOM     50  C   UNL A   1      43.930  25.507  29.054  1.00  0.00     0.074 A 
ATOM     51  C   UNL A   1      45.801  30.936  31.765  1.00  0.00     0.029 A 
ATOM     52  N   UNL A   1      44.640  29.343  30.734  1.00  0.00    -0.354 N 
ATOM     53  N   UNL A   1      44.223  26.664  29.598  1.00  0.00    -0.248 NA
ATOM     54  C   UNL A   1      45.037  24.541  29.050  1.00  0.00     0.031 C 
ATOM     55  C   UNL A   1      46.628  29.820  31.600  1.00  0.00     0.029 A 
ATOM     56  C   UNL A   1      45.897  28.819  30.979  1.00  0.00     0.049 A 
ATOM     57  H   UNL A   1      43.903  28.862  30.291  1.00  0.00     0.167 HD
ATOM     58  C   UNL A   1      45.542  26.557  30.022  1.00  0.00     0.074 A 
ATOM     59  C   UNL A   1      45.984  25.219  29.684  1.00  0.00     0.031 C 
ATOM     60  C   UNL A   1      46.318  27.484  30.636  1.00  0.00     0.031 A 
BRANCH  47  61
ATOM     61  C   UNL A   1      43.502  32.905  31.613  1.00  0.00    -0.014 A 
ATOM     62  C   UNL A   1      43.913  33.952  30.767  1.00  0.00     0.010 A 
ATOM     63  C   UNL A   1      43.154  33.198  32.944  1.00  0.00     0.010 A 
ATOM     64  C   UNL A   1      44.017  35.257  31.253  1.00  0.00     0.020 A 
ATOM     65  C   UNL A   1      43.232  34.507  33.428  1.00  0.00     0.020 A 
ATOM     66  C   UNL A   1      43.682  35.525  32.584  1.00  0.00     0.054 A 
BRANCH  66  67
ATOM     67  S   UNL A   1      43.818  37.229  33.189  1.00  0.00     0.124 S 
ATOM     68  O   UNL A   1      43.756  37.995  31.946  1.00  0.00    -0.237 OA
ATOM     69  O   UNL A   1      42.652  37.356  34.061  1.00  0.00    -0.237 OA
ATOM     70  O   UNL A   1      45.109  37.253  33.873  1.00  0.00    -0.744 OA
ENDBRANCH  66  67
ENDBRANCH  47  61
BRANCH  48  71
ATOM     71  C   UNL A   1      42.492  23.689  27.866  1.00  0.00    -0.014 A 
ATOM     72  C   UNL A   1      42.123  22.599  28.673  1.00  0.00     0.010 A 
ATOM     73  C   UNL A   1      42.707  23.483  26.491  1.00  0.00     0.010 A 
ATOM     74  C   UNL A   1      41.987  21.323  28.118  1.00  0.00     0.020 A 
ATOM     75  C   UNL A   1      42.549  22.214  25.929  1.00  0.00     0.020 A 
ATOM     76  C   UNL A   1      42.201  21.138  26.749  1.00  0.00     0.054 A 
BRANCH  76  77
ATOM     77  S   UNL A   1      41.964  19.485  26.040  1.00  0.00     0.124 S 
ATOM     78  O   UNL A   1      42.402  18.621  27.131  1.00  0.00    -0.237 OA
ATOM     79  O   UNL A   1      40.532  19.465  25.752  1.00  0.00    -0.237 OA
ATOM     80  O   UNL A   1      42.827  19.494  24.861  1.00  0.00    -0.744 OA
ENDBRANCH  76  77
ENDBRANCH  48  71
BRANCH  60  81
ATOM     81  C   UNL A   1      47.716  27.075  31.011  1.00  0.00    -0.014 A 
ATOM     82  C   UNL A   1      47.979  26.403  32.218  1.00  0.00     0.010 A 
ATOM     83  C   UNL A   1      48.773  27.319  30.116  1.00  0.00     0.010 A 
ATOM     84  C   UNL A   1      49.281  26.007  32.535  1.00  0.00     0.020 A 
ATOM     85  C   UNL A   1      50.072  26.903  30.418  1.00  0.00     0.020 A 
ATOM     86  C   UNL A   1      50.319  26.261  31.634  1.00  0.00     0.054 A 
BRANCH  86  87
ATOM     87  S   UNL A   1      51.993  25.695  32.045  1.00  0.00     0.124 S 
ATOM     88  O   UNL A   1      52.326  26.542  33.187  1.00  0.00    -0.237 OA
ATOM     89  O   UNL A   1      51.790  24.281  32.349  1.00  0.00    -0.237 OA
ATOM     90  O   UNL A   1      52.756  25.961  30.827  1.00  0.00    -0.744 OA
ENDBRANCH  86  87
ENDBRANCH  60  81
ENDBRANCH  34  35
ENDBRANCH  26  29
ENDBRANCH  24  25
ENDBRANCH   1  24
TORSDOF 16
ENDMDL
MODEL 2
REMARK VINA RESULT:     -11.4      2.675      9.149
REMARK SMILES C=C(C(=O)NCCCCNC(=O)c1ccc(-c2c3nc(c(-c4ccc(S(=O)(=O)[O-])cc4)c4ccc([nH]4)c(-c4ccc(S(=O)(=O)[O-])cc4)c4nc(c(-c5ccc(S(=O)(=O)[O-])cc5)c5ccc2[nH]5)C=C4)C=C3)cc1)[C@@H]1CC[C@]2(C)C[C@@H](O)CC(=C)[C@H]2C1
REMARK SMILES IDX 8 1 7 2 6 3 5 4 3 5 4 6 2 8 1 9 73 10 74 11 85 12 75 13
REMARK SMILES IDX 84 14 76 15 82 16 77 17 78 18 81 19 83 20 79 21 80 22 9 24
REMARK SMILES IDX 10 25 11 26 12 28 13 29 14 30 72 31 15 32 71 33 16 34 17 35
REMARK SMILES IDX 18 36 65 37 19 38 70 39 64 40 66 41 20 42 69 43 63 44 62 45
REMARK SMILES IDX 21 47 51 48 32 49 50 50 33 51 36 52 49 53 67 54 34 55 35 56
REMARK SMILES IDX 48 58 68 59 37 60 22 61 23 62 31 63 24 64 30 65 25 66 26 67
REMARK SMILES IDX 27 68 28 69 29 70 52 71 53 72 61 73 54 74 60 75 55 76 56 77
REMARK SMILES IDX 57 78 58 79 59 80 38 81 39 82 47 83 40 84 46 85 41 86 42 87
REMARK SMILES IDX 43 88 44 89 45 90
REMARK H PARENT 5 7 80 23 10 27 66 46 36 57
REMARK Flexibility Score: inf
ROOT
ATOM      1  C   UNL A   1      35.631  23.489  26.178  1.00  0.00     0.023 C 
ENDROOT
BRANCH   1   2
ATOM      2  C   UNL A   1      35.404  22.031  26.601  1.00  0.00     0.023 C 
BRANCH   2   3
ATOM      3  C   UNL A   1      34.035  21.749  27.223  1.00  0.00     0.116 C 
BRANCH   3   4
ATOM      4  N   UNL A   1      33.265  20.866  26.375  1.00  0.00    -0.352 N 
ATOM      5  C   UNL A   1      32.563  21.030  25.231  1.00  0.00     0.246 C 
ATOM      6  O   UNL A   1      31.930  20.040  24.867  1.00  0.00    -0.270 OA
ATOM      7  H   UNL A   1      33.250  19.938  26.704  1.00  0.00     0.163 HD
BRANCH   5   8
ATOM      8  C   UNL A   1      32.570  22.276  24.395  1.00  0.00     0.013 C 
ATOM      9  C   UNL A   1      33.456  22.495  23.405  1.00  0.00     0.018 C 
BRANCH   8  10
ATOM     10  C   UNL A   1      31.580  23.404  24.741  1.00  0.00     0.025 C 
ATOM     11  C   UNL A   1      30.542  23.762  23.656  1.00  0.00     0.009 C 
ATOM     12  C   UNL A   1      32.244  24.631  25.384  1.00  0.00     0.017 C 
ATOM     13  C   UNL A   1      30.855  24.964  22.757  1.00  0.00     0.008 C 
ATOM     14  C   UNL A   1      32.686  25.695  24.372  1.00  0.00     0.021 C 
ATOM     15  C   UNL A   1      31.509  26.174  23.471  1.00  0.00    -0.024 C 
ATOM     16  C   UNL A   1      33.405  26.904  24.969  1.00  0.00    -0.071 C 
ATOM     17  C   UNL A   1      30.397  26.886  24.278  1.00  0.00     0.012 C 
ATOM     18  C   UNL A   1      32.080  27.130  22.376  1.00  0.00     0.039 C 
ATOM     19  C   UNL A   1      34.028  27.793  23.911  1.00  0.00     0.062 C 
ATOM     20  C   UNL A   1      33.499  27.202  26.275  1.00  0.00     0.008 C 
ATOM     21  C   UNL A   1      32.985  28.262  22.886  1.00  0.00     0.119 C 
BRANCH  21  22
ATOM     22  O   UNL A   1      32.194  29.328  23.416  1.00  0.00    -0.393 OA
ATOM     23  H   UNL A   1      31.950  29.936  22.700  1.00  0.00     0.210 HD
ENDBRANCH  21  22
ENDBRANCH   8  10
ENDBRANCH   5   8
ENDBRANCH   3   4
ENDBRANCH   2   3
ENDBRANCH   1   2
BRANCH   1  24
ATOM     24  C   UNL A   1      36.840  23.731  25.279  1.00  0.00     0.116 C 
BRANCH  24  25
ATOM     25  N   UNL A   1      37.907  22.769  25.493  1.00  0.00    -0.352 N 
ATOM     26  C   UNL A   1      39.112  22.940  26.130  1.00  0.00     0.251 C 
ATOM     27  H   UNL A   1      37.743  21.868  25.132  1.00  0.00     0.163 HD
ATOM     28  O   UNL A   1      39.939  22.038  26.129  1.00  0.00    -0.269 OA
BRANCH  26  29
ATOM     29  C   UNL A   1      39.411  24.232  26.781  1.00  0.00     0.039 A 
ATOM     30  C   UNL A   1      38.940  24.449  28.078  1.00  0.00     0.014 A 
ATOM     31  C   UNL A   1      40.162  25.210  26.125  1.00  0.00     0.014 A 
ATOM     32  C   UNL A   1      39.275  25.629  28.743  1.00  0.00     0.010 A 
ATOM     33  C   UNL A   1      40.542  26.361  26.810  1.00  0.00     0.010 A 
ATOM     34  C   UNL A   1      40.104  26.579  28.125  1.00  0.00    -0.014 A 
BRANCH  34  35
ATOM     35  C   UNL A   1      40.529  27.804  28.844  1.00  0.00     0.031 A 
ATOM     36  C   UNL A   1      41.874  27.858  29.513  1.00  0.00     0.074 A 
ATOM     37  C   UNL A   1      39.676  28.843  28.946  1.00  0.00     0.049 A 
ATOM     38  N   UNL A   1      42.397  28.816  30.233  1.00  0.00    -0.248 NA
ATOM     39  C   UNL A   1      42.734  26.672  29.373  1.00  0.00     0.031 C 
ATOM     40  C   UNL A   1      38.327  28.890  28.377  1.00  0.00     0.029 A 
ATOM     41  N   UNL A   1      39.815  30.055  29.572  1.00  0.00    -0.354 N 
ATOM     42  C   UNL A   1      43.638  28.345  30.644  1.00  0.00     0.074 A 
ATOM     43  C   UNL A   1      43.770  26.999  30.131  1.00  0.00     0.031 C 
ATOM     44  C   UNL A   1      37.770  30.078  28.665  1.00  0.00     0.029 A 
ATOM     45  C   UNL A   1      38.706  30.861  29.463  1.00  0.00     0.049 A 
ATOM     46  H   UNL A   1      40.631  30.323  30.053  1.00  0.00     0.167 HD
ATOM     47  C   UNL A   1      44.589  28.981  31.369  1.00  0.00     0.031 A 
ATOM     48  C   UNL A   1      38.468  32.092  29.957  1.00  0.00     0.031 A 
ATOM     49  C   UNL A   1      44.457  30.324  31.869  1.00  0.00     0.049 A 
ATOM     50  C   UNL A   1      39.542  32.782  30.751  1.00  0.00     0.074 A 
ATOM     51  C   UNL A   1      45.381  31.076  32.573  1.00  0.00     0.029 A 
ATOM     52  N   UNL A   1      43.329  31.116  31.716  1.00  0.00    -0.354 N 
ATOM     53  N   UNL A   1      40.734  32.342  31.080  1.00  0.00    -0.248 NA
ATOM     54  C   UNL A   1      39.246  34.140  31.227  1.00  0.00     0.031 C 
ATOM     55  C   UNL A   1      44.798  32.310  32.879  1.00  0.00     0.029 A 
ATOM     56  C   UNL A   1      43.528  32.344  32.323  1.00  0.00     0.049 A 
ATOM     57  H   UNL A   1      42.508  30.845  31.245  1.00  0.00     0.167 HD
ATOM     58  C   UNL A   1      41.337  33.377  31.783  1.00  0.00     0.074 A 
ATOM     59  C   UNL A   1      40.386  34.470  31.818  1.00  0.00     0.031 C 
ATOM     60  C   UNL A   1      42.569  33.420  32.348  1.00  0.00     0.031 A 
BRANCH  47  61
ATOM     61  C   UNL A   1      45.857  28.225  31.661  1.00  0.00    -0.014 A 
ATOM     62  C   UNL A   1      46.971  28.323  30.807  1.00  0.00     0.010 A 
ATOM     63  C   UNL A   1      45.947  27.424  32.814  1.00  0.00     0.010 A 
ATOM     64  C   UNL A   1      48.135  27.600  31.075  1.00  0.00     0.020 A 
ATOM     65  C   UNL A   1      47.120  26.719  33.100  1.00  0.00     0.020 A 
ATOM     66  C   UNL A   1      48.199  26.796  32.217  1.00  0.00     0.054 A 
BRANCH  66  67
ATOM     67  S   UNL A   1      49.726  25.875  32.547  1.00  0.00     0.124 S 
ATOM     68  O   UNL A   1      49.897  25.123  31.307  1.00  0.00    -0.237 OA
ATOM     69  O   UNL A   1      50.702  26.938  32.774  1.00  0.00    -0.237 OA
ATOM     70  O   UNL A   1      49.400  25.072  33.723  1.00  0.00    -0.744 OA
ENDBRANCH  66  67
ENDBRANCH  47  61
BRANCH  48  71
ATOM     71  C   UNL A   1      37.162  32.755  29.694  1.00  0.00    -0.014 A 
ATOM     72  C   UNL A   1      36.150  32.745  30.669  1.00  0.00     0.010 A 
ATOM     73  C   UNL A   1      36.935  33.420  28.475  1.00  0.00     0.010 A 
ATOM     74  C   UNL A   1      34.926  33.375  30.423  1.00  0.00     0.020 A 
ATOM     75  C   UNL A   1      35.721  34.071  28.236  1.00  0.00     0.020 A 
ATOM     76  C   UNL A   1      34.719  34.035  29.208  1.00  0.00     0.054 A 
BRANCH  76  77
ATOM     77  S   UNL A   1      33.145  34.894  28.933  1.00  0.00     0.124 S 
ATOM     78  O   UNL A   1      32.470  33.998  28.000  1.00  0.00    -0.237 OA
ATOM     79  O   UNL A   1      32.577  34.953  30.277  1.00  0.00    -0.237 OA
ATOM     80  O   UNL A   1      33.554  36.184  28.382  1.00  0.00    -0.744 OA
ENDBRANCH  76  77
ENDBRANCH  48  71
BRANCH  60  81
ATOM     81  C   UNL A   1      42.972  34.699  33.029  1.00  0.00    -0.014 A 
ATOM     82  C   UNL A   1      42.768  34.885  34.408  1.00  0.00     0.010 A 
ATOM     83  C   UNL A   1      43.613  35.706  32.286  1.00  0.00     0.010 A 
ATOM     84  C   UNL A   1      43.175  36.069  35.027  1.00  0.00     0.020 A 
ATOM     85  C   UNL A   1      44.044  36.882  32.907  1.00  0.00     0.020 A 
ATOM     86  C   UNL A   1      43.809  37.061  34.272  1.00  0.00     0.054 A 
BRANCH  86  87
ATOM     87  S   UNL A   1      44.371  38.571  35.106  1.00  0.00     0.124 S 
ATOM     88  O   UNL A   1      43.969  38.321  36.488  1.00  0.00    -0.237 OA
ATOM     89  O   UNL A   1      45.810  38.559  34.859  1.00  0.00    -0.237 OA
ATOM     90  O   UNL A   1      43.637  39.635  34.426  1.00  0.00    -0.744 OA
ENDBRANCH  86  87
ENDBRANCH  60  81
ENDBRANCH  34  35
ENDBRANCH  26  29
ENDBRANCH  24  25
ENDBRANCH   1  24
TORSDOF 16
ENDMDL
MODEL 3
REMARK VINA RESULT:     -11.1      3.447      6.724
REMARK SMILES C=C(C(=O)NCCCCNC(=O)c1ccc(-c2c3nc(c(-c4ccc(S(=O)(=O)[O-])cc4)c4ccc([nH]4)c(-c4ccc(S(=O)(=O)[O-])cc4)c4nc(c(-c5ccc(S(=O)(=O)[O-])cc5)c5ccc2[nH]5)C=C4)C=C3)cc1)[C@@H]1CC[C@]2(C)C[C@@H](O)CC(=C)[C@H]2C1
REMARK SMILES IDX 8 1 7 2 6 3 5 4 3 5 4 6 2 8 1 9 73 10 74 11 85 12 75 13
REMARK SMILES IDX 84 14 76 15 82 16 77 17 78 18 81 19 83 20 79 21 80 22 9 24
REMARK SMILES IDX 10 25 11 26 12 28 13 29 14 30 72 31 15 32 71 33 16 34 17 35
REMARK SMILES IDX 18 36 65 37 19 38 70 39 64 40 66 41 20 42 69 43 63 44 62 45
REMARK SMILES IDX 21 47 51 48 32 49 50 50 33 51 36 52 49 53 67 54 34 55 35 56
REMARK SMILES IDX 48 58 68 59 37 60 22 61 23 62 31 63 24 64 30 65 25 66 26 67
REMARK SMILES IDX 27 68 28 69 29 70 52 71 53 72 61 73 54 74 60 75 55 76 56 77
REMARK SMILES IDX 57 78 58 79 59 80 38 81 39 82 47 83 40 84 46 85 41 86 42 87
REMARK SMILES IDX 43 88 44 89 45 90
REMARK H PARENT 5 7 80 23 10 27 66 46 36 57
REMARK Flexibility Score: inf
ROOT
ATOM      1  C   UNL A   1      33.880  33.499  28.976  1.00  0.00     0.023 C 
ENDROOT
BRANCH   1   2
ATOM      2  C   UNL A   1      33.241  34.761  28.382  1.00  0.00     0.023 C 
BRANCH   2   3
ATOM      3  C   UNL A   1      33.569  36.058  29.124  1.00  0.00     0.116 C 
BRANCH   3   4
ATOM      4  N   UNL A   1      32.593  36.310  30.160  1.00  0.00    -0.352 N 
ATOM      5  C   UNL A   1      32.576  36.148  31.503  1.00  0.00     0.246 C 
ATOM      6  O   UNL A   1      31.491  36.371  32.036  1.00  0.00    -0.270 OA
ATOM      7  H   UNL A   1      31.752  36.684  29.809  1.00  0.00     0.163 HD
BRANCH   5   8
ATOM      8  C   UNL A   1      33.772  35.789  32.335  1.00  0.00     0.013 C 
ATOM      9  C   UNL A   1      34.381  36.659  33.163  1.00  0.00     0.018 C 
BRANCH   8  10
ATOM     10  C   UNL A   1      34.397  34.391  32.169  1.00  0.00     0.025 C 
ATOM     11  C   UNL A   1      34.164  33.395  33.324  1.00  0.00     0.009 C 
ATOM     12  C   UNL A   1      35.848  34.421  31.666  1.00  0.00     0.017 C 
ATOM     13  C   UNL A   1      35.285  33.247  34.359  1.00  0.00     0.008 C 
ATOM     14  C   UNL A   1      36.890  34.457  32.791  1.00  0.00     0.021 C 
ATOM     15  C   UNL A   1      36.725  33.269  33.784  1.00  0.00    -0.024 C 
ATOM     16  C   UNL A   1      38.344  34.548  32.330  1.00  0.00    -0.071 C 
ATOM     17  C   UNL A   1      36.970  31.897  33.112  1.00  0.00     0.012 C 
ATOM     18  C   UNL A   1      37.716  33.475  34.973  1.00  0.00     0.039 C 
ATOM     19  C   UNL A   1      39.301  34.825  33.472  1.00  0.00     0.062 C 
ATOM     20  C   UNL A   1      38.785  34.398  31.070  1.00  0.00     0.008 C 
ATOM     21  C   UNL A   1      39.172  33.772  34.583  1.00  0.00     0.119 C 
BRANCH  21  22
ATOM     22  O   UNL A   1      39.845  32.565  34.220  1.00  0.00    -0.393 OA
ATOM     23  H   UNL A   1      39.220  31.966  33.781  1.00  0.00     0.210 HD
ENDBRANCH  21  22
ENDBRANCH   8  10
ENDBRANCH   5   8
ENDBRANCH   3   4
ENDBRANCH   2   3
ENDBRANCH   1   2
BRANCH   1  24
ATOM     24  C   UNL A   1      34.654  32.628  27.991  1.00  0.00     0.116 C 
BRANCH  24  25
ATOM     25  N   UNL A   1      33.977  31.378  27.689  1.00  0.00    -0.352 N 
ATOM     26  C   UNL A   1      34.480  30.099  27.691  1.00  0.00     0.251 C 
ATOM     27  H   UNL A   1      33.026  31.458  27.449  1.00  0.00     0.163 HD
ATOM     28  O   UNL A   1      33.784  29.167  27.309  1.00  0.00    -0.269 OA
BRANCH  26  29
ATOM     29  C   UNL A   1      35.874  29.868  28.121  1.00  0.00     0.039 A 
ATOM     30  C   UNL A   1      36.106  29.477  29.442  1.00  0.00     0.014 A 
ATOM     31  C   UNL A   1      36.937  30.020  27.227  1.00  0.00     0.014 A 
ATOM     32  C   UNL A   1      37.406  29.177  29.852  1.00  0.00     0.010 A 
ATOM     33  C   UNL A   1      38.224  29.666  27.622  1.00  0.00     0.010 A 
ATOM     34  C   UNL A   1      38.469  29.240  28.936  1.00  0.00    -0.014 A 
BRANCH  34  35
ATOM     35  C   UNL A   1      39.844  28.856  29.337  1.00  0.00     0.031 A 
ATOM     36  C   UNL A   1      40.711  29.828  30.087  1.00  0.00     0.074 A 
ATOM     37  C   UNL A   1      40.330  27.654  28.969  1.00  0.00     0.049 A 
ATOM     38  N   UNL A   1      41.954  29.695  30.473  1.00  0.00    -0.248 NA
ATOM     39  C   UNL A   1      40.110  31.127  30.430  1.00  0.00     0.031 C 
ATOM     40  C   UNL A   1      39.599  26.643  28.200  1.00  0.00     0.029 A 
ATOM     41  N   UNL A   1      41.558  27.082  29.184  1.00  0.00    -0.354 N 
ATOM     42  C   UNL A   1      42.288  30.895  31.087  1.00  0.00     0.074 A 
ATOM     43  C   UNL A   1      41.134  31.760  30.984  1.00  0.00     0.031 C 
ATOM     44  C   UNL A   1      40.387  25.570  28.025  1.00  0.00     0.029 A 
ATOM     45  C   UNL A   1      41.686  25.827  28.638  1.00  0.00     0.049 A 
ATOM     46  H   UNL A   1      42.281  27.529  29.683  1.00  0.00     0.167 HD
ATOM     47  C   UNL A   1      43.447  31.240  31.699  1.00  0.00     0.031 A 
ATOM     48  C   UNL A   1      42.733  24.980  28.628  1.00  0.00     0.031 A 
ATOM     49  C   UNL A   1      44.590  30.373  31.808  1.00  0.00     0.049 A 
ATOM     50  C   UNL A   1      44.006  25.381  29.321  1.00  0.00     0.074 A 
ATOM     51  C   UNL A   1      45.794  30.611  32.448  1.00  0.00     0.029 A 
ATOM     52  N   UNL A   1      44.670  29.100  31.264  1.00  0.00    -0.354 N 
ATOM     53  N   UNL A   1      44.283  26.500  29.948  1.00  0.00    -0.248 NA
ATOM     54  C   UNL A   1      45.100  24.402  29.316  1.00  0.00     0.031 C 
ATOM     55  C   UNL A   1      46.616  29.495  32.259  1.00  0.00     0.029 A 
ATOM     56  C   UNL A   1      45.906  28.544  31.542  1.00  0.00     0.049 A 
ATOM     57  H   UNL A   1      43.952  28.657  30.755  1.00  0.00     0.167 HD
ATOM     58  C   UNL A   1      45.577  26.348  30.433  1.00  0.00     0.074 A 
ATOM     59  C   UNL A   1      46.020  25.026  30.038  1.00  0.00     0.031 C 
ATOM     60  C   UNL A   1      46.330  27.226  31.141  1.00  0.00     0.031 A 
BRANCH  47  61
ATOM     61  C   UNL A   1      43.529  32.619  32.296  1.00  0.00    -0.014 A 
ATOM     62  C   UNL A   1      43.230  32.838  33.654  1.00  0.00     0.010 A 
ATOM     63  C   UNL A   1      43.932  33.707  31.500  1.00  0.00     0.010 A 
ATOM     64  C   UNL A   1      43.288  34.125  34.193  1.00  0.00     0.020 A 
ATOM     65  C   UNL A   1      44.016  34.992  32.043  1.00  0.00     0.020 A 
ATOM     66  C   UNL A   1      43.674  35.196  33.382  1.00  0.00     0.054 A 
BRANCH  66  67
ATOM     67  S   UNL A   1      43.750  36.855  34.110  1.00  0.00     0.124 S 
ATOM     68  O   UNL A   1      44.692  36.659  35.208  1.00  0.00    -0.237 OA
ATOM     69  O   UNL A   1      44.240  37.672  33.001  1.00  0.00    -0.237 OA
ATOM     70  O   UNL A   1      42.370  37.120  34.512  1.00  0.00    -0.744 OA
ENDBRANCH  66  67
ENDBRANCH  47  61
BRANCH  48  71
ATOM     71  C   UNL A   1      42.610  23.659  27.953  1.00  0.00    -0.014 A 
ATOM     72  C   UNL A   1      43.111  23.475  26.653  1.00  0.00     0.010 A 
ATOM     73  C   UNL A   1      42.012  22.574  28.618  1.00  0.00     0.010 A 
ATOM     74  C   UNL A   1      43.002  22.231  26.023  1.00  0.00     0.020 A 
ATOM     75  C   UNL A   1      41.922  21.323  28.001  1.00  0.00     0.020 A 
ATOM     76  C   UNL A   1      42.408  21.162  26.701  1.00  0.00     0.054 A 
BRANCH  76  77
ATOM     77  S   UNL A   1      42.327  19.543  25.887  1.00  0.00     0.124 S 
ATOM     78  O   UNL A   1      42.731  18.643  26.961  1.00  0.00    -0.237 OA
ATOM     79  O   UNL A   1      40.927  19.460  25.483  1.00  0.00    -0.237 OA
ATOM     80  O   UNL A   1      43.278  19.671  24.783  1.00  0.00    -0.744 OA
ENDBRANCH  76  77
ENDBRANCH  48  71
BRANCH  60  81
ATOM     81  C   UNL A   1      47.702  26.775  31.562  1.00  0.00    -0.014 A 
ATOM     82  C   UNL A   1      48.826  27.016  30.754  1.00  0.00     0.010 A 
ATOM     83  C   UNL A   1      47.873  26.150  32.810  1.00  0.00     0.010 A 
ATOM     84  C   UNL A   1      50.096  26.614  31.176  1.00  0.00     0.020 A 
ATOM     85  C   UNL A   1      49.144  25.768  33.246  1.00  0.00     0.020 A 
ATOM     86  C   UNL A   1      50.247  25.991  32.418  1.00  0.00     0.054 A 
BRANCH  86  87
ATOM     87  S   UNL A   1      51.911  25.520  32.966  1.00  0.00     0.124 S 
ATOM     88  O   UNL A   1      52.706  26.668  32.537  1.00  0.00    -0.237 OA
ATOM     89  O   UNL A   1      51.746  25.374  34.410  1.00  0.00    -0.237 OA
ATOM     90  O   UNL A   1      52.172  24.276  32.246  1.00  0.00    -0.744 OA
ENDBRANCH  86  87
ENDBRANCH  60  81
ENDBRANCH  34  35
ENDBRANCH  26  29
ENDBRANCH  24  25
ENDBRANCH   1  24
TORSDOF 16
ENDMDL
