MODEL 1
REMARK VINA RESULT:     -10.2      0.000      0.000
REMARK SMILES O=C(/C=C\N1[C@@H]2CC[C@H]1C[C@H](O)C2)NCCCCNC(=O)c1ccc(-c2c3nc(c(-c4ccc(S(=O)(=O)[O-])cc4)c4ccc([nH]4)c(-c4ccc(S(=O)(=O)[O-])cc4)c4nc(c(-c5ccc(S(=O)(=O)[O-])cc5)c5ccc2[nH]5)C=C4)C=C3)cc1
REMARK SMILES IDX 17 1 16 2 15 3 14 4 1 5 2 6 3 8 4 9 5 10 6 11 9 12 7 13
REMARK SMILES IDX 13 14 8 15 10 16 11 17 12 18 18 20 19 21 20 22 21 24 22 25
REMARK SMILES IDX 23 26 81 27 24 28 80 29 25 30 26 31 27 32 74 33 28 34 79 35
REMARK SMILES IDX 73 36 75 37 29 38 78 39 72 40 71 41 30 43 60 44 41 45 59 46
REMARK SMILES IDX 42 47 45 48 58 49 76 50 43 51 44 52 57 54 77 55 46 56 31 57
REMARK SMILES IDX 32 58 40 59 33 60 39 61 34 62 35 63 36 64 37 65 38 66 61 67
REMARK SMILES IDX 62 68 70 69 63 70 69 71 64 72 65 73 66 74 67 75 68 76 47 77
REMARK SMILES IDX 48 78 56 79 49 80 55 81 50 82 51 83 52 84 53 85 54 86
REMARK H PARENT 14 7 12 19 19 23 75 42 45 53
REMARK Flexibility Score: inf
ROOT
ATOM      1  C   UNL A   1      34.090  27.946  25.865  1.00  0.00     0.023 C 
ENDROOT
BRANCH   1   2
ATOM      2  C   UNL A   1      33.354  28.400  24.592  1.00  0.00     0.023 C 
BRANCH   2   3
ATOM      3  C   UNL A   1      33.401  27.520  23.331  1.00  0.00     0.116 C 
BRANCH   3   4
ATOM      4  N   UNL A   1      32.768  26.216  23.424  1.00  0.00    -0.353 N 
ATOM      5  O   UNL A   1      33.743  25.210  21.608  1.00  0.00    -0.270 OA
ATOM      6  C   UNL A   1      32.993  25.167  22.575  1.00  0.00     0.245 C 
ATOM      7  H   UNL A   1      32.126  26.075  24.157  1.00  0.00     0.163 HD
BRANCH   6   8
ATOM      8  C   UNL A   1      32.390  23.859  22.981  1.00  0.00     0.088 C 
ATOM      9  C   UNL A   1      32.746  22.913  23.864  1.00  0.00     0.087 C 
BRANCH   9  10
ATOM     10  N   UNL A   1      33.748  22.779  24.800  1.00  0.00    -0.371 N 
ATOM     11  C   UNL A   1      34.416  21.527  25.194  1.00  0.00     0.084 C 
ATOM     12  C   UNL A   1      34.318  23.794  25.675  1.00  0.00     0.084 C 
ATOM     13  C   UNL A   1      34.638  21.679  26.721  1.00  0.00     0.027 C 
ATOM     14  C   UNL A   1      35.766  21.514  24.451  1.00  0.00     0.056 C 
ATOM     15  C   UNL A   1      34.215  23.110  27.037  1.00  0.00     0.027 C 
ATOM     16  C   UNL A   1      35.801  23.960  25.287  1.00  0.00     0.056 C 
ATOM     17  C   UNL A   1      36.323  22.938  24.268  1.00  0.00     0.118 C 
BRANCH  17  18
ATOM     18  O   UNL A   1      35.981  23.425  22.956  1.00  0.00    -0.393 OA
ATOM     19  H   UNL A   1      35.995  22.688  22.324  1.00  0.00     0.210 HD
ENDBRANCH  17  18
ENDBRANCH   9  10
ENDBRANCH   6   8
ENDBRANCH   3   4
ENDBRANCH   2   3
ENDBRANCH   1   2
BRANCH   1  20
ATOM     20  C   UNL A   1      33.492  28.302  27.231  1.00  0.00     0.116 C 
BRANCH  20  21
ATOM     21  N   UNL A   1      33.377  29.707  27.538  1.00  0.00    -0.352 N 
ATOM     22  C   UNL A   1      34.348  30.590  27.967  1.00  0.00     0.251 C 
ATOM     23  H   UNL A   1      32.478  30.091  27.426  1.00  0.00     0.163 HD
ATOM     24  O   UNL A   1      34.045  31.776  28.094  1.00  0.00    -0.269 OA
BRANCH  22  25
ATOM     25  C   UNL A   1      35.728  30.157  28.346  1.00  0.00     0.039 A 
ATOM     26  C   UNL A   1      36.716  30.244  27.356  1.00  0.00     0.014 A 
ATOM     27  C   UNL A   1      36.074  29.615  29.589  1.00  0.00     0.014 A 
ATOM     28  C   UNL A   1      38.034  29.844  27.618  1.00  0.00     0.010 A 
ATOM     29  C   UNL A   1      37.411  29.260  29.867  1.00  0.00     0.010 A 
ATOM     30  C   UNL A   1      38.411  29.373  28.885  1.00  0.00    -0.014 A 
BRANCH  30  31
ATOM     31  C   UNL A   1      39.843  29.031  29.162  1.00  0.00     0.031 A 
ATOM     32  C   UNL A   1      40.775  30.013  29.831  1.00  0.00     0.074 A 
ATOM     33  C   UNL A   1      40.319  27.813  28.825  1.00  0.00     0.049 A 
ATOM     34  N   UNL A   1      42.029  29.853  30.182  1.00  0.00    -0.248 NA
ATOM     35  C   UNL A   1      40.235  31.344  30.139  1.00  0.00     0.031 C 
ATOM     36  C   UNL A   1      39.548  26.758  28.165  1.00  0.00     0.029 A 
ATOM     37  N   UNL A   1      41.563  27.247  29.002  1.00  0.00    -0.354 N 
ATOM     38  C   UNL A   1      42.429  31.059  30.750  1.00  0.00     0.074 A 
ATOM     39  C   UNL A   1      41.295  31.955  30.653  1.00  0.00     0.031 C 
ATOM     40  C   UNL A   1      40.320  25.670  28.022  1.00  0.00     0.029 A 
ATOM     41  C   UNL A   1      41.656  25.954  28.539  1.00  0.00     0.049 A 
ATOM     42  H   UNL A   1      42.316  27.724  29.420  1.00  0.00     0.167 HD
ATOM     43  C   UNL A   1      43.619  31.390  31.313  1.00  0.00     0.031 A 
ATOM     44  C   UNL A   1      42.691  25.087  28.521  1.00  0.00     0.031 A 
ATOM     45  C   UNL A   1      44.756  30.508  31.410  1.00  0.00     0.049 A 
ATOM     46  C   UNL A   1      44.017  25.494  29.111  1.00  0.00     0.074 A 
ATOM     47  C   UNL A   1      45.985  30.753  32.002  1.00  0.00     0.029 A 
ATOM     48  N   UNL A   1      44.815  29.221  30.898  1.00  0.00    -0.354 N 
ATOM     49  N   UNL A   1      44.348  26.620  29.695  1.00  0.00    -0.248 NA
ATOM     50  C   UNL A   1      45.104  24.506  29.049  1.00  0.00     0.031 C 
ATOM     51  C   UNL A   1      46.807  29.642  31.788  1.00  0.00     0.029 A 
ATOM     52  C   UNL A   1      46.069  28.674  31.129  1.00  0.00     0.049 A 
ATOM     53  H   UNL A   1      44.075  28.763  30.437  1.00  0.00     0.167 HD
ATOM     54  C   UNL A   1      45.672  26.463  30.095  1.00  0.00     0.074 A 
ATOM     55  C   UNL A   1      46.075  25.130  29.701  1.00  0.00     0.031 C 
ATOM     56  C   UNL A   1      46.476  27.349  30.735  1.00  0.00     0.031 A 
BRANCH  43  57
ATOM     57  C   UNL A   1      43.769  32.788  31.864  1.00  0.00    -0.014 A 
ATOM     58  C   UNL A   1      44.130  33.865  31.034  1.00  0.00     0.010 A 
ATOM     59  C   UNL A   1      43.484  33.040  33.220  1.00  0.00     0.010 A 
ATOM     60  C   UNL A   1      44.248  35.157  31.559  1.00  0.00     0.020 A 
ATOM     61  C   UNL A   1      43.568  34.335  33.741  1.00  0.00     0.020 A 
ATOM     62  C   UNL A   1      43.968  35.383  32.910  1.00  0.00     0.054 A 
BRANCH  62  63
ATOM     63  S   UNL A   1      44.115  37.071  33.558  1.00  0.00     0.124 S 
ATOM     64  O   UNL A   1      44.502  37.819  32.365  1.00  0.00    -0.237 OA
ATOM     65  O   UNL A   1      42.769  37.339  34.058  1.00  0.00    -0.237 OA
ATOM     66  O   UNL A   1      45.149  36.961  34.585  1.00  0.00    -0.744 OA
ENDBRANCH  62  63
ENDBRANCH  43  57
BRANCH  44  67
ATOM     67  C   UNL A   1      42.519  23.736  27.915  1.00  0.00    -0.014 A 
ATOM     68  C   UNL A   1      42.884  23.492  26.579  1.00  0.00     0.010 A 
ATOM     69  C   UNL A   1      41.979  22.683  28.677  1.00  0.00     0.010 A 
ATOM     70  C   UNL A   1      42.699  22.226  26.013  1.00  0.00     0.020 A 
ATOM     71  C   UNL A   1      41.823  21.408  28.125  1.00  0.00     0.020 A 
ATOM     72  C   UNL A   1      42.174  21.191  26.792  1.00  0.00     0.054 A 
BRANCH  72  73
ATOM     73  S   UNL A   1      41.992  19.544  26.053  1.00  0.00     0.124 S 
ATOM     74  O   UNL A   1      40.553  19.470  25.824  1.00  0.00    -0.237 OA
ATOM     75  O   UNL A   1      42.822  19.643  24.856  1.00  0.00    -0.237 OA
ATOM     76  O   UNL A   1      42.509  18.648  27.087  1.00  0.00    -0.744 OA
ENDBRANCH  72  73
ENDBRANCH  44  67
BRANCH  56  77
ATOM     77  C   UNL A   1      47.873  26.901  31.087  1.00  0.00    -0.014 A 
ATOM     78  C   UNL A   1      48.144  26.201  32.277  1.00  0.00     0.010 A 
ATOM     79  C   UNL A   1      48.927  27.142  30.185  1.00  0.00     0.010 A 
ATOM     80  C   UNL A   1      49.445  25.779  32.573  1.00  0.00     0.020 A 
ATOM     81  C   UNL A   1      50.223  26.694  30.461  1.00  0.00     0.020 A 
ATOM     82  C   UNL A   1      50.476  26.027  31.661  1.00  0.00     0.054 A 
BRANCH  82  83
ATOM     83  S   UNL A   1      52.146  25.431  32.048  1.00  0.00     0.124 S 
ATOM     84  O   UNL A   1      52.881  25.772  30.833  1.00  0.00    -0.237 OA
ATOM     85  O   UNL A   1      52.496  26.208  33.234  1.00  0.00    -0.237 OA
ATOM     86  O   UNL A   1      51.959  24.001  32.281  1.00  0.00    -0.744 OA
ENDBRANCH  82  83
ENDBRANCH  56  77
ENDBRANCH  30  31
ENDBRANCH  22  25
ENDBRANCH  20  21
ENDBRANCH   1  20
TORSDOF 16
ENDMDL
MODEL 2
REMARK VINA RESULT:     -10.1      2.646      9.377
REMARK SMILES O=C(/C=C\N1[C@@H]2CC[C@H]1C[C@H](O)C2)NCCCCNC(=O)c1ccc(-c2c3nc(c(-c4ccc(S(=O)(=O)[O-])cc4)c4ccc([nH]4)c(-c4ccc(S(=O)(=O)[O-])cc4)c4nc(c(-c5ccc(S(=O)(=O)[O-])cc5)c5ccc2[nH]5)C=C4)C=C3)cc1
REMARK SMILES IDX 17 1 16 2 15 3 14 4 1 5 2 6 3 8 4 9 5 10 6 11 9 12 7 13
REMARK SMILES IDX 13 14 8 15 10 16 11 17 12 18 18 20 19 21 20 22 21 24 22 25
REMARK SMILES IDX 23 26 81 27 24 28 80 29 25 30 26 31 27 32 74 33 28 34 79 35
REMARK SMILES IDX 73 36 75 37 29 38 78 39 72 40 71 41 30 43 60 44 41 45 59 46
REMARK SMILES IDX 42 47 45 48 58 49 76 50 43 51 44 52 57 54 77 55 46 56 31 57
REMARK SMILES IDX 32 58 40 59 33 60 39 61 34 62 35 63 36 64 37 65 38 66 61 67
REMARK SMILES IDX 62 68 70 69 63 70 69 71 64 72 65 73 66 74 67 75 68 76 47 77
REMARK SMILES IDX 48 78 56 79 49 80 55 81 50 82 51 83 52 84 53 85 54 86
REMARK H PARENT 14 7 12 19 19 23 75 42 45 53
REMARK Flexibility Score: inf
ROOT
ATOM      1  C   UNL A   1      35.482  23.762  26.010  1.00  0.00     0.023 C 
ENDROOT
BRANCH   1   2
ATOM      2  C   UNL A   1      34.798  22.414  26.296  1.00  0.00     0.023 C 
BRANCH   2   3
ATOM      3  C   UNL A   1      33.303  22.380  26.658  1.00  0.00     0.116 C 
BRANCH   3   4
ATOM      4  N   UNL A   1      32.400  23.074  25.756  1.00  0.00    -0.353 N 
ATOM      5  O   UNL A   1      31.235  24.314  27.294  1.00  0.00    -0.270 OA
ATOM      6  C   UNL A   1      31.455  23.988  26.135  1.00  0.00     0.245 C 
ATOM      7  H   UNL A   1      32.474  22.871  24.796  1.00  0.00     0.163 HD
BRANCH   6   8
ATOM      8  C   UNL A   1      30.780  24.726  25.021  1.00  0.00     0.088 C 
ATOM      9  C   UNL A   1      30.991  25.920  24.444  1.00  0.00     0.087 C 
BRANCH   9  10
ATOM     10  N   UNL A   1      31.935  26.913  24.575  1.00  0.00    -0.371 N 
ATOM     11  C   UNL A   1      31.727  28.354  24.353  1.00  0.00     0.084 C 
ATOM     12  C   UNL A   1      33.357  26.786  24.867  1.00  0.00     0.084 C 
ATOM     13  C   UNL A   1      33.045  28.830  23.687  1.00  0.00     0.027 C 
ATOM     14  C   UNL A   1      31.570  28.982  25.751  1.00  0.00     0.056 C 
ATOM     15  C   UNL A   1      33.971  27.620  23.745  1.00  0.00     0.027 C 
ATOM     16  C   UNL A   1      33.613  27.471  26.225  1.00  0.00     0.056 C 
ATOM     17  C   UNL A   1      32.416  28.238  26.801  1.00  0.00     0.118 C 
BRANCH  17  18
ATOM     18  O   UNL A   1      31.589  27.286  27.499  1.00  0.00    -0.393 OA
ATOM     19  H   UNL A   1      32.063  26.443  27.579  1.00  0.00     0.210 HD
ENDBRANCH  17  18
ENDBRANCH   9  10
ENDBRANCH   6   8
ENDBRANCH   3   4
ENDBRANCH   2   3
ENDBRANCH   1   2
BRANCH   1  20
ATOM     20  C   UNL A   1      36.700  23.789  25.079  1.00  0.00     0.116 C 
BRANCH  20  21
ATOM     21  N   UNL A   1      37.717  22.794  25.318  1.00  0.00    -0.352 N 
ATOM     22  C   UNL A   1      38.858  22.880  26.090  1.00  0.00     0.251 C 
ATOM     23  H   UNL A   1      37.577  21.932  24.866  1.00  0.00     0.163 HD
ATOM     24  O   UNL A   1      39.553  21.873  26.219  1.00  0.00    -0.269 OA
BRANCH  22  25
ATOM     25  C   UNL A   1      39.319  24.156  26.719  1.00  0.00     0.039 A 
ATOM     26  C   UNL A   1      38.913  24.397  28.038  1.00  0.00     0.014 A 
ATOM     27  C   UNL A   1      40.063  25.140  26.058  1.00  0.00     0.014 A 
ATOM     28  C   UNL A   1      39.285  25.575  28.701  1.00  0.00     0.010 A 
ATOM     29  C   UNL A   1      40.477  26.302  26.742  1.00  0.00     0.010 A 
ATOM     30  C   UNL A   1      40.097  26.534  28.076  1.00  0.00    -0.014 A 
BRANCH  30  31
ATOM     31  C   UNL A   1      40.547  27.744  28.835  1.00  0.00     0.031 A 
ATOM     32  C   UNL A   1      41.926  27.827  29.446  1.00  0.00     0.074 A 
ATOM     33  C   UNL A   1      39.716  28.801  28.970  1.00  0.00     0.049 A 
ATOM     34  N   UNL A   1      42.485  28.822  30.093  1.00  0.00    -0.248 NA
ATOM     35  C   UNL A   1      42.785  26.641  29.321  1.00  0.00     0.031 C 
ATOM     36  C   UNL A   1      38.351  28.871  28.446  1.00  0.00     0.029 A 
ATOM     37  N   UNL A   1      39.898  30.024  29.576  1.00  0.00    -0.354 N 
ATOM     38  C   UNL A   1      43.756  28.385  30.453  1.00  0.00     0.074 A 
ATOM     39  C   UNL A   1      43.867  27.016  29.991  1.00  0.00     0.031 C 
ATOM     40  C   UNL A   1      37.833  30.078  28.723  1.00  0.00     0.029 A 
ATOM     41  C   UNL A   1      38.807  30.859  29.482  1.00  0.00     0.049 A 
ATOM     42  H   UNL A   1      40.731  30.277  30.035  1.00  0.00     0.167 HD
ATOM     43  C   UNL A   1      44.746  29.058  31.093  1.00  0.00     0.031 A 
ATOM     44  C   UNL A   1      38.600  32.108  29.951  1.00  0.00     0.031 A 
ATOM     45  C   UNL A   1      44.644  30.418  31.562  1.00  0.00     0.049 A 
ATOM     46  C   UNL A   1      39.698  32.817  30.700  1.00  0.00     0.074 A 
ATOM     47  C   UNL A   1      45.615  31.187  32.185  1.00  0.00     0.029 A 
ATOM     48  N   UNL A   1      43.510  31.211  31.475  1.00  0.00    -0.354 N 
ATOM     49  N   UNL A   1      40.910  32.402  30.973  1.00  0.00    -0.248 NA
ATOM     50  C   UNL A   1      39.400  34.171  31.192  1.00  0.00     0.031 C 
ATOM     51  C   UNL A   1      45.049  32.417  32.534  1.00  0.00     0.029 A 
ATOM     52  C   UNL A   1      43.747  32.445  32.063  1.00  0.00     0.049 A 
ATOM     53  H   UNL A   1      42.662  30.938  31.058  1.00  0.00     0.167 HD
ATOM     54  C   UNL A   1      41.529  33.454  31.643  1.00  0.00     0.074 A 
ATOM     55  C   UNL A   1      40.563  34.529  31.719  1.00  0.00     0.031 C 
ATOM     56  C   UNL A   1      42.787  33.518  32.145  1.00  0.00     0.031 A 
BRANCH  43  57
ATOM     57  C   UNL A   1      46.041  28.325  31.348  1.00  0.00    -0.014 A 
ATOM     58  C   UNL A   1      46.236  27.570  32.518  1.00  0.00     0.010 A 
ATOM     59  C   UNL A   1      47.056  28.339  30.372  1.00  0.00     0.010 A 
ATOM     60  C   UNL A   1      47.437  26.883  32.729  1.00  0.00     0.020 A 
ATOM     61  C   UNL A   1      48.245  27.628  30.563  1.00  0.00     0.020 A 
ATOM     62  C   UNL A   1      48.435  26.919  31.750  1.00  0.00     0.054 A 
BRANCH  62  63
ATOM     63  S   UNL A   1      49.975  26.007  32.045  1.00  0.00     0.124 S 
ATOM     64  O   UNL A   1      50.806  27.021  32.689  1.00  0.00    -0.237 OA
ATOM     65  O   UNL A   1      49.538  24.912  32.907  1.00  0.00    -0.237 OA
ATOM     66  O   UNL A   1      50.406  25.609  30.706  1.00  0.00    -0.744 OA
ENDBRANCH  62  63
ENDBRANCH  43  57
BRANCH  44  67
ATOM     67  C   UNL A   1      37.285  32.775  29.729  1.00  0.00    -0.014 A 
ATOM     68  C   UNL A   1      36.338  32.866  30.765  1.00  0.00     0.010 A 
ATOM     69  C   UNL A   1      36.972  33.320  28.471  1.00  0.00     0.010 A 
ATOM     70  C   UNL A   1      35.099  33.476  30.542  1.00  0.00     0.020 A 
ATOM     71  C   UNL A   1      35.748  33.960  28.252  1.00  0.00     0.020 A 
ATOM     72  C   UNL A   1      34.814  34.023  29.287  1.00  0.00     0.054 A 
BRANCH  72  73
ATOM     73  S   UNL A   1      33.222  34.856  29.036  1.00  0.00     0.124 S 
ATOM     74  O   UNL A   1      32.635  34.801  30.371  1.00  0.00    -0.237 OA
ATOM     75  O   UNL A   1      33.629  36.181  28.576  1.00  0.00    -0.237 OA
ATOM     76  O   UNL A   1      32.561  34.030  28.026  1.00  0.00    -0.744 OA
ENDBRANCH  72  73
ENDBRANCH  44  67
BRANCH  56  77
ATOM     77  C   UNL A   1      43.218  34.808  32.798  1.00  0.00    -0.014 A 
ATOM     78  C   UNL A   1      43.781  35.859  32.052  1.00  0.00     0.010 A 
ATOM     79  C   UNL A   1      43.008  34.991  34.178  1.00  0.00     0.010 A 
ATOM     80  C   UNL A   1      44.155  37.054  32.676  1.00  0.00     0.020 A 
ATOM     81  C   UNL A   1      43.351  36.195  34.801  1.00  0.00     0.020 A 
ATOM     82  C   UNL A   1      43.935  37.215  34.048  1.00  0.00     0.054 A 
BRANCH  82  83
ATOM     83  S   UNL A   1      44.389  38.790  34.826  1.00  0.00     0.124 S 
ATOM     84  O   UNL A   1      44.158  38.509  36.241  1.00  0.00    -0.237 OA
ATOM     85  O   UNL A   1      45.787  38.949  34.435  1.00  0.00    -0.237 OA
ATOM     86  O   UNL A   1      43.467  39.752  34.225  1.00  0.00    -0.744 OA
ENDBRANCH  82  83
ENDBRANCH  56  77
ENDBRANCH  30  31
ENDBRANCH  22  25
ENDBRANCH  20  21
ENDBRANCH   1  20
TORSDOF 16
ENDMDL
MODEL 3
REMARK VINA RESULT:     -10.1      0.846      8.448
REMARK SMILES O=C(/C=C\N1[C@@H]2CC[C@H]1C[C@H](O)C2)NCCCCNC(=O)c1ccc(-c2c3nc(c(-c4ccc(S(=O)(=O)[O-])cc4)c4ccc([nH]4)c(-c4ccc(S(=O)(=O)[O-])cc4)c4nc(c(-c5ccc(S(=O)(=O)[O-])cc5)c5ccc2[nH]5)C=C4)C=C3)cc1
REMARK SMILES IDX 17 1 16 2 15 3 14 4 1 5 2 6 3 8 4 9 5 10 6 11 9 12 7 13
REMARK SMILES IDX 13 14 8 15 10 16 11 17 12 18 18 20 19 21 20 22 21 24 22 25
REMARK SMILES IDX 23 26 81 27 24 28 80 29 25 30 26 31 27 32 74 33 28 34 79 35
REMARK SMILES IDX 73 36 75 37 29 38 78 39 72 40 71 41 30 43 60 44 41 45 59 46
REMARK SMILES IDX 42 47 45 48 58 49 76 50 43 51 44 52 57 54 77 55 46 56 31 57
REMARK SMILES IDX 32 58 40 59 33 60 39 61 34 62 35 63 36 64 37 65 38 66 61 67
REMARK SMILES IDX 62 68 70 69 63 70 69 71 64 72 65 73 66 74 67 75 68 76 47 77
REMARK SMILES IDX 48 78 56 79 49 80 55 81 50 82 51 83 52 84 53 85 54 86
REMARK H PARENT 14 7 12 19 19 23 75 42 45 53
REMARK Flexibility Score: inf
ROOT
ATOM      1  C   UNL A   1      34.014  28.065  25.405  1.00  0.00     0.023 C 
ENDROOT
BRANCH   1   2
ATOM      2  C   UNL A   1      33.381  28.990  24.352  1.00  0.00     0.023 C 
BRANCH   2   3
ATOM      3  C   UNL A   1      33.087  28.448  22.942  1.00  0.00     0.116 C 
BRANCH   3   4
ATOM      4  N   UNL A   1      32.294  27.234  22.864  1.00  0.00    -0.353 N 
ATOM      5  O   UNL A   1      33.715  25.953  21.601  1.00  0.00    -0.270 OA
ATOM      6  C   UNL A   1      32.667  26.087  22.220  1.00  0.00     0.245 C 
ATOM      7  H   UNL A   1      31.416  27.238  23.310  1.00  0.00     0.163 HD
BRANCH   6   8
ATOM      8  C   UNL A   1      31.786  24.898  22.443  1.00  0.00     0.088 C 
ATOM      9  C   UNL A   1      31.818  23.875  23.311  1.00  0.00     0.087 C 
BRANCH   9  10
ATOM     10  N   UNL A   1      32.609  23.532  24.386  1.00  0.00    -0.371 N 
ATOM     11  C   UNL A   1      32.942  22.167  24.826  1.00  0.00     0.084 C 
ATOM     12  C   UNL A   1      33.221  24.402  25.380  1.00  0.00     0.084 C 
ATOM     13  C   UNL A   1      32.941  22.257  26.375  1.00  0.00     0.027 C 
ATOM     14  C   UNL A   1      34.364  21.887  24.303  1.00  0.00     0.056 C 
ATOM     15  C   UNL A   1      32.766  23.742  26.679  1.00  0.00     0.027 C 
ATOM     16  C   UNL A   1      34.751  24.266  25.235  1.00  0.00     0.056 C 
ATOM     17  C   UNL A   1      35.215  23.169  24.269  1.00  0.00     0.118 C 
BRANCH  17  18
ATOM     18  O   UNL A   1      35.194  23.727  22.941  1.00  0.00    -0.393 OA
ATOM     19  H   UNL A   1      35.268  23.012  22.288  1.00  0.00     0.210 HD
ENDBRANCH  17  18
ENDBRANCH   9  10
ENDBRANCH   6   8
ENDBRANCH   3   4
ENDBRANCH   2   3
ENDBRANCH   1   2
BRANCH   1  20
ATOM     20  C   UNL A   1      33.541  28.171  26.860  1.00  0.00     0.116 C 
BRANCH  20  21
ATOM     21  N   UNL A   1      33.293  29.501  27.363  1.00  0.00    -0.352 N 
ATOM     22  C   UNL A   1      34.171  30.390  27.948  1.00  0.00     0.251 C 
ATOM     23  H   UNL A   1      32.367  29.818  27.275  1.00  0.00     0.163 HD
ATOM     24  O   UNL A   1      33.760  31.515  28.234  1.00  0.00    -0.269 OA
BRANCH  22  25
ATOM     25  C   UNL A   1      35.576  30.027  28.310  1.00  0.00     0.039 A 
ATOM     26  C   UNL A   1      36.531  30.089  27.287  1.00  0.00     0.014 A 
ATOM     27  C   UNL A   1      35.975  29.569  29.571  1.00  0.00     0.014 A 
ATOM     28  C   UNL A   1      37.869  29.750  27.532  1.00  0.00     0.010 A 
ATOM     29  C   UNL A   1      37.330  29.276  29.828  1.00  0.00     0.010 A 
ATOM     30  C   UNL A   1      38.298  29.366  28.812  1.00  0.00    -0.014 A 
BRANCH  30  31
ATOM     31  C   UNL A   1      39.749  29.088  29.065  1.00  0.00     0.031 A 
ATOM     32  C   UNL A   1      40.372  27.758  28.715  1.00  0.00     0.074 A 
ATOM     33  C   UNL A   1      40.532  30.049  29.601  1.00  0.00     0.049 A 
ATOM     34  N   UNL A   1      41.622  27.376  28.828  1.00  0.00    -0.248 NA
ATOM     35  C   UNL A   1      39.479  26.722  28.178  1.00  0.00     0.031 C 
ATOM     36  C   UNL A   1      40.079  31.382  30.002  1.00  0.00     0.029 A 
ATOM     37  N   UNL A   1      41.879  30.061  29.892  1.00  0.00    -0.354 N 
ATOM     38  C   UNL A   1      41.667  26.060  28.378  1.00  0.00     0.074 A 
ATOM     39  C   UNL A   1      40.308  25.696  28.035  1.00  0.00     0.031 C 
ATOM     40  C   UNL A   1      41.127  32.089  30.453  1.00  0.00     0.029 A 
ATOM     41  C   UNL A   1      42.324  31.252  30.418  1.00  0.00     0.049 A 
ATOM     42  H   UNL A   1      42.468  29.287  29.739  1.00  0.00     0.167 HD
ATOM     43  C   UNL A   1      42.736  25.234  28.247  1.00  0.00     0.031 A 
ATOM     44  C   UNL A   1      43.549  31.640  30.833  1.00  0.00     0.031 A 
ATOM     45  C   UNL A   1      44.092  25.585  28.591  1.00  0.00     0.049 A 
ATOM     46  C   UNL A   1      44.712  30.688  30.721  1.00  0.00     0.074 A 
ATOM     47  C   UNL A   1      45.239  24.819  28.450  1.00  0.00     0.029 A 
ATOM     48  N   UNL A   1      44.489  26.789  29.150  1.00  0.00    -0.354 N 
ATOM     49  N   UNL A   1      44.736  29.471  30.236  1.00  0.00    -0.248 NA
ATOM     50  C   UNL A   1      46.015  31.171  31.201  1.00  0.00     0.031 C 
ATOM     51  C   UNL A   1      46.316  25.533  28.987  1.00  0.00     0.029 A 
ATOM     52  C   UNL A   1      45.855  26.774  29.393  1.00  0.00     0.049 A 
ATOM     53  H   UNL A   1      43.890  27.544  29.347  1.00  0.00     0.167 HD
ATOM     54  C   UNL A   1      46.061  29.054  30.327  1.00  0.00     0.074 A 
ATOM     55  C   UNL A   1      46.810  30.154  30.897  1.00  0.00     0.031 C 
ATOM     56  C   UNL A   1      46.604  27.865  29.965  1.00  0.00     0.031 A 
BRANCH  43  57
ATOM     57  C   UNL A   1      42.486  23.842  27.719  1.00  0.00    -0.014 A 
ATOM     58  C   UNL A   1      42.613  23.546  26.349  1.00  0.00     0.010 A 
ATOM     59  C   UNL A   1      42.180  22.798  28.613  1.00  0.00     0.010 A 
ATOM     60  C   UNL A   1      42.395  22.246  25.880  1.00  0.00     0.020 A 
ATOM     61  C   UNL A   1      41.993  21.491  28.153  1.00  0.00     0.020 A 
ATOM     62  C   UNL A   1      42.083  21.227  26.785  1.00  0.00     0.054 A 
BRANCH  62  63
ATOM     63  S   UNL A   1      41.819  19.550  26.149  1.00  0.00     0.124 S 
ATOM     64  O   UNL A   1      40.384  19.554  25.874  1.00  0.00    -0.237 OA
ATOM     65  O   UNL A   1      42.684  19.515  24.972  1.00  0.00    -0.237 OA
ATOM     66  O   UNL A   1      42.237  18.688  27.253  1.00  0.00    -0.744 OA
ENDBRANCH  62  63
ENDBRANCH  43  57
BRANCH  44  67
ATOM     67  C   UNL A   1      43.743  33.003  31.403  1.00  0.00    -0.014 A 
ATOM     68  C   UNL A   1      44.080  34.091  30.577  1.00  0.00     0.010 A 
ATOM     69  C   UNL A   1      43.595  33.219  32.786  1.00  0.00     0.010 A 
ATOM     70  C   UNL A   1      44.280  35.362  31.125  1.00  0.00     0.020 A 
ATOM     71  C   UNL A   1      43.762  34.495  33.333  1.00  0.00     0.020 A 
ATOM     72  C   UNL A   1      44.115  35.557  32.499  1.00  0.00     0.054 A 
BRANCH  72  73
ATOM     73  S   UNL A   1      44.327  37.225  33.180  1.00  0.00     0.124 S 
ATOM     74  O   UNL A   1      45.637  37.130  33.817  1.00  0.00    -0.237 OA
ATOM     75  O   UNL A   1      44.261  38.063  31.986  1.00  0.00    -0.237 OA
ATOM     76  O   UNL A   1      43.195  37.367  34.094  1.00  0.00    -0.744 OA
ENDBRANCH  72  73
ENDBRANCH  44  67
BRANCH  56  77
ATOM     77  C   UNL A   1      48.093  27.691  30.139  1.00  0.00    -0.014 A 
ATOM     78  C   UNL A   1      48.635  27.109  31.299  1.00  0.00     0.010 A 
ATOM     79  C   UNL A   1      48.962  28.073  29.100  1.00  0.00     0.010 A 
ATOM     80  C   UNL A   1      50.018  26.940  31.429  1.00  0.00     0.020 A 
ATOM     81  C   UNL A   1      50.342  27.877  29.212  1.00  0.00     0.020 A 
ATOM     82  C   UNL A   1      50.863  27.324  30.383  1.00  0.00     0.054 A 
BRANCH  82  83
ATOM     83  S   UNL A   1      52.649  27.055  30.560  1.00  0.00     0.124 S 
ATOM     84  O   UNL A   1      53.081  28.289  31.210  1.00  0.00    -0.237 OA
ATOM     85  O   UNL A   1      52.710  25.853  31.388  1.00  0.00    -0.237 OA
ATOM     86  O   UNL A   1      53.112  26.881  29.185  1.00  0.00    -0.744 OA
ENDBRANCH  82  83
ENDBRANCH  56  77
ENDBRANCH  30  31
ENDBRANCH  22  25
ENDBRANCH  20  21
ENDBRANCH   1  20
TORSDOF 16
ENDMDL
