MODEL 1
REMARK VINA RESULT:     -10.1      0.000      0.000
REMARK SMILES O=C(NCCCCNC(=O)[C@H]1CC[C@@]2(CC[N@@H+](C3CC3)C2)C1)c1ccc(-c2c3nc(c(-c4ccc(S(=O)(=O)[O-])cc4)c4ccc([nH]4)c(-c4ccc(S(=O)(=O)[O-])cc4)c4nc(c(-c5ccc(S(=O)(=O)[O-])cc5)c5ccc2[nH]5)C=C4)C=C3)cc1
REMARK SMILES IDX 4 1 3 2 1 3 2 4 23 6 24 7 82 8 25 9 81 10 26 11 27 12 28 13
REMARK SMILES IDX 75 14 29 15 80 16 74 17 76 18 30 19 79 20 73 21 72 22 31 24
REMARK SMILES IDX 61 25 42 26 60 27 43 28 46 29 59 30 77 31 44 32 45 33 58 35
REMARK SMILES IDX 78 36 47 37 32 38 33 39 41 40 34 41 40 42 35 43 36 44 37 45
REMARK SMILES IDX 38 46 39 47 62 48 63 49 71 50 64 51 70 52 65 53 66 54 67 55
REMARK SMILES IDX 68 56 69 57 48 58 49 59 57 60 50 61 56 62 51 63 52 64 53 65
REMARK SMILES IDX 54 66 55 67 5 68 6 69 7 70 8 71 9 72 10 74 11 75 12 76 22 77
REMARK SMILES IDX 13 78 14 79 15 80 21 81 16 82 17 83 18 85 19 86 20 87
REMARK H PARENT 3 5 76 23 46 34 8 73 17 84
REMARK Flexibility Score: inf
ROOT
ATOM      1  C   UNL A   1      34.212  28.194  26.493  1.00  0.00     0.116 C 
ENDROOT
BRANCH   1   2
ATOM      2  N   UNL A   1      33.737  29.495  26.942  1.00  0.00    -0.352 N 
ATOM      3  O   UNL A   1      33.828  31.416  28.132  1.00  0.00    -0.269 OA
ATOM      4  C   UNL A   1      34.398  30.404  27.736  1.00  0.00     0.251 C 
ATOM      5  H   UNL A   1      32.836  29.755  26.641  1.00  0.00     0.163 HD
BRANCH   4   6
ATOM      6  C   UNL A   1      35.793  30.120  28.130  1.00  0.00     0.039 A 
ATOM      7  C   UNL A   1      36.827  30.288  27.207  1.00  0.00     0.014 A 
ATOM      8  C   UNL A   1      36.060  29.645  29.415  1.00  0.00     0.014 A 
ATOM      9  C   UNL A   1      38.107  29.858  27.527  1.00  0.00     0.010 A 
ATOM     10  C   UNL A   1      37.366  29.283  29.762  1.00  0.00     0.010 A 
ATOM     11  C   UNL A   1      38.394  29.363  28.812  1.00  0.00    -0.014 A 
BRANCH  11  12
ATOM     12  C   UNL A   1      39.798  29.014  29.142  1.00  0.00     0.031 A 
ATOM     13  C   UNL A   1      40.387  27.683  28.764  1.00  0.00     0.074 A 
ATOM     14  C   UNL A   1      40.558  29.951  29.743  1.00  0.00     0.049 A 
ATOM     15  N   UNL A   1      41.614  27.257  28.926  1.00  0.00    -0.248 NA
ATOM     16  C   UNL A   1      39.492  26.703  28.129  1.00  0.00     0.031 C 
ATOM     17  C   UNL A   1      40.085  31.273  30.167  1.00  0.00     0.029 A 
ATOM     18  N   UNL A   1      41.888  29.954  30.069  1.00  0.00    -0.354 N 
ATOM     19  C   UNL A   1      41.639  25.960  28.426  1.00  0.00     0.074 A 
ATOM     20  C   UNL A   1      40.297  25.659  27.974  1.00  0.00     0.031 C 
ATOM     21  C   UNL A   1      41.121  31.979  30.640  1.00  0.00     0.029 A 
ATOM     22  C   UNL A   1      42.316  31.144  30.607  1.00  0.00     0.049 A 
ATOM     23  H   UNL A   1      42.480  29.181  29.931  1.00  0.00     0.167 HD
ATOM     24  C   UNL A   1      42.686  25.103  28.352  1.00  0.00     0.031 A 
ATOM     25  C   UNL A   1      43.532  31.524  31.039  1.00  0.00     0.031 A 
ATOM     26  C   UNL A   1      44.019  25.411  28.804  1.00  0.00     0.049 A 
ATOM     27  C   UNL A   1      44.670  30.553  30.943  1.00  0.00     0.074 A 
ATOM     28  C   UNL A   1      45.148  24.610  28.764  1.00  0.00     0.029 A 
ATOM     29  N   UNL A   1      44.405  26.614  29.374  1.00  0.00    -0.354 N 
ATOM     30  N   UNL A   1      44.671  29.333  30.459  1.00  0.00    -0.248 NA
ATOM     31  C   UNL A   1      45.970  31.007  31.452  1.00  0.00     0.031 C 
ATOM     32  C   UNL A   1      46.208  25.317  29.344  1.00  0.00     0.029 A 
ATOM     33  C   UNL A   1      45.750  26.574  29.704  1.00  0.00     0.049 A 
ATOM     34  H   UNL A   1      43.810  27.385  29.524  1.00  0.00     0.167 HD
ATOM     35  C   UNL A   1      45.972  28.872  30.608  1.00  0.00     0.074 A 
ATOM     36  C   UNL A   1      46.737  29.957  31.192  1.00  0.00     0.031 C 
ATOM     37  C   UNL A   1      46.487  27.657  30.301  1.00  0.00     0.031 A 
BRANCH  24  38
ATOM     38  C   UNL A   1      42.437  23.737  27.769  1.00  0.00    -0.014 A 
ATOM     39  C   UNL A   1      42.667  23.478  26.406  1.00  0.00     0.010 A 
ATOM     40  C   UNL A   1      42.041  22.680  28.609  1.00  0.00     0.010 A 
ATOM     41  C   UNL A   1      42.488  22.191  25.890  1.00  0.00     0.020 A 
ATOM     42  C   UNL A   1      41.880  21.387  28.101  1.00  0.00     0.020 A 
ATOM     43  C   UNL A   1      42.094  21.153  26.742  1.00  0.00     0.054 A 
BRANCH  43  44
ATOM     44  S   UNL A   1      41.914  19.483  26.055  1.00  0.00     0.124 S 
ATOM     45  O   UNL A   1      40.474  19.412  25.814  1.00  0.00    -0.237 OA
ATOM     46  O   UNL A   1      42.747  19.535  24.857  1.00  0.00    -0.237 OA
ATOM     47  O   UNL A   1      42.409  18.615  27.120  1.00  0.00    -0.744 OA
ENDBRANCH  43  44
ENDBRANCH  24  38
BRANCH  25  48
ATOM     48  C   UNL A   1      43.721  32.878  31.622  1.00  0.00    -0.014 A 
ATOM     49  C   UNL A   1      44.048  33.974  30.807  1.00  0.00     0.010 A 
ATOM     50  C   UNL A   1      43.548  33.076  33.006  1.00  0.00     0.010 A 
ATOM     51  C   UNL A   1      44.222  35.243  31.369  1.00  0.00     0.020 A 
ATOM     52  C   UNL A   1      43.692  34.347  33.564  1.00  0.00     0.020 A 
ATOM     53  C   UNL A   1      44.043  35.420  32.745  1.00  0.00     0.054 A 
BRANCH  53  54
ATOM     54  S   UNL A   1      44.223  37.080  33.453  1.00  0.00     0.124 S 
ATOM     55  O   UNL A   1      42.866  37.360  33.913  1.00  0.00    -0.237 OA
ATOM     56  O   UNL A   1      45.218  36.876  34.503  1.00  0.00    -0.237 OA
ATOM     57  O   UNL A   1      44.681  37.883  32.321  1.00  0.00    -0.744 OA
ENDBRANCH  53  54
ENDBRANCH  25  48
BRANCH  37  58
ATOM     58  C   UNL A   1      47.946  27.450  30.595  1.00  0.00    -0.014 A 
ATOM     59  C   UNL A   1      48.365  26.943  31.839  1.00  0.00     0.010 A 
ATOM     60  C   UNL A   1      48.907  27.763  29.619  1.00  0.00     0.010 A 
ATOM     61  C   UNL A   1      49.725  26.797  32.118  1.00  0.00     0.020 A 
ATOM     62  C   UNL A   1      50.268  27.596  29.887  1.00  0.00     0.020 A 
ATOM     63  C   UNL A   1      50.668  27.134  31.143  1.00  0.00     0.054 A 
BRANCH  63  64
ATOM     64  S   UNL A   1      52.430  26.931  31.522  1.00  0.00     0.124 S 
ATOM     65  O   UNL A   1      52.775  28.242  32.063  1.00  0.00    -0.237 OA
ATOM     66  O   UNL A   1      52.431  25.833  32.486  1.00  0.00    -0.237 OA
ATOM     67  O   UNL A   1      53.027  26.614  30.227  1.00  0.00    -0.744 OA
ENDBRANCH  63  64
ENDBRANCH  37  58
ENDBRANCH  11  12
ENDBRANCH   4   6
ENDBRANCH   1   2
BRANCH   1  68
ATOM     68  C   UNL A   1      33.514  27.701  25.232  1.00  0.00     0.023 C 
BRANCH  68  69
ATOM     69  C   UNL A   1      32.010  27.990  25.172  1.00  0.00     0.023 C 
BRANCH  69  70
ATOM     70  C   UNL A   1      31.156  27.057  26.032  1.00  0.00     0.116 C 
BRANCH  70  71
ATOM     71  N   UNL A   1      30.809  25.854  25.302  1.00  0.00    -0.356 N 
ATOM     72  C   UNL A   1      31.476  24.664  25.253  1.00  0.00     0.223 C 
ATOM     73  H   UNL A   1      29.981  25.900  24.770  1.00  0.00     0.163 HD
ATOM     74  O   UNL A   1      31.099  23.805  24.458  1.00  0.00    -0.275 OA
BRANCH  72  75
ATOM     75  C   UNL A   1      32.614  24.430  26.243  1.00  0.00     0.079 C 
ATOM     76  C   UNL A   1      32.270  23.261  27.161  1.00  0.00     0.014 C 
ATOM     77  C   UNL A   1      33.919  24.010  25.560  1.00  0.00     0.026 C 
ATOM     78  C   UNL A   1      32.709  22.048  26.352  1.00  0.00     0.014 C 
ATOM     79  C   UNL A   1      34.046  22.474  25.718  1.00  0.00     0.026 C 
ATOM     80  C   UNL A   1      34.328  21.767  24.384  1.00  0.00     0.074 C 
ATOM     81  C   UNL A   1      35.245  22.081  26.604  1.00  0.00     0.269 C 
ATOM     82  C   UNL A   1      35.693  21.103  24.526  1.00  0.00     0.263 C 
ATOM     83  N   UNL A   1      36.324  21.684  25.708  1.00  0.00    -0.332 N 
ATOM     84  H   UNL A   1      36.876  21.022  26.255  1.00  0.00     0.348 HD
BRANCH  83  85
ATOM     85  C   UNL A   1      37.477  22.542  25.434  1.00  0.00     0.184 C 
ATOM     86  C   UNL A   1      37.850  23.747  26.244  1.00  0.00     0.071 C 
ATOM     87  C   UNL A   1      38.737  22.534  26.251  1.00  0.00     0.071 C 
ENDBRANCH  83  85
ENDBRANCH  72  75
ENDBRANCH  70  71
ENDBRANCH  69  70
ENDBRANCH  68  69
ENDBRANCH   1  68
TORSDOF 15
ENDMDL
MODEL 2
REMARK VINA RESULT:     -10.1      4.649      9.889
REMARK SMILES O=C(NCCCCNC(=O)[C@H]1CC[C@@]2(CC[N@@H+](C3CC3)C2)C1)c1ccc(-c2c3nc(c(-c4ccc(S(=O)(=O)[O-])cc4)c4ccc([nH]4)c(-c4ccc(S(=O)(=O)[O-])cc4)c4nc(c(-c5ccc(S(=O)(=O)[O-])cc5)c5ccc2[nH]5)C=C4)C=C3)cc1
REMARK SMILES IDX 4 1 3 2 1 3 2 4 23 6 24 7 82 8 25 9 81 10 26 11 27 12 28 13
REMARK SMILES IDX 75 14 29 15 80 16 74 17 76 18 30 19 79 20 73 21 72 22 31 24
REMARK SMILES IDX 61 25 42 26 60 27 43 28 46 29 59 30 77 31 44 32 45 33 58 35
REMARK SMILES IDX 78 36 47 37 32 38 33 39 41 40 34 41 40 42 35 43 36 44 37 45
REMARK SMILES IDX 38 46 39 47 62 48 63 49 71 50 64 51 70 52 65 53 66 54 67 55
REMARK SMILES IDX 68 56 69 57 48 58 49 59 57 60 50 61 56 62 51 63 52 64 53 65
REMARK SMILES IDX 54 66 55 67 5 68 6 69 7 70 8 71 9 72 10 74 11 75 12 76 22 77
REMARK SMILES IDX 13 78 14 79 15 80 21 81 16 82 17 83 18 85 19 86 20 87
REMARK H PARENT 3 5 76 23 46 34 8 73 17 84
REMARK Flexibility Score: inf
ROOT
ATOM      1  C   UNL A   1      38.556  24.330  26.554  1.00  0.00     0.116 C 
ENDROOT
BRANCH   1   2
ATOM      2  N   UNL A   1      39.900  24.405  25.998  1.00  0.00    -0.352 N 
ATOM      3  O   UNL A   1      41.958  25.296  25.714  1.00  0.00    -0.269 OA
ATOM      4  C   UNL A   1      40.909  25.270  26.351  1.00  0.00     0.251 C 
ATOM      5  H   UNL A   1      40.109  23.759  25.284  1.00  0.00     0.163 HD
BRANCH   4   6
ATOM      6  C   UNL A   1      40.692  26.189  27.487  1.00  0.00     0.039 A 
ATOM      7  C   UNL A   1      41.397  27.392  27.555  1.00  0.00     0.014 A 
ATOM      8  C   UNL A   1      39.812  25.824  28.507  1.00  0.00     0.014 A 
ATOM      9  C   UNL A   1      41.320  28.167  28.704  1.00  0.00     0.010 A 
ATOM     10  C   UNL A   1      39.677  26.645  29.631  1.00  0.00     0.010 A 
ATOM     11  C   UNL A   1      40.450  27.810  29.749  1.00  0.00    -0.014 A 
BRANCH  11  12
ATOM     12  C   UNL A   1      40.322  28.723  30.911  1.00  0.00     0.031 A 
ATOM     13  C   UNL A   1      41.249  28.628  32.092  1.00  0.00     0.074 A 
ATOM     14  C   UNL A   1      39.383  29.688  30.857  1.00  0.00     0.049 A 
ATOM     15  N   UNL A   1      41.304  29.395  33.151  1.00  0.00    -0.248 NA
ATOM     16  C   UNL A   1      42.235  27.537  32.091  1.00  0.00     0.031 C 
ATOM     17  C   UNL A   1      38.420  29.865  29.764  1.00  0.00     0.029 A 
ATOM     18  N   UNL A   1      39.105  30.720  31.714  1.00  0.00    -0.354 N 
ATOM     19  C   UNL A   1      42.318  28.876  33.948  1.00  0.00     0.074 A 
ATOM     20  C   UNL A   1      42.839  27.715  33.260  1.00  0.00     0.031 C 
ATOM     21  C   UNL A   1      37.700  30.973  29.988  1.00  0.00     0.029 A 
ATOM     22  C   UNL A   1      38.108  31.551  31.262  1.00  0.00     0.049 A 
ATOM     23  H   UNL A   1      39.573  30.853  32.569  1.00  0.00     0.167 HD
ATOM     24  C   UNL A   1      42.771  29.331  35.142  1.00  0.00     0.031 A 
ATOM     25  C   UNL A   1      37.569  32.653  31.815  1.00  0.00     0.031 A 
ATOM     26  C   UNL A   1      42.247  30.489  35.819  1.00  0.00     0.049 A 
ATOM     27  C   UNL A   1      38.093  33.131  33.136  1.00  0.00     0.074 A 
ATOM     28  C   UNL A   1      42.644  31.032  37.030  1.00  0.00     0.029 A 
ATOM     29  N   UNL A   1      41.215  31.286  35.347  1.00  0.00    -0.354 N 
ATOM     30  N   UNL A   1      39.059  32.628  33.867  1.00  0.00    -0.248 NA
ATOM     31  C   UNL A   1      37.453  34.323  33.707  1.00  0.00     0.031 C 
ATOM     32  C   UNL A   1      41.828  32.135  37.306  1.00  0.00     0.029 A 
ATOM     33  C   UNL A   1      40.952  32.306  36.246  1.00  0.00     0.049 A 
ATOM     34  H   UNL A   1      40.737  31.146  34.497  1.00  0.00     0.167 HD
ATOM     35  C   UNL A   1      39.141  33.441  34.989  1.00  0.00     0.074 A 
ATOM     36  C   UNL A   1      38.153  34.490  34.821  1.00  0.00     0.031 C 
ATOM     37  C   UNL A   1      39.952  33.327  36.068  1.00  0.00     0.031 A 
BRANCH  24  38
ATOM     38  C   UNL A   1      43.887  28.569  35.807  1.00  0.00    -0.014 A 
ATOM     39  C   UNL A   1      45.232  28.909  35.578  1.00  0.00     0.010 A 
ATOM     40  C   UNL A   1      43.585  27.552  36.730  1.00  0.00     0.010 A 
ATOM     41  C   UNL A   1      46.256  28.232  36.248  1.00  0.00     0.020 A 
ATOM     42  C   UNL A   1      44.605  26.885  37.417  1.00  0.00     0.020 A 
ATOM     43  C   UNL A   1      45.935  27.223  37.162  1.00  0.00     0.054 A 
BRANCH  43  44
ATOM     44  S   UNL A   1      47.282  26.392  38.052  1.00  0.00     0.124 S 
ATOM     45  O   UNL A   1      47.543  27.328  39.143  1.00  0.00    -0.237 OA
ATOM     46  O   UNL A   1      46.673  25.124  38.446  1.00  0.00    -0.237 OA
ATOM     47  O   UNL A   1      48.344  26.287  37.055  1.00  0.00    -0.744 OA
ENDBRANCH  43  44
ENDBRANCH  24  38
BRANCH  25  48
ATOM     48  C   UNL A   1      36.458  33.359  31.125  1.00  0.00    -0.014 A 
ATOM     49  C   UNL A   1      35.199  33.491  31.735  1.00  0.00     0.010 A 
ATOM     50  C   UNL A   1      36.667  33.924  29.853  1.00  0.00     0.010 A 
ATOM     51  C   UNL A   1      34.162  34.158  31.076  1.00  0.00     0.020 A 
ATOM     52  C   UNL A   1      35.643  34.616  29.205  1.00  0.00     0.020 A 
ATOM     53  C   UNL A   1      34.392  34.715  29.814  1.00  0.00     0.054 A 
BRANCH  53  54
ATOM     54  S   UNL A   1      33.053  35.621  28.991  1.00  0.00     0.124 S 
ATOM     55  O   UNL A   1      32.263  36.089  30.126  1.00  0.00    -0.237 OA
ATOM     56  O   UNL A   1      33.772  36.655  28.250  1.00  0.00    -0.237 OA
ATOM     57  O   UNL A   1      32.417  34.602  28.159  1.00  0.00    -0.744 OA
ENDBRANCH  53  54
ENDBRANCH  25  48
BRANCH  37  58
ATOM     58  C   UNL A   1      39.796  34.367  37.143  1.00  0.00    -0.014 A 
ATOM     59  C   UNL A   1      40.413  35.625  37.021  1.00  0.00     0.010 A 
ATOM     60  C   UNL A   1      39.025  34.082  38.283  1.00  0.00     0.010 A 
ATOM     61  C   UNL A   1      40.298  36.567  38.046  1.00  0.00     0.020 A 
ATOM     62  C   UNL A   1      38.889  35.031  39.299  1.00  0.00     0.020 A 
ATOM     63  C   UNL A   1      39.545  36.259  39.183  1.00  0.00     0.054 A 
BRANCH  63  64
ATOM     64  S   UNL A   1      39.402  37.498  40.500  1.00  0.00     0.124 S 
ATOM     65  O   UNL A   1      38.433  38.431  39.934  1.00  0.00    -0.237 OA
ATOM     66  O   UNL A   1      38.927  36.710  41.636  1.00  0.00    -0.237 OA
ATOM     67  O   UNL A   1      40.762  38.015  40.636  1.00  0.00    -0.744 OA
ENDBRANCH  63  64
ENDBRANCH  37  58
ENDBRANCH  11  12
ENDBRANCH   4   6
ENDBRANCH   1   2
BRANCH   1  68
ATOM     68  C   UNL A   1      37.706  23.230  25.930  1.00  0.00     0.023 C 
BRANCH  68  69
ATOM     69  C   UNL A   1      36.196  23.489  25.957  1.00  0.00     0.023 C 
BRANCH  69  70
ATOM     70  C   UNL A   1      35.475  23.134  24.656  1.00  0.00     0.116 C 
BRANCH  70  71
ATOM     71  N   UNL A   1      34.040  23.291  24.801  1.00  0.00    -0.356 N 
ATOM     72  C   UNL A   1      33.319  24.440  24.946  1.00  0.00     0.223 C 
ATOM     73  H   UNL A   1      33.517  22.457  24.794  1.00  0.00     0.163 HD
ATOM     74  O   UNL A   1      32.119  24.358  25.202  1.00  0.00    -0.275 OA
BRANCH  72  75
ATOM     75  C   UNL A   1      34.023  25.773  24.710  1.00  0.00     0.079 C 
ATOM     76  C   UNL A   1      33.391  26.490  23.521  1.00  0.00     0.014 C 
ATOM     77  C   UNL A   1      33.857  26.749  25.879  1.00  0.00     0.026 C 
ATOM     78  C   UNL A   1      32.206  27.214  24.146  1.00  0.00     0.014 C 
ATOM     79  C   UNL A   1      32.750  27.759  25.480  1.00  0.00     0.026 C 
ATOM     80  C   UNL A   1      31.665  27.898  26.557  1.00  0.00     0.074 C 
ATOM     81  C   UNL A   1      33.302  29.189  25.326  1.00  0.00     0.269 C 
ATOM     82  C   UNL A   1      31.713  29.344  27.036  1.00  0.00     0.263 C 
ATOM     83  N   UNL A   1      32.969  29.908  26.549  1.00  0.00    -0.332 N 
ATOM     84  H   UNL A   1      32.904  30.884  26.259  1.00  0.00     0.348 HD
BRANCH  83  85
ATOM     85  C   UNL A   1      33.959  30.199  27.587  1.00  0.00     0.184 C 
ATOM     86  C   UNL A   1      35.431  30.336  27.342  1.00  0.00     0.071 C 
ATOM     87  C   UNL A   1      34.625  31.534  27.755  1.00  0.00     0.071 C 
ENDBRANCH  83  85
ENDBRANCH  72  75
ENDBRANCH  70  71
ENDBRANCH  69  70
ENDBRANCH  68  69
ENDBRANCH   1  68
TORSDOF 15
ENDMDL
MODEL 3
REMARK VINA RESULT:     -10.0      4.788      9.834
REMARK SMILES O=C(NCCCCNC(=O)[C@H]1CC[C@@]2(CC[N@@H+](C3CC3)C2)C1)c1ccc(-c2c3nc(c(-c4ccc(S(=O)(=O)[O-])cc4)c4ccc([nH]4)c(-c4ccc(S(=O)(=O)[O-])cc4)c4nc(c(-c5ccc(S(=O)(=O)[O-])cc5)c5ccc2[nH]5)C=C4)C=C3)cc1
REMARK SMILES IDX 4 1 3 2 1 3 2 4 23 6 24 7 82 8 25 9 81 10 26 11 27 12 28 13
REMARK SMILES IDX 75 14 29 15 80 16 74 17 76 18 30 19 79 20 73 21 72 22 31 24
REMARK SMILES IDX 61 25 42 26 60 27 43 28 46 29 59 30 77 31 44 32 45 33 58 35
REMARK SMILES IDX 78 36 47 37 32 38 33 39 41 40 34 41 40 42 35 43 36 44 37 45
REMARK SMILES IDX 38 46 39 47 62 48 63 49 71 50 64 51 70 52 65 53 66 54 67 55
REMARK SMILES IDX 68 56 69 57 48 58 49 59 57 60 50 61 56 62 51 63 52 64 53 65
REMARK SMILES IDX 54 66 55 67 5 68 6 69 7 70 8 71 9 72 10 74 11 75 12 76 22 77
REMARK SMILES IDX 13 78 14 79 15 80 21 81 16 82 17 83 18 85 19 86 20 87
REMARK H PARENT 3 5 76 23 46 34 8 73 17 84
REMARK Flexibility Score: inf
ROOT
ATOM      1  C   UNL A   1      41.683  23.328  27.669  1.00  0.00     0.116 C 
ENDROOT
BRANCH   1   2
ATOM      2  N   UNL A   1      41.784  24.039  26.403  1.00  0.00    -0.352 N 
ATOM      3  O   UNL A   1      41.575  25.819  25.025  1.00  0.00    -0.269 OA
ATOM      4  C   UNL A   1      41.567  25.377  26.170  1.00  0.00     0.251 C 
ATOM      5  H   UNL A   1      42.038  23.497  25.621  1.00  0.00     0.163 HD
BRANCH   4   6
ATOM      6  C   UNL A   1      41.288  26.263  27.319  1.00  0.00     0.039 A 
ATOM      7  C   UNL A   1      42.129  27.345  27.585  1.00  0.00     0.014 A 
ATOM      8  C   UNL A   1      40.207  25.982  28.156  1.00  0.00     0.014 A 
ATOM      9  C   UNL A   1      41.965  28.067  28.759  1.00  0.00     0.010 A 
ATOM     10  C   UNL A   1      39.996  26.759  29.299  1.00  0.00     0.010 A 
ATOM     11  C   UNL A   1      40.889  27.792  29.622  1.00  0.00    -0.014 A 
BRANCH  11  12
ATOM     12  C   UNL A   1      40.692  28.657  30.810  1.00  0.00     0.031 A 
ATOM     13  C   UNL A   1      41.585  28.554  32.017  1.00  0.00     0.074 A 
ATOM     14  C   UNL A   1      39.720  29.590  30.759  1.00  0.00     0.049 A 
ATOM     15  N   UNL A   1      41.579  29.284  33.103  1.00  0.00    -0.248 NA
ATOM     16  C   UNL A   1      42.611  27.499  32.010  1.00  0.00     0.031 C 
ATOM     17  C   UNL A   1      38.786  29.771  29.644  1.00  0.00     0.029 A 
ATOM     18  N   UNL A   1      39.377  30.580  31.642  1.00  0.00    -0.354 N 
ATOM     19  C   UNL A   1      42.586  28.773  33.913  1.00  0.00     0.074 A 
ATOM     20  C   UNL A   1      43.171  27.656  33.203  1.00  0.00     0.031 C 
ATOM     21  C   UNL A   1      38.019  30.844  29.882  1.00  0.00     0.029 A 
ATOM     22  C   UNL A   1      38.365  31.391  31.188  1.00  0.00     0.049 A 
ATOM     23  H   UNL A   1      39.814  30.699  32.516  1.00  0.00     0.167 HD
ATOM     24  C   UNL A   1      42.985  29.201  35.136  1.00  0.00     0.031 A 
ATOM     25  C   UNL A   1      37.770  32.452  31.761  1.00  0.00     0.031 A 
ATOM     26  C   UNL A   1      42.398  30.314  35.837  1.00  0.00     0.049 A 
ATOM     27  C   UNL A   1      38.234  32.901  33.114  1.00  0.00     0.074 A 
ATOM     28  C   UNL A   1      42.738  30.827  37.077  1.00  0.00     0.029 A 
ATOM     29  N   UNL A   1      41.352  31.090  35.359  1.00  0.00    -0.354 N 
ATOM     30  N   UNL A   1      39.195  32.406  33.858  1.00  0.00    -0.248 NA
ATOM     31  C   UNL A   1      37.533  34.047  33.706  1.00  0.00     0.031 C 
ATOM     32  C   UNL A   1      41.873  31.890  37.365  1.00  0.00     0.029 A 
ATOM     33  C   UNL A   1      41.025  32.067  36.284  1.00  0.00     0.049 A 
ATOM     34  H   UNL A   1      40.907  30.963  34.490  1.00  0.00     0.167 HD
ATOM     35  C   UNL A   1      39.212  33.181  35.010  1.00  0.00     0.074 A 
ATOM     36  C   UNL A   1      38.192  34.199  34.846  1.00  0.00     0.031 C 
ATOM     37  C   UNL A   1      39.994  33.057  36.110  1.00  0.00     0.031 A 
BRANCH  24  38
ATOM     38  C   UNL A   1      44.107  28.456  35.810  1.00  0.00    -0.014 A 
ATOM     39  C   UNL A   1      43.847  27.358  36.649  1.00  0.00     0.010 A 
ATOM     40  C   UNL A   1      45.442  28.810  35.541  1.00  0.00     0.010 A 
ATOM     41  C   UNL A   1      44.901  26.639  37.221  1.00  0.00     0.020 A 
ATOM     42  C   UNL A   1      46.499  28.083  36.095  1.00  0.00     0.020 A 
ATOM     43  C   UNL A   1      46.221  27.007  36.942  1.00  0.00     0.054 A 
BRANCH  43  44
ATOM     44  S   UNL A   1      47.570  26.029  37.661  1.00  0.00     0.124 S 
ATOM     45  O   UNL A   1      48.197  26.997  38.558  1.00  0.00    -0.237 OA
ATOM     46  O   UNL A   1      46.861  24.935  38.317  1.00  0.00    -0.237 OA
ATOM     47  O   UNL A   1      48.374  25.643  36.504  1.00  0.00    -0.744 OA
ENDBRANCH  43  44
ENDBRANCH  24  38
BRANCH  25  48
ATOM     48  C   UNL A   1      36.654  33.142  31.061  1.00  0.00    -0.014 A 
ATOM     49  C   UNL A   1      35.362  33.165  31.612  1.00  0.00     0.010 A 
ATOM     50  C   UNL A   1      36.893  33.801  29.840  1.00  0.00     0.010 A 
ATOM     51  C   UNL A   1      34.322  33.819  30.944  1.00  0.00     0.020 A 
ATOM     52  C   UNL A   1      35.864  34.479  29.186  1.00  0.00     0.020 A 
ATOM     53  C   UNL A   1      34.581  34.470  29.734  1.00  0.00     0.054 A 
BRANCH  53  54
ATOM     54  S   UNL A   1      33.235  35.356  28.902  1.00  0.00     0.124 S 
ATOM     55  O   UNL A   1      33.964  36.353  28.123  1.00  0.00    -0.237 OA
ATOM     56  O   UNL A   1      32.584  34.300  28.129  1.00  0.00    -0.237 OA
ATOM     57  O   UNL A   1      32.440  35.882  30.010  1.00  0.00    -0.744 OA
ENDBRANCH  53  54
ENDBRANCH  25  48
BRANCH  37  58
ATOM     58  C   UNL A   1      39.766  34.051  37.214  1.00  0.00    -0.014 A 
ATOM     59  C   UNL A   1      40.232  35.374  37.099  1.00  0.00     0.010 A 
ATOM     60  C   UNL A   1      39.080  33.659  38.377  1.00  0.00     0.010 A 
ATOM     61  C   UNL A   1      40.054  36.276  38.150  1.00  0.00     0.020 A 
ATOM     62  C   UNL A   1      38.880  34.567  39.420  1.00  0.00     0.020 A 
ATOM     63  C   UNL A   1      39.388  35.864  39.308  1.00  0.00     0.054 A 
BRANCH  63  64
ATOM     64  S   UNL A   1      39.162  37.052  40.659  1.00  0.00     0.124 S 
ATOM     65  O   UNL A   1      40.539  37.435  40.958  1.00  0.00    -0.237 OA
ATOM     66  O   UNL A   1      38.340  38.092  40.042  1.00  0.00    -0.237 OA
ATOM     67  O   UNL A   1      38.492  36.272  41.696  1.00  0.00    -0.744 OA
ENDBRANCH  63  64
ENDBRANCH  37  58
ENDBRANCH  11  12
ENDBRANCH   4   6
ENDBRANCH   1   2
BRANCH   1  68
ATOM     68  C   UNL A   1      40.698  22.168  27.632  1.00  0.00     0.023 C 
BRANCH  68  69
ATOM     69  C   UNL A   1      39.742  22.171  26.434  1.00  0.00     0.023 C 
BRANCH  69  70
ATOM     70  C   UNL A   1      38.591  23.171  26.551  1.00  0.00     0.116 C 
BRANCH  70  71
ATOM     71  N   UNL A   1      37.903  23.318  25.284  1.00  0.00    -0.356 N 
ATOM     72  C   UNL A   1      36.926  22.531  24.748  1.00  0.00     0.223 C 
ATOM     73  H   UNL A   1      38.176  24.090  24.736  1.00  0.00     0.163 HD
ATOM     74  O   UNL A   1      36.567  22.736  23.590  1.00  0.00    -0.275 OA
BRANCH  72  75
ATOM     75  C   UNL A   1      36.274  21.478  25.640  1.00  0.00     0.079 C 
ATOM     76  C   UNL A   1      35.208  22.129  26.516  1.00  0.00     0.014 C 
ATOM     77  C   UNL A   1      35.515  20.411  24.844  1.00  0.00     0.026 C 
ATOM     78  C   UNL A   1      33.981  22.142  25.614  1.00  0.00     0.014 C 
ATOM     79  C   UNL A   1      34.010  20.772  24.909  1.00  0.00     0.026 C 
ATOM     80  C   UNL A   1      33.350  20.798  23.523  1.00  0.00     0.074 C 
ATOM     81  C   UNL A   1      33.196  19.718  25.685  1.00  0.00     0.269 C 
ATOM     82  C   UNL A   1      32.282  19.712  23.531  1.00  0.00     0.263 C 
ATOM     83  N   UNL A   1      32.546  18.869  24.695  1.00  0.00    -0.332 N 
ATOM     84  H   UNL A   1      31.706  18.530  25.164  1.00  0.00     0.348 HD
BRANCH  83  85
ATOM     85  C   UNL A   1      33.016  17.518  24.385  1.00  0.00     0.184 C 
ATOM     86  C   UNL A   1      33.844  17.161  23.188  1.00  0.00     0.071 C 
ATOM     87  C   UNL A   1      34.437  17.066  24.565  1.00  0.00     0.071 C 
ENDBRANCH  83  85
ENDBRANCH  72  75
ENDBRANCH  70  71
ENDBRANCH  69  70
ENDBRANCH  68  69
ENDBRANCH   1  68
TORSDOF 15
ENDMDL
