MODEL 1
REMARK VINA RESULT:     -11.7      0.000      0.000
REMARK SMILES O=C(NCCCCNC(=O)c1ccc(-c2c3nc(c(-c4ccc(S(=O)(=O)[O-])cc4)c4ccc([nH]4)c(-c4ccc(S(=O)(=O)[O-])cc4)c4nc(c(-c5ccc(S(=O)(=O)[O-])cc5)c5ccc2[nH]5)C=C4)C=C3)cc1)C1=Cc2c(cc(Cl)c(Cl)c2Cl)O[C@H]1C(F)(F)F
REMARK SMILES IDX 6 1 5 2 4 3 3 4 1 5 2 6 71 8 72 9 83 10 73 11 82 12 74 13
REMARK SMILES IDX 80 14 75 15 78 16 81 17 76 18 79 19 77 20 84 21 85 22 86 23
REMARK SMILES IDX 87 24 7 25 8 26 9 27 10 29 11 30 12 31 70 32 13 33 69 34
REMARK SMILES IDX 14 35 15 36 16 37 63 38 17 39 68 40 62 41 64 42 18 43 67 44
REMARK SMILES IDX 61 45 60 46 19 48 49 49 30 50 48 51 31 52 34 53 47 54 65 55
REMARK SMILES IDX 32 56 33 57 46 59 66 60 35 61 20 62 21 63 29 64 22 65 28 66
REMARK SMILES IDX 23 67 24 68 25 69 26 70 27 71 50 72 51 73 59 74 52 75 58 76
REMARK SMILES IDX 53 77 54 78 55 79 56 80 57 81 36 82 37 83 45 84 38 85 44 86
REMARK SMILES IDX 39 87 40 88 41 89 42 90 43 91
REMARK H PARENT 3 7 8 28 64 47 34 58
REMARK Flexibility Score: inf
ROOT
ATOM      1  C   UNL A   1      32.171  28.963  26.136  1.00  0.00     0.023 C 
ENDROOT
BRANCH   1   2
ATOM      2  C   UNL A   1      32.314  28.408  24.723  1.00  0.00     0.023 C 
BRANCH   2   3
ATOM      3  C   UNL A   1      33.694  27.892  24.341  1.00  0.00     0.116 C 
BRANCH   3   4
ATOM      4  N   UNL A   1      33.736  26.904  23.278  1.00  0.00    -0.352 N 
ATOM      5  O   UNL A   1      33.784  24.822  22.392  1.00  0.00    -0.270 OA
ATOM      6  C   UNL A   1      33.663  25.536  23.382  1.00  0.00     0.251 C 
ATOM      7  H   UNL A   1      33.827  27.260  22.365  1.00  0.00     0.163 HD
BRANCH   6   8
ATOM      8  C   UNL A   1      33.489  24.898  24.718  1.00  0.00     0.067 C 
ATOM      9  C   UNL A   1      34.607  24.427  25.288  1.00  0.00     0.027 C 
ATOM     10  C   UNL A   1      32.147  24.256  24.942  1.00  0.00     0.314 C 
ATOM     11  C   UNL A   1      34.653  22.956  25.395  1.00  0.00     0.037 A 
ATOM     12  O   UNL A   1      32.216  22.829  25.233  1.00  0.00    -0.475 OA
ATOM     13  C   UNL A   1      33.453  22.242  25.288  1.00  0.00     0.131 A 
ATOM     14  C   UNL A   1      35.886  22.271  25.361  1.00  0.00     0.072 A 
ATOM     15  C   UNL A   1      33.478  20.862  25.107  1.00  0.00     0.069 A 
ATOM     16  C   UNL A   1      35.912  20.883  25.140  1.00  0.00     0.079 A 
ATOM     17  Cl  UNL A   1      37.366  23.178  25.495  1.00  0.00    -0.082 Cl
ATOM     18  C   UNL A   1      34.699  20.191  24.998  1.00  0.00     0.064 A 
ATOM     19  Cl  UNL A   1      37.423  20.045  24.975  1.00  0.00    -0.081 Cl
ATOM     20  Cl  UNL A   1      34.629  18.505  24.620  1.00  0.00    -0.083 Cl
BRANCH  10  21
ATOM     21  C   UNL A   1      31.347  24.986  26.042  1.00  0.00     0.429 C 
ATOM     22  F   UNL A   1      30.696  24.143  26.875  1.00  0.00    -0.167 F 
ATOM     23  F   UNL A   1      32.163  25.751  26.808  1.00  0.00    -0.167 F 
ATOM     24  F   UNL A   1      30.408  25.812  25.517  1.00  0.00    -0.167 F 
ENDBRANCH  10  21
ENDBRANCH   6   8
ENDBRANCH   3   4
ENDBRANCH   2   3
ENDBRANCH   1   2
BRANCH   1  25
ATOM     25  C   UNL A   1      33.462  29.200  26.918  1.00  0.00     0.116 C 
BRANCH  25  26
ATOM     26  N   UNL A   1      33.499  30.443  27.678  1.00  0.00    -0.352 N 
ATOM     27  C   UNL A   1      34.530  30.981  28.424  1.00  0.00     0.251 C 
ATOM     28  H   UNL A   1      32.670  30.975  27.657  1.00  0.00     0.163 HD
ATOM     29  O   UNL A   1      34.364  32.031  29.029  1.00  0.00    -0.269 OA
BRANCH  27  30
ATOM     30  C   UNL A   1      35.806  30.239  28.551  1.00  0.00     0.039 A 
ATOM     31  C   UNL A   1      36.654  30.172  27.441  1.00  0.00     0.014 A 
ATOM     32  C   UNL A   1      36.208  29.699  29.774  1.00  0.00     0.014 A 
ATOM     33  C   UNL A   1      37.955  29.685  27.593  1.00  0.00     0.010 A 
ATOM     34  C   UNL A   1      37.528  29.286  29.942  1.00  0.00     0.010 A 
ATOM     35  C   UNL A   1      38.425  29.307  28.861  1.00  0.00    -0.014 A 
BRANCH  35  36
ATOM     36  C   UNL A   1      39.862  29.002  29.098  1.00  0.00     0.031 A 
ATOM     37  C   UNL A   1      40.801  30.076  29.572  1.00  0.00     0.074 A 
ATOM     38  C   UNL A   1      40.341  27.781  28.779  1.00  0.00     0.049 A 
ATOM     39  N   UNL A   1      42.099  30.026  29.724  1.00  0.00    -0.248 NA
ATOM     40  C   UNL A   1      40.209  31.387  29.886  1.00  0.00     0.031 C 
ATOM     41  C   UNL A   1      39.545  26.665  28.254  1.00  0.00     0.029 A 
ATOM     42  N   UNL A   1      41.616  27.274  28.832  1.00  0.00    -0.354 N 
ATOM     43  C   UNL A   1      42.484  31.302  30.117  1.00  0.00     0.074 A 
ATOM     44  C   UNL A   1      41.286  32.112  30.155  1.00  0.00     0.031 C 
ATOM     45  C   UNL A   1      40.347  25.607  28.051  1.00  0.00     0.029 A 
ATOM     46  C   UNL A   1      41.717  25.974  28.390  1.00  0.00     0.049 A 
ATOM     47  H   UNL A   1      42.388  27.793  29.155  1.00  0.00     0.167 HD
ATOM     48  C   UNL A   1      43.722  31.755  30.428  1.00  0.00     0.031 A 
ATOM     49  C   UNL A   1      42.790  25.170  28.262  1.00  0.00     0.031 A 
ATOM     50  C   UNL A   1      44.906  30.939  30.426  1.00  0.00     0.049 A 
ATOM     51  C   UNL A   1      44.149  25.691  28.645  1.00  0.00     0.074 A 
ATOM     52  C   UNL A   1      46.190  31.287  30.812  1.00  0.00     0.029 A 
ATOM     53  N   UNL A   1      44.955  29.615  30.020  1.00  0.00    -0.354 N 
ATOM     54  N   UNL A   1      44.476  26.877  29.096  1.00  0.00    -0.248 NA
ATOM     55  C   UNL A   1      45.281  24.762  28.509  1.00  0.00     0.031 C 
ATOM     56  C   UNL A   1      47.023  30.184  30.602  1.00  0.00     0.029 A 
ATOM     57  C   UNL A   1      46.251  29.137  30.126  1.00  0.00     0.049 A 
ATOM     58  H   UNL A   1      44.184  29.092  29.702  1.00  0.00     0.167 HD
ATOM     59  C   UNL A   1      45.847  26.828  29.324  1.00  0.00     0.074 A 
ATOM     60  C   UNL A   1      46.285  25.494  28.972  1.00  0.00     0.031 C 
ATOM     61  C   UNL A   1      46.668  27.803  29.786  1.00  0.00     0.031 A 
BRANCH  48  62
ATOM     62  C   UNL A   1      43.864  33.206  30.797  1.00  0.00    -0.014 A 
ATOM     63  C   UNL A   1      43.761  33.630  32.133  1.00  0.00     0.010 A 
ATOM     64  C   UNL A   1      44.166  34.151  29.799  1.00  0.00     0.010 A 
ATOM     65  C   UNL A   1      43.925  34.978  32.462  1.00  0.00     0.020 A 
ATOM     66  C   UNL A   1      44.353  35.497  30.126  1.00  0.00     0.020 A 
ATOM     67  C   UNL A   1      44.218  35.904  31.455  1.00  0.00     0.054 A 
BRANCH  67  68
ATOM     68  S   UNL A   1      44.463  37.642  31.913  1.00  0.00     0.124 S 
ATOM     69  O   UNL A   1      43.872  38.338  30.773  1.00  0.00    -0.237 OA
ATOM     70  O   UNL A   1      43.722  37.751  33.168  1.00  0.00    -0.237 OA
ATOM     71  O   UNL A   1      45.912  37.767  32.037  1.00  0.00    -0.744 OA
ENDBRANCH  67  68
ENDBRANCH  48  62
BRANCH  49  72
ATOM     72  C   UNL A   1      42.633  23.781  27.749  1.00  0.00    -0.014 A 
ATOM     73  C   UNL A   1      42.794  23.506  26.379  1.00  0.00     0.010 A 
ATOM     74  C   UNL A   1      42.302  22.729  28.622  1.00  0.00     0.010 A 
ATOM     75  C   UNL A   1      42.598  22.213  25.887  1.00  0.00     0.020 A 
ATOM     76  C   UNL A   1      42.130  21.429  28.137  1.00  0.00     0.020 A 
ATOM     77  C   UNL A   1      42.263  21.183  26.769  1.00  0.00     0.054 A 
BRANCH  77  78
ATOM     78  S   UNL A   1      42.039  19.504  26.118  1.00  0.00     0.124 S 
ATOM     79  O   UNL A   1      42.965  19.490  24.991  1.00  0.00    -0.237 OA
ATOM     80  O   UNL A   1      42.414  18.668  27.257  1.00  0.00    -0.237 OA
ATOM     81  O   UNL A   1      40.621  19.462  25.767  1.00  0.00    -0.744 OA
ENDBRANCH  77  78
ENDBRANCH  49  72
BRANCH  61  82
ATOM     82  C   UNL A   1      48.117  27.454  29.977  1.00  0.00    -0.014 A 
ATOM     83  C   UNL A   1      49.065  27.709  28.971  1.00  0.00     0.010 A 
ATOM     84  C   UNL A   1      48.545  26.927  31.209  1.00  0.00     0.010 A 
ATOM     85  C   UNL A   1      50.415  27.422  29.187  1.00  0.00     0.020 A 
ATOM     86  C   UNL A   1      49.897  26.660  31.437  1.00  0.00     0.020 A 
ATOM     87  C   UNL A   1      50.823  26.900  30.420  1.00  0.00     0.054 A 
BRANCH  87  88
ATOM     88  S   UNL A   1      52.588  26.592  30.700  1.00  0.00     0.124 S 
ATOM     89  O   UNL A   1      52.557  25.432  31.585  1.00  0.00    -0.237 OA
ATOM     90  O   UNL A   1      53.091  26.340  29.352  1.00  0.00    -0.237 OA
ATOM     91  O   UNL A   1      53.062  27.832  31.312  1.00  0.00    -0.744 OA
ENDBRANCH  87  88
ENDBRANCH  61  82
ENDBRANCH  35  36
ENDBRANCH  27  30
ENDBRANCH  25  26
ENDBRANCH   1  25
TORSDOF 15
ENDMDL
MODEL 2
REMARK VINA RESULT:     -11.6      3.336      9.349
REMARK SMILES O=C(NCCCCNC(=O)c1ccc(-c2c3nc(c(-c4ccc(S(=O)(=O)[O-])cc4)c4ccc([nH]4)c(-c4ccc(S(=O)(=O)[O-])cc4)c4nc(c(-c5ccc(S(=O)(=O)[O-])cc5)c5ccc2[nH]5)C=C4)C=C3)cc1)C1=Cc2c(cc(Cl)c(Cl)c2Cl)O[C@H]1C(F)(F)F
REMARK SMILES IDX 6 1 5 2 4 3 3 4 1 5 2 6 71 8 72 9 83 10 73 11 82 12 74 13
REMARK SMILES IDX 80 14 75 15 78 16 81 17 76 18 79 19 77 20 84 21 85 22 86 23
REMARK SMILES IDX 87 24 7 25 8 26 9 27 10 29 11 30 12 31 70 32 13 33 69 34
REMARK SMILES IDX 14 35 15 36 16 37 63 38 17 39 68 40 62 41 64 42 18 43 67 44
REMARK SMILES IDX 61 45 60 46 19 48 49 49 30 50 48 51 31 52 34 53 47 54 65 55
REMARK SMILES IDX 32 56 33 57 46 59 66 60 35 61 20 62 21 63 29 64 22 65 28 66
REMARK SMILES IDX 23 67 24 68 25 69 26 70 27 71 50 72 51 73 59 74 52 75 58 76
REMARK SMILES IDX 53 77 54 78 55 79 56 80 57 81 36 82 37 83 45 84 38 85 44 86
REMARK SMILES IDX 39 87 40 88 41 89 42 90 43 91
REMARK H PARENT 3 7 8 28 64 47 34 58
REMARK Flexibility Score: inf
ROOT
ATOM      1  C   UNL A   1      35.928  21.956  25.752  1.00  0.00     0.023 C 
ENDROOT
BRANCH   1   2
ATOM      2  C   UNL A   1      35.028  22.096  26.975  1.00  0.00     0.023 C 
BRANCH   2   3
ATOM      3  C   UNL A   1      33.677  21.399  26.898  1.00  0.00     0.116 C 
BRANCH   3   4
ATOM      4  N   UNL A   1      32.529  22.179  27.325  1.00  0.00    -0.352 N 
ATOM      5  O   UNL A   1      31.046  23.887  27.248  1.00  0.00    -0.270 OA
ATOM      6  C   UNL A   1      31.980  23.286  26.727  1.00  0.00     0.251 C 
ATOM      7  H   UNL A   1      32.087  21.874  28.151  1.00  0.00     0.163 HD
BRANCH   6   8
ATOM      8  C   UNL A   1      32.555  23.807  25.452  1.00  0.00     0.067 C 
ATOM      9  C   UNL A   1      33.121  25.021  25.523  1.00  0.00     0.027 C 
ATOM     10  C   UNL A   1      31.875  23.315  24.205  1.00  0.00     0.314 C 
ATOM     11  C   UNL A   1      32.393  26.067  24.780  1.00  0.00     0.037 A 
ATOM     12  O   UNL A   1      31.317  24.377  23.377  1.00  0.00    -0.475 OA
ATOM     13  C   UNL A   1      31.479  25.672  23.795  1.00  0.00     0.131 A 
ATOM     14  C   UNL A   1      32.432  27.411  25.208  1.00  0.00     0.072 A 
ATOM     15  C   UNL A   1      30.580  26.596  23.270  1.00  0.00     0.069 A 
ATOM     16  C   UNL A   1      31.499  28.334  24.705  1.00  0.00     0.079 A 
ATOM     17  Cl  UNL A   1      33.577  27.880  26.433  1.00  0.00    -0.082 Cl
ATOM     18  C   UNL A   1      30.565  27.910  23.747  1.00  0.00     0.064 A 
ATOM     19  Cl  UNL A   1      31.455  29.961  25.310  1.00  0.00    -0.081 Cl
ATOM     20  Cl  UNL A   1      29.314  28.942  23.146  1.00  0.00    -0.083 Cl
BRANCH  10  21
ATOM     21  C   UNL A   1      32.813  22.421  23.365  1.00  0.00     0.429 C 
ATOM     22  F   UNL A   1      34.091  22.864  23.342  1.00  0.00    -0.167 F 
ATOM     23  F   UNL A   1      32.840  21.156  23.849  1.00  0.00    -0.167 F 
ATOM     24  F   UNL A   1      32.409  22.342  22.073  1.00  0.00    -0.167 F 
ENDBRANCH  10  21
ENDBRANCH   6   8
ENDBRANCH   3   4
ENDBRANCH   2   3
ENDBRANCH   1   2
BRANCH   1  25
ATOM     25  C   UNL A   1      37.102  22.927  25.646  1.00  0.00     0.116 C 
BRANCH  25  26
ATOM     26  N   UNL A   1      38.419  22.303  25.689  1.00  0.00    -0.352 N 
ATOM     27  C   UNL A   1      39.607  22.802  26.190  1.00  0.00     0.251 C 
ATOM     28  H   UNL A   1      38.469  21.397  25.306  1.00  0.00     0.163 HD
ATOM     29  O   UNL A   1      40.631  22.139  26.107  1.00  0.00    -0.269 OA
BRANCH  27  30
ATOM     30  C   UNL A   1      39.646  24.171  26.752  1.00  0.00     0.039 A 
ATOM     31  C   UNL A   1      39.124  24.385  28.031  1.00  0.00     0.014 A 
ATOM     32  C   UNL A   1      40.277  25.213  26.069  1.00  0.00     0.014 A 
ATOM     33  C   UNL A   1      39.352  25.602  28.678  1.00  0.00     0.010 A 
ATOM     34  C   UNL A   1      40.570  26.397  26.743  1.00  0.00     0.010 A 
ATOM     35  C   UNL A   1      40.140  26.590  28.067  1.00  0.00    -0.014 A 
BRANCH  35  36
ATOM     36  C   UNL A   1      40.590  27.796  28.813  1.00  0.00     0.031 A 
ATOM     37  C   UNL A   1      41.921  27.808  29.512  1.00  0.00     0.074 A 
ATOM     38  C   UNL A   1      39.747  28.842  28.950  1.00  0.00     0.049 A 
ATOM     39  N   UNL A   1      42.429  28.721  30.299  1.00  0.00    -0.248 NA
ATOM     40  C   UNL A   1      42.780  26.627  29.328  1.00  0.00     0.031 C 
ATOM     41  C   UNL A   1      38.402  28.934  28.370  1.00  0.00     0.029 A 
ATOM     42  N   UNL A   1      39.887  30.024  29.636  1.00  0.00    -0.354 N 
ATOM     43  C   UNL A   1      43.648  28.212  30.731  1.00  0.00     0.074 A 
ATOM     44  C   UNL A   1      43.792  26.900  30.140  1.00  0.00     0.031 C 
ATOM     45  C   UNL A   1      37.853  30.111  28.711  1.00  0.00     0.029 A 
ATOM     46  C   UNL A   1      38.782  30.842  29.564  1.00  0.00     0.049 A 
ATOM     47  H   UNL A   1      40.702  30.264  30.134  1.00  0.00     0.167 HD
ATOM     48  C   UNL A   1      44.568  28.791  31.540  1.00  0.00     0.031 A 
ATOM     49  C   UNL A   1      38.538  32.042  30.128  1.00  0.00     0.031 A 
ATOM     50  C   UNL A   1      44.441  30.111  32.096  1.00  0.00     0.049 A 
ATOM     51  C   UNL A   1      39.592  32.673  30.996  1.00  0.00     0.074 A 
ATOM     52  C   UNL A   1      45.361  30.816  32.853  1.00  0.00     0.029 A 
ATOM     53  N   UNL A   1      43.328  30.925  31.957  1.00  0.00    -0.354 N 
ATOM     54  N   UNL A   1      40.774  32.210  31.321  1.00  0.00    -0.248 NA
ATOM     55  C   UNL A   1      39.282  33.993  31.565  1.00  0.00     0.031 C 
ATOM     56  C   UNL A   1      44.788  32.042  33.205  1.00  0.00     0.029 A 
ATOM     57  C   UNL A   1      43.529  32.117  32.632  1.00  0.00     0.049 A 
ATOM     58  H   UNL A   1      42.515  30.690  31.455  1.00  0.00     0.167 HD
ATOM     59  C   UNL A   1      41.360  33.193  32.111  1.00  0.00     0.074 A 
ATOM     60  C   UNL A   1      40.408  34.280  32.204  1.00  0.00     0.031 C 
ATOM     61  C   UNL A   1      42.579  33.195  32.703  1.00  0.00     0.031 A 
BRANCH  48  62
ATOM     62  C   UNL A   1      45.801  27.997  31.876  1.00  0.00    -0.014 A 
ATOM     63  C   UNL A   1      45.811  27.090  32.951  1.00  0.00     0.010 A 
ATOM     64  C   UNL A   1      46.946  28.116  31.067  1.00  0.00     0.010 A 
ATOM     65  C   UNL A   1      46.956  26.339  33.231  1.00  0.00     0.020 A 
ATOM     66  C   UNL A   1      48.085  27.350  31.330  1.00  0.00     0.020 A 
ATOM     67  C   UNL A   1      48.087  26.476  32.420  1.00  0.00     0.054 A 
BRANCH  67  68
ATOM     68  S   UNL A   1      49.547  25.462  32.782  1.00  0.00     0.124 S 
ATOM     69  O   UNL A   1      49.908  24.972  31.454  1.00  0.00    -0.237 OA
ATOM     70  O   UNL A   1      50.473  26.430  33.366  1.00  0.00    -0.237 OA
ATOM     71  O   UNL A   1      49.045  24.449  33.706  1.00  0.00    -0.744 OA
ENDBRANCH  67  68
ENDBRANCH  48  62
BRANCH  49  72
ATOM     72  C   UNL A   1      37.241  32.733  29.893  1.00  0.00    -0.014 A 
ATOM     73  C   UNL A   1      37.042  33.497  28.729  1.00  0.00     0.010 A 
ATOM     74  C   UNL A   1      36.204  32.650  30.839  1.00  0.00     0.010 A 
ATOM     75  C   UNL A   1      35.844  34.187  28.529  1.00  0.00     0.020 A 
ATOM     76  C   UNL A   1      34.994  33.319  30.631  1.00  0.00     0.020 A 
ATOM     77  C   UNL A   1      34.828  34.097  29.484  1.00  0.00     0.054 A 
BRANCH  77  78
ATOM     78  S   UNL A   1      33.268  34.978  29.196  1.00  0.00     0.124 S 
ATOM     79  O   UNL A   1      32.667  34.971  30.526  1.00  0.00    -0.237 OA
ATOM     80  O   UNL A   1      33.722  36.281  28.713  1.00  0.00    -0.237 OA
ATOM     81  O   UNL A   1      32.592  34.154  28.196  1.00  0.00    -0.744 OA
ENDBRANCH  77  78
ENDBRANCH  49  72
BRANCH  61  82
ATOM     82  C   UNL A   1      42.973  34.424  33.473  1.00  0.00    -0.014 A 
ATOM     83  C   UNL A   1      42.851  34.477  34.872  1.00  0.00     0.010 A 
ATOM     84  C   UNL A   1      43.539  35.516  32.789  1.00  0.00     0.010 A 
ATOM     85  C   UNL A   1      43.268  35.611  35.573  1.00  0.00     0.020 A 
ATOM     86  C   UNL A   1      43.978  36.642  33.489  1.00  0.00     0.020 A 
ATOM     87  C   UNL A   1      43.830  36.687  34.877  1.00  0.00     0.054 A 
BRANCH  87  88
ATOM     88  S   UNL A   1      44.421  38.123  35.813  1.00  0.00     0.124 S 
ATOM     89  O   UNL A   1      45.857  37.870  35.883  1.00  0.00    -0.237 OA
ATOM     90  O   UNL A   1      44.021  39.246  34.969  1.00  0.00    -0.237 OA
ATOM     91  O   UNL A   1      43.707  38.023  37.085  1.00  0.00    -0.744 OA
ENDBRANCH  87  88
ENDBRANCH  61  82
ENDBRANCH  35  36
ENDBRANCH  27  30
ENDBRANCH  25  26
ENDBRANCH   1  25
TORSDOF 15
ENDMDL
MODEL 3
REMARK VINA RESULT:     -11.6      1.135      1.960
REMARK SMILES O=C(NCCCCNC(=O)c1ccc(-c2c3nc(c(-c4ccc(S(=O)(=O)[O-])cc4)c4ccc([nH]4)c(-c4ccc(S(=O)(=O)[O-])cc4)c4nc(c(-c5ccc(S(=O)(=O)[O-])cc5)c5ccc2[nH]5)C=C4)C=C3)cc1)C1=Cc2c(cc(Cl)c(Cl)c2Cl)O[C@H]1C(F)(F)F
REMARK SMILES IDX 6 1 5 2 4 3 3 4 1 5 2 6 71 8 72 9 83 10 73 11 82 12 74 13
REMARK SMILES IDX 80 14 75 15 78 16 81 17 76 18 79 19 77 20 84 21 85 22 86 23
REMARK SMILES IDX 87 24 7 25 8 26 9 27 10 29 11 30 12 31 70 32 13 33 69 34
REMARK SMILES IDX 14 35 15 36 16 37 63 38 17 39 68 40 62 41 64 42 18 43 67 44
REMARK SMILES IDX 61 45 60 46 19 48 49 49 30 50 48 51 31 52 34 53 47 54 65 55
REMARK SMILES IDX 32 56 33 57 46 59 66 60 35 61 20 62 21 63 29 64 22 65 28 66
REMARK SMILES IDX 23 67 24 68 25 69 26 70 27 71 50 72 51 73 59 74 52 75 58 76
REMARK SMILES IDX 53 77 54 78 55 79 56 80 57 81 36 82 37 83 45 84 38 85 44 86
REMARK SMILES IDX 39 87 40 88 41 89 42 90 43 91
REMARK H PARENT 3 7 8 28 64 47 34 58
REMARK Flexibility Score: inf
ROOT
ATOM      1  C   UNL A   1      31.882  28.275  27.338  1.00  0.00     0.023 C 
ENDROOT
BRANCH   1   2
ATOM      2  C   UNL A   1      31.117  27.978  26.054  1.00  0.00     0.023 C 
BRANCH   2   3
ATOM      3  C   UNL A   1      30.592  26.557  25.898  1.00  0.00     0.116 C 
BRANCH   3   4
ATOM      4  N   UNL A   1      31.134  25.571  26.815  1.00  0.00    -0.352 N 
ATOM      5  O   UNL A   1      32.337  23.751  27.419  1.00  0.00    -0.270 OA
ATOM      6  C   UNL A   1      32.022  24.557  26.549  1.00  0.00     0.251 C 
ATOM      7  H   UNL A   1      30.826  25.638  27.748  1.00  0.00     0.163 HD
BRANCH   6   8
ATOM      8  C   UNL A   1      32.576  24.392  25.174  1.00  0.00     0.067 C 
ATOM      9  C   UNL A   1      32.413  23.180  24.623  1.00  0.00     0.027 C 
ATOM     10  C   UNL A   1      33.766  25.257  24.864  1.00  0.00     0.314 C 
ATOM     11  C   UNL A   1      33.670  22.431  24.439  1.00  0.00     0.037 A 
ATOM     12  O   UNL A   1      34.962  24.507  24.499  1.00  0.00    -0.475 OA
ATOM     13  C   UNL A   1      34.878  23.139  24.460  1.00  0.00     0.131 A 
ATOM     14  C   UNL A   1      33.680  21.020  24.483  1.00  0.00     0.072 A 
ATOM     15  C   UNL A   1      36.085  22.454  24.567  1.00  0.00     0.069 A 
ATOM     16  C   UNL A   1      34.896  20.331  24.630  1.00  0.00     0.079 A 
ATOM     17  Cl  UNL A   1      32.166  20.160  24.456  1.00  0.00    -0.082 Cl
ATOM     18  C   UNL A   1      36.093  21.062  24.687  1.00  0.00     0.064 A 
ATOM     19  Cl  UNL A   1      34.913  18.604  24.808  1.00  0.00    -0.081 Cl
ATOM     20  Cl  UNL A   1      37.626  20.313  24.970  1.00  0.00    -0.083 Cl
BRANCH  10  21
ATOM     21  C   UNL A   1      33.439  26.301  23.775  1.00  0.00     0.429 C 
ATOM     22  F   UNL A   1      32.147  26.268  23.377  1.00  0.00    -0.167 F 
ATOM     23  F   UNL A   1      33.687  27.557  24.219  1.00  0.00    -0.167 F 
ATOM     24  F   UNL A   1      34.191  26.119  22.662  1.00  0.00    -0.167 F 
ENDBRANCH  10  21
ENDBRANCH   6   8
ENDBRANCH   3   4
ENDBRANCH   2   3
ENDBRANCH   1   2
BRANCH   1  25
ATOM     25  C   UNL A   1      33.271  28.894  27.187  1.00  0.00     0.116 C 
BRANCH  25  26
ATOM     26  N   UNL A   1      33.399  30.247  27.714  1.00  0.00    -0.352 N 
ATOM     27  C   UNL A   1      34.498  30.863  28.281  1.00  0.00     0.251 C 
ATOM     28  H   UNL A   1      32.586  30.800  27.659  1.00  0.00     0.163 HD
ATOM     29  O   UNL A   1      34.408  32.007  28.704  1.00  0.00    -0.269 OA
BRANCH  27  30
ATOM     30  C   UNL A   1      35.760  30.104  28.445  1.00  0.00     0.039 A 
ATOM     31  C   UNL A   1      36.659  30.063  27.376  1.00  0.00     0.014 A 
ATOM     32  C   UNL A   1      36.096  29.521  29.668  1.00  0.00     0.014 A 
ATOM     33  C   UNL A   1      37.947  29.557  27.574  1.00  0.00     0.010 A 
ATOM     34  C   UNL A   1      37.403  29.087  29.885  1.00  0.00     0.010 A 
ATOM     35  C   UNL A   1      38.351  29.134  28.849  1.00  0.00    -0.014 A 
BRANCH  35  36
ATOM     36  C   UNL A   1      39.772  28.805  29.145  1.00  0.00     0.031 A 
ATOM     37  C   UNL A   1      40.694  29.850  29.710  1.00  0.00     0.074 A 
ATOM     38  C   UNL A   1      40.257  27.593  28.800  1.00  0.00     0.049 A 
ATOM     39  N   UNL A   1      41.983  29.781  29.925  1.00  0.00    -0.248 NA
ATOM     40  C   UNL A   1      40.097  31.152  30.049  1.00  0.00     0.031 C 
ATOM     41  C   UNL A   1      39.481  26.508  28.190  1.00  0.00     0.029 A 
ATOM     42  N   UNL A   1      41.525  27.073  28.896  1.00  0.00    -0.354 N 
ATOM     43  C   UNL A   1      42.357  31.036  30.390  1.00  0.00     0.074 A 
ATOM     44  C   UNL A   1      41.165  31.855  30.402  1.00  0.00     0.031 C 
ATOM     45  C   UNL A   1      40.285  25.452  27.983  1.00  0.00     0.029 A 
ATOM     46  C   UNL A   1      41.638  25.791  28.406  1.00  0.00     0.049 A 
ATOM     47  H   UNL A   1      42.284  27.571  29.278  1.00  0.00     0.167 HD
ATOM     48  C   UNL A   1      43.581  31.464  30.781  1.00  0.00     0.031 A 
ATOM     49  C   UNL A   1      42.711  24.983  28.298  1.00  0.00     0.031 A 
ATOM     50  C   UNL A   1      44.758  30.637  30.804  1.00  0.00     0.049 A 
ATOM     51  C   UNL A   1      44.051  25.474  28.770  1.00  0.00     0.074 A 
ATOM     52  C   UNL A   1      46.023  30.957  31.268  1.00  0.00     0.029 A 
ATOM     53  N   UNL A   1      44.817  29.331  30.346  1.00  0.00    -0.354 N 
ATOM     54  N   UNL A   1      44.364  26.638  29.286  1.00  0.00    -0.248 NA
ATOM     55  C   UNL A   1      45.182  24.542  28.652  1.00  0.00     0.031 C 
ATOM     56  C   UNL A   1      46.857  29.855  31.055  1.00  0.00     0.029 A 
ATOM     57  C   UNL A   1      46.102  28.836  30.497  1.00  0.00     0.049 A 
ATOM     58  H   UNL A   1      44.059  28.829  29.969  1.00  0.00     0.167 HD
ATOM     59  C   UNL A   1      45.722  26.567  29.580  1.00  0.00     0.074 A 
ATOM     60  C   UNL A   1      46.167  25.244  29.195  1.00  0.00     0.031 C 
ATOM     61  C   UNL A   1      46.526  27.513  30.123  1.00  0.00     0.031 A 
BRANCH  48  62
ATOM     62  C   UNL A   1      43.715  32.897  31.216  1.00  0.00    -0.014 A 
ATOM     63  C   UNL A   1      43.678  33.249  32.577  1.00  0.00     0.010 A 
ATOM     64  C   UNL A   1      43.943  33.898  30.254  1.00  0.00     0.010 A 
ATOM     65  C   UNL A   1      43.834  34.583  32.966  1.00  0.00     0.020 A 
ATOM     66  C   UNL A   1      44.122  35.229  30.640  1.00  0.00     0.020 A 
ATOM     67  C   UNL A   1      44.052  35.565  31.995  1.00  0.00     0.054 A 
BRANCH  67  68
ATOM     68  S   UNL A   1      44.289  37.282  32.529  1.00  0.00     0.124 S 
ATOM     69  O   UNL A   1      45.565  37.203  33.236  1.00  0.00    -0.237 OA
ATOM     70  O   UNL A   1      44.317  38.011  31.263  1.00  0.00    -0.237 OA
ATOM     71  O   UNL A   1      43.125  37.547  33.370  1.00  0.00    -0.744 OA
ENDBRANCH  67  68
ENDBRANCH  48  62
BRANCH  49  72
ATOM     72  C   UNL A   1      42.569  23.618  27.720  1.00  0.00    -0.014 A 
ATOM     73  C   UNL A   1      42.266  22.522  28.550  1.00  0.00     0.010 A 
ATOM     74  C   UNL A   1      42.753  23.401  26.344  1.00  0.00     0.010 A 
ATOM     75  C   UNL A   1      42.181  21.233  28.019  1.00  0.00     0.020 A 
ATOM     76  C   UNL A   1      42.644  22.116  25.804  1.00  0.00     0.020 A 
ATOM     77  C   UNL A   1      42.375  21.037  26.649  1.00  0.00     0.054 A 
BRANCH  77  78
ATOM     78  S   UNL A   1      42.234  19.360  25.970  1.00  0.00     0.124 S 
ATOM     79  O   UNL A   1      43.069  19.446  24.777  1.00  0.00    -0.237 OA
ATOM     80  O   UNL A   1      42.761  18.532  27.054  1.00  0.00    -0.237 OA
ATOM     81  O   UNL A   1      40.801  19.211  25.727  1.00  0.00    -0.744 OA
ENDBRANCH  77  78
ENDBRANCH  49  72
BRANCH  61  82
ATOM     82  C   UNL A   1      47.961  27.143  30.372  1.00  0.00    -0.014 A 
ATOM     83  C   UNL A   1      48.970  27.485  29.454  1.00  0.00     0.010 A 
ATOM     84  C   UNL A   1      48.312  26.504  31.575  1.00  0.00     0.010 A 
ATOM     85  C   UNL A   1      50.304  27.175  29.728  1.00  0.00     0.020 A 
ATOM     86  C   UNL A   1      49.647  26.212  31.862  1.00  0.00     0.020 A 
ATOM     87  C   UNL A   1      50.635  26.541  30.930  1.00  0.00     0.054 A 
BRANCH  87  88
ATOM     88  S   UNL A   1      52.379  26.202  31.291  1.00  0.00     0.124 S 
ATOM     89  O   UNL A   1      52.973  26.214  29.957  1.00  0.00    -0.237 OA
ATOM     90  O   UNL A   1      52.754  27.318  32.155  1.00  0.00    -0.237 OA
ATOM     91  O   UNL A   1      52.349  24.896  31.949  1.00  0.00    -0.744 OA
ENDBRANCH  87  88
ENDBRANCH  61  82
ENDBRANCH  35  36
ENDBRANCH  27  30
ENDBRANCH  25  26
ENDBRANCH   1  25
TORSDOF 15
ENDMDL
