MODEL 1
REMARK VINA RESULT:     -11.1      0.000      0.000
REMARK SMILES C[C@]1(C(=O)N2CCC(CC(=O)NCCCCNC(=O)c3ccc(-c4c5nc(c(-c6ccc(S(=O)(=O)[O-])cc6)c6ccc([nH]6)c(-c6ccc(S(=O)(=O)[O-])cc6)c6nc(c(-c7ccc(S(=O)(=O)[O-])cc7)c7ccc4[nH]7)C=C6)C=C5)cc3)CC2)CCC[NH2+]1
REMARK SMILES IDX 15 1 14 2 13 3 12 4 10 5 11 6 9 8 8 9 3 10 4 11 5 12 6 13
REMARK SMILES IDX 81 14 7 15 80 16 2 17 1 18 82 19 85 20 83 21 84 22 16 25
REMARK SMILES IDX 17 26 18 27 19 29 20 30 21 31 79 32 22 33 78 34 23 35 24 36
REMARK SMILES IDX 25 37 72 38 26 39 77 40 71 41 73 42 27 43 76 44 70 45 69 46
REMARK SMILES IDX 28 48 58 49 39 50 57 51 40 52 43 53 56 54 74 55 41 56 42 57
REMARK SMILES IDX 55 59 75 60 44 61 29 62 30 63 38 64 31 65 37 66 32 67 33 68
REMARK SMILES IDX 34 69 35 70 36 71 59 72 60 73 68 74 61 75 67 76 62 77 63 78
REMARK SMILES IDX 64 79 65 80 66 81 45 82 46 83 54 84 47 85 53 86 48 87 49 88
REMARK SMILES IDX 50 89 51 90 52 91
REMARK H PARENT 12 7 85 23 85 24 17 28 73 47 43 58
REMARK Flexibility Score: inf
ROOT
ATOM      1  C   UNL A   1      33.481  28.427  25.739  1.00  0.00     0.023 C 
ENDROOT
BRANCH   1   2
ATOM      2  C   UNL A   1      32.812  29.593  25.037  1.00  0.00     0.023 C 
BRANCH   2   3
ATOM      3  C   UNL A   1      31.278  29.568  25.013  1.00  0.00     0.116 C 
BRANCH   3   4
ATOM      4  N   UNL A   1      30.753  29.575  23.655  1.00  0.00    -0.356 N 
ATOM      5  C   UNL A   1      30.227  28.568  22.898  1.00  0.00     0.220 C 
ATOM      6  O   UNL A   1      29.882  28.823  21.742  1.00  0.00    -0.275 OA
ATOM      7  H   UNL A   1      30.782  30.452  23.208  1.00  0.00     0.163 HD
BRANCH   5   8
ATOM      8  C   UNL A   1      30.081  27.156  23.450  1.00  0.00     0.103 C 
BRANCH   8   9
ATOM      9  C   UNL A   1      31.062  26.144  22.820  1.00  0.00     0.002 C 
ATOM     10  C   UNL A   1      34.180  24.277  24.392  1.00  0.00     0.283 C 
ATOM     11  O   UNL A   1      34.136  25.045  25.353  1.00  0.00    -0.268 OA
ATOM     12  N   UNL A   1      33.410  24.477  23.253  1.00  0.00    -0.337 N 
ATOM     13  C   UNL A   1      33.585  25.709  22.526  1.00  0.00     0.120 C 
ATOM     14  C   UNL A   1      32.115  23.841  23.095  1.00  0.00     0.120 C 
ATOM     15  C   UNL A   1      32.486  26.694  22.855  1.00  0.00     0.026 C 
ATOM     16  C   UNL A   1      30.989  24.782  23.535  1.00  0.00     0.026 C 
BRANCH  10  17
ATOM     17  C   UNL A   1      35.101  23.028  24.330  1.00  0.00     0.173 C 
ATOM     18  C   UNL A   1      35.881  23.021  23.010  1.00  0.00     0.090 C 
ATOM     19  C   UNL A   1      35.998  22.898  25.564  1.00  0.00     0.084 C 
ATOM     20  N   UNL A   1      34.272  21.810  24.476  1.00  0.00    -0.334 N 
ATOM     21  C   UNL A   1      36.285  21.411  25.674  1.00  0.00     0.068 C 
ATOM     22  C   UNL A   1      35.097  20.736  25.009  1.00  0.00     0.261 C 
ATOM     23  H   UNL A   1      33.901  21.537  23.566  1.00  0.00     0.347 HD
ATOM     24  H   UNL A   1      33.495  21.995  25.111  1.00  0.00     0.347 HD
ENDBRANCH  10  17
ENDBRANCH   8   9
ENDBRANCH   5   8
ENDBRANCH   3   4
ENDBRANCH   2   3
ENDBRANCH   1   2
BRANCH   1  25
ATOM     25  C   UNL A   1      33.583  28.584  27.241  1.00  0.00     0.116 C 
BRANCH  25  26
ATOM     26  N   UNL A   1      33.522  29.969  27.690  1.00  0.00    -0.352 N 
ATOM     27  C   UNL A   1      34.510  30.725  28.287  1.00  0.00     0.251 C 
ATOM     28  H   UNL A   1      32.661  30.424  27.550  1.00  0.00     0.163 HD
ATOM     29  O   UNL A   1      34.280  31.850  28.688  1.00  0.00    -0.269 OA
BRANCH  27  30
ATOM     30  C   UNL A   1      35.844  30.114  28.468  1.00  0.00     0.039 A 
ATOM     31  C   UNL A   1      36.762  30.168  27.418  1.00  0.00     0.014 A 
ATOM     32  C   UNL A   1      36.209  29.580  29.705  1.00  0.00     0.014 A 
ATOM     33  C   UNL A   1      38.077  29.758  27.640  1.00  0.00     0.010 A 
ATOM     34  C   UNL A   1      37.541  29.288  29.955  1.00  0.00     0.010 A 
ATOM     35  C   UNL A   1      38.487  29.359  28.922  1.00  0.00    -0.014 A 
BRANCH  35  36
ATOM     36  C   UNL A   1      39.891  28.977  29.209  1.00  0.00     0.031 A 
ATOM     37  C   UNL A   1      40.821  29.988  29.826  1.00  0.00     0.074 A 
ATOM     38  C   UNL A   1      40.348  27.763  28.842  1.00  0.00     0.049 A 
ATOM     39  N   UNL A   1      42.100  29.886  30.076  1.00  0.00    -0.248 NA
ATOM     40  C   UNL A   1      40.248  31.302  30.165  1.00  0.00     0.031 C 
ATOM     41  C   UNL A   1      39.562  26.723  28.169  1.00  0.00     0.029 A 
ATOM     42  N   UNL A   1      41.592  27.200  28.976  1.00  0.00    -0.354 N 
ATOM     43  C   UNL A   1      42.487  31.129  30.563  1.00  0.00     0.074 A 
ATOM     44  C   UNL A   1      41.325  31.986  30.520  1.00  0.00     0.031 C 
ATOM     45  C   UNL A   1      40.335  25.640  27.980  1.00  0.00     0.029 A 
ATOM     46  C   UNL A   1      41.675  25.918  28.484  1.00  0.00     0.049 A 
ATOM     47  H   UNL A   1      42.354  27.670  29.385  1.00  0.00     0.167 HD
ATOM     48  C   UNL A   1      43.696  31.517  31.032  1.00  0.00     0.031 A 
ATOM     49  C   UNL A   1      42.715  25.063  28.449  1.00  0.00     0.031 A 
ATOM     50  C   UNL A   1      44.834  30.646  31.121  1.00  0.00     0.049 A 
ATOM     51  C   UNL A   1      44.031  25.495  29.036  1.00  0.00     0.074 A 
ATOM     52  C   UNL A   1      46.081  30.910  31.660  1.00  0.00     0.029 A 
ATOM     53  N   UNL A   1      44.859  29.335  30.670  1.00  0.00    -0.354 N 
ATOM     54  N   UNL A   1      44.357  26.650  29.564  1.00  0.00    -0.248 NA
ATOM     55  C   UNL A   1      45.114  24.501  29.039  1.00  0.00     0.031 C 
ATOM     56  C   UNL A   1      46.872  29.768  31.502  1.00  0.00     0.029 A 
ATOM     57  C   UNL A   1      46.103  28.780  30.908  1.00  0.00     0.049 A 
ATOM     58  H   UNL A   1      44.104  28.869  30.244  1.00  0.00     0.167 HD
ATOM     59  C   UNL A   1      45.675  26.515  29.986  1.00  0.00     0.074 A 
ATOM     60  C   UNL A   1      46.079  25.160  29.666  1.00  0.00     0.031 C 
ATOM     61  C   UNL A   1      46.480  27.427  30.584  1.00  0.00     0.031 A 
BRANCH  48  62
ATOM     62  C   UNL A   1      43.838  32.943  31.492  1.00  0.00    -0.014 A 
ATOM     63  C   UNL A   1      43.523  33.315  32.812  1.00  0.00     0.010 A 
ATOM     64  C   UNL A   1      44.316  33.920  30.601  1.00  0.00     0.010 A 
ATOM     65  C   UNL A   1      43.642  34.647  33.220  1.00  0.00     0.020 A 
ATOM     66  C   UNL A   1      44.464  35.248  31.014  1.00  0.00     0.020 A 
ATOM     67  C   UNL A   1      44.109  35.605  32.316  1.00  0.00     0.054 A 
BRANCH  67  68
ATOM     68  S   UNL A   1      44.279  37.320  32.879  1.00  0.00     0.124 S 
ATOM     69  O   UNL A   1      44.238  38.056  31.618  1.00  0.00    -0.237 OA
ATOM     70  O   UNL A   1      43.116  37.493  33.745  1.00  0.00    -0.237 OA
ATOM     71  O   UNL A   1      45.569  37.333  33.565  1.00  0.00    -0.744 OA
ENDBRANCH  67  68
ENDBRANCH  48  62
BRANCH  49  72
ATOM     72  C   UNL A   1      42.545  23.703  27.867  1.00  0.00    -0.014 A 
ATOM     73  C   UNL A   1      41.981  22.666  28.631  1.00  0.00     0.010 A 
ATOM     74  C   UNL A   1      42.935  23.441  26.541  1.00  0.00     0.010 A 
ATOM     75  C   UNL A   1      41.833  21.385  28.088  1.00  0.00     0.020 A 
ATOM     76  C   UNL A   1      42.766  22.169  25.987  1.00  0.00     0.020 A 
ATOM     77  C   UNL A   1      42.227  21.145  26.770  1.00  0.00     0.054 A 
BRANCH  77  78
ATOM     78  S   UNL A   1      41.983  19.488  26.069  1.00  0.00     0.124 S 
ATOM     79  O   UNL A   1      42.474  18.630  27.143  1.00  0.00    -0.237 OA
ATOM     80  O   UNL A   1      40.541  19.451  25.838  1.00  0.00    -0.237 OA
ATOM     81  O   UNL A   1      42.800  19.508  24.858  1.00  0.00    -0.744 OA
ENDBRANCH  77  78
ENDBRANCH  49  72
BRANCH  61  82
ATOM     82  C   UNL A   1      47.864  26.981  30.964  1.00  0.00    -0.014 A 
ATOM     83  C   UNL A   1      48.122  26.399  32.217  1.00  0.00     0.010 A 
ATOM     84  C   UNL A   1      48.908  27.099  30.030  1.00  0.00     0.010 A 
ATOM     85  C   UNL A   1      49.413  25.975  32.542  1.00  0.00     0.020 A 
ATOM     86  C   UNL A   1      50.194  26.651  30.342  1.00  0.00     0.020 A 
ATOM     87  C   UNL A   1      50.441  26.106  31.603  1.00  0.00     0.054 A 
BRANCH  87  88
ATOM     88  S   UNL A   1      52.100  25.514  32.034  1.00  0.00     0.124 S 
ATOM     89  O   UNL A   1      52.365  26.234  33.277  1.00  0.00    -0.237 OA
ATOM     90  O   UNL A   1      51.903  24.074  32.171  1.00  0.00    -0.237 OA
ATOM     91  O   UNL A   1      52.918  25.918  30.892  1.00  0.00    -0.744 OA
ENDBRANCH  87  88
ENDBRANCH  61  82
ENDBRANCH  35  36
ENDBRANCH  27  30
ENDBRANCH  25  26
ENDBRANCH   1  25
TORSDOF 16
ENDMDL
MODEL 2
REMARK VINA RESULT:     -10.7      2.624      9.440
REMARK SMILES C[C@]1(C(=O)N2CCC(CC(=O)NCCCCNC(=O)c3ccc(-c4c5nc(c(-c6ccc(S(=O)(=O)[O-])cc6)c6ccc([nH]6)c(-c6ccc(S(=O)(=O)[O-])cc6)c6nc(c(-c7ccc(S(=O)(=O)[O-])cc7)c7ccc4[nH]7)C=C6)C=C5)cc3)CC2)CCC[NH2+]1
REMARK SMILES IDX 15 1 14 2 13 3 12 4 10 5 11 6 9 8 8 9 3 10 4 11 5 12 6 13
REMARK SMILES IDX 81 14 7 15 80 16 2 17 1 18 82 19 85 20 83 21 84 22 16 25
REMARK SMILES IDX 17 26 18 27 19 29 20 30 21 31 79 32 22 33 78 34 23 35 24 36
REMARK SMILES IDX 25 37 72 38 26 39 77 40 71 41 73 42 27 43 76 44 70 45 69 46
REMARK SMILES IDX 28 48 58 49 39 50 57 51 40 52 43 53 56 54 74 55 41 56 42 57
REMARK SMILES IDX 55 59 75 60 44 61 29 62 30 63 38 64 31 65 37 66 32 67 33 68
REMARK SMILES IDX 34 69 35 70 36 71 59 72 60 73 68 74 61 75 67 76 62 77 63 78
REMARK SMILES IDX 64 79 65 80 66 81 45 82 46 83 54 84 47 85 53 86 48 87 49 88
REMARK SMILES IDX 50 89 51 90 52 91
REMARK H PARENT 12 7 85 23 85 24 17 28 73 47 43 58
REMARK Flexibility Score: inf
ROOT
ATOM      1  C   UNL A   1      35.724  23.145  25.313  1.00  0.00     0.023 C 
ENDROOT
BRANCH   1   2
ATOM      2  C   UNL A   1      35.714  21.842  26.089  1.00  0.00     0.023 C 
BRANCH   2   3
ATOM      3  C   UNL A   1      35.558  20.566  25.252  1.00  0.00     0.116 C 
BRANCH   3   4
ATOM      4  N   UNL A   1      34.289  19.899  25.503  1.00  0.00    -0.356 N 
ATOM      5  C   UNL A   1      33.066  20.062  24.918  1.00  0.00     0.220 C 
ATOM      6  O   UNL A   1      32.121  19.394  25.342  1.00  0.00    -0.275 OA
ATOM      7  H   UNL A   1      34.316  19.218  26.213  1.00  0.00     0.163 HD
BRANCH   5   8
ATOM      8  C   UNL A   1      32.858  21.053  23.781  1.00  0.00     0.103 C 
BRANCH   8   9
ATOM      9  C   UNL A   1      31.763  22.102  24.071  1.00  0.00     0.002 C 
ATOM     10  C   UNL A   1      31.973  26.053  24.215  1.00  0.00     0.283 C 
ATOM     11  O   UNL A   1      33.202  25.972  24.228  1.00  0.00    -0.268 OA
ATOM     12  N   UNL A   1      31.160  24.936  24.356  1.00  0.00    -0.337 N 
ATOM     13  C   UNL A   1      31.291  24.152  25.559  1.00  0.00     0.120 C 
ATOM     14  C   UNL A   1      30.650  24.221  23.201  1.00  0.00     0.120 C 
ATOM     15  C   UNL A   1      32.124  22.916  25.312  1.00  0.00     0.026 C 
ATOM     16  C   UNL A   1      31.547  23.028  22.859  1.00  0.00     0.026 C 
BRANCH  10  17
ATOM     17  C   UNL A   1      31.201  27.392  24.063  1.00  0.00     0.173 C 
ATOM     18  C   UNL A   1      31.511  28.309  25.252  1.00  0.00     0.090 C 
ATOM     19  C   UNL A   1      31.441  28.059  22.706  1.00  0.00     0.084 C 
ATOM     20  N   UNL A   1      29.752  27.105  23.964  1.00  0.00    -0.334 N 
ATOM     21  C   UNL A   1      30.195  28.893  22.463  1.00  0.00     0.068 C 
ATOM     22  C   UNL A   1      29.100  28.194  23.251  1.00  0.00     0.261 C 
ATOM     23  H   UNL A   1      29.354  27.023  24.900  1.00  0.00     0.347 HD
ATOM     24  H   UNL A   1      29.607  26.229  23.463  1.00  0.00     0.347 HD
ENDBRANCH  10  17
ENDBRANCH   8   9
ENDBRANCH   5   8
ENDBRANCH   3   4
ENDBRANCH   2   3
ENDBRANCH   1   2
BRANCH   1  25
ATOM     25  C   UNL A   1      37.106  23.718  25.083  1.00  0.00     0.116 C 
BRANCH  25  26
ATOM     26  N   UNL A   1      38.184  22.785  25.385  1.00  0.00    -0.352 N 
ATOM     27  C   UNL A   1      39.320  22.997  26.140  1.00  0.00     0.251 C 
ATOM     28  H   UNL A   1      38.089  21.885  24.999  1.00  0.00     0.163 HD
ATOM     29  O   UNL A   1      40.179  22.141  26.231  1.00  0.00    -0.269 OA
BRANCH  27  30
ATOM     30  C   UNL A   1      39.488  24.312  26.795  1.00  0.00     0.039 A 
ATOM     31  C   UNL A   1      38.975  24.498  28.080  1.00  0.00     0.014 A 
ATOM     32  C   UNL A   1      40.234  25.315  26.175  1.00  0.00     0.014 A 
ATOM     33  C   UNL A   1      39.284  25.667  28.775  1.00  0.00     0.010 A 
ATOM     34  C   UNL A   1      40.637  26.419  26.911  1.00  0.00     0.010 A 
ATOM     35  C   UNL A   1      40.155  26.615  28.213  1.00  0.00    -0.014 A 
BRANCH  35  36
ATOM     36  C   UNL A   1      40.556  27.839  28.949  1.00  0.00     0.031 A 
ATOM     37  C   UNL A   1      41.895  27.884  29.635  1.00  0.00     0.074 A 
ATOM     38  C   UNL A   1      39.691  28.866  29.070  1.00  0.00     0.049 A 
ATOM     39  N   UNL A   1      42.399  28.819  30.399  1.00  0.00    -0.248 NA
ATOM     40  C   UNL A   1      42.764  26.705  29.481  1.00  0.00     0.031 C 
ATOM     41  C   UNL A   1      38.335  28.911  28.511  1.00  0.00     0.029 A 
ATOM     42  N   UNL A   1      39.821  30.072  29.711  1.00  0.00    -0.354 N 
ATOM     43  C   UNL A   1      43.620  28.323  30.841  1.00  0.00     0.074 A 
ATOM     44  C   UNL A   1      43.757  26.986  30.311  1.00  0.00     0.031 C 
ATOM     45  C   UNL A   1      37.774  30.095  28.808  1.00  0.00     0.029 A 
ATOM     46  C   UNL A   1      38.713  30.879  29.604  1.00  0.00     0.049 A 
ATOM     47  H   UNL A   1      40.633  30.334  30.203  1.00  0.00     0.167 HD
ATOM     48  C   UNL A   1      44.559  28.937  31.599  1.00  0.00     0.031 A 
ATOM     49  C   UNL A   1      38.483  32.114  30.090  1.00  0.00     0.031 A 
ATOM     50  C   UNL A   1      44.440  30.284  32.080  1.00  0.00     0.049 A 
ATOM     51  C   UNL A   1      39.567  32.800  30.874  1.00  0.00     0.074 A 
ATOM     52  C   UNL A   1      45.368  31.033  32.781  1.00  0.00     0.029 A 
ATOM     53  N   UNL A   1      43.328  31.091  31.896  1.00  0.00    -0.354 N 
ATOM     54  N   UNL A   1      40.748  32.345  31.217  1.00  0.00    -0.248 NA
ATOM     55  C   UNL A   1      39.295  34.174  31.321  1.00  0.00     0.031 C 
ATOM     56  C   UNL A   1      44.801  32.283  33.053  1.00  0.00     0.029 A 
ATOM     57  C   UNL A   1      43.540  32.326  32.480  1.00  0.00     0.049 A 
ATOM     58  H   UNL A   1      42.508  30.824  31.421  1.00  0.00     0.167 HD
ATOM     59  C   UNL A   1      41.372  33.385  31.898  1.00  0.00     0.074 A 
ATOM     60  C   UNL A   1      40.442  34.497  31.903  1.00  0.00     0.031 C 
ATOM     61  C   UNL A   1      42.601  33.419  32.468  1.00  0.00     0.031 A 
BRANCH  48  62
ATOM     62  C   UNL A   1      45.796  28.152  31.941  1.00  0.00    -0.014 A 
ATOM     63  C   UNL A   1      46.932  28.188  31.110  1.00  0.00     0.010 A 
ATOM     64  C   UNL A   1      45.836  27.389  33.122  1.00  0.00     0.010 A 
ATOM     65  C   UNL A   1      48.067  27.439  31.431  1.00  0.00     0.020 A 
ATOM     66  C   UNL A   1      46.981  26.662  33.460  1.00  0.00     0.020 A 
ATOM     67  C   UNL A   1      48.083  26.677  32.603  1.00  0.00     0.054 A 
BRANCH  67  68
ATOM     68  S   UNL A   1      49.579  25.737  33.009  1.00  0.00     0.124 S 
ATOM     69  O   UNL A   1      50.301  25.759  31.739  1.00  0.00    -0.237 OA
ATOM     70  O   UNL A   1      50.175  26.528  34.082  1.00  0.00    -0.237 OA
ATOM     71  O   UNL A   1      49.068  24.430  33.413  1.00  0.00    -0.744 OA
ENDBRANCH  67  68
ENDBRANCH  48  62
BRANCH  49  72
ATOM     72  C   UNL A   1      37.185  32.792  29.821  1.00  0.00    -0.014 A 
ATOM     73  C   UNL A   1      36.145  32.743  30.766  1.00  0.00     0.010 A 
ATOM     74  C   UNL A   1      36.986  33.501  28.622  1.00  0.00     0.010 A 
ATOM     75  C   UNL A   1      34.922  33.371  30.508  1.00  0.00     0.020 A 
ATOM     76  C   UNL A   1      35.773  34.150  28.371  1.00  0.00     0.020 A 
ATOM     77  C   UNL A   1      34.744  34.069  29.311  1.00  0.00     0.054 A 
BRANCH  77  78
ATOM     78  S   UNL A   1      33.165  34.915  29.016  1.00  0.00     0.124 S 
ATOM     79  O   UNL A   1      33.606  36.217  28.526  1.00  0.00    -0.237 OA
ATOM     80  O   UNL A   1      32.524  34.052  28.028  1.00  0.00    -0.237 OA
ATOM     81  O   UNL A   1      32.530  34.920  30.332  1.00  0.00    -0.744 OA
ENDBRANCH  77  78
ENDBRANCH  49  72
BRANCH  61  82
ATOM     82  C   UNL A   1      43.026  34.708  33.113  1.00  0.00    -0.014 A 
ATOM     83  C   UNL A   1      42.744  34.972  34.465  1.00  0.00     0.010 A 
ATOM     84  C   UNL A   1      43.764  35.644  32.367  1.00  0.00     0.010 A 
ATOM     85  C   UNL A   1      43.164  36.170  35.049  1.00  0.00     0.020 A 
ATOM     86  C   UNL A   1      44.209  36.830  32.956  1.00  0.00     0.020 A 
ATOM     87  C   UNL A   1      43.892  37.092  34.290  1.00  0.00     0.054 A 
BRANCH  87  88
ATOM     88  S   UNL A   1      44.459  38.622  35.080  1.00  0.00     0.124 S 
ATOM     89  O   UNL A   1      44.133  38.377  36.483  1.00  0.00    -0.237 OA
ATOM     90  O   UNL A   1      45.883  38.642  34.760  1.00  0.00    -0.237 OA
ATOM     91  O   UNL A   1      43.666  39.662  34.428  1.00  0.00    -0.744 OA
ENDBRANCH  87  88
ENDBRANCH  61  82
ENDBRANCH  35  36
ENDBRANCH  27  30
ENDBRANCH  25  26
ENDBRANCH   1  25
TORSDOF 16
ENDMDL
MODEL 3
REMARK VINA RESULT:     -10.6      4.271     11.387
REMARK SMILES C[C@]1(C(=O)N2CCC(CC(=O)NCCCCNC(=O)c3ccc(-c4c5nc(c(-c6ccc(S(=O)(=O)[O-])cc6)c6ccc([nH]6)c(-c6ccc(S(=O)(=O)[O-])cc6)c6nc(c(-c7ccc(S(=O)(=O)[O-])cc7)c7ccc4[nH]7)C=C6)C=C5)cc3)CC2)CCC[NH2+]1
REMARK SMILES IDX 15 1 14 2 13 3 12 4 10 5 11 6 9 8 8 9 3 10 4 11 5 12 6 13
REMARK SMILES IDX 81 14 7 15 80 16 2 17 1 18 82 19 85 20 83 21 84 22 16 25
REMARK SMILES IDX 17 26 18 27 19 29 20 30 21 31 79 32 22 33 78 34 23 35 24 36
REMARK SMILES IDX 25 37 72 38 26 39 77 40 71 41 73 42 27 43 76 44 70 45 69 46
REMARK SMILES IDX 28 48 58 49 39 50 57 51 40 52 43 53 56 54 74 55 41 56 42 57
REMARK SMILES IDX 55 59 75 60 44 61 29 62 30 63 38 64 31 65 37 66 32 67 33 68
REMARK SMILES IDX 34 69 35 70 36 71 59 72 60 73 68 74 61 75 67 76 62 77 63 78
REMARK SMILES IDX 64 79 65 80 66 81 45 82 46 83 54 84 47 85 53 86 48 87 49 88
REMARK SMILES IDX 50 89 51 90 52 91
REMARK H PARENT 12 7 85 23 85 24 17 28 73 47 43 58
REMARK Flexibility Score: inf
ROOT
ATOM      1  C   UNL A   1      41.842  22.147  25.738  1.00  0.00     0.023 C 
ENDROOT
BRANCH   1   2
ATOM      2  C   UNL A   1      43.078  22.541  26.523  1.00  0.00     0.023 C 
BRANCH   2   3
ATOM      3  C   UNL A   1      44.360  22.729  25.703  1.00  0.00     0.116 C 
BRANCH   3   4
ATOM      4  N   UNL A   1      45.505  23.051  26.543  1.00  0.00    -0.356 N 
ATOM      5  C   UNL A   1      46.224  24.204  26.666  1.00  0.00     0.220 C 
ATOM      6  O   UNL A   1      47.191  24.213  27.430  1.00  0.00    -0.275 OA
ATOM      7  H   UNL A   1      45.812  22.313  27.118  1.00  0.00     0.163 HD
BRANCH   5   8
ATOM      8  C   UNL A   1      45.862  25.452  25.871  1.00  0.00     0.103 C 
BRANCH   8   9
ATOM      9  C   UNL A   1      45.287  26.591  26.741  1.00  0.00     0.002 C 
ATOM     10  C   UNL A   1      45.594  30.519  26.347  1.00  0.00     0.283 C 
ATOM     11  O   UNL A   1      46.488  30.351  25.518  1.00  0.00    -0.268 OA
ATOM     12  N   UNL A   1      45.089  29.473  27.109  1.00  0.00    -0.337 N 
ATOM     13  C   UNL A   1      46.006  28.748  27.953  1.00  0.00     0.120 C 
ATOM     14  C   UNL A   1      43.912  28.734  26.693  1.00  0.00     0.120 C 
ATOM     15  C   UNL A   1      46.419  27.443  27.312  1.00  0.00     0.026 C 
ATOM     16  C   UNL A   1      44.306  27.462  25.935  1.00  0.00     0.026 C 
BRANCH  10  17
ATOM     17  C   UNL A   1      44.951  31.899  26.651  1.00  0.00     0.173 C 
ATOM     18  C   UNL A   1      44.210  31.845  27.992  1.00  0.00     0.090 C 
ATOM     19  C   UNL A   1      45.958  33.050  26.563  1.00  0.00     0.084 C 
ATOM     20  N   UNL A   1      44.039  32.262  25.542  1.00  0.00    -0.334 N 
ATOM     21  C   UNL A   1      45.121  34.267  26.216  1.00  0.00     0.068 C 
ATOM     22  C   UNL A   1      43.907  33.710  25.490  1.00  0.00     0.261 C 
ATOM     23  H   UNL A   1      43.123  31.840  25.700  1.00  0.00     0.347 HD
ATOM     24  H   UNL A   1      44.416  31.917  24.659  1.00  0.00     0.347 HD
ENDBRANCH  10  17
ENDBRANCH   8   9
ENDBRANCH   5   8
ENDBRANCH   3   4
ENDBRANCH   2   3
ENDBRANCH   1   2
BRANCH   1  25
ATOM     25  C   UNL A   1      40.642  21.815  26.598  1.00  0.00     0.116 C 
BRANCH  25  26
ATOM     26  N   UNL A   1      39.369  22.200  26.002  1.00  0.00    -0.352 N 
ATOM     27  C   UNL A   1      38.688  23.395  26.123  1.00  0.00     0.251 C 
ATOM     28  H   UNL A   1      38.939  21.518  25.439  1.00  0.00     0.163 HD
ATOM     29  O   UNL A   1      37.585  23.538  25.632  1.00  0.00    -0.269 OA
BRANCH  27  30
ATOM     30  C   UNL A   1      39.315  24.480  26.908  1.00  0.00     0.039 A 
ATOM     31  C   UNL A   1      40.133  25.403  26.253  1.00  0.00     0.014 A 
ATOM     32  C   UNL A   1      39.013  24.633  28.261  1.00  0.00     0.014 A 
ATOM     33  C   UNL A   1      40.580  26.529  26.945  1.00  0.00     0.010 A 
ATOM     34  C   UNL A   1      39.358  25.809  28.909  1.00  0.00     0.010 A 
ATOM     35  C   UNL A   1      40.158  26.763  28.263  1.00  0.00    -0.014 A 
BRANCH  35  36
ATOM     36  C   UNL A   1      40.562  27.981  29.007  1.00  0.00     0.031 A 
ATOM     37  C   UNL A   1      41.903  28.018  29.692  1.00  0.00     0.074 A 
ATOM     38  C   UNL A   1      39.700  29.009  29.137  1.00  0.00     0.049 A 
ATOM     39  N   UNL A   1      42.410  28.946  30.462  1.00  0.00    -0.248 NA
ATOM     40  C   UNL A   1      42.769  26.838  29.528  1.00  0.00     0.031 C 
ATOM     41  C   UNL A   1      38.344  29.061  28.580  1.00  0.00     0.029 A 
ATOM     42  N   UNL A   1      39.835  30.210  29.786  1.00  0.00    -0.354 N 
ATOM     43  C   UNL A   1      43.630  28.444  30.899  1.00  0.00     0.074 A 
ATOM     44  C   UNL A   1      43.763  27.111  30.359  1.00  0.00     0.031 C 
ATOM     45  C   UNL A   1      37.786  30.244  28.886  1.00  0.00     0.029 A 
ATOM     46  C   UNL A   1      38.728  31.020  29.687  1.00  0.00     0.049 A 
ATOM     47  H   UNL A   1      40.647  30.467  30.279  1.00  0.00     0.167 HD
ATOM     48  C   UNL A   1      44.572  29.050  31.660  1.00  0.00     0.031 A 
ATOM     49  C   UNL A   1      38.501  32.252  30.182  1.00  0.00     0.031 A 
ATOM     50  C   UNL A   1      44.457  30.394  32.150  1.00  0.00     0.049 A 
ATOM     51  C   UNL A   1      39.588  32.930  30.969  1.00  0.00     0.074 A 
ATOM     52  C   UNL A   1      45.388  31.136  32.856  1.00  0.00     0.029 A 
ATOM     53  N   UNL A   1      43.346  31.205  31.974  1.00  0.00    -0.354 N 
ATOM     54  N   UNL A   1      40.769  32.470  31.307  1.00  0.00    -0.248 NA
ATOM     55  C   UNL A   1      39.320  34.301  31.426  1.00  0.00     0.031 C 
ATOM     56  C   UNL A   1      44.824  32.385  33.138  1.00  0.00     0.029 A 
ATOM     57  C   UNL A   1      43.562  32.435  32.567  1.00  0.00     0.049 A 
ATOM     58  H   UNL A   1      42.525  30.943  31.498  1.00  0.00     0.167 HD
ATOM     59  C   UNL A   1      41.396  33.503  31.995  1.00  0.00     0.074 A 
ATOM     60  C   UNL A   1      40.468  34.618  32.010  1.00  0.00     0.031 C 
ATOM     61  C   UNL A   1      42.626  33.530  32.564  1.00  0.00     0.031 A 
BRANCH  48  62
ATOM     62  C   UNL A   1      45.808  28.260  31.994  1.00  0.00    -0.014 A 
ATOM     63  C   UNL A   1      45.840  27.396  33.104  1.00  0.00     0.010 A 
ATOM     64  C   UNL A   1      46.945  28.362  31.173  1.00  0.00     0.010 A 
ATOM     65  C   UNL A   1      47.002  26.683  33.413  1.00  0.00     0.020 A 
ATOM     66  C   UNL A   1      48.100  27.629  31.462  1.00  0.00     0.020 A 
ATOM     67  C   UNL A   1      48.126  26.807  32.591  1.00  0.00     0.054 A 
BRANCH  67  68
ATOM     68  S   UNL A   1      49.611  25.850  32.999  1.00  0.00     0.124 S 
ATOM     69  O   UNL A   1      49.214  25.195  34.244  1.00  0.00    -0.237 OA
ATOM     70  O   UNL A   1      49.753  24.968  31.844  1.00  0.00    -0.237 OA
ATOM     71  O   UNL A   1      50.652  26.866  33.135  1.00  0.00    -0.744 OA
ENDBRANCH  67  68
ENDBRANCH  48  62
BRANCH  49  72
ATOM     72  C   UNL A   1      37.205  32.936  29.919  1.00  0.00    -0.014 A 
ATOM     73  C   UNL A   1      36.291  33.156  30.964  1.00  0.00     0.010 A 
ATOM     74  C   UNL A   1      36.882  33.380  28.624  1.00  0.00     0.010 A 
ATOM     75  C   UNL A   1      35.067  33.787  30.716  1.00  0.00     0.020 A 
ATOM     76  C   UNL A   1      35.671  34.033  28.376  1.00  0.00     0.020 A 
ATOM     77  C   UNL A   1      34.765  34.221  29.423  1.00  0.00     0.054 A 
BRANCH  77  78
ATOM     78  S   UNL A   1      33.193  35.080  29.130  1.00  0.00     0.124 S 
ATOM     79  O   UNL A   1      33.644  36.397  28.693  1.00  0.00    -0.237 OA
ATOM     80  O   UNL A   1      32.567  34.252  28.102  1.00  0.00    -0.237 OA
ATOM     81  O   UNL A   1      32.536  35.040  30.434  1.00  0.00    -0.744 OA
ENDBRANCH  77  78
ENDBRANCH  49  72
BRANCH  61  82
ATOM     82  C   UNL A   1      43.055  34.814  33.217  1.00  0.00    -0.014 A 
ATOM     83  C   UNL A   1      42.784  35.065  34.574  1.00  0.00     0.010 A 
ATOM     84  C   UNL A   1      43.786  35.757  32.474  1.00  0.00     0.010 A 
ATOM     85  C   UNL A   1      43.208  36.257  35.166  1.00  0.00     0.020 A 
ATOM     86  C   UNL A   1      44.234  36.938  33.070  1.00  0.00     0.020 A 
ATOM     87  C   UNL A   1      43.928  37.187  34.409  1.00  0.00     0.054 A 
BRANCH  87  88
ATOM     88  S   UNL A   1      44.499  38.711  35.209  1.00  0.00     0.124 S 
ATOM     89  O   UNL A   1      44.131  38.478  36.604  1.00  0.00    -0.237 OA
ATOM     90  O   UNL A   1      45.933  38.704  34.929  1.00  0.00    -0.237 OA
ATOM     91  O   UNL A   1      43.744  39.762  34.531  1.00  0.00    -0.744 OA
ENDBRANCH  87  88
ENDBRANCH  61  82
ENDBRANCH  35  36
ENDBRANCH  27  30
ENDBRANCH  25  26
ENDBRANCH   1  25
TORSDOF 16
ENDMDL
