MODEL 1
REMARK VINA RESULT:     -12.5      0.000      0.000
REMARK SMILES Nc1c(N2CCCC2)ncnc1N1CCC(C(=O)NCCCCNC(=O)c2ccc(-c3c4nc(c(-c5ccc(S(=O)(=O)[O-])cc5)c5ccc([nH]5)c(-c5ccc(S(=O)(=O)[O-])cc5)c5nc(c(-c6ccc(S(=O)(=O)[O-])cc6)c6ccc3[nH]6)C=C5)C=C4)cc2)CC1
REMARK SMILES IDX 22 1 21 2 20 3 19 4 17 5 18 6 16 8 13 9 14 10 88 11 15 12
REMARK SMILES IDX 87 13 12 14 2 15 3 16 9 17 11 18 10 19 1 20 4 23 5 24 8 25
REMARK SMILES IDX 6 26 7 27 23 28 24 29 25 30 26 32 27 33 28 34 86 35 29 36
REMARK SMILES IDX 85 37 30 38 31 39 32 40 79 41 33 42 84 43 78 44 80 45 34 46
REMARK SMILES IDX 83 47 77 48 76 49 35 51 65 52 46 53 64 54 47 55 50 56 63 57
REMARK SMILES IDX 81 58 48 59 49 60 62 62 82 63 51 64 36 65 37 66 45 67 38 68
REMARK SMILES IDX 44 69 39 70 40 71 41 72 42 73 43 74 66 75 67 76 75 77 68 78
REMARK SMILES IDX 74 79 69 80 70 81 71 82 72 83 73 84 52 85 53 86 61 87 54 88
REMARK SMILES IDX 60 89 55 90 56 91 57 92 58 93 59 94
REMARK H PARENT 19 7 1 21 1 22 24 31 80 50 50 61
REMARK Flexibility Score: inf
ROOT
ATOM      1  C   UNL A   1      37.495  23.868  25.743  1.00  0.00     0.023 C 
ENDROOT
BRANCH   1   2
ATOM      2  C   UNL A   1      37.630  22.729  24.733  1.00  0.00     0.023 C 
BRANCH   2   3
ATOM      3  C   UNL A   1      36.628  22.775  23.584  1.00  0.00     0.116 C 
BRANCH   3   4
ATOM      4  N   UNL A   1      35.304  22.332  23.996  1.00  0.00    -0.356 N 
ATOM      5  C   UNL A   1      34.116  22.994  24.026  1.00  0.00     0.223 C 
ATOM      6  O   UNL A   1      33.119  22.386  24.421  1.00  0.00    -0.275 OA
ATOM      7  H   UNL A   1      35.262  21.397  24.304  1.00  0.00     0.163 HD
BRANCH   5   8
ATOM      8  C   UNL A   1      33.996  24.437  23.562  1.00  0.00     0.082 C 
ATOM      9  N   UNL A   1      32.311  26.666  23.065  1.00  0.00    -0.355 N 
ATOM     10  C   UNL A   1      32.806  25.970  21.898  1.00  0.00     0.119 C 
ATOM     11  C   UNL A   1      33.140  26.726  24.256  1.00  0.00     0.119 C 
ATOM     12  C   UNL A   1      33.212  24.548  22.246  1.00  0.00     0.035 C 
ATOM     13  C   UNL A   1      33.509  25.328  24.714  1.00  0.00     0.035 C 
BRANCH   9  14
ATOM     14  C   UNL A   1      30.996  27.103  23.103  1.00  0.00     0.157 A 
ATOM     15  C   UNL A   1      30.691  28.423  22.735  1.00  0.00     0.118 A 
ATOM     16  C   UNL A   1      29.350  28.826  22.859  1.00  0.00     0.157 A 
ATOM     17  N   UNL A   1      28.413  28.008  23.363  1.00  0.00    -0.217 NA
ATOM     18  N   UNL A   1      30.050  26.252  23.536  1.00  0.00    -0.217 NA
ATOM     19  C   UNL A   1      28.811  26.759  23.653  1.00  0.00     0.226 A 
BRANCH  15  20
ATOM     20  N   UNL A   1      31.664  29.280  22.186  1.00  0.00    -0.393 N 
ATOM     21  H   UNL A   1      32.327  29.712  22.771  1.00  0.00     0.156 HD
ATOM     22  H   UNL A   1      31.682  29.447  21.215  1.00  0.00     0.156 HD
ENDBRANCH  15  20
BRANCH  16  23
ATOM     23  N   UNL A   1      28.997  30.112  22.510  1.00  0.00    -0.355 N 
ATOM     24  C   UNL A   1      28.150  30.396  21.369  1.00  0.00     0.118 C 
ATOM     25  C   UNL A   1      28.966  31.191  23.476  1.00  0.00     0.118 C 
ATOM     26  C   UNL A   1      28.386  31.892  21.213  1.00  0.00     0.023 C 
ATOM     27  C   UNL A   1      28.444  32.385  22.659  1.00  0.00     0.023 C 
ENDBRANCH  16  23
ENDBRANCH   9  14
ENDBRANCH   5   8
ENDBRANCH   3   4
ENDBRANCH   2   3
ENDBRANCH   1   2
BRANCH   1  28
ATOM     28  C   UNL A   1      38.581  23.916  26.812  1.00  0.00     0.116 C 
BRANCH  28  29
ATOM     29  N   UNL A   1      39.923  24.012  26.256  1.00  0.00    -0.352 N 
ATOM     30  C   UNL A   1      40.881  24.968  26.487  1.00  0.00     0.251 C 
ATOM     31  H   UNL A   1      40.177  23.296  25.630  1.00  0.00     0.163 HD
ATOM     32  O   UNL A   1      41.925  24.970  25.839  1.00  0.00    -0.269 OA
BRANCH  30  33
ATOM     33  C   UNL A   1      40.627  26.013  27.498  1.00  0.00     0.039 A 
ATOM     34  C   UNL A   1      39.745  25.738  28.545  1.00  0.00     0.014 A 
ATOM     35  C   UNL A   1      41.293  27.240  27.432  1.00  0.00     0.014 A 
ATOM     36  C   UNL A   1      39.584  26.672  29.570  1.00  0.00     0.010 A 
ATOM     37  C   UNL A   1      41.179  28.141  28.487  1.00  0.00     0.010 A 
ATOM     38  C   UNL A   1      40.327  27.864  29.565  1.00  0.00    -0.014 A 
BRANCH  38  39
ATOM     39  C   UNL A   1      40.224  28.839  30.677  1.00  0.00     0.031 A 
ATOM     40  C   UNL A   1      41.140  28.722  31.862  1.00  0.00     0.074 A 
ATOM     41  C   UNL A   1      39.277  29.797  30.642  1.00  0.00     0.049 A 
ATOM     42  N   UNL A   1      41.161  29.432  32.960  1.00  0.00    -0.248 NA
ATOM     43  C   UNL A   1      42.151  27.653  31.815  1.00  0.00     0.031 C 
ATOM     44  C   UNL A   1      38.317  30.003  29.555  1.00  0.00     0.029 A 
ATOM     45  N   UNL A   1      38.967  30.778  31.549  1.00  0.00    -0.354 N 
ATOM     46  C   UNL A   1      42.180  28.894  33.737  1.00  0.00     0.074 A 
ATOM     47  C   UNL A   1      42.718  27.767  33.007  1.00  0.00     0.031 C 
ATOM     48  C   UNL A   1      37.552  31.069  29.842  1.00  0.00     0.029 A 
ATOM     49  C   UNL A   1      37.937  31.596  31.147  1.00  0.00     0.049 A 
ATOM     50  H   UNL A   1      39.438  30.887  32.407  1.00  0.00     0.167 HD
ATOM     51  C   UNL A   1      42.641  29.312  34.938  1.00  0.00     0.031 A 
ATOM     52  C   UNL A   1      37.367  32.650  31.761  1.00  0.00     0.031 A 
ATOM     53  C   UNL A   1      42.108  30.435  35.662  1.00  0.00     0.049 A 
ATOM     54  C   UNL A   1      37.872  33.075  33.112  1.00  0.00     0.074 A 
ATOM     55  C   UNL A   1      42.519  30.949  36.879  1.00  0.00     0.029 A 
ATOM     56  N   UNL A   1      41.048  31.219  35.231  1.00  0.00    -0.354 N 
ATOM     57  N   UNL A   1      38.846  32.562  33.825  1.00  0.00    -0.248 NA
ATOM     58  C   UNL A   1      37.201  34.222  33.740  1.00  0.00     0.031 C 
ATOM     59  C   UNL A   1      41.684  32.026  37.200  1.00  0.00     0.029 A 
ATOM     60  C   UNL A   1      40.783  32.207  36.163  1.00  0.00     0.049 A 
ATOM     61  H   UNL A   1      40.558  31.092  34.387  1.00  0.00     0.167 HD
ATOM     62  C   UNL A   1      38.917  33.334  34.978  1.00  0.00     0.074 A 
ATOM     63  C   UNL A   1      37.895  34.355  34.863  1.00  0.00     0.031 C 
ATOM     64  C   UNL A   1      39.755  33.209  36.036  1.00  0.00     0.031 A 
BRANCH  51  65
ATOM     65  C   UNL A   1      43.785  28.542  35.538  1.00  0.00    -0.014 A 
ATOM     66  C   UNL A   1      43.546  27.445  36.387  1.00  0.00     0.010 A 
ATOM     67  C   UNL A   1      45.111  28.908  35.246  1.00  0.00     0.010 A 
ATOM     68  C   UNL A   1      44.613  26.758  36.971  1.00  0.00     0.020 A 
ATOM     69  C   UNL A   1      46.181  28.206  35.809  1.00  0.00     0.020 A 
ATOM     70  C   UNL A   1      45.925  27.148  36.684  1.00  0.00     0.054 A 
BRANCH  70  71
ATOM     71  S   UNL A   1      47.290  26.236  37.454  1.00  0.00     0.124 S 
ATOM     72  O   UNL A   1      48.449  26.784  36.754  1.00  0.00    -0.237 OA
ATOM     73  O   UNL A   1      47.172  26.609  38.861  1.00  0.00    -0.237 OA
ATOM     74  O   UNL A   1      46.985  24.838  37.155  1.00  0.00    -0.744 OA
ENDBRANCH  70  71
ENDBRANCH  51  65
BRANCH  52  75
ATOM     75  C   UNL A   1      36.277  33.397  31.080  1.00  0.00    -0.014 A 
ATOM     76  C   UNL A   1      35.125  33.767  31.797  1.00  0.00     0.010 A 
ATOM     77  C   UNL A   1      36.399  33.777  29.732  1.00  0.00     0.010 A 
ATOM     78  C   UNL A   1      34.113  34.506  31.176  1.00  0.00     0.020 A 
ATOM     79  C   UNL A   1      35.397  34.533  29.114  1.00  0.00     0.020 A 
ATOM     80  C   UNL A   1      34.259  34.888  29.840  1.00  0.00     0.054 A 
BRANCH  80  81
ATOM     81  S   UNL A   1      32.967  35.913  29.081  1.00  0.00     0.124 S 
ATOM     82  O   UNL A   1      32.319  34.966  28.180  1.00  0.00    -0.237 OA
ATOM     83  O   UNL A   1      32.176  36.330  30.237  1.00  0.00    -0.237 OA
ATOM     84  O   UNL A   1      33.718  36.985  28.431  1.00  0.00    -0.744 OA
ENDBRANCH  80  81
ENDBRANCH  52  75
BRANCH  64  85
ATOM     85  C   UNL A   1      39.614  34.208  37.151  1.00  0.00    -0.014 A 
ATOM     86  C   UNL A   1      38.864  33.907  38.300  1.00  0.00     0.010 A 
ATOM     87  C   UNL A   1      40.299  35.435  37.076  1.00  0.00     0.010 A 
ATOM     88  C   UNL A   1      38.785  34.826  39.350  1.00  0.00     0.020 A 
ATOM     89  C   UNL A   1      40.238  36.347  38.133  1.00  0.00     0.020 A 
ATOM     90  C   UNL A   1      39.474  36.039  39.260  1.00  0.00     0.054 A 
BRANCH  90  91
ATOM     91  S   UNL A   1      39.401  37.190  40.661  1.00  0.00     0.124 S 
ATOM     92  O   UNL A   1      40.788  37.634  40.763  1.00  0.00    -0.237 OA
ATOM     93  O   UNL A   1      38.451  38.200  40.196  1.00  0.00    -0.237 OA
ATOM     94  O   UNL A   1      38.927  36.362  41.767  1.00  0.00    -0.744 OA
ENDBRANCH  90  91
ENDBRANCH  64  85
ENDBRANCH  38  39
ENDBRANCH  30  33
ENDBRANCH  28  29
ENDBRANCH   1  28
TORSDOF 17
ENDMDL
MODEL 2
REMARK VINA RESULT:     -12.3      3.586      4.440
REMARK SMILES Nc1c(N2CCCC2)ncnc1N1CCC(C(=O)NCCCCNC(=O)c2ccc(-c3c4nc(c(-c5ccc(S(=O)(=O)[O-])cc5)c5ccc([nH]5)c(-c5ccc(S(=O)(=O)[O-])cc5)c5nc(c(-c6ccc(S(=O)(=O)[O-])cc6)c6ccc3[nH]6)C=C5)C=C4)cc2)CC1
REMARK SMILES IDX 22 1 21 2 20 3 19 4 17 5 18 6 16 8 13 9 14 10 88 11 15 12
REMARK SMILES IDX 87 13 12 14 2 15 3 16 9 17 11 18 10 19 1 20 4 23 5 24 8 25
REMARK SMILES IDX 6 26 7 27 23 28 24 29 25 30 26 32 27 33 28 34 86 35 29 36
REMARK SMILES IDX 85 37 30 38 31 39 32 40 79 41 33 42 84 43 78 44 80 45 34 46
REMARK SMILES IDX 83 47 77 48 76 49 35 51 65 52 46 53 64 54 47 55 50 56 63 57
REMARK SMILES IDX 81 58 48 59 49 60 62 62 82 63 51 64 36 65 37 66 45 67 38 68
REMARK SMILES IDX 44 69 39 70 40 71 41 72 42 73 43 74 66 75 67 76 75 77 68 78
REMARK SMILES IDX 74 79 69 80 70 81 71 82 72 83 73 84 52 85 53 86 61 87 54 88
REMARK SMILES IDX 60 89 55 90 56 91 57 92 58 93 59 94
REMARK H PARENT 19 7 1 21 1 22 24 31 80 50 50 61
REMARK Flexibility Score: inf
ROOT
ATOM      1  C   UNL A   1      36.631  23.315  23.602  1.00  0.00     0.023 C 
ENDROOT
BRANCH   1   2
ATOM      2  C   UNL A   1      35.120  23.325  23.378  1.00  0.00     0.023 C 
BRANCH   2   3
ATOM      3  C   UNL A   1      34.287  23.357  24.656  1.00  0.00     0.116 C 
BRANCH   3   4
ATOM      4  N   UNL A   1      33.716  22.055  24.969  1.00  0.00    -0.356 N 
ATOM      5  C   UNL A   1      32.420  21.667  25.117  1.00  0.00     0.223 C 
ATOM      6  O   UNL A   1      32.192  20.485  25.383  1.00  0.00    -0.275 OA
ATOM      7  H   UNL A   1      34.377  21.336  25.094  1.00  0.00     0.163 HD
BRANCH   5   8
ATOM      8  C   UNL A   1      31.270  22.644  24.933  1.00  0.00     0.082 C 
ATOM      9  N   UNL A   1      30.445  25.313  24.435  1.00  0.00    -0.355 N 
ATOM     10  C   UNL A   1      30.279  24.839  25.790  1.00  0.00     0.119 C 
ATOM     11  C   UNL A   1      30.313  24.373  23.336  1.00  0.00     0.119 C 
ATOM     12  C   UNL A   1      31.208  23.670  26.074  1.00  0.00     0.035 C 
ATOM     13  C   UNL A   1      31.282  23.218  23.509  1.00  0.00     0.035 C 
BRANCH   9  14
ATOM     14  C   UNL A   1      30.906  26.601  24.204  1.00  0.00     0.157 A 
ATOM     15  C   UNL A   1      30.015  27.587  23.751  1.00  0.00     0.118 A 
ATOM     16  C   UNL A   1      30.556  28.854  23.471  1.00  0.00     0.157 A 
ATOM     17  N   UNL A   1      31.872  29.097  23.574  1.00  0.00    -0.217 NA
ATOM     18  N   UNL A   1      32.213  26.856  24.385  1.00  0.00    -0.217 NA
ATOM     19  C   UNL A   1      32.624  28.090  24.047  1.00  0.00     0.226 A 
BRANCH  15  20
ATOM     20  N   UNL A   1      28.631  27.346  23.660  1.00  0.00    -0.393 N 
ATOM     21  H   UNL A   1      28.017  28.081  23.433  1.00  0.00     0.156 HD
ATOM     22  H   UNL A   1      28.276  26.442  23.824  1.00  0.00     0.156 HD
ENDBRANCH  15  20
BRANCH  16  23
ATOM     23  N   UNL A   1      29.724  29.858  23.024  1.00  0.00    -0.355 N 
ATOM     24  C   UNL A   1      29.377  30.997  23.850  1.00  0.00     0.118 C 
ATOM     25  C   UNL A   1      29.566  30.156  21.615  1.00  0.00     0.118 C 
ATOM     26  C   UNL A   1      28.198  31.559  23.067  1.00  0.00     0.023 C 
ATOM     27  C   UNL A   1      28.632  31.378  21.612  1.00  0.00     0.023 C 
ENDBRANCH  16  23
ENDBRANCH   9  14
ENDBRANCH   5   8
ENDBRANCH   3   4
ENDBRANCH   2   3
ENDBRANCH   1   2
BRANCH   1  28
ATOM     28  C   UNL A   1      37.073  23.596  25.034  1.00  0.00     0.116 C 
BRANCH  28  29
ATOM     29  N   UNL A   1      38.011  22.607  25.545  1.00  0.00    -0.352 N 
ATOM     30  C   UNL A   1      39.107  22.800  26.351  1.00  0.00     0.251 C 
ATOM     31  H   UNL A   1      37.838  21.676  25.277  1.00  0.00     0.163 HD
ATOM     32  O   UNL A   1      39.871  21.869  26.592  1.00  0.00    -0.269 OA
BRANCH  30  33
ATOM     33  C   UNL A   1      39.374  24.145  26.894  1.00  0.00     0.039 A 
ATOM     34  C   UNL A   1      38.976  24.438  28.200  1.00  0.00     0.014 A 
ATOM     35  C   UNL A   1      40.053  25.098  26.127  1.00  0.00     0.014 A 
ATOM     36  C   UNL A   1      39.325  25.665  28.766  1.00  0.00     0.010 A 
ATOM     37  C   UNL A   1      40.454  26.293  26.715  1.00  0.00     0.010 A 
ATOM     38  C   UNL A   1      40.096  26.586  28.039  1.00  0.00    -0.014 A 
BRANCH  38  39
ATOM     39  C   UNL A   1      40.536  27.867  28.643  1.00  0.00     0.031 A 
ATOM     40  C   UNL A   1      41.949  28.018  29.130  1.00  0.00     0.074 A 
ATOM     41  C   UNL A   1      39.653  28.873  28.795  1.00  0.00     0.049 A 
ATOM     42  N   UNL A   1      42.504  29.029  29.745  1.00  0.00    -0.248 NA
ATOM     43  C   UNL A   1      42.849  26.873  28.916  1.00  0.00     0.031 C 
ATOM     44  C   UNL A   1      38.250  28.842  28.378  1.00  0.00     0.029 A 
ATOM     45  N   UNL A   1      39.809  30.120  29.345  1.00  0.00    -0.354 N 
ATOM     46  C   UNL A   1      43.815  28.643  29.997  1.00  0.00     0.074 A 
ATOM     47  C   UNL A   1      43.956  27.286  29.515  1.00  0.00     0.031 C 
ATOM     48  C   UNL A   1      37.684  30.030  28.652  1.00  0.00     0.029 A 
ATOM     49  C   UNL A   1      38.670  30.890  29.300  1.00  0.00     0.049 A 
ATOM     50  H   UNL A   1      40.656  30.436  29.734  1.00  0.00     0.167 HD
ATOM     51  C   UNL A   1      44.816  29.359  30.560  1.00  0.00     0.031 A 
ATOM     52  C   UNL A   1      38.445  32.145  29.732  1.00  0.00     0.031 A 
ATOM     53  C   UNL A   1      44.676  30.708  31.036  1.00  0.00     0.049 A 
ATOM     54  C   UNL A   1      39.562  32.908  30.386  1.00  0.00     0.074 A 
ATOM     55  C   UNL A   1      45.637  31.525  31.604  1.00  0.00     0.029 A 
ATOM     56  N   UNL A   1      43.499  31.441  30.994  1.00  0.00    -0.354 N 
ATOM     57  N   UNL A   1      40.799  32.531  30.603  1.00  0.00    -0.248 NA
ATOM     58  C   UNL A   1      39.253  34.268  30.851  1.00  0.00     0.031 C 
ATOM     59  C   UNL A   1      45.031  32.742  31.938  1.00  0.00     0.029 A 
ATOM     60  C   UNL A   1      43.706  32.696  31.537  1.00  0.00     0.049 A 
ATOM     61  H   UNL A   1      42.644  31.115  30.632  1.00  0.00     0.167 HD
ATOM     62  C   UNL A   1      41.422  33.612  31.215  1.00  0.00     0.074 A 
ATOM     63  C   UNL A   1      40.429  34.662  31.323  1.00  0.00     0.031 C 
ATOM     64  C   UNL A   1      42.702  33.725  31.646  1.00  0.00     0.031 A 
BRANCH  51  65
ATOM     65  C   UNL A   1      46.155  28.683  30.684  1.00  0.00    -0.014 A 
ATOM     66  C   UNL A   1      47.107  28.782  29.652  1.00  0.00     0.010 A 
ATOM     67  C   UNL A   1      46.471  27.951  31.842  1.00  0.00     0.010 A 
ATOM     68  C   UNL A   1      48.333  28.121  29.757  1.00  0.00     0.020 A 
ATOM     69  C   UNL A   1      47.707  27.310  31.961  1.00  0.00     0.020 A 
ATOM     70  C   UNL A   1      48.623  27.382  30.908  1.00  0.00     0.054 A 
BRANCH  70  71
ATOM     71  S   UNL A   1      50.223  26.537  31.018  1.00  0.00     0.124 S 
ATOM     72  O   UNL A   1      50.117  25.861  32.309  1.00  0.00    -0.237 OA
ATOM     73  O   UNL A   1      50.206  25.663  29.849  1.00  0.00    -0.237 OA
ATOM     74  O   UNL A   1      51.195  27.627  30.964  1.00  0.00    -0.744 OA
ENDBRANCH  70  71
ENDBRANCH  51  65
BRANCH  52  75
ATOM     75  C   UNL A   1      37.111  32.767  29.523  1.00  0.00    -0.014 A 
ATOM     76  C   UNL A   1      36.274  33.022  30.624  1.00  0.00     0.010 A 
ATOM     77  C   UNL A   1      36.686  33.143  28.236  1.00  0.00     0.010 A 
ATOM     78  C   UNL A   1      35.036  33.645  30.441  1.00  0.00     0.020 A 
ATOM     79  C   UNL A   1      35.456  33.784  28.053  1.00  0.00     0.020 A 
ATOM     80  C   UNL A   1      34.638  34.027  29.158  1.00  0.00     0.054 A 
BRANCH  80  81
ATOM     81  S   UNL A   1      33.061  34.903  28.959  1.00  0.00     0.124 S 
ATOM     82  O   UNL A   1      32.519  34.864  30.313  1.00  0.00    -0.237 OA
ATOM     83  O   UNL A   1      33.489  36.218  28.486  1.00  0.00    -0.237 OA
ATOM     84  O   UNL A   1      32.344  34.098  27.972  1.00  0.00    -0.744 OA
ENDBRANCH  80  81
ENDBRANCH  52  75
BRANCH  64  85
ATOM     85  C   UNL A   1      43.110  35.034  32.264  1.00  0.00    -0.014 A 
ATOM     86  C   UNL A   1      43.743  36.028  31.498  1.00  0.00     0.010 A 
ATOM     87  C   UNL A   1      42.793  35.298  33.609  1.00  0.00     0.010 A 
ATOM     88  C   UNL A   1      44.071  37.258  32.074  1.00  0.00     0.020 A 
ATOM     89  C   UNL A   1      43.100  36.535  34.181  1.00  0.00     0.020 A 
ATOM     90  C   UNL A   1      43.745  37.504  33.411  1.00  0.00     0.054 A 
BRANCH  90  91
ATOM     91  S   UNL A   1      44.130  39.130  34.118  1.00  0.00     0.124 S 
ATOM     92  O   UNL A   1      42.945  39.906  33.761  1.00  0.00    -0.237 OA
ATOM     93  O   UNL A   1      44.282  38.833  35.541  1.00  0.00    -0.237 OA
ATOM     94  O   UNL A   1      45.361  39.523  33.436  1.00  0.00    -0.744 OA
ENDBRANCH  90  91
ENDBRANCH  64  85
ENDBRANCH  38  39
ENDBRANCH  30  33
ENDBRANCH  28  29
ENDBRANCH   1  28
TORSDOF 17
ENDMDL
MODEL 3
REMARK VINA RESULT:     -12.2      4.197     10.516
REMARK SMILES Nc1c(N2CCCC2)ncnc1N1CCC(C(=O)NCCCCNC(=O)c2ccc(-c3c4nc(c(-c5ccc(S(=O)(=O)[O-])cc5)c5ccc([nH]5)c(-c5ccc(S(=O)(=O)[O-])cc5)c5nc(c(-c6ccc(S(=O)(=O)[O-])cc6)c6ccc3[nH]6)C=C5)C=C4)cc2)CC1
REMARK SMILES IDX 22 1 21 2 20 3 19 4 17 5 18 6 16 8 13 9 14 10 88 11 15 12
REMARK SMILES IDX 87 13 12 14 2 15 3 16 9 17 11 18 10 19 1 20 4 23 5 24 8 25
REMARK SMILES IDX 6 26 7 27 23 28 24 29 25 30 26 32 27 33 28 34 86 35 29 36
REMARK SMILES IDX 85 37 30 38 31 39 32 40 79 41 33 42 84 43 78 44 80 45 34 46
REMARK SMILES IDX 83 47 77 48 76 49 35 51 65 52 46 53 64 54 47 55 50 56 63 57
REMARK SMILES IDX 81 58 48 59 49 60 62 62 82 63 51 64 36 65 37 66 45 67 38 68
REMARK SMILES IDX 44 69 39 70 40 71 41 72 42 73 43 74 66 75 67 76 75 77 68 78
REMARK SMILES IDX 74 79 69 80 70 81 71 82 72 83 73 84 52 85 53 86 61 87 54 88
REMARK SMILES IDX 60 89 55 90 56 91 57 92 58 93 59 94
REMARK H PARENT 19 7 1 21 1 22 24 31 80 50 50 61
REMARK Flexibility Score: inf
ROOT
ATOM      1  C   UNL A   1      33.865  28.396  25.691  1.00  0.00     0.023 C 
ENDROOT
BRANCH   1   2
ATOM      2  C   UNL A   1      33.035  29.225  24.712  1.00  0.00     0.023 C 
BRANCH   2   3
ATOM      3  C   UNL A   1      31.527  29.022  24.826  1.00  0.00     0.116 C 
BRANCH   3   4
ATOM      4  N   UNL A   1      30.823  29.482  23.638  1.00  0.00    -0.356 N 
ATOM      5  C   UNL A   1      30.505  28.829  22.486  1.00  0.00     0.223 C 
ATOM      6  O   UNL A   1      29.891  29.449  21.615  1.00  0.00    -0.275 OA
ATOM      7  H   UNL A   1      30.526  30.420  23.674  1.00  0.00     0.163 HD
BRANCH   5   8
ATOM      8  C   UNL A   1      30.865  27.367  22.274  1.00  0.00     0.082 C 
ATOM      9  N   UNL A   1      32.148  25.041  23.273  1.00  0.00    -0.355 N 
ATOM     10  C   UNL A   1      32.819  25.721  22.188  1.00  0.00     0.119 C 
ATOM     11  C   UNL A   1      30.698  25.063  23.332  1.00  0.00     0.119 C 
ATOM     12  C   UNL A   1      32.379  27.173  22.101  1.00  0.00     0.035 C 
ATOM     13  C   UNL A   1      30.190  26.493  23.341  1.00  0.00     0.035 C 
BRANCH   9  14
ATOM     14  C   UNL A   1      32.885  24.541  24.336  1.00  0.00     0.157 A 
ATOM     15  C   UNL A   1      33.863  23.562  24.103  1.00  0.00     0.118 A 
ATOM     16  C   UNL A   1      34.530  23.046  25.228  1.00  0.00     0.157 A 
ATOM     17  N   UNL A   1      34.206  23.426  26.474  1.00  0.00    -0.217 NA
ATOM     18  N   UNL A   1      32.607  24.985  25.574  1.00  0.00    -0.217 NA
ATOM     19  C   UNL A   1      33.278  24.392  26.576  1.00  0.00     0.226 A 
BRANCH  15  20
ATOM     20  N   UNL A   1      34.223  23.174  22.798  1.00  0.00    -0.393 N 
ATOM     21  H   UNL A   1      35.051  23.519  22.392  1.00  0.00     0.156 HD
ATOM     22  H   UNL A   1      33.647  22.556  22.292  1.00  0.00     0.156 HD
ENDBRANCH  15  20
BRANCH  16  23
ATOM     23  N   UNL A   1      35.501  22.083  25.054  1.00  0.00    -0.355 N 
ATOM     24  C   UNL A   1      36.893  22.326  25.372  1.00  0.00     0.118 C 
ATOM     25  C   UNL A   1      35.192  20.668  25.068  1.00  0.00     0.118 C 
ATOM     26  C   UNL A   1      37.548  21.147  24.666  1.00  0.00     0.023 C 
ATOM     27  C   UNL A   1      36.570  20.001  24.926  1.00  0.00     0.023 C 
ENDBRANCH  16  23
ENDBRANCH   9  14
ENDBRANCH   5   8
ENDBRANCH   3   4
ENDBRANCH   2   3
ENDBRANCH   1   2
BRANCH   1  28
ATOM     28  C   UNL A   1      33.529  28.608  27.163  1.00  0.00     0.116 C 
BRANCH  28  29
ATOM     29  N   UNL A   1      33.478  30.014  27.538  1.00  0.00    -0.352 N 
ATOM     30  C   UNL A   1      34.435  30.768  28.173  1.00  0.00     0.251 C 
ATOM     31  H   UNL A   1      32.647  30.488  27.307  1.00  0.00     0.163 HD
ATOM     32  O   UNL A   1      34.185  31.916  28.529  1.00  0.00    -0.269 OA
BRANCH  30  33
ATOM     33  C   UNL A   1      35.755  30.170  28.452  1.00  0.00     0.039 A 
ATOM     34  C   UNL A   1      36.746  30.232  27.470  1.00  0.00     0.014 A 
ATOM     35  C   UNL A   1      36.021  29.589  29.696  1.00  0.00     0.014 A 
ATOM     36  C   UNL A   1      38.032  29.774  27.763  1.00  0.00     0.010 A 
ATOM     37  C   UNL A   1      37.318  29.193  30.005  1.00  0.00     0.010 A 
ATOM     38  C   UNL A   1      38.335  29.285  29.043  1.00  0.00    -0.014 A 
BRANCH  38  39
ATOM     39  C   UNL A   1      39.709  28.857  29.397  1.00  0.00     0.031 A 
ATOM     40  C   UNL A   1      40.608  29.786  30.164  1.00  0.00     0.074 A 
ATOM     41  C   UNL A   1      40.164  27.657  28.988  1.00  0.00     0.049 A 
ATOM     42  N   UNL A   1      41.858  29.624  30.508  1.00  0.00    -0.248 NA
ATOM     43  C   UNL A   1      40.029  31.074  30.579  1.00  0.00     0.031 C 
ATOM     44  C   UNL A   1      39.394  26.673  28.223  1.00  0.00     0.029 A 
ATOM     45  N   UNL A   1      41.387  27.060  29.160  1.00  0.00    -0.354 N 
ATOM     46  C   UNL A   1      42.219  30.789  31.174  1.00  0.00     0.074 A 
ATOM     47  C   UNL A   1      41.071  31.669  31.140  1.00  0.00     0.031 C 
ATOM     48  C   UNL A   1      40.150  25.581  28.027  1.00  0.00     0.029 A 
ATOM     49  C   UNL A   1      41.469  25.801  28.613  1.00  0.00     0.049 A 
ATOM     50  H   UNL A   1      42.136  27.491  29.632  1.00  0.00     0.167 HD
ATOM     51  C   UNL A   1      43.392  31.092  31.779  1.00  0.00     0.031 A 
ATOM     52  C   UNL A   1      42.490  24.924  28.585  1.00  0.00     0.031 A 
ATOM     53  C   UNL A   1      44.532  30.215  31.815  1.00  0.00     0.049 A 
ATOM     54  C   UNL A   1      43.795  25.296  29.232  1.00  0.00     0.074 A 
ATOM     55  C   UNL A   1      45.759  30.423  32.419  1.00  0.00     0.029 A 
ATOM     56  N   UNL A   1      44.581  28.961  31.227  1.00  0.00    -0.354 N 
ATOM     57  N   UNL A   1      44.113  26.397  29.869  1.00  0.00    -0.248 NA
ATOM     58  C   UNL A   1      44.878  24.305  29.156  1.00  0.00     0.031 C 
ATOM     59  C   UNL A   1      46.564  29.306  32.165  1.00  0.00     0.029 A 
ATOM     60  C   UNL A   1      45.821  28.387  31.442  1.00  0.00     0.049 A 
ATOM     61  H   UNL A   1      43.842  28.541  30.729  1.00  0.00     0.167 HD
ATOM     62  C   UNL A   1      45.428  26.226  30.287  1.00  0.00     0.074 A 
ATOM     63  C   UNL A   1      45.842  24.911  29.839  1.00  0.00     0.031 C 
ATOM     64  C   UNL A   1      46.219  27.081  30.980  1.00  0.00     0.031 A 
BRANCH  51  65
ATOM     65  C   UNL A   1      43.489  32.434  32.451  1.00  0.00    -0.014 A 
ATOM     66  C   UNL A   1      43.133  32.586  33.804  1.00  0.00     0.010 A 
ATOM     67  C   UNL A   1      43.949  33.551  31.732  1.00  0.00     0.010 A 
ATOM     68  C   UNL A   1      43.190  33.842  34.412  1.00  0.00     0.020 A 
ATOM     69  C   UNL A   1      44.031  34.805  32.346  1.00  0.00     0.020 A 
ATOM     70  C   UNL A   1      43.632  34.946  33.677  1.00  0.00     0.054 A 
BRANCH  70  71
ATOM     71  S   UNL A   1      43.697  36.563  34.493  1.00  0.00     0.124 S 
ATOM     72  O   UNL A   1      44.898  36.436  35.316  1.00  0.00    -0.237 OA
ATOM     73  O   UNL A   1      43.803  37.488  33.367  1.00  0.00    -0.237 OA
ATOM     74  O   UNL A   1      42.439  36.629  35.233  1.00  0.00    -0.744 OA
ENDBRANCH  70  71
ENDBRANCH  51  65
BRANCH  52  75
ATOM     75  C   UNL A   1      42.301  23.593  27.951  1.00  0.00    -0.014 A 
ATOM     76  C   UNL A   1      42.937  23.299  26.732  1.00  0.00     0.010 A 
ATOM     77  C   UNL A   1      41.521  22.603  28.576  1.00  0.00     0.010 A 
ATOM     78  C   UNL A   1      42.798  22.035  26.149  1.00  0.00     0.020 A 
ATOM     79  C   UNL A   1      41.397  21.332  28.005  1.00  0.00     0.020 A 
ATOM     80  C   UNL A   1      42.033  21.059  26.792  1.00  0.00     0.054 A 
BRANCH  80  81
ATOM     81  S   UNL A   1      41.933  19.403  26.054  1.00  0.00     0.124 S 
ATOM     82  O   UNL A   1      40.498  19.254  25.838  1.00  0.00    -0.237 OA
ATOM     83  O   UNL A   1      42.744  19.547  24.847  1.00  0.00    -0.237 OA
ATOM     84  O   UNL A   1      42.507  18.536  27.081  1.00  0.00    -0.744 OA
ENDBRANCH  80  81
ENDBRANCH  52  75
BRANCH  64  85
ATOM     85  C   UNL A   1      47.611  26.619  31.311  1.00  0.00    -0.014 A 
ATOM     86  C   UNL A   1      47.895  26.010  32.546  1.00  0.00     0.010 A 
ATOM     87  C   UNL A   1      48.630  26.732  30.348  1.00  0.00     0.010 A 
ATOM     88  C   UNL A   1      49.182  25.540  32.820  1.00  0.00     0.020 A 
ATOM     89  C   UNL A   1      49.913  26.244  30.611  1.00  0.00     0.020 A 
ATOM     90  C   UNL A   1      50.182  25.658  31.850  1.00  0.00     0.054 A 
BRANCH  90  91
ATOM     91  S   UNL A   1      51.830  24.989  32.208  1.00  0.00     0.124 S 
ATOM     92  O   UNL A   1      52.629  25.549  31.122  1.00  0.00    -0.237 OA
ATOM     93  O   UNL A   1      52.112  25.526  33.538  1.00  0.00    -0.237 OA
ATOM     94  O   UNL A   1      51.635  23.542  32.158  1.00  0.00    -0.744 OA
ENDBRANCH  90  91
ENDBRANCH  64  85
ENDBRANCH  38  39
ENDBRANCH  30  33
ENDBRANCH  28  29
ENDBRANCH   1  28
TORSDOF 17
ENDMDL
