MODEL 1
REMARK VINA RESULT:     -11.4      0.000      0.000
REMARK SMILES CNC(=O)CCCn1cc(C(=O)NCCCCNC(=O)c2ccc(-c3c4nc(c(-c5ccc(S(=O)(=O)[O-])cc5)c5ccc([nH]5)c(-c5ccc(S(=O)(=O)[O-])cc5)c5nc(c(-c6ccc(S(=O)(=O)[O-])cc6)c6ccc3[nH]6)C=C5)C=C4)cc2)cc1Br
REMARK SMILES IDX 15 1 14 2 13 3 11 4 12 5 10 7 8 8 9 9 82 10 81 11 83 12 7 13
REMARK SMILES IDX 6 14 5 15 3 16 1 17 2 18 4 20 16 21 17 22 18 23 19 24 20 26
REMARK SMILES IDX 21 27 22 28 80 29 23 30 79 31 24 32 25 33 26 34 73 35 27 36
REMARK SMILES IDX 78 37 72 38 74 39 28 40 77 41 71 42 70 43 29 45 59 46 40 47
REMARK SMILES IDX 58 48 41 49 44 50 57 51 75 52 42 53 43 54 56 56 76 57 45 58
REMARK SMILES IDX 30 59 31 60 39 61 32 62 38 63 33 64 34 65 35 66 36 67 37 68
REMARK SMILES IDX 60 69 61 70 69 71 62 72 68 73 63 74 64 75 65 76 66 77 67 78
REMARK SMILES IDX 46 79 47 80 55 81 48 82 54 83 49 84 50 85 51 86 52 87 53 88
REMARK H PARENT 13 6 2 19 18 25 74 44 44 55
REMARK Flexibility Score: inf
ROOT
ATOM      1  C   UNL A   1      35.547  21.577  25.261  1.00  0.00     0.023 C 
ENDROOT
BRANCH   1   2
ATOM      2  C   UNL A   1      34.063  21.846  24.981  1.00  0.00     0.116 C 
BRANCH   2   3
ATOM      3  N   UNL A   1      33.275  22.057  26.178  1.00  0.00    -0.352 N 
ATOM      4  C   UNL A   1      32.532  23.112  26.651  1.00  0.00     0.252 C 
ATOM      5  O   UNL A   1      32.052  22.976  27.778  1.00  0.00    -0.269 OA
ATOM      6  H   UNL A   1      33.273  21.279  26.782  1.00  0.00     0.163 HD
BRANCH   4   7
ATOM      7  C   UNL A   1      32.357  24.371  25.922  1.00  0.00     0.058 A 
ATOM      8  N   UNL A   1      31.650  26.041  24.589  1.00  0.00    -0.342 N 
ATOM      9  C   UNL A   1      31.260  24.899  25.261  1.00  0.00     0.100 A 
ATOM     10  C   UNL A   1      32.870  26.423  25.066  1.00  0.00     0.085 A 
ATOM     11  C   UNL A   1      33.352  25.405  25.854  1.00  0.00     0.049 A 
ATOM     12  Br  UNL A   1      33.783  28.016  24.727  1.00  0.00    -0.031 Br
BRANCH   8  13
ATOM     13  C   UNL A   1      30.865  26.686  23.551  1.00  0.00     0.123 C 
BRANCH  13  14
ATOM     14  C   UNL A   1      30.084  27.934  23.995  1.00  0.00     0.032 C 
BRANCH  14  15
ATOM     15  C   UNL A   1      28.934  28.386  23.089  1.00  0.00     0.102 C 
BRANCH  15  16
ATOM     16  C   UNL A   1      29.264  29.638  22.300  1.00  0.00     0.219 C 
ATOM     17  C   UNL A   1      27.625  31.076  23.561  1.00  0.00     0.142 C 
ATOM     18  N   UNL A   1      28.656  30.817  22.597  1.00  0.00    -0.359 N 
ATOM     19  H   UNL A   1      28.964  31.597  22.082  1.00  0.00     0.163 HD
ATOM     20  O   UNL A   1      30.101  29.618  21.396  1.00  0.00    -0.275 OA
ENDBRANCH  15  16
ENDBRANCH  14  15
ENDBRANCH  13  14
ENDBRANCH   8  13
ENDBRANCH   4   7
ENDBRANCH   2   3
ENDBRANCH   1   2
BRANCH   1  21
ATOM     21  C   UNL A   1      36.369  22.763  25.781  1.00  0.00     0.023 C 
BRANCH  21  22
ATOM     22  C   UNL A   1      37.861  22.705  25.465  1.00  0.00     0.116 C 
BRANCH  22  23
ATOM     23  N   UNL A   1      38.615  21.816  26.349  1.00  0.00    -0.352 N 
ATOM     24  C   UNL A   1      39.780  22.121  27.040  1.00  0.00     0.251 C 
ATOM     25  H   UNL A   1      38.259  20.906  26.466  1.00  0.00     0.163 HD
ATOM     26  O   UNL A   1      40.534  21.248  27.426  1.00  0.00    -0.269 OA
BRANCH  24  27
ATOM     27  C   UNL A   1      40.069  23.546  27.298  1.00  0.00     0.039 A 
ATOM     28  C   UNL A   1      39.097  24.533  27.124  1.00  0.00     0.014 A 
ATOM     29  C   UNL A   1      41.323  23.856  27.815  1.00  0.00     0.014 A 
ATOM     30  C   UNL A   1      39.364  25.823  27.585  1.00  0.00     0.010 A 
ATOM     31  C   UNL A   1      41.535  25.091  28.381  1.00  0.00     0.010 A 
ATOM     32  C   UNL A   1      40.573  26.091  28.249  1.00  0.00    -0.014 A 
BRANCH  32  33
ATOM     33  C   UNL A   1      40.786  27.372  28.925  1.00  0.00     0.031 A 
ATOM     34  C   UNL A   1      41.848  28.243  28.336  1.00  0.00     0.074 A 
ATOM     35  C   UNL A   1      39.957  27.869  29.869  1.00  0.00     0.049 A 
ATOM     36  N   UNL A   1      42.987  28.559  28.858  1.00  0.00    -0.248 NA
ATOM     37  C   UNL A   1      41.668  28.736  26.961  1.00  0.00     0.031 C 
ATOM     38  C   UNL A   1      38.689  27.315  30.361  1.00  0.00     0.029 A 
ATOM     39  N   UNL A   1      40.026  29.064  30.516  1.00  0.00    -0.354 N 
ATOM     40  C   UNL A   1      43.586  29.456  27.977  1.00  0.00     0.074 A 
ATOM     41  C   UNL A   1      42.809  29.402  26.763  1.00  0.00     0.031 C 
ATOM     42  C   UNL A   1      38.002  28.271  31.026  1.00  0.00     0.029 A 
ATOM     43  C   UNL A   1      38.858  29.431  31.176  1.00  0.00     0.049 A 
ATOM     44  H   UNL A   1      40.836  29.624  30.515  1.00  0.00     0.167 HD
ATOM     45  C   UNL A   1      44.548  30.334  28.384  1.00  0.00     0.031 A 
ATOM     46  C   UNL A   1      38.612  30.609  31.801  1.00  0.00     0.031 A 
ATOM     47  C   UNL A   1      45.039  30.012  29.700  1.00  0.00     0.049 A 
ATOM     48  C   UNL A   1      39.928  31.214  32.111  1.00  0.00     0.074 A 
ATOM     49  C   UNL A   1      45.667  28.922  30.269  1.00  0.00     0.029 A 
ATOM     50  N   UNL A   1      44.540  30.749  30.749  1.00  0.00    -0.354 N 
ATOM     51  N   UNL A   1      40.773  30.691  32.955  1.00  0.00    -0.248 NA
ATOM     52  C   UNL A   1      40.494  32.160  31.165  1.00  0.00     0.031 C 
ATOM     53  C   UNL A   1      45.082  28.802  31.565  1.00  0.00     0.029 A 
ATOM     54  C   UNL A   1      44.192  29.865  31.737  1.00  0.00     0.049 A 
ATOM     55  H   UNL A   1      44.449  31.729  30.783  1.00  0.00     0.167 HD
ATOM     56  C   UNL A   1      42.019  30.894  32.379  1.00  0.00     0.074 A 
ATOM     57  C   UNL A   1      41.792  31.894  31.338  1.00  0.00     0.031 C 
ATOM     58  C   UNL A   1      43.055  30.036  32.618  1.00  0.00     0.031 A 
BRANCH  45  59
ATOM     59  C   UNL A   1      44.779  31.695  27.773  1.00  0.00    -0.014 A 
ATOM     60  C   UNL A   1      46.090  32.063  27.399  1.00  0.00     0.010 A 
ATOM     61  C   UNL A   1      43.815  32.723  27.806  1.00  0.00     0.010 A 
ATOM     62  C   UNL A   1      46.430  33.399  27.146  1.00  0.00     0.020 A 
ATOM     63  C   UNL A   1      44.134  34.051  27.513  1.00  0.00     0.020 A 
ATOM     64  C   UNL A   1      45.449  34.386  27.219  1.00  0.00     0.054 A 
BRANCH  64  65
ATOM     65  S   UNL A   1      45.919  36.121  26.996  1.00  0.00     0.124 S 
ATOM     66  O   UNL A   1      46.631  36.077  25.722  1.00  0.00    -0.237 OA
ATOM     67  O   UNL A   1      44.623  36.792  26.976  1.00  0.00    -0.237 OA
ATOM     68  O   UNL A   1      46.745  36.405  28.167  1.00  0.00    -0.744 OA
ENDBRANCH  64  65
ENDBRANCH  45  59
BRANCH  46  69
ATOM     69  C   UNL A   1      37.342  31.363  31.911  1.00  0.00    -0.014 A 
ATOM     70  C   UNL A   1      36.814  31.698  33.172  1.00  0.00     0.010 A 
ATOM     71  C   UNL A   1      36.816  32.021  30.780  1.00  0.00     0.010 A 
ATOM     72  C   UNL A   1      35.854  32.714  33.306  1.00  0.00     0.020 A 
ATOM     73  C   UNL A   1      35.853  33.032  30.908  1.00  0.00     0.020 A 
ATOM     74  C   UNL A   1      35.398  33.394  32.174  1.00  0.00     0.054 A 
BRANCH  74  75
ATOM     75  S   UNL A   1      34.319  34.843  32.380  1.00  0.00     0.124 S 
ATOM     76  O   UNL A   1      34.076  35.249  30.999  1.00  0.00    -0.237 OA
ATOM     77  O   UNL A   1      33.169  34.283  33.085  1.00  0.00    -0.237 OA
ATOM     78  O   UNL A   1      35.132  35.769  33.165  1.00  0.00    -0.744 OA
ENDBRANCH  74  75
ENDBRANCH  46  69
BRANCH  58  79
ATOM     79  C   UNL A   1      42.916  29.030  33.740  1.00  0.00    -0.014 A 
ATOM     80  C   UNL A   1      43.517  29.174  35.007  1.00  0.00     0.010 A 
ATOM     81  C   UNL A   1      42.018  27.967  33.545  1.00  0.00     0.010 A 
ATOM     82  C   UNL A   1      43.248  28.258  36.037  1.00  0.00     0.020 A 
ATOM     83  C   UNL A   1      41.731  27.063  34.571  1.00  0.00     0.020 A 
ATOM     84  C   UNL A   1      42.355  27.206  35.810  1.00  0.00     0.054 A 
BRANCH  84  85
ATOM     85  S   UNL A   1      41.978  26.046  37.154  1.00  0.00     0.124 S 
ATOM     86  O   UNL A   1      42.254  24.750  36.541  1.00  0.00    -0.237 OA
ATOM     87  O   UNL A   1      42.905  26.455  38.208  1.00  0.00    -0.237 OA
ATOM     88  O   UNL A   1      40.568  26.301  37.449  1.00  0.00    -0.744 OA
ENDBRANCH  84  85
ENDBRANCH  58  79
ENDBRANCH  32  33
ENDBRANCH  24  27
ENDBRANCH  22  23
ENDBRANCH  21  22
ENDBRANCH   1  21
TORSDOF 18
ENDMDL
MODEL 2
REMARK VINA RESULT:     -11.4      3.428      5.119
REMARK SMILES CNC(=O)CCCn1cc(C(=O)NCCCCNC(=O)c2ccc(-c3c4nc(c(-c5ccc(S(=O)(=O)[O-])cc5)c5ccc([nH]5)c(-c5ccc(S(=O)(=O)[O-])cc5)c5nc(c(-c6ccc(S(=O)(=O)[O-])cc6)c6ccc3[nH]6)C=C5)C=C4)cc2)cc1Br
REMARK SMILES IDX 15 1 14 2 13 3 11 4 12 5 10 7 8 8 9 9 82 10 81 11 83 12 7 13
REMARK SMILES IDX 6 14 5 15 3 16 1 17 2 18 4 20 16 21 17 22 18 23 19 24 20 26
REMARK SMILES IDX 21 27 22 28 80 29 23 30 79 31 24 32 25 33 26 34 73 35 27 36
REMARK SMILES IDX 78 37 72 38 74 39 28 40 77 41 71 42 70 43 29 45 59 46 40 47
REMARK SMILES IDX 58 48 41 49 44 50 57 51 75 52 42 53 43 54 56 56 76 57 45 58
REMARK SMILES IDX 30 59 31 60 39 61 32 62 38 63 33 64 34 65 35 66 36 67 37 68
REMARK SMILES IDX 60 69 61 70 69 71 62 72 68 73 63 74 64 75 65 76 66 77 67 78
REMARK SMILES IDX 46 79 47 80 55 81 48 82 54 83 49 84 50 85 51 86 52 87 53 88
REMARK H PARENT 13 6 2 19 18 25 74 44 44 55
REMARK Flexibility Score: inf
ROOT
ATOM      1  C   UNL A   1      40.001  19.872  25.844  1.00  0.00     0.023 C 
ENDROOT
BRANCH   1   2
ATOM      2  C   UNL A   1      38.707  20.536  25.358  1.00  0.00     0.116 C 
BRANCH   2   3
ATOM      3  N   UNL A   1      38.607  21.938  25.706  1.00  0.00    -0.352 N 
ATOM      4  C   UNL A   1      37.595  22.865  25.631  1.00  0.00     0.252 C 
ATOM      5  O   UNL A   1      37.891  24.020  25.942  1.00  0.00    -0.269 OA
ATOM      6  H   UNL A   1      39.443  22.306  26.074  1.00  0.00     0.163 HD
BRANCH   4   7
ATOM      7  C   UNL A   1      36.247  22.555  25.146  1.00  0.00     0.058 A 
ATOM      8  N   UNL A   1      34.235  21.638  24.731  1.00  0.00    -0.342 N 
ATOM      9  C   UNL A   1      35.270  21.706  25.641  1.00  0.00     0.100 A 
ATOM     10  C   UNL A   1      34.381  22.658  23.837  1.00  0.00     0.085 A 
ATOM     11  C   UNL A   1      35.621  23.217  24.036  1.00  0.00     0.049 A 
ATOM     12  Br  UNL A   1      33.164  23.227  22.541  1.00  0.00    -0.031 Br
BRANCH   8  13
ATOM     13  C   UNL A   1      33.192  20.626  24.755  1.00  0.00     0.123 C 
BRANCH  13  14
ATOM     14  C   UNL A   1      33.593  19.254  24.188  1.00  0.00     0.032 C 
BRANCH  14  15
ATOM     15  C   UNL A   1      32.606  18.102  24.406  1.00  0.00     0.102 C 
BRANCH  15  16
ATOM     16  C   UNL A   1      33.116  16.779  23.868  1.00  0.00     0.219 C 
ATOM     17  C   UNL A   1      32.326  15.464  25.865  1.00  0.00     0.142 C 
ATOM     18  N   UNL A   1      32.920  15.632  24.569  1.00  0.00    -0.359 N 
ATOM     19  H   UNL A   1      33.225  14.806  24.131  1.00  0.00     0.163 HD
ATOM     20  O   UNL A   1      33.693  16.715  22.782  1.00  0.00    -0.275 OA
ENDBRANCH  15  16
ENDBRANCH  14  15
ENDBRANCH  13  14
ENDBRANCH   8  13
ENDBRANCH   4   7
ENDBRANCH   2   3
ENDBRANCH   1   2
BRANCH   1  21
ATOM     21  C   UNL A   1      40.851  20.677  26.835  1.00  0.00     0.023 C 
BRANCH  21  22
ATOM     22  C   UNL A   1      42.070  19.945  27.388  1.00  0.00     0.116 C 
BRANCH  22  23
ATOM     23  N   UNL A   1      43.047  19.574  26.363  1.00  0.00    -0.352 N 
ATOM     24  C   UNL A   1      43.653  20.421  25.446  1.00  0.00     0.251 C 
ATOM     25  H   UNL A   1      43.301  18.624  26.321  1.00  0.00     0.163 HD
ATOM     26  O   UNL A   1      44.136  19.994  24.413  1.00  0.00    -0.269 OA
BRANCH  24  27
ATOM     27  C   UNL A   1      43.700  21.860  25.770  1.00  0.00     0.039 A 
ATOM     28  C   UNL A   1      42.914  22.791  25.087  1.00  0.00     0.014 A 
ATOM     29  C   UNL A   1      44.489  22.242  26.852  1.00  0.00     0.014 A 
ATOM     30  C   UNL A   1      42.843  24.095  25.578  1.00  0.00     0.010 A 
ATOM     31  C   UNL A   1      44.318  23.489  27.405  1.00  0.00     0.010 A 
ATOM     32  C   UNL A   1      43.519  24.433  26.762  1.00  0.00    -0.014 A 
BRANCH  32  33
ATOM     33  C   UNL A   1      43.291  25.726  27.409  1.00  0.00     0.031 A 
ATOM     34  C   UNL A   1      44.279  26.796  27.079  1.00  0.00     0.074 A 
ATOM     35  C   UNL A   1      42.160  26.040  28.080  1.00  0.00     0.049 A 
ATOM     36  N   UNL A   1      45.154  27.331  27.865  1.00  0.00    -0.248 NA
ATOM     37  C   UNL A   1      44.378  27.253  25.683  1.00  0.00     0.031 C 
ATOM     38  C   UNL A   1      40.940  25.240  28.248  1.00  0.00     0.029 A 
ATOM     39  N   UNL A   1      41.820  27.220  28.665  1.00  0.00    -0.354 N 
ATOM     40  C   UNL A   1      45.780  28.336  27.129  1.00  0.00     0.074 A 
ATOM     41  C   UNL A   1      45.378  28.135  25.759  1.00  0.00     0.031 C 
ATOM     42  C   UNL A   1      39.929  26.034  28.665  1.00  0.00     0.029 A 
ATOM     43  C   UNL A   1      40.471  27.341  28.979  1.00  0.00     0.049 A 
ATOM     44  H   UNL A   1      42.476  27.932  28.850  1.00  0.00     0.167 HD
ATOM     45  C   UNL A   1      46.407  29.386  27.732  1.00  0.00     0.031 A 
ATOM     46  C   UNL A   1      39.843  28.442  29.463  1.00  0.00     0.031 A 
ATOM     47  C   UNL A   1      46.585  29.161  29.144  1.00  0.00     0.049 A 
ATOM     48  C   UNL A   1      40.885  29.297  30.077  1.00  0.00     0.074 A 
ATOM     49  C   UNL A   1      47.239  28.214  29.908  1.00  0.00     0.029 A 
ATOM     50  N   UNL A   1      45.692  29.775  29.990  1.00  0.00    -0.354 N 
ATOM     51  N   UNL A   1      41.561  28.949  31.135  1.00  0.00    -0.248 NA
ATOM     52  C   UNL A   1      41.486  30.343  29.268  1.00  0.00     0.031 C 
ATOM     53  C   UNL A   1      46.367  27.971  31.010  1.00  0.00     0.029 A 
ATOM     54  C   UNL A   1      45.274  28.833  30.894  1.00  0.00     0.049 A 
ATOM     55  H   UNL A   1      45.405  30.717  29.953  1.00  0.00     0.167 HD
ATOM     56  C   UNL A   1      42.850  29.401  30.896  1.00  0.00     0.074 A 
ATOM     57  C   UNL A   1      42.717  30.342  29.786  1.00  0.00     0.031 C 
ATOM     58  C   UNL A   1      43.933  28.767  31.438  1.00  0.00     0.031 A 
BRANCH  45  59
ATOM     59  C   UNL A   1      46.523  30.770  27.139  1.00  0.00    -0.014 A 
ATOM     60  C   UNL A   1      47.796  31.373  27.053  1.00  0.00     0.010 A 
ATOM     61  C   UNL A   1      45.408  31.604  26.921  1.00  0.00     0.010 A 
ATOM     62  C   UNL A   1      47.940  32.750  26.834  1.00  0.00     0.020 A 
ATOM     63  C   UNL A   1      45.542  32.970  26.659  1.00  0.00     0.020 A 
ATOM     64  C   UNL A   1      46.807  33.541  26.652  1.00  0.00     0.054 A 
BRANCH  64  65
ATOM     65  S   UNL A   1      46.996  35.334  26.477  1.00  0.00     0.124 S 
ATOM     66  O   UNL A   1      45.682  35.726  25.977  1.00  0.00    -0.237 OA
ATOM     67  O   UNL A   1      47.306  35.747  27.842  1.00  0.00    -0.237 OA
ATOM     68  O   UNL A   1      48.097  35.470  25.525  1.00  0.00    -0.744 OA
ENDBRANCH  64  65
ENDBRANCH  45  59
BRANCH  46  69
ATOM     69  C   UNL A   1      38.467  28.925  29.201  1.00  0.00    -0.014 A 
ATOM     70  C   UNL A   1      37.647  29.360  30.259  1.00  0.00     0.010 A 
ATOM     71  C   UNL A   1      38.075  29.252  27.886  1.00  0.00     0.010 A 
ATOM     72  C   UNL A   1      36.521  30.163  30.017  1.00  0.00     0.020 A 
ATOM     73  C   UNL A   1      36.950  30.049  27.639  1.00  0.00     0.020 A 
ATOM     74  C   UNL A   1      36.194  30.525  28.708  1.00  0.00     0.054 A 
BRANCH  74  75
ATOM     75  S   UNL A   1      34.865  31.734  28.424  1.00  0.00     0.124 S 
ATOM     76  O   UNL A   1      34.540  32.162  29.782  1.00  0.00    -0.237 OA
ATOM     77  O   UNL A   1      35.519  32.734  27.585  1.00  0.00    -0.237 OA
ATOM     78  O   UNL A   1      33.826  30.952  27.756  1.00  0.00    -0.744 OA
ENDBRANCH  74  75
ENDBRANCH  46  69
BRANCH  58  79
ATOM     79  C   UNL A   1      43.700  27.746  32.531  1.00  0.00    -0.014 A 
ATOM     80  C   UNL A   1      44.009  26.376  32.409  1.00  0.00     0.010 A 
ATOM     81  C   UNL A   1      43.283  28.226  33.784  1.00  0.00     0.010 A 
ATOM     82  C   UNL A   1      43.875  25.509  33.506  1.00  0.00     0.020 A 
ATOM     83  C   UNL A   1      43.165  27.374  34.884  1.00  0.00     0.020 A 
ATOM     84  C   UNL A   1      43.451  26.017  34.738  1.00  0.00     0.054 A 
BRANCH  84  85
ATOM     85  S   UNL A   1      43.315  24.903  36.165  1.00  0.00     0.124 S 
ATOM     86  O   UNL A   1      44.097  25.596  37.185  1.00  0.00    -0.237 OA
ATOM     87  O   UNL A   1      41.874  24.852  36.403  1.00  0.00    -0.237 OA
ATOM     88  O   UNL A   1      43.899  23.650  35.686  1.00  0.00    -0.744 OA
ENDBRANCH  84  85
ENDBRANCH  58  79
ENDBRANCH  32  33
ENDBRANCH  24  27
ENDBRANCH  22  23
ENDBRANCH  21  22
ENDBRANCH   1  21
TORSDOF 18
ENDMDL
MODEL 3
REMARK VINA RESULT:     -11.3      3.139      8.019
REMARK SMILES CNC(=O)CCCn1cc(C(=O)NCCCCNC(=O)c2ccc(-c3c4nc(c(-c5ccc(S(=O)(=O)[O-])cc5)c5ccc([nH]5)c(-c5ccc(S(=O)(=O)[O-])cc5)c5nc(c(-c6ccc(S(=O)(=O)[O-])cc6)c6ccc3[nH]6)C=C5)C=C4)cc2)cc1Br
REMARK SMILES IDX 15 1 14 2 13 3 11 4 12 5 10 7 8 8 9 9 82 10 81 11 83 12 7 13
REMARK SMILES IDX 6 14 5 15 3 16 1 17 2 18 4 20 16 21 17 22 18 23 19 24 20 26
REMARK SMILES IDX 21 27 22 28 80 29 23 30 79 31 24 32 25 33 26 34 73 35 27 36
REMARK SMILES IDX 78 37 72 38 74 39 28 40 77 41 71 42 70 43 29 45 59 46 40 47
REMARK SMILES IDX 58 48 41 49 44 50 57 51 75 52 42 53 43 54 56 56 76 57 45 58
REMARK SMILES IDX 30 59 31 60 39 61 32 62 38 63 33 64 34 65 35 66 36 67 37 68
REMARK SMILES IDX 60 69 61 70 69 71 62 72 68 73 63 74 64 75 65 76 66 77 67 78
REMARK SMILES IDX 46 79 47 80 55 81 48 82 54 83 49 84 50 85 51 86 52 87 53 88
REMARK H PARENT 13 6 2 19 18 25 74 44 44 55
REMARK Flexibility Score: inf
ROOT
ATOM      1  C   UNL A   1      34.495  30.972  27.671  1.00  0.00     0.023 C 
ENDROOT
BRANCH   1   2
ATOM      2  C   UNL A   1      34.342  29.481  27.343  1.00  0.00     0.116 C 
BRANCH   2   3
ATOM      3  N   UNL A   1      33.094  28.910  27.806  1.00  0.00    -0.352 N 
ATOM      4  C   UNL A   1      31.984  28.412  27.168  1.00  0.00     0.252 C 
ATOM      5  O   UNL A   1      31.045  28.077  27.893  1.00  0.00    -0.269 OA
ATOM      6  H   UNL A   1      33.027  28.871  28.788  1.00  0.00     0.163 HD
BRANCH   4   7
ATOM      7  C   UNL A   1      31.854  28.334  25.711  1.00  0.00     0.058 A 
ATOM      8  N   UNL A   1      31.226  28.555  23.561  1.00  0.00    -0.342 N 
ATOM      9  C   UNL A   1      31.185  29.145  24.808  1.00  0.00     0.100 A 
ATOM     10  C   UNL A   1      32.168  27.567  23.584  1.00  0.00     0.085 A 
ATOM     11  C   UNL A   1      32.546  27.377  24.892  1.00  0.00     0.049 A 
ATOM     12  Br  UNL A   1      32.847  26.599  22.140  1.00  0.00    -0.031 Br
BRANCH   8  13
ATOM     13  C   UNL A   1      30.383  28.945  22.444  1.00  0.00     0.123 C 
BRANCH  13  14
ATOM     14  C   UNL A   1      28.869  28.863  22.701  1.00  0.00     0.032 C 
BRANCH  14  15
ATOM     15  C   UNL A   1      27.998  29.936  22.038  1.00  0.00     0.102 C 
BRANCH  15  16
ATOM     16  C   UNL A   1      28.241  31.322  22.603  1.00  0.00     0.219 C 
ATOM     17  C   UNL A   1      27.857  32.477  20.397  1.00  0.00     0.142 C 
ATOM     18  N   UNL A   1      28.123  32.417  21.806  1.00  0.00    -0.359 N 
ATOM     19  H   UNL A   1      28.237  33.285  22.255  1.00  0.00     0.163 HD
ATOM     20  O   UNL A   1      28.523  31.485  23.791  1.00  0.00    -0.275 OA
ENDBRANCH  15  16
ENDBRANCH  14  15
ENDBRANCH  13  14
ENDBRANCH   8  13
ENDBRANCH   4   7
ENDBRANCH   2   3
ENDBRANCH   1   2
BRANCH   1  21
ATOM     21  C   UNL A   1      33.196  31.762  27.877  1.00  0.00     0.023 C 
BRANCH  21  22
ATOM     22  C   UNL A   1      33.149  33.121  27.186  1.00  0.00     0.116 C 
BRANCH  22  23
ATOM     23  N   UNL A   1      32.650  34.199  28.041  1.00  0.00    -0.352 N 
ATOM     24  C   UNL A   1      33.136  34.564  29.289  1.00  0.00     0.251 C 
ATOM     25  H   UNL A   1      31.890  34.720  27.695  1.00  0.00     0.163 HD
ATOM     26  O   UNL A   1      32.449  35.184  30.080  1.00  0.00    -0.269 OA
BRANCH  24  27
ATOM     27  C   UNL A   1      34.521  34.178  29.623  1.00  0.00     0.039 A 
ATOM     28  C   UNL A   1      34.813  33.384  30.735  1.00  0.00     0.014 A 
ATOM     29  C   UNL A   1      35.519  34.558  28.730  1.00  0.00     0.014 A 
ATOM     30  C   UNL A   1      36.107  32.880  30.875  1.00  0.00     0.010 A 
ATOM     31  C   UNL A   1      36.754  33.959  28.802  1.00  0.00     0.010 A 
ATOM     32  C   UNL A   1      37.069  33.139  29.885  1.00  0.00    -0.014 A 
BRANCH  32  33
ATOM     33  C   UNL A   1      38.361  32.452  29.901  1.00  0.00     0.031 A 
ATOM     34  C   UNL A   1      38.342  31.031  29.440  1.00  0.00     0.074 A 
ATOM     35  C   UNL A   1      39.542  33.080  30.090  1.00  0.00     0.049 A 
ATOM     36  N   UNL A   1      38.542  29.970  30.149  1.00  0.00    -0.248 NA
ATOM     37  C   UNL A   1      37.949  30.749  28.049  1.00  0.00     0.031 C 
ATOM     38  C   UNL A   1      39.804  34.517  30.245  1.00  0.00     0.029 A 
ATOM     39  N   UNL A   1      40.797  32.554  30.068  1.00  0.00    -0.354 N 
ATOM     40  C   UNL A   1      38.508  28.894  29.264  1.00  0.00     0.074 A 
ATOM     41  C   UNL A   1      37.984  29.415  28.025  1.00  0.00     0.031 C 
ATOM     42  C   UNL A   1      41.119  34.763  30.054  1.00  0.00     0.029 A 
ATOM     43  C   UNL A   1      41.815  33.495  29.962  1.00  0.00     0.049 A 
ATOM     44  H   UNL A   1      40.970  31.586  30.121  1.00  0.00     0.167 HD
ATOM     45  C   UNL A   1      39.114  27.706  29.549  1.00  0.00     0.031 A 
ATOM     46  C   UNL A   1      43.140  33.247  29.807  1.00  0.00     0.031 A 
ATOM     47  C   UNL A   1      39.505  27.626  30.933  1.00  0.00     0.049 A 
ATOM     48  C   UNL A   1      43.377  31.865  30.282  1.00  0.00     0.074 A 
ATOM     49  C   UNL A   1      38.838  27.679  32.142  1.00  0.00     0.029 A 
ATOM     50  N   UNL A   1      40.827  27.870  31.223  1.00  0.00    -0.354 N 
ATOM     51  N   UNL A   1      43.231  31.502  31.525  1.00  0.00    -0.248 NA
ATOM     52  C   UNL A   1      43.352  30.786  29.309  1.00  0.00     0.031 C 
ATOM     53  C   UNL A   1      39.693  28.438  32.995  1.00  0.00     0.029 A 
ATOM     54  C   UNL A   1      40.858  28.736  32.285  1.00  0.00     0.049 A 
ATOM     55  H   UNL A   1      41.607  27.493  30.753  1.00  0.00     0.167 HD
ATOM     56  C   UNL A   1      42.664  30.237  31.461  1.00  0.00     0.074 A 
ATOM     57  C   UNL A   1      42.863  29.808  30.078  1.00  0.00     0.031 C 
ATOM     58  C   UNL A   1      41.852  29.776  32.458  1.00  0.00     0.031 A 
BRANCH  45  59
ATOM     59  C   UNL A   1      39.698  26.772  28.515  1.00  0.00    -0.014 A 
ATOM     60  C   UNL A   1      39.520  25.381  28.672  1.00  0.00     0.010 A 
ATOM     61  C   UNL A   1      40.643  27.188  27.555  1.00  0.00     0.010 A 
ATOM     62  C   UNL A   1      40.299  24.459  27.959  1.00  0.00     0.020 A 
ATOM     63  C   UNL A   1      41.393  26.277  26.808  1.00  0.00     0.020 A 
ATOM     64  C   UNL A   1      41.241  24.917  27.041  1.00  0.00     0.054 A 
BRANCH  64  65
ATOM     65  S   UNL A   1      42.316  23.724  26.203  1.00  0.00     0.124 S 
ATOM     66  O   UNL A   1      43.334  23.474  27.219  1.00  0.00    -0.237 OA
ATOM     67  O   UNL A   1      41.401  22.618  25.936  1.00  0.00    -0.237 OA
ATOM     68  O   UNL A   1      42.774  24.448  25.020  1.00  0.00    -0.744 OA
ENDBRANCH  64  65
ENDBRANCH  45  59
BRANCH  46  69
ATOM     69  C   UNL A   1      44.152  34.013  29.044  1.00  0.00    -0.014 A 
ATOM     70  C   UNL A   1      43.956  34.298  27.679  1.00  0.00     0.010 A 
ATOM     71  C   UNL A   1      45.156  34.728  29.728  1.00  0.00     0.010 A 
ATOM     72  C   UNL A   1      44.679  35.320  27.043  1.00  0.00     0.020 A 
ATOM     73  C   UNL A   1      45.886  35.745  29.097  1.00  0.00     0.020 A 
ATOM     74  C   UNL A   1      45.623  36.056  27.765  1.00  0.00     0.054 A 
BRANCH  74  75
ATOM     75  S   UNL A   1      46.398  37.508  26.992  1.00  0.00     0.124 S 
ATOM     76  O   UNL A   1      47.257  38.008  28.062  1.00  0.00    -0.237 OA
ATOM     77  O   UNL A   1      47.090  36.926  25.846  1.00  0.00    -0.237 OA
ATOM     78  O   UNL A   1      45.263  38.366  26.657  1.00  0.00    -0.744 OA
ENDBRANCH  74  75
ENDBRANCH  46  69
BRANCH  58  79
ATOM     79  C   UNL A   1      41.808  30.538  33.765  1.00  0.00    -0.014 A 
ATOM     80  C   UNL A   1      41.156  31.776  33.933  1.00  0.00     0.010 A 
ATOM     81  C   UNL A   1      42.328  29.898  34.902  1.00  0.00     0.010 A 
ATOM     82  C   UNL A   1      41.056  32.368  35.203  1.00  0.00     0.020 A 
ATOM     83  C   UNL A   1      42.217  30.471  36.171  1.00  0.00     0.020 A 
ATOM     84  C   UNL A   1      41.591  31.709  36.315  1.00  0.00     0.054 A 
BRANCH  84  85
ATOM     85  S   UNL A   1      41.428  32.457  37.962  1.00  0.00     0.124 S 
ATOM     86  O   UNL A   1      42.326  31.639  38.771  1.00  0.00    -0.237 OA
ATOM     87  O   UNL A   1      41.860  33.835  37.738  1.00  0.00    -0.237 OA
ATOM     88  O   UNL A   1      40.006  32.305  38.274  1.00  0.00    -0.744 OA
ENDBRANCH  84  85
ENDBRANCH  58  79
ENDBRANCH  32  33
ENDBRANCH  24  27
ENDBRANCH  22  23
ENDBRANCH  21  22
ENDBRANCH   1  21
TORSDOF 18
ENDMDL
