MODEL 1
REMARK VINA RESULT:     -11.5      0.000      0.000
REMARK SMILES Cc1cc(C)c2c(O[C@@H](C)C(=O)NCCCCNC(=O)c3ccc(-c4c5nc(c(-c6ccc(S(=O)(=O)[O-])cc6)c6ccc([nH]6)c(-c6ccc(S(=O)(=O)[O-])cc6)c6nc(c(-c7ccc(S(=O)(=O)[O-])cc7)c7ccc4[nH]7)C=C6)C=C5)cc3)nsc2n1
REMARK SMILES IDX 16 1 15 2 14 3 13 4 11 5 12 6 9 8 10 9 8 10 7 11 1 12 2 13
REMARK SMILES IDX 3 14 84 15 4 16 83 17 5 18 6 19 82 20 81 21 17 22 18 23
REMARK SMILES IDX 19 24 20 26 21 27 22 28 80 29 23 30 79 31 24 32 25 33 26 34
REMARK SMILES IDX 73 35 27 36 78 37 72 38 74 39 28 40 77 41 71 42 70 43 29 45
REMARK SMILES IDX 59 46 40 47 58 48 41 49 44 50 57 51 75 52 42 53 43 54 56 56
REMARK SMILES IDX 76 57 45 58 30 59 31 60 39 61 32 62 38 63 33 64 34 65 35 66
REMARK SMILES IDX 36 67 37 68 60 69 61 70 69 71 62 72 68 73 63 74 64 75 65 76
REMARK SMILES IDX 66 77 67 78 46 79 47 80 55 81 48 82 54 83 49 84 50 85 51 86
REMARK SMILES IDX 52 87 53 88
REMARK H PARENT 13 7 18 25 74 44 44 55
REMARK Flexibility Score: inf
ROOT
ATOM      1  C   UNL A   1      38.893  21.923  26.105  1.00  0.00     0.023 C 
ENDROOT
BRANCH   1   2
ATOM      2  C   UNL A   1      38.219  23.308  26.012  1.00  0.00     0.023 C 
BRANCH   2   3
ATOM      3  C   UNL A   1      36.732  23.298  26.389  1.00  0.00     0.116 C 
BRANCH   3   4
ATOM      4  N   UNL A   1      36.027  22.047  26.216  1.00  0.00    -0.353 N 
ATOM      5  C   UNL A   1      35.656  21.446  25.043  1.00  0.00     0.260 C 
ATOM      6  O   UNL A   1      35.755  20.214  25.001  1.00  0.00    -0.271 OA
ATOM      7  H   UNL A   1      35.786  21.570  27.042  1.00  0.00     0.163 HD
BRANCH   5   8
ATOM      8  C   UNL A   1      34.974  22.214  23.868  1.00  0.00     0.260 C 
ATOM      9  C   UNL A   1      35.822  23.270  23.148  1.00  0.00     0.064 C 
BRANCH   8  10
ATOM     10  O   UNL A   1      33.599  22.402  23.753  1.00  0.00    -0.463 OA
BRANCH  10  11
ATOM     11  C   UNL A   1      32.824  23.115  24.596  1.00  0.00     0.235 A 
ATOM     12  C   UNL A   1      31.759  28.039  27.203  1.00  0.00     0.067 C 
ATOM     13  C   UNL A   1      31.952  26.839  26.324  1.00  0.00     0.039 A 
ATOM     14  C   UNL A   1      32.448  26.967  25.036  1.00  0.00     0.027 A 
ATOM     15  N   UNL A   1      31.669  25.658  26.877  1.00  0.00    -0.240 NA
ATOM     16  C   UNL A   1      32.771  25.829  24.254  1.00  0.00    -0.034 A 
ATOM     17  C   UNL A   1      31.956  24.589  26.119  1.00  0.00     0.147 A 
ATOM     18  C   UNL A   1      33.324  26.160  22.888  1.00  0.00     0.045 C 
ATOM     19  C   UNL A   1      32.540  24.537  24.842  1.00  0.00     0.078 A 
ATOM     20  S   UNL A   1      31.637  23.037  26.720  1.00  0.00    -0.012 S 
ATOM     21  N   UNL A   1      32.325  22.239  25.470  1.00  0.00    -0.153 NA
ENDBRANCH  10  11
ENDBRANCH   8  10
ENDBRANCH   5   8
ENDBRANCH   3   4
ENDBRANCH   2   3
ENDBRANCH   1   2
BRANCH   1  22
ATOM     22  C   UNL A   1      40.229  21.911  26.849  1.00  0.00     0.116 C 
BRANCH  22  23
ATOM     23  N   UNL A   1      41.421  21.769  26.018  1.00  0.00    -0.352 N 
ATOM     24  C   UNL A   1      42.240  22.785  25.555  1.00  0.00     0.251 C 
ATOM     25  H   UNL A   1      41.668  20.852  25.758  1.00  0.00     0.163 HD
ATOM     26  O   UNL A   1      43.029  22.579  24.624  1.00  0.00    -0.269 OA
BRANCH  24  27
ATOM     27  C   UNL A   1      42.193  24.123  26.189  1.00  0.00     0.039 A 
ATOM     28  C   UNL A   1      41.370  25.151  25.712  1.00  0.00     0.014 A 
ATOM     29  C   UNL A   1      43.040  24.369  27.268  1.00  0.00     0.014 A 
ATOM     30  C   UNL A   1      41.340  26.377  26.386  1.00  0.00     0.010 A 
ATOM     31  C   UNL A   1      42.970  25.541  27.974  1.00  0.00     0.010 A 
ATOM     32  C   UNL A   1      42.131  26.555  27.529  1.00  0.00    -0.014 A 
BRANCH  32  33
ATOM     33  C   UNL A   1      41.962  27.698  28.423  1.00  0.00     0.031 A 
ATOM     34  C   UNL A   1      42.951  28.799  28.200  1.00  0.00     0.074 A 
ATOM     35  C   UNL A   1      40.804  27.918  29.085  1.00  0.00     0.049 A 
ATOM     36  N   UNL A   1      43.779  29.326  29.039  1.00  0.00    -0.248 NA
ATOM     37  C   UNL A   1      43.109  29.302  26.821  1.00  0.00     0.031 C 
ATOM     38  C   UNL A   1      39.577  27.111  29.045  1.00  0.00     0.029 A 
ATOM     39  N   UNL A   1      40.417  29.009  29.797  1.00  0.00    -0.354 N 
ATOM     40  C   UNL A   1      44.443  30.339  28.346  1.00  0.00     0.074 A 
ATOM     41  C   UNL A   1      44.122  30.157  26.955  1.00  0.00     0.031 C 
ATOM     42  C   UNL A   1      38.535  27.855  29.484  1.00  0.00     0.029 A 
ATOM     43  C   UNL A   1      39.042  29.123  29.976  1.00  0.00     0.049 A 
ATOM     44  H   UNL A   1      41.058  29.665  30.157  1.00  0.00     0.167 HD
ATOM     45  C   UNL A   1      45.043  31.392  28.971  1.00  0.00     0.031 A 
ATOM     46  C   UNL A   1      38.375  30.217  30.429  1.00  0.00     0.031 A 
ATOM     47  C   UNL A   1      45.149  31.180  30.388  1.00  0.00     0.049 A 
ATOM     48  C   UNL A   1      39.374  31.088  31.097  1.00  0.00     0.074 A 
ATOM     49  C   UNL A   1      45.808  30.272  31.190  1.00  0.00     0.029 A 
ATOM     50  N   UNL A   1      44.168  31.738  31.173  1.00  0.00    -0.354 N 
ATOM     51  N   UNL A   1      40.030  30.744  32.168  1.00  0.00    -0.248 NA
ATOM     52  C   UNL A   1      39.964  32.169  30.325  1.00  0.00     0.031 C 
ATOM     53  C   UNL A   1      44.891  29.981  32.243  1.00  0.00     0.029 A 
ATOM     54  C   UNL A   1      43.758  30.779  32.065  1.00  0.00     0.049 A 
ATOM     55  H   UNL A   1      43.822  32.658  31.107  1.00  0.00     0.167 HD
ATOM     56  C   UNL A   1      41.309  31.246  31.979  1.00  0.00     0.074 A 
ATOM     57  C   UNL A   1      41.179  32.200  30.880  1.00  0.00     0.031 C 
ATOM     58  C   UNL A   1      42.396  30.637  32.541  1.00  0.00     0.031 A 
BRANCH  45  59
ATOM     59  C   UNL A   1      45.217  32.756  28.347  1.00  0.00    -0.014 A 
ATOM     60  C   UNL A   1      46.410  33.473  28.567  1.00  0.00     0.010 A 
ATOM     61  C   UNL A   1      44.151  33.462  27.748  1.00  0.00     0.010 A 
ATOM     62  C   UNL A   1      46.516  34.832  28.233  1.00  0.00     0.020 A 
ATOM     63  C   UNL A   1      44.262  34.802  27.370  1.00  0.00     0.020 A 
ATOM     64  C   UNL A   1      45.437  35.488  27.641  1.00  0.00     0.054 A 
BRANCH  64  65
ATOM     65  S   UNL A   1      45.555  37.260  27.290  1.00  0.00     0.124 S 
ATOM     66  O   UNL A   1      45.982  37.797  28.578  1.00  0.00    -0.237 OA
ATOM     67  O   UNL A   1      46.553  37.299  26.224  1.00  0.00    -0.237 OA
ATOM     68  O   UNL A   1      44.199  37.619  26.880  1.00  0.00    -0.744 OA
ENDBRANCH  64  65
ENDBRANCH  45  59
BRANCH  46  69
ATOM     69  C   UNL A   1      37.049  30.741  29.998  1.00  0.00    -0.014 A 
ATOM     70  C   UNL A   1      36.246  31.472  30.897  1.00  0.00     0.010 A 
ATOM     71  C   UNL A   1      36.725  30.807  28.629  1.00  0.00     0.010 A 
ATOM     72  C   UNL A   1      35.226  32.319  30.432  1.00  0.00     0.020 A 
ATOM     73  C   UNL A   1      35.702  31.641  28.160  1.00  0.00     0.020 A 
ATOM     74  C   UNL A   1      34.982  32.422  29.062  1.00  0.00     0.054 A 
BRANCH  74  75
ATOM     75  S   UNL A   1      33.831  33.692  28.452  1.00  0.00     0.124 S 
ATOM     76  O   UNL A   1      32.910  32.910  27.633  1.00  0.00    -0.237 OA
ATOM     77  O   UNL A   1      33.276  34.232  29.690  1.00  0.00    -0.237 OA
ATOM     78  O   UNL A   1      34.696  34.609  27.712  1.00  0.00    -0.744 OA
ENDBRANCH  74  75
ENDBRANCH  46  69
BRANCH  58  79
ATOM     79  C   UNL A   1      42.147  29.571  33.590  1.00  0.00    -0.014 A 
ATOM     80  C   UNL A   1      41.780  28.241  33.294  1.00  0.00     0.010 A 
ATOM     81  C   UNL A   1      42.413  29.902  34.929  1.00  0.00     0.010 A 
ATOM     82  C   UNL A   1      41.639  27.287  34.315  1.00  0.00     0.020 A 
ATOM     83  C   UNL A   1      42.294  28.953  35.948  1.00  0.00     0.020 A 
ATOM     84  C   UNL A   1      41.892  27.654  35.639  1.00  0.00     0.054 A 
BRANCH  84  85
ATOM     85  S   UNL A   1      41.710  26.419  36.957  1.00  0.00     0.124 S 
ATOM     86  O   UNL A   1      41.778  25.158  36.223  1.00  0.00    -0.237 OA
ATOM     87  O   UNL A   1      42.850  26.703  37.826  1.00  0.00    -0.237 OA
ATOM     88  O   UNL A   1      40.404  26.723  37.541  1.00  0.00    -0.744 OA
ENDBRANCH  84  85
ENDBRANCH  58  79
ENDBRANCH  32  33
ENDBRANCH  24  27
ENDBRANCH  22  23
ENDBRANCH   1  22
TORSDOF 16
ENDMDL
MODEL 2
REMARK VINA RESULT:     -11.2      2.695      9.157
REMARK SMILES Cc1cc(C)c2c(O[C@@H](C)C(=O)NCCCCNC(=O)c3ccc(-c4c5nc(c(-c6ccc(S(=O)(=O)[O-])cc6)c6ccc([nH]6)c(-c6ccc(S(=O)(=O)[O-])cc6)c6nc(c(-c7ccc(S(=O)(=O)[O-])cc7)c7ccc4[nH]7)C=C6)C=C5)cc3)nsc2n1
REMARK SMILES IDX 16 1 15 2 14 3 13 4 11 5 12 6 9 8 10 9 8 10 7 11 1 12 2 13
REMARK SMILES IDX 3 14 84 15 4 16 83 17 5 18 6 19 82 20 81 21 17 22 18 23
REMARK SMILES IDX 19 24 20 26 21 27 22 28 80 29 23 30 79 31 24 32 25 33 26 34
REMARK SMILES IDX 73 35 27 36 78 37 72 38 74 39 28 40 77 41 71 42 70 43 29 45
REMARK SMILES IDX 59 46 40 47 58 48 41 49 44 50 57 51 75 52 42 53 43 54 56 56
REMARK SMILES IDX 76 57 45 58 30 59 31 60 39 61 32 62 38 63 33 64 34 65 35 66
REMARK SMILES IDX 36 67 37 68 60 69 61 70 69 71 62 72 68 73 63 74 64 75 65 76
REMARK SMILES IDX 66 77 67 78 46 79 47 80 55 81 48 82 54 83 49 84 50 85 51 86
REMARK SMILES IDX 52 87 53 88
REMARK H PARENT 13 7 18 25 74 44 44 55
REMARK Flexibility Score: inf
ROOT
ATOM      1  C   UNL A   1      34.082  31.869  28.047  1.00  0.00     0.023 C 
ENDROOT
BRANCH   1   2
ATOM      2  C   UNL A   1      34.997  30.643  27.843  1.00  0.00     0.023 C 
BRANCH   2   3
ATOM      3  C   UNL A   1      34.371  29.541  26.980  1.00  0.00     0.116 C 
BRANCH   3   4
ATOM      4  N   UNL A   1      32.976  29.241  27.222  1.00  0.00    -0.353 N 
ATOM      5  C   UNL A   1      32.372  28.014  27.256  1.00  0.00     0.260 C 
ATOM      6  O   UNL A   1      31.495  27.855  28.112  1.00  0.00    -0.271 OA
ATOM      7  H   UNL A   1      32.391  30.016  27.383  1.00  0.00     0.163 HD
BRANCH   5   8
ATOM      8  C   UNL A   1      32.620  26.910  26.180  1.00  0.00     0.260 C 
ATOM      9  C   UNL A   1      33.761  27.157  25.186  1.00  0.00     0.064 C 
BRANCH   8  10
ATOM     10  O   UNL A   1      31.641  26.029  25.728  1.00  0.00    -0.463 OA
BRANCH  10  11
ATOM     11  C   UNL A   1      31.632  24.692  25.912  1.00  0.00     0.235 A 
ATOM     12  C   UNL A   1      32.531  19.505  23.799  1.00  0.00     0.067 C 
ATOM     13  C   UNL A   1      32.526  20.891  24.373  1.00  0.00     0.039 A 
ATOM     14  C   UNL A   1      33.415  21.855  23.926  1.00  0.00     0.027 A 
ATOM     15  N   UNL A   1      31.586  21.141  25.287  1.00  0.00    -0.240 NA
ATOM     16  C   UNL A   1      33.320  23.202  24.356  1.00  0.00    -0.034 A 
ATOM     17  C   UNL A   1      31.519  22.414  25.705  1.00  0.00     0.147 A 
ATOM     18  C   UNL A   1      34.355  24.117  23.746  1.00  0.00     0.045 C 
ATOM     19  C   UNL A   1      32.277  23.523  25.293  1.00  0.00     0.078 A 
ATOM     20  S   UNL A   1      30.365  22.846  26.867  1.00  0.00    -0.012 S 
ATOM     21  N   UNL A   1      30.677  24.449  26.813  1.00  0.00    -0.153 NA
ENDBRANCH  10  11
ENDBRANCH   8  10
ENDBRANCH   5   8
ENDBRANCH   3   4
ENDBRANCH   2   3
ENDBRANCH   1   2
BRANCH   1  22
ATOM     22  C   UNL A   1      34.768  33.082  28.676  1.00  0.00     0.116 C 
BRANCH  22  23
ATOM     23  N   UNL A   1      34.337  33.429  30.027  1.00  0.00    -0.352 N 
ATOM     24  C   UNL A   1      34.794  32.881  31.214  1.00  0.00     0.251 C 
ATOM     25  H   UNL A   1      33.647  34.127  30.102  1.00  0.00     0.163 HD
ATOM     26  O   UNL A   1      34.151  33.029  32.261  1.00  0.00    -0.269 OA
BRANCH  24  27
ATOM     27  C   UNL A   1      36.071  32.130  31.242  1.00  0.00     0.039 A 
ATOM     28  C   UNL A   1      36.118  30.734  31.326  1.00  0.00     0.014 A 
ATOM     29  C   UNL A   1      37.260  32.857  31.233  1.00  0.00     0.014 A 
ATOM     30  C   UNL A   1      37.358  30.085  31.301  1.00  0.00     0.010 A 
ATOM     31  C   UNL A   1      38.475  32.230  31.142  1.00  0.00     0.010 A 
ATOM     32  C   UNL A   1      38.531  30.842  31.189  1.00  0.00    -0.014 A 
BRANCH  32  33
ATOM     33  C   UNL A   1      39.828  30.234  30.901  1.00  0.00     0.031 A 
ATOM     34  C   UNL A   1      40.626  29.892  32.120  1.00  0.00     0.074 A 
ATOM     35  C   UNL A   1      40.096  29.667  29.704  1.00  0.00     0.049 A 
ATOM     36  N   UNL A   1      41.816  30.278  32.444  1.00  0.00    -0.248 NA
ATOM     37  C   UNL A   1      39.958  29.097  33.170  1.00  0.00     0.031 C 
ATOM     38  C   UNL A   1      39.207  29.560  28.538  1.00  0.00     0.029 A 
ATOM     39  N   UNL A   1      41.160  28.907  29.335  1.00  0.00    -0.354 N 
ATOM     40  C   UNL A   1      42.115  29.644  33.650  1.00  0.00     0.074 A 
ATOM     41  C   UNL A   1      40.880  29.083  34.132  1.00  0.00     0.031 C 
ATOM     42  C   UNL A   1      39.662  28.587  27.714  1.00  0.00     0.029 A 
ATOM     43  C   UNL A   1      40.943  28.116  28.210  1.00  0.00     0.049 A 
ATOM     44  H   UNL A   1      42.016  28.915  29.823  1.00  0.00     0.167 HD
ATOM     45  C   UNL A   1      43.392  29.434  34.078  1.00  0.00     0.031 A 
ATOM     46  C   UNL A   1      41.732  27.101  27.772  1.00  0.00     0.031 A 
ATOM     47  C   UNL A   1      44.344  30.176  33.298  1.00  0.00     0.049 A 
ATOM     48  C   UNL A   1      43.054  27.266  28.427  1.00  0.00     0.074 A 
ATOM     49  C   UNL A   1      44.591  31.515  33.080  1.00  0.00     0.029 A 
ATOM     50  N   UNL A   1      44.961  29.504  32.269  1.00  0.00    -0.354 N 
ATOM     51  N   UNL A   1      43.837  28.285  28.225  1.00  0.00    -0.248 NA
ATOM     52  C   UNL A   1      43.314  26.511  29.641  1.00  0.00     0.031 C 
ATOM     53  C   UNL A   1      44.914  31.607  31.693  1.00  0.00     0.029 A 
ATOM     54  C   UNL A   1      44.917  30.315  31.162  1.00  0.00     0.049 A 
ATOM     55  H   UNL A   1      45.360  28.605  32.317  1.00  0.00     0.167 HD
ATOM     56  C   UNL A   1      44.389  28.562  29.467  1.00  0.00     0.074 A 
ATOM     57  C   UNL A   1      44.112  27.376  30.273  1.00  0.00     0.031 C 
ATOM     58  C   UNL A   1      44.769  29.832  29.804  1.00  0.00     0.031 A 
BRANCH  45  59
ATOM     59  C   UNL A   1      43.806  28.291  34.974  1.00  0.00    -0.014 A 
ATOM     60  C   UNL A   1      44.687  28.534  36.046  1.00  0.00     0.010 A 
ATOM     61  C   UNL A   1      43.546  26.941  34.655  1.00  0.00     0.010 A 
ATOM     62  C   UNL A   1      45.299  27.479  36.739  1.00  0.00     0.020 A 
ATOM     63  C   UNL A   1      44.115  25.883  35.368  1.00  0.00     0.020 A 
ATOM     64  C   UNL A   1      45.012  26.158  36.391  1.00  0.00     0.054 A 
BRANCH  64  65
ATOM     65  S   UNL A   1      45.869  24.806  37.236  1.00  0.00     0.124 S 
ATOM     66  O   UNL A   1      44.756  24.038  37.784  1.00  0.00    -0.237 OA
ATOM     67  O   UNL A   1      46.600  24.172  36.141  1.00  0.00    -0.237 OA
ATOM     68  O   UNL A   1      46.703  25.491  38.220  1.00  0.00    -0.744 OA
ENDBRANCH  64  65
ENDBRANCH  45  59
BRANCH  46  69
ATOM     69  C   UNL A   1      41.325  25.810  27.151  1.00  0.00    -0.014 A 
ATOM     70  C   UNL A   1      42.249  25.061  26.394  1.00  0.00     0.010 A 
ATOM     71  C   UNL A   1      40.148  25.162  27.574  1.00  0.00     0.010 A 
ATOM     72  C   UNL A   1      42.051  23.690  26.160  1.00  0.00     0.020 A 
ATOM     73  C   UNL A   1      39.939  23.797  27.335  1.00  0.00     0.020 A 
ATOM     74  C   UNL A   1      40.911  23.060  26.662  1.00  0.00     0.054 A 
BRANCH  74  75
ATOM     75  S   UNL A   1      40.776  21.248  26.565  1.00  0.00     0.124 S 
ATOM     76  O   UNL A   1      40.800  20.858  27.971  1.00  0.00    -0.237 OA
ATOM     77  O   UNL A   1      39.501  21.065  25.878  1.00  0.00    -0.237 OA
ATOM     78  O   UNL A   1      41.954  20.859  25.792  1.00  0.00    -0.744 OA
ENDBRANCH  74  75
ENDBRANCH  46  69
BRANCH  58  79
ATOM     79  C   UNL A   1      44.826  30.870  28.700  1.00  0.00    -0.014 A 
ATOM     80  C   UNL A   1      45.970  31.129  27.916  1.00  0.00     0.010 A 
ATOM     81  C   UNL A   1      43.631  31.529  28.366  1.00  0.00     0.010 A 
ATOM     82  C   UNL A   1      45.927  32.054  26.860  1.00  0.00     0.020 A 
ATOM     83  C   UNL A   1      43.576  32.436  27.305  1.00  0.00     0.020 A 
ATOM     84  C   UNL A   1      44.727  32.707  26.566  1.00  0.00     0.054 A 
BRANCH  84  85
ATOM     85  S   UNL A   1      44.673  33.902  25.200  1.00  0.00     0.124 S 
ATOM     86  O   UNL A   1      46.060  34.354  25.118  1.00  0.00    -0.237 OA
ATOM     87  O   UNL A   1      44.209  33.090  24.078  1.00  0.00    -0.237 OA
ATOM     88  O   UNL A   1      43.721  34.913  25.660  1.00  0.00    -0.744 OA
ENDBRANCH  84  85
ENDBRANCH  58  79
ENDBRANCH  32  33
ENDBRANCH  24  27
ENDBRANCH  22  23
ENDBRANCH   1  22
TORSDOF 16
ENDMDL
MODEL 3
REMARK VINA RESULT:     -11.2      2.754      9.270
REMARK SMILES Cc1cc(C)c2c(O[C@@H](C)C(=O)NCCCCNC(=O)c3ccc(-c4c5nc(c(-c6ccc(S(=O)(=O)[O-])cc6)c6ccc([nH]6)c(-c6ccc(S(=O)(=O)[O-])cc6)c6nc(c(-c7ccc(S(=O)(=O)[O-])cc7)c7ccc4[nH]7)C=C6)C=C5)cc3)nsc2n1
REMARK SMILES IDX 16 1 15 2 14 3 13 4 11 5 12 6 9 8 10 9 8 10 7 11 1 12 2 13
REMARK SMILES IDX 3 14 84 15 4 16 83 17 5 18 6 19 82 20 81 21 17 22 18 23
REMARK SMILES IDX 19 24 20 26 21 27 22 28 80 29 23 30 79 31 24 32 25 33 26 34
REMARK SMILES IDX 73 35 27 36 78 37 72 38 74 39 28 40 77 41 71 42 70 43 29 45
REMARK SMILES IDX 59 46 40 47 58 48 41 49 44 50 57 51 75 52 42 53 43 54 56 56
REMARK SMILES IDX 76 57 45 58 30 59 31 60 39 61 32 62 38 63 33 64 34 65 35 66
REMARK SMILES IDX 36 67 37 68 60 69 61 70 69 71 62 72 68 73 63 74 64 75 65 76
REMARK SMILES IDX 66 77 67 78 46 79 47 80 55 81 48 82 54 83 49 84 50 85 51 86
REMARK SMILES IDX 52 87 53 88
REMARK H PARENT 13 7 18 25 74 44 44 55
REMARK Flexibility Score: inf
ROOT
ATOM      1  C   UNL A   1      32.973  28.253  26.305  1.00  0.00     0.023 C 
ENDROOT
BRANCH   1   2
ATOM      2  C   UNL A   1      33.649  27.495  25.142  1.00  0.00     0.023 C 
BRANCH   2   3
ATOM      3  C   UNL A   1      34.055  26.059  25.493  1.00  0.00     0.116 C 
BRANCH   3   4
ATOM      4  N   UNL A   1      34.345  25.177  24.383  1.00  0.00    -0.353 N 
ATOM      5  C   UNL A   1      33.530  24.848  23.333  1.00  0.00     0.260 C 
ATOM      6  O   UNL A   1      34.073  24.742  22.228  1.00  0.00    -0.271 OA
ATOM      7  H   UNL A   1      35.239  24.765  24.382  1.00  0.00     0.163 HD
BRANCH   5   8
ATOM      8  C   UNL A   1      32.032  24.447  23.509  1.00  0.00     0.260 C 
ATOM      9  C   UNL A   1      30.986  25.518  23.180  1.00  0.00     0.064 C 
BRANCH   8  10
ATOM     10  O   UNL A   1      31.588  23.456  24.380  1.00  0.00    -0.463 OA
BRANCH  10  11
ATOM     11  C   UNL A   1      32.290  22.372  24.772  1.00  0.00     0.235 A 
ATOM     12  C   UNL A   1      33.052  16.755  24.555  1.00  0.00     0.067 C 
ATOM     13  C   UNL A   1      32.947  18.244  24.400  1.00  0.00     0.039 A 
ATOM     14  C   UNL A   1      32.526  18.812  23.209  1.00  0.00     0.027 A 
ATOM     15  N   UNL A   1      33.231  18.965  25.486  1.00  0.00    -0.240 NA
ATOM     16  C   UNL A   1      32.284  20.205  23.101  1.00  0.00    -0.034 A 
ATOM     17  C   UNL A   1      33.021  20.285  25.367  1.00  0.00     0.147 A 
ATOM     18  C   UNL A   1      31.804  20.643  21.737  1.00  0.00     0.045 C 
ATOM     19  C   UNL A   1      32.517  21.007  24.272  1.00  0.00     0.078 A 
ATOM     20  S   UNL A   1      33.350  21.300  26.683  1.00  0.00    -0.012 S 
ATOM     21  N   UNL A   1      32.761  22.656  25.988  1.00  0.00    -0.153 NA
ENDBRANCH  10  11
ENDBRANCH   8  10
ENDBRANCH   5   8
ENDBRANCH   3   4
ENDBRANCH   2   3
ENDBRANCH   1   2
BRANCH   1  22
ATOM     22  C   UNL A   1      33.942  28.945  27.265  1.00  0.00     0.116 C 
BRANCH  22  23
ATOM     23  N   UNL A   1      33.981  30.402  27.189  1.00  0.00    -0.352 N 
ATOM     24  C   UNL A   1      34.942  31.239  27.730  1.00  0.00     0.251 C 
ATOM     25  H   UNL A   1      33.244  30.837  26.701  1.00  0.00     0.163 HD
ATOM     26  O   UNL A   1      34.716  32.448  27.866  1.00  0.00    -0.269 OA
BRANCH  24  27
ATOM     27  C   UNL A   1      36.260  30.694  28.133  1.00  0.00     0.039 A 
ATOM     28  C   UNL A   1      36.613  29.355  27.928  1.00  0.00     0.014 A 
ATOM     29  C   UNL A   1      37.152  31.546  28.782  1.00  0.00     0.014 A 
ATOM     30  C   UNL A   1      37.892  28.917  28.289  1.00  0.00     0.010 A 
ATOM     31  C   UNL A   1      38.428  31.145  29.079  1.00  0.00     0.010 A 
ATOM     32  C   UNL A   1      38.800  29.826  28.847  1.00  0.00    -0.014 A 
BRANCH  32  33
ATOM     33  C   UNL A   1      40.218  29.513  29.009  1.00  0.00     0.031 A 
ATOM     34  C   UNL A   1      40.617  29.204  30.418  1.00  0.00     0.074 A 
ATOM     35  C   UNL A   1      40.986  29.138  27.963  1.00  0.00     0.049 A 
ATOM     36  N   UNL A   1      41.516  29.775  31.149  1.00  0.00    -0.248 NA
ATOM     37  C   UNL A   1      39.826  28.188  31.142  1.00  0.00     0.031 C 
ATOM     38  C   UNL A   1      40.584  28.987  26.558  1.00  0.00     0.029 A 
ATOM     39  N   UNL A   1      42.251  28.641  27.963  1.00  0.00    -0.354 N 
ATOM     40  C   UNL A   1      41.525  29.086  32.362  1.00  0.00     0.074 A 
ATOM     41  C   UNL A   1      40.354  28.250  32.364  1.00  0.00     0.031 C 
ATOM     42  C   UNL A   1      41.487  28.213  25.912  1.00  0.00     0.029 A 
ATOM     43  C   UNL A   1      42.598  27.947  26.807  1.00  0.00     0.049 A 
ATOM     44  H   UNL A   1      42.871  28.761  28.719  1.00  0.00     0.167 HD
ATOM     45  C   UNL A   1      42.600  29.081  33.201  1.00  0.00     0.031 A 
ATOM     46  C   UNL A   1      43.689  27.154  26.639  1.00  0.00     0.031 A 
ATOM     47  C   UNL A   1      43.573  30.071  32.827  1.00  0.00     0.049 A 
ATOM     48  C   UNL A   1      44.647  27.500  27.719  1.00  0.00     0.074 A 
ATOM     49  C   UNL A   1      43.581  31.448  32.754  1.00  0.00     0.029 A 
ATOM     50  N   UNL A   1      44.628  29.642  32.056  1.00  0.00    -0.354 N 
ATOM     51  N   UNL A   1      45.212  28.667  27.837  1.00  0.00    -0.248 NA
ATOM     52  C   UNL A   1      44.644  26.685  28.922  1.00  0.00     0.031 C 
ATOM     53  C   UNL A   1      44.320  31.746  31.571  1.00  0.00     0.029 A 
ATOM     54  C   UNL A   1      44.781  30.543  31.031  1.00  0.00     0.049 A 
ATOM     55  H   UNL A   1      45.173  28.838  32.211  1.00  0.00     0.167 HD
ATOM     56  C   UNL A   1      45.243  28.911  29.202  1.00  0.00     0.074 A 
ATOM     57  C   UNL A   1      44.978  27.615  29.821  1.00  0.00     0.031 C 
ATOM     58  C   UNL A   1      45.204  30.187  29.692  1.00  0.00     0.031 A 
BRANCH  45  59
ATOM     59  C   UNL A   1      42.928  27.951  34.148  1.00  0.00    -0.014 A 
ATOM     60  C   UNL A   1      43.186  28.233  35.503  1.00  0.00     0.010 A 
ATOM     61  C   UNL A   1      43.227  26.646  33.700  1.00  0.00     0.010 A 
ATOM     62  C   UNL A   1      43.742  27.267  36.356  1.00  0.00     0.020 A 
ATOM     63  C   UNL A   1      43.739  25.664  34.551  1.00  0.00     0.020 A 
ATOM     64  C   UNL A   1      44.021  25.989  35.871  1.00  0.00     0.054 A 
BRANCH  64  65
ATOM     65  S   UNL A   1      44.815  24.777  36.955  1.00  0.00     0.124 S 
ATOM     66  O   UNL A   1      44.118  24.998  38.218  1.00  0.00    -0.237 OA
ATOM     67  O   UNL A   1      44.519  23.516  36.279  1.00  0.00    -0.237 OA
ATOM     68  O   UNL A   1      46.222  25.171  36.938  1.00  0.00    -0.744 OA
ENDBRANCH  64  65
ENDBRANCH  45  59
BRANCH  46  69
ATOM     69  C   UNL A   1      43.804  25.882  25.873  1.00  0.00    -0.014 A 
ATOM     70  C   UNL A   1      45.041  25.491  25.321  1.00  0.00     0.010 A 
ATOM     71  C   UNL A   1      42.792  24.906  25.968  1.00  0.00     0.010 A 
ATOM     72  C   UNL A   1      45.289  24.153  24.976  1.00  0.00     0.020 A 
ATOM     73  C   UNL A   1      43.030  23.571  25.615  1.00  0.00     0.020 A 
ATOM     74  C   UNL A   1      44.291  23.195  25.157  1.00  0.00     0.054 A 
BRANCH  74  75
ATOM     75  S   UNL A   1      44.692  21.434  24.938  1.00  0.00     0.124 S 
ATOM     76  O   UNL A   1      46.038  21.349  25.492  1.00  0.00    -0.237 OA
ATOM     77  O   UNL A   1      43.644  20.775  25.713  1.00  0.00    -0.237 OA
ATOM     78  O   UNL A   1      44.601  21.241  23.491  1.00  0.00    -0.744 OA
ENDBRANCH  74  75
ENDBRANCH  46  69
BRANCH  58  79
ATOM     79  C   UNL A   1      45.399  31.328  28.712  1.00  0.00    -0.014 A 
ATOM     80  C   UNL A   1      46.653  31.894  28.397  1.00  0.00     0.010 A 
ATOM     81  C   UNL A   1      44.275  31.765  27.992  1.00  0.00     0.010 A 
ATOM     82  C   UNL A   1      46.766  32.900  27.423  1.00  0.00     0.020 A 
ATOM     83  C   UNL A   1      44.383  32.751  27.008  1.00  0.00     0.020 A 
ATOM     84  C   UNL A   1      45.625  33.326  26.739  1.00  0.00     0.054 A 
BRANCH  84  85
ATOM     85  S   UNL A   1      45.774  34.625  25.479  1.00  0.00     0.124 S 
ATOM     86  O   UNL A   1      44.889  34.143  24.420  1.00  0.00    -0.237 OA
ATOM     87  O   UNL A   1      45.315  35.817  26.187  1.00  0.00    -0.237 OA
ATOM     88  O   UNL A   1      47.197  34.622  25.142  1.00  0.00    -0.744 OA
ENDBRANCH  84  85
ENDBRANCH  58  79
ENDBRANCH  32  33
ENDBRANCH  24  27
ENDBRANCH  22  23
ENDBRANCH   1  22
TORSDOF 16
ENDMDL
