MODEL 1
REMARK VINA RESULT:     -13.5      0.000      0.000
REMARK SMILES Cc1ccc(C(=O)NC2(CC(=O)NCCCCNC(=O)c3ccc(-c4c5nc(c(-c6ccc(S(=O)(=O)[O-])cc6)c6ccc([nH]6)c(-c6ccc(S(=O)(=O)[O-])cc6)c6nc(c(-c7ccc(S(=O)(=O)[O-])cc7)c7ccc4[nH]7)C=C6)C=C5)cc3)CCC2)cc1
REMARK SMILES IDX 15 1 14 2 13 3 11 4 12 5 10 7 9 8 81 9 83 10 82 11 8 12 6 13
REMARK SMILES IDX 7 14 5 16 1 17 2 18 3 19 85 20 4 21 84 22 16 23 17 24 18 25
REMARK SMILES IDX 19 26 20 28 21 29 22 30 80 31 23 32 79 33 24 34 25 35 26 36
REMARK SMILES IDX 73 37 27 38 78 39 72 40 74 41 28 42 77 43 71 44 70 45 29 47
REMARK SMILES IDX 59 48 40 49 58 50 41 51 44 52 57 53 75 54 42 55 43 56 56 58
REMARK SMILES IDX 76 59 45 60 30 61 31 62 39 63 32 64 38 65 33 66 34 67 35 68
REMARK SMILES IDX 36 69 37 70 60 71 61 72 69 73 62 74 68 75 63 76 64 77 65 78
REMARK SMILES IDX 66 79 67 80 46 81 47 82 55 83 48 84 54 85 49 86 50 87 51 88
REMARK SMILES IDX 52 89 53 90
REMARK H PARENT 13 6 8 15 18 27 74 46 44 57
REMARK Flexibility Score: inf
ROOT
ATOM      1  C   UNL A   1      33.902  32.542  28.036  1.00  0.00     0.023 C 
ENDROOT
BRANCH   1   2
ATOM      2  C   UNL A   1      33.414  31.646  26.897  1.00  0.00     0.116 C 
BRANCH   2   3
ATOM      3  N   UNL A   1      32.256  30.479  27.378  1.00  0.00    -0.356 N 
ATOM      4  C   UNL A   1      31.959  28.543  27.237  1.00  0.00     0.222 C 
ATOM      5  O   UNL A   1      31.240  27.751  27.924  1.00  0.00    -0.275 OA
ATOM      6  H   UNL A   1      31.520  30.907  27.873  1.00  0.00     0.163 HD
BRANCH   4   7
ATOM      7  C   UNL A   1      32.721  27.456  25.880  1.00  0.00     0.128 C 
BRANCH   7   8
ATOM      8  C   UNL A   1      32.498  27.679  24.230  1.00  0.00     0.049 C 
ATOM      9  C   UNL A   1      33.455  26.906  23.254  1.00  0.00     0.029 C 
ATOM     10  C   UNL A   1      32.791  28.918  23.113  1.00  0.00     0.029 C 
ATOM     11  C   UNL A   1      34.122  28.254  22.837  1.00  0.00     0.005 C 
BRANCH   8  12
ATOM     12  N   UNL A   1      31.061  27.556  24.054  1.00  0.00    -0.346 N 
ATOM     13  C   UNL A   1      30.591  26.278  24.170  1.00  0.00     0.251 C 
ATOM     14  O   UNL A   1      29.400  26.007  24.171  1.00  0.00    -0.269 OA
ATOM     15  H   UNL A   1      30.476  28.326  23.866  1.00  0.00     0.164 HD
BRANCH  13  16
ATOM     16  C   UNL A   1      31.683  25.240  24.070  1.00  0.00     0.039 A 
ATOM     17  C   UNL A   1      34.112  20.847  24.702  1.00  0.00     0.044 C 
ATOM     18  C   UNL A   1      33.080  21.901  24.406  1.00  0.00    -0.051 A 
ATOM     19  C   UNL A   1      32.415  22.761  25.845  1.00  0.00     0.004 A 
ATOM     20  C   UNL A   1      33.020  22.623  22.758  1.00  0.00     0.004 A 
ATOM     21  C   UNL A   1      31.725  24.403  25.678  1.00  0.00     0.014 A 
ATOM     22  C   UNL A   1      32.358  24.323  22.555  1.00  0.00     0.014 A 
ENDBRANCH  13  16
ENDBRANCH   8  12
ENDBRANCH   7   8
ENDBRANCH   4   7
ENDBRANCH   2   3
ENDBRANCH   1   2
BRANCH   1  23
ATOM     23  C   UNL A   1      35.379  32.399  28.356  1.00  0.00     0.023 C 
BRANCH  23  24
ATOM     24  C   UNL A   1      35.618  31.702  29.672  1.00  0.00     0.116 C 
BRANCH  24  25
ATOM     25  N   UNL A   1      35.548  30.252  29.611  1.00  0.00    -0.352 N 
ATOM     26  C   UNL A   1      36.178  29.563  28.579  1.00  0.00     0.251 C 
ATOM     27  H   UNL A   1      35.054  29.755  30.302  1.00  0.00     0.163 HD
ATOM     28  O   UNL A   1      35.612  29.092  27.606  1.00  0.00    -0.269 OA
BRANCH  26  29
ATOM     29  C   UNL A   1      37.646  29.499  28.726  1.00  0.00     0.039 A 
ATOM     30  C   UNL A   1      38.498  29.597  27.626  1.00  0.00     0.014 A 
ATOM     31  C   UNL A   1      38.115  29.079  29.963  1.00  0.00     0.014 A 
ATOM     32  C   UNL A   1      39.773  29.053  27.726  1.00  0.00     0.010 A 
ATOM     33  C   UNL A   1      39.250  28.342  29.996  1.00  0.00     0.010 A 
ATOM     34  C   UNL A   1      40.067  28.325  28.872  1.00  0.00    -0.014 A 
BRANCH  34  35
ATOM     35  C   UNL A   1      41.319  27.690  29.189  1.00  0.00     0.031 A 
ATOM     36  C   UNL A   1      41.365  26.275  28.764  1.00  0.00     0.074 A 
ATOM     37  C   UNL A   1      42.326  28.536  29.510  1.00  0.00     0.049 A 
ATOM     38  N   UNL A   1      42.202  25.420  29.201  1.00  0.00    -0.248 NA
ATOM     39  C   UNL A   1      40.410  25.664  27.817  1.00  0.00     0.031 C 
ATOM     40  C   UNL A   1      43.772  28.359  29.540  1.00  0.00     0.029 A 
ATOM     41  N   UNL A   1      42.152  29.791  30.104  1.00  0.00    -0.354 N 
ATOM     42  C   UNL A   1      42.172  24.344  28.333  1.00  0.00     0.074 A 
ATOM     43  C   UNL A   1      40.948  24.459  27.595  1.00  0.00     0.031 C 
ATOM     44  C   UNL A   1      44.299  29.238  30.419  1.00  0.00     0.029 A 
ATOM     45  C   UNL A   1      43.188  29.951  31.039  1.00  0.00     0.049 A 
ATOM     46  H   UNL A   1      41.439  30.439  29.904  1.00  0.00     0.167 HD
ATOM     47  C   UNL A   1      43.306  23.604  28.224  1.00  0.00     0.031 A 
ATOM     48  C   UNL A   1      42.853  29.880  32.365  1.00  0.00     0.031 A 
ATOM     49  C   UNL A   1      44.307  24.163  29.128  1.00  0.00     0.049 A 
ATOM     50  C   UNL A   1      43.316  28.560  32.952  1.00  0.00     0.074 A 
ATOM     51  C   UNL A   1      45.313  25.094  28.933  1.00  0.00     0.029 A 
ATOM     52  N   UNL A   1      44.022  24.157  30.482  1.00  0.00    -0.354 N 
ATOM     53  N   UNL A   1      43.462  27.454  32.267  1.00  0.00    -0.248 NA
ATOM     54  C   UNL A   1      43.798  28.440  34.323  1.00  0.00     0.031 C 
ATOM     55  C   UNL A   1      45.579  25.699  30.196  1.00  0.00     0.029 A 
ATOM     56  C   UNL A   1      44.726  25.147  31.138  1.00  0.00     0.049 A 
ATOM     57  H   UNL A   1      43.402  23.530  30.919  1.00  0.00     0.167 HD
ATOM     58  C   UNL A   1      44.127  26.528  33.030  1.00  0.00     0.074 A 
ATOM     59  C   UNL A   1      44.304  27.195  34.310  1.00  0.00     0.031 C 
ATOM     60  C   UNL A   1      44.542  25.307  32.573  1.00  0.00     0.031 A 
BRANCH  47  61
ATOM     61  C   UNL A   1      43.640  22.567  27.188  1.00  0.00    -0.014 A 
ATOM     62  C   UNL A   1      44.947  22.597  26.657  1.00  0.00     0.010 A 
ATOM     63  C   UNL A   1      42.790  21.551  26.712  1.00  0.00     0.010 A 
ATOM     64  C   UNL A   1      45.396  21.675  25.712  1.00  0.00     0.020 A 
ATOM     65  C   UNL A   1      43.230  20.615  25.752  1.00  0.00     0.020 A 
ATOM     66  C   UNL A   1      44.536  20.681  25.266  1.00  0.00     0.054 A 
BRANCH  66  67
ATOM     67  S   UNL A   1      45.186  19.479  24.076  1.00  0.00     0.124 S 
ATOM     68  O   UNL A   1      44.499  19.856  22.843  1.00  0.00    -0.237 OA
ATOM     69  O   UNL A   1      46.620  19.756  24.103  1.00  0.00    -0.237 OA
ATOM     70  O   UNL A   1      44.792  18.188  24.634  1.00  0.00    -0.744 OA
ENDBRANCH  66  67
ENDBRANCH  47  61
BRANCH  48  71
ATOM     71  C   UNL A   1      41.566  30.613  32.634  1.00  0.00    -0.014 A 
ATOM     72  C   UNL A   1      40.458  29.807  33.001  1.00  0.00     0.010 A 
ATOM     73  C   UNL A   1      41.567  31.960  33.038  1.00  0.00     0.010 A 
ATOM     74  C   UNL A   1      39.514  30.259  33.930  1.00  0.00     0.020 A 
ATOM     75  C   UNL A   1      40.594  32.426  33.942  1.00  0.00     0.020 A 
ATOM     76  C   UNL A   1      39.626  31.550  34.441  1.00  0.00     0.054 A 
BRANCH  76  77
ATOM     77  S   UNL A   1      38.601  31.996  35.876  1.00  0.00     0.124 S 
ATOM     78  O   UNL A   1      39.573  32.626  36.764  1.00  0.00    -0.237 OA
ATOM     79  O   UNL A   1      37.605  32.895  35.280  1.00  0.00    -0.237 OA
ATOM     80  O   UNL A   1      38.073  30.715  36.329  1.00  0.00    -0.744 OA
ENDBRANCH  76  77
ENDBRANCH  48  71
BRANCH  60  81
ATOM     81  C   UNL A   1      44.868  24.115  33.452  1.00  0.00    -0.014 A 
ATOM     82  C   UNL A   1      43.976  23.069  33.705  1.00  0.00     0.010 A 
ATOM     83  C   UNL A   1      46.188  23.950  33.951  1.00  0.00     0.010 A 
ATOM     84  C   UNL A   1      44.341  21.975  34.492  1.00  0.00     0.020 A 
ATOM     85  C   UNL A   1      46.594  22.817  34.652  1.00  0.00     0.020 A 
ATOM     86  C   UNL A   1      45.647  21.855  34.957  1.00  0.00     0.054 A 
BRANCH  86  87
ATOM     87  S   UNL A   1      46.082  20.419  35.952  1.00  0.00     0.124 S 
ATOM     88  O   UNL A   1      47.516  20.310  35.700  1.00  0.00    -0.237 OA
ATOM     89  O   UNL A   1      45.712  20.847  37.299  1.00  0.00    -0.237 OA
ATOM     90  O   UNL A   1      45.263  19.347  35.395  1.00  0.00    -0.744 OA
ENDBRANCH  86  87
ENDBRANCH  60  81
ENDBRANCH  34  35
ENDBRANCH  26  29
ENDBRANCH  24  25
ENDBRANCH  23  24
ENDBRANCH   1  23
TORSDOF 17
ENDMDL
MODEL 2
REMARK VINA RESULT:     -13.3      4.730     11.217
REMARK SMILES Cc1ccc(C(=O)NC2(CC(=O)NCCCCNC(=O)c3ccc(-c4c5nc(c(-c6ccc(S(=O)(=O)[O-])cc6)c6ccc([nH]6)c(-c6ccc(S(=O)(=O)[O-])cc6)c6nc(c(-c7ccc(S(=O)(=O)[O-])cc7)c7ccc4[nH]7)C=C6)C=C5)cc3)CCC2)cc1
REMARK SMILES IDX 15 1 14 2 13 3 11 4 12 5 10 7 9 8 81 9 83 10 82 11 8 12 6 13
REMARK SMILES IDX 7 14 5 16 1 17 2 18 3 19 85 20 4 21 84 22 16 23 17 24 18 25
REMARK SMILES IDX 19 26 20 28 21 29 22 30 80 31 23 32 79 33 24 34 25 35 26 36
REMARK SMILES IDX 73 37 27 38 78 39 72 40 74 41 28 42 77 43 71 44 70 45 29 47
REMARK SMILES IDX 59 48 40 49 58 50 41 51 44 52 57 53 75 54 42 55 43 56 56 58
REMARK SMILES IDX 76 59 45 60 30 61 31 62 39 63 32 64 38 65 33 66 34 67 35 68
REMARK SMILES IDX 36 69 37 70 60 71 61 72 69 73 62 74 68 75 63 76 64 77 65 78
REMARK SMILES IDX 66 79 67 80 46 81 47 82 55 83 48 84 54 85 49 86 50 87 51 88
REMARK SMILES IDX 52 89 53 90
REMARK H PARENT 13 6 8 15 18 27 74 46 44 57
REMARK Flexibility Score: inf
ROOT
ATOM      1  C   UNL A   1      35.854  22.894  24.770  1.00  0.00     0.023 C 
ENDROOT
BRANCH   1   2
ATOM      2  C   UNL A   1      35.100  24.118  25.295  1.00  0.00     0.116 C 
BRANCH   2   3
ATOM      3  N   UNL A   1      33.993  23.764  26.553  1.00  0.00    -0.356 N 
ATOM      4  C   UNL A   1      32.059  23.522  26.800  1.00  0.00     0.222 C 
ATOM      5  O   UNL A   1      31.395  22.931  27.708  1.00  0.00    -0.275 OA
ATOM      6  H   UNL A   1      34.468  23.646  27.408  1.00  0.00     0.163 HD
BRANCH   4   7
ATOM      7  C   UNL A   1      30.749  24.263  25.642  1.00  0.00     0.128 C 
BRANCH   7   8
ATOM      8  C   UNL A   1      30.889  24.366  23.971  1.00  0.00     0.049 C 
ATOM      9  C   UNL A   1      31.206  23.044  23.184  1.00  0.00     0.029 C 
ATOM     10  C   UNL A   1      32.025  24.978  22.874  1.00  0.00     0.029 C 
ATOM     11  C   UNL A   1      32.625  23.590  22.834  1.00  0.00     0.005 C 
BRANCH   8  12
ATOM     12  N   UNL A   1      29.743  25.166  23.575  1.00  0.00    -0.346 N 
ATOM     13  C   UNL A   1      29.893  26.506  23.799  1.00  0.00     0.251 C 
ATOM     14  O   UNL A   1      29.082  27.336  23.418  1.00  0.00    -0.269 OA
ATOM     15  H   UNL A   1      28.929  24.777  23.181  1.00  0.00     0.164 HD
BRANCH  13  16
ATOM     16  C   UNL A   1      31.027  26.820  24.745  1.00  0.00     0.039 A 
ATOM     17  C   UNL A   1      34.760  29.414  26.966  1.00  0.00     0.044 C 
ATOM     18  C   UNL A   1      33.446  28.998  26.363  1.00  0.00    -0.051 A 
ATOM     19  C   UNL A   1      33.439  28.816  24.569  1.00  0.00     0.004 A 
ATOM     20  C   UNL A   1      32.233  28.172  27.405  1.00  0.00     0.004 A 
ATOM     21  C   UNL A   1      32.245  27.746  23.773  1.00  0.00     0.014 A 
ATOM     22  C   UNL A   1      31.020  27.033  26.628  1.00  0.00     0.014 A 
ENDBRANCH  13  16
ENDBRANCH   8  12
ENDBRANCH   7   8
ENDBRANCH   4   7
ENDBRANCH   2   3
ENDBRANCH   1   2
BRANCH   1  23
ATOM     23  C   UNL A   1      37.149  22.594  25.503  1.00  0.00     0.023 C 
BRANCH  23  24
ATOM     24  C   UNL A   1      37.829  23.843  26.004  1.00  0.00     0.116 C 
BRANCH  24  25
ATOM     25  N   UNL A   1      38.417  23.723  27.328  1.00  0.00    -0.352 N 
ATOM     26  C   UNL A   1      39.627  24.346  27.615  1.00  0.00     0.251 C 
ATOM     27  H   UNL A   1      37.958  23.201  28.023  1.00  0.00     0.163 HD
ATOM     28  O   UNL A   1      40.707  23.781  27.676  1.00  0.00    -0.269 OA
BRANCH  26  29
ATOM     29  C   UNL A   1      39.509  25.808  27.785  1.00  0.00     0.039 A 
ATOM     30  C   UNL A   1      40.122  26.701  26.905  1.00  0.00     0.014 A 
ATOM     31  C   UNL A   1      38.987  26.239  28.997  1.00  0.00     0.014 A 
ATOM     32  C   UNL A   1      40.404  27.985  27.354  1.00  0.00     0.010 A 
ATOM     33  C   UNL A   1      39.465  27.392  29.521  1.00  0.00     0.010 A 
ATOM     34  C   UNL A   1      40.180  28.253  28.698  1.00  0.00    -0.014 A 
BRANCH  34  35
ATOM     35  C   UNL A   1      40.389  29.508  29.371  1.00  0.00     0.031 A 
ATOM     36  C   UNL A   1      39.274  30.456  29.170  1.00  0.00     0.074 A 
ATOM     37  C   UNL A   1      41.369  29.501  30.305  1.00  0.00     0.049 A 
ATOM     38  N   UNL A   1      39.350  31.711  29.376  1.00  0.00    -0.248 NA
ATOM     39  C   UNL A   1      37.944  30.073  28.654  1.00  0.00     0.031 C 
ATOM     40  C   UNL A   1      41.657  30.396  31.418  1.00  0.00     0.029 A 
ATOM     41  N   UNL A   1      42.497  28.674  30.270  1.00  0.00    -0.354 N 
ATOM     42  C   UNL A   1      38.056  32.192  29.434  1.00  0.00     0.074 A 
ATOM     43  C   UNL A   1      37.230  31.191  28.824  1.00  0.00     0.031 C 
ATOM     44  C   UNL A   1      42.976  30.328  31.701  1.00  0.00     0.029 A 
ATOM     45  C   UNL A   1      43.586  29.442  30.716  1.00  0.00     0.049 A 
ATOM     46  H   UNL A   1      42.523  27.732  29.986  1.00  0.00     0.167 HD
ATOM     47  C   UNL A   1      37.840  33.305  30.181  1.00  0.00     0.031 A 
ATOM     48  C   UNL A   1      44.509  29.825  29.781  1.00  0.00     0.031 A 
ATOM     49  C   UNL A   1      39.118  33.737  30.740  1.00  0.00     0.049 A 
ATOM     50  C   UNL A   1      44.350  31.300  29.462  1.00  0.00     0.074 A 
ATOM     51  C   UNL A   1      39.738  33.469  31.948  1.00  0.00     0.029 A 
ATOM     52  N   UNL A   1      40.113  34.108  29.851  1.00  0.00    -0.354 N 
ATOM     53  N   UNL A   1      43.227  31.964  29.566  1.00  0.00    -0.248 NA
ATOM     54  C   UNL A   1      45.487  32.161  29.158  1.00  0.00     0.031 C 
ATOM     55  C   UNL A   1      41.141  33.621  31.746  1.00  0.00     0.029 A 
ATOM     56  C   UNL A   1      41.362  33.961  30.422  1.00  0.00     0.049 A 
ATOM     57  H   UNL A   1      39.952  34.433  28.937  1.00  0.00     0.167 HD
ATOM     58  C   UNL A   1      43.479  33.309  29.452  1.00  0.00     0.074 A 
ATOM     59  C   UNL A   1      44.908  33.373  29.188  1.00  0.00     0.031 C 
ATOM     60  C   UNL A   1      42.539  34.287  29.629  1.00  0.00     0.031 A 
BRANCH  47  61
ATOM     61  C   UNL A   1      36.526  33.881  30.630  1.00  0.00    -0.014 A 
ATOM     62  C   UNL A   1      36.518  34.564  31.865  1.00  0.00     0.010 A 
ATOM     63  C   UNL A   1      35.306  33.832  29.930  1.00  0.00     0.010 A 
ATOM     64  C   UNL A   1      35.374  35.169  32.382  1.00  0.00     0.020 A 
ATOM     65  C   UNL A   1      34.139  34.436  30.445  1.00  0.00     0.020 A 
ATOM     66  C   UNL A   1      34.186  35.109  31.667  1.00  0.00     0.054 A 
BRANCH  66  67
ATOM     67  S   UNL A   1      32.743  35.956  32.360  1.00  0.00     0.124 S 
ATOM     68  O   UNL A   1      32.218  36.679  31.204  1.00  0.00    -0.237 OA
ATOM     69  O   UNL A   1      31.922  34.843  32.828  1.00  0.00    -0.237 OA
ATOM     70  O   UNL A   1      33.307  36.799  33.412  1.00  0.00    -0.744 OA
ENDBRANCH  66  67
ENDBRANCH  47  61
BRANCH  48  71
ATOM     71  C   UNL A   1      44.809  28.699  28.827  1.00  0.00    -0.014 A 
ATOM     72  C   UNL A   1      44.378  28.888  27.489  1.00  0.00     0.010 A 
ATOM     73  C   UNL A   1      45.876  27.814  29.060  1.00  0.00     0.010 A 
ATOM     74  C   UNL A   1      45.131  28.402  26.414  1.00  0.00     0.020 A 
ATOM     75  C   UNL A   1      46.609  27.294  27.977  1.00  0.00     0.020 A 
ATOM     76  C   UNL A   1      46.280  27.658  26.669  1.00  0.00     0.054 A 
BRANCH  76  77
ATOM     77  S   UNL A   1      47.412  27.326  25.284  1.00  0.00     0.124 S 
ATOM     78  O   UNL A   1      48.356  28.434  25.387  1.00  0.00    -0.237 OA
ATOM     79  O   UNL A   1      47.943  26.001  25.627  1.00  0.00    -0.237 OA
ATOM     80  O   UNL A   1      46.538  27.350  24.117  1.00  0.00    -0.744 OA
ENDBRANCH  76  77
ENDBRANCH  48  71
BRANCH  60  81
ATOM     81  C   UNL A   1      42.647  35.703  29.099  1.00  0.00    -0.014 A 
ATOM     82  C   UNL A   1      41.907  36.187  28.016  1.00  0.00     0.010 A 
ATOM     83  C   UNL A   1      43.433  36.657  29.799  1.00  0.00     0.010 A 
ATOM     84  C   UNL A   1      42.018  37.512  27.592  1.00  0.00     0.020 A 
ATOM     85  C   UNL A   1      43.475  38.004  29.448  1.00  0.00     0.020 A 
ATOM     86  C   UNL A   1      42.799  38.412  28.312  1.00  0.00     0.054 A 
BRANCH  86  87
ATOM     87  S   UNL A   1      42.899  40.116  27.743  1.00  0.00     0.124 S 
ATOM     88  O   UNL A   1      44.046  40.058  26.840  1.00  0.00    -0.237 OA
ATOM     89  O   UNL A   1      41.602  40.309  27.098  1.00  0.00    -0.237 OA
ATOM     90  O   UNL A   1      43.102  40.884  28.968  1.00  0.00    -0.744 OA
ENDBRANCH  86  87
ENDBRANCH  60  81
ENDBRANCH  34  35
ENDBRANCH  26  29
ENDBRANCH  24  25
ENDBRANCH  23  24
ENDBRANCH   1  23
TORSDOF 17
ENDMDL
MODEL 3
REMARK VINA RESULT:     -13.3      3.864     10.211
REMARK SMILES Cc1ccc(C(=O)NC2(CC(=O)NCCCCNC(=O)c3ccc(-c4c5nc(c(-c6ccc(S(=O)(=O)[O-])cc6)c6ccc([nH]6)c(-c6ccc(S(=O)(=O)[O-])cc6)c6nc(c(-c7ccc(S(=O)(=O)[O-])cc7)c7ccc4[nH]7)C=C6)C=C5)cc3)CCC2)cc1
REMARK SMILES IDX 15 1 14 2 13 3 11 4 12 5 10 7 9 8 81 9 83 10 82 11 8 12 6 13
REMARK SMILES IDX 7 14 5 16 1 17 2 18 3 19 85 20 4 21 84 22 16 23 17 24 18 25
REMARK SMILES IDX 19 26 20 28 21 29 22 30 80 31 23 32 79 33 24 34 25 35 26 36
REMARK SMILES IDX 73 37 27 38 78 39 72 40 74 41 28 42 77 43 71 44 70 45 29 47
REMARK SMILES IDX 59 48 40 49 58 50 41 51 44 52 57 53 75 54 42 55 43 56 56 58
REMARK SMILES IDX 76 59 45 60 30 61 31 62 39 63 32 64 38 65 33 66 34 67 35 68
REMARK SMILES IDX 36 69 37 70 60 71 61 72 69 73 62 74 68 75 63 76 64 77 65 78
REMARK SMILES IDX 66 79 67 80 46 81 47 82 55 83 48 84 54 85 49 86 50 87 51 88
REMARK SMILES IDX 52 89 53 90
REMARK H PARENT 13 6 8 15 18 27 74 46 44 57
REMARK Flexibility Score: inf
ROOT
ATOM      1  C   UNL A   1      35.952  23.033  23.119  1.00  0.00     0.023 C 
ENDROOT
BRANCH   1   2
ATOM      2  C   UNL A   1      34.810  23.862  23.709  1.00  0.00     0.116 C 
BRANCH   2   3
ATOM      3  N   UNL A   1      33.665  24.390  22.550  1.00  0.00    -0.356 N 
ATOM      4  C   UNL A   1      31.927  25.304  22.495  1.00  0.00     0.222 C 
ATOM      5  O   UNL A   1      31.340  25.939  21.564  1.00  0.00    -0.275 OA
ATOM      6  H   UNL A   1      33.969  24.170  21.640  1.00  0.00     0.163 HD
BRANCH   4   7
ATOM      7  C   UNL A   1      30.703  25.328  23.947  1.00  0.00     0.128 C 
BRANCH   7   8
ATOM      8  C   UNL A   1      31.108  25.667  25.542  1.00  0.00     0.049 C 
ATOM      9  C   UNL A   1      31.576  27.128  25.879  1.00  0.00     0.029 C 
ATOM     10  C   UNL A   1      32.392  25.298  26.583  1.00  0.00     0.029 C 
ATOM     11  C   UNL A   1      33.021  26.605  26.151  1.00  0.00     0.005 C 
BRANCH   8  12
ATOM     12  N   UNL A   1      30.024  25.078  26.308  1.00  0.00    -0.346 N 
ATOM     13  C   UNL A   1      30.257  23.792  26.709  1.00  0.00     0.251 C 
ATOM     14  O   UNL A   1      29.509  23.186  27.460  1.00  0.00    -0.269 OA
ATOM     15  H   UNL A   1      29.193  25.562  26.521  1.00  0.00     0.164 HD
BRANCH  13  16
ATOM     16  C   UNL A   1      31.392  23.139  25.956  1.00  0.00     0.039 A 
ATOM     17  C   UNL A   1      35.087  19.857  24.876  1.00  0.00     0.044 C 
ATOM     18  C   UNL A   1      33.777  20.484  25.268  1.00  0.00    -0.051 A 
ATOM     19  C   UNL A   1      33.758  21.299  26.877  1.00  0.00     0.004 A 
ATOM     20  C   UNL A   1      32.591  20.901  23.980  1.00  0.00     0.004 A 
ATOM     21  C   UNL A   1      32.581  22.604  27.216  1.00  0.00     0.014 A 
ATOM     22  C   UNL A   1      31.397  22.264  24.276  1.00  0.00     0.014 A 
ENDBRANCH  13  16
ENDBRANCH   8  12
ENDBRANCH   7   8
ENDBRANCH   4   7
ENDBRANCH   2   3
ENDBRANCH   1   2
BRANCH   1  23
ATOM     23  C   UNL A   1      37.110  22.794  24.071  1.00  0.00     0.023 C 
BRANCH  23  24
ATOM     24  C   UNL A   1      36.733  23.043  25.510  1.00  0.00     0.116 C 
BRANCH  24  25
ATOM     25  N   UNL A   1      37.721  22.602  26.481  1.00  0.00    -0.352 N 
ATOM     26  C   UNL A   1      39.054  22.974  26.341  1.00  0.00     0.251 C 
ATOM     27  H   UNL A   1      37.446  22.038  27.239  1.00  0.00     0.163 HD
ATOM     28  O   UNL A   1      39.941  22.251  25.917  1.00  0.00    -0.269 OA
BRANCH  26  29
ATOM     29  C   UNL A   1      39.310  24.383  26.701  1.00  0.00     0.039 A 
ATOM     30  C   UNL A   1      40.127  25.202  25.920  1.00  0.00     0.014 A 
ATOM     31  C   UNL A   1      38.917  24.766  27.975  1.00  0.00     0.014 A 
ATOM     32  C   UNL A   1      40.726  26.303  26.519  1.00  0.00     0.010 A 
ATOM     33  C   UNL A   1      39.673  25.682  28.625  1.00  0.00     0.010 A 
ATOM     34  C   UNL A   1      40.581  26.438  27.894  1.00  0.00    -0.014 A 
BRANCH  34  35
ATOM     35  C   UNL A   1      41.103  27.500  28.714  1.00  0.00     0.031 A 
ATOM     36  C   UNL A   1      40.178  28.647  28.818  1.00  0.00     0.074 A 
ATOM     37  C   UNL A   1      42.160  27.159  29.489  1.00  0.00     0.049 A 
ATOM     38  N   UNL A   1      40.519  29.813  29.200  1.00  0.00    -0.248 NA
ATOM     39  C   UNL A   1      38.750  28.597  28.442  1.00  0.00     0.031 C 
ATOM     40  C   UNL A   1      42.736  27.781  30.673  1.00  0.00     0.029 A 
ATOM     41  N   UNL A   1      43.094  26.167  29.170  1.00  0.00    -0.354 N 
ATOM     42  C   UNL A   1      39.357  30.494  29.512  1.00  0.00     0.074 A 
ATOM     43  C   UNL A   1      38.291  29.774  28.879  1.00  0.00     0.031 C 
ATOM     44  C   UNL A   1      44.040  27.436  30.754  1.00  0.00     0.029 A 
ATOM     45  C   UNL A   1      44.353  26.644  29.570  1.00  0.00     0.049 A 
ATOM     46  H   UNL A   1      42.905  25.300  28.745  1.00  0.00     0.167 HD
ATOM     47  C   UNL A   1      39.446  31.479  30.443  1.00  0.00     0.031 A 
ATOM     48  C   UNL A   1      45.225  27.020  28.583  1.00  0.00     0.031 A 
ATOM     49  C   UNL A   1      40.837  31.577  30.875  1.00  0.00     0.049 A 
ATOM     50  C   UNL A   1      45.322  28.533  28.519  1.00  0.00     0.074 A 
ATOM     51  C   UNL A   1      41.521  30.998  31.930  1.00  0.00     0.029 A 
ATOM     52  N   UNL A   1      41.781  31.920  29.923  1.00  0.00    -0.354 N 
ATOM     53  N   UNL A   1      44.368  29.353  28.879  1.00  0.00    -0.248 NA
ATOM     54  C   UNL A   1      46.564  29.223  28.192  1.00  0.00     0.031 C 
ATOM     55  C   UNL A   1      42.896  30.937  31.558  1.00  0.00     0.029 A 
ATOM     56  C   UNL A   1      43.032  31.461  30.283  1.00  0.00     0.049 A 
ATOM     57  H   UNL A   1      41.587  32.424  29.101  1.00  0.00     0.167 HD
ATOM     58  C   UNL A   1      44.863  30.632  28.937  1.00  0.00     0.074 A 
ATOM     59  C   UNL A   1      46.238  30.493  28.488  1.00  0.00     0.031 C 
ATOM     60  C   UNL A   1      44.156  31.712  29.392  1.00  0.00     0.031 A 
BRANCH  47  61
ATOM     61  C   UNL A   1      38.326  32.186  31.155  1.00  0.00    -0.014 A 
ATOM     62  C   UNL A   1      37.805  31.556  32.305  1.00  0.00     0.010 A 
ATOM     63  C   UNL A   1      37.762  33.427  30.807  1.00  0.00     0.010 A 
ATOM     64  C   UNL A   1      36.786  32.118  33.074  1.00  0.00     0.020 A 
ATOM     65  C   UNL A   1      36.726  34.005  31.573  1.00  0.00     0.020 A 
ATOM     66  C   UNL A   1      36.253  33.346  32.708  1.00  0.00     0.054 A 
BRANCH  66  67
ATOM     67  S   UNL A   1      34.968  34.054  33.770  1.00  0.00     0.124 S 
ATOM     68  O   UNL A   1      33.753  33.427  33.253  1.00  0.00    -0.237 OA
ATOM     69  O   UNL A   1      35.382  33.613  35.100  1.00  0.00    -0.237 OA
ATOM     70  O   UNL A   1      35.071  35.491  33.531  1.00  0.00    -0.744 OA
ENDBRANCH  66  67
ENDBRANCH  47  61
BRANCH  48  71
ATOM     71  C   UNL A   1      45.194  26.044  27.437  1.00  0.00    -0.014 A 
ATOM     72  C   UNL A   1      45.943  24.853  27.616  1.00  0.00     0.010 A 
ATOM     73  C   UNL A   1      44.118  26.020  26.532  1.00  0.00     0.010 A 
ATOM     74  C   UNL A   1      45.492  23.633  27.099  1.00  0.00     0.020 A 
ATOM     75  C   UNL A   1      43.689  24.798  25.980  1.00  0.00     0.020 A 
ATOM     76  C   UNL A   1      44.329  23.607  26.333  1.00  0.00     0.054 A 
BRANCH  76  77
ATOM     77  S   UNL A   1      43.587  21.990  25.956  1.00  0.00     0.124 S 
ATOM     78  O   UNL A   1      42.773  22.291  24.783  1.00  0.00    -0.237 OA
ATOM     79  O   UNL A   1      44.768  21.154  25.715  1.00  0.00    -0.237 OA
ATOM     80  O   UNL A   1      42.846  21.664  27.168  1.00  0.00    -0.744 OA
ENDBRANCH  76  77
ENDBRANCH  48  71
BRANCH  60  81
ATOM     81  C   UNL A   1      44.479  33.158  29.073  1.00  0.00    -0.014 A 
ATOM     82  C   UNL A   1      45.027  34.055  29.996  1.00  0.00     0.010 A 
ATOM     83  C   UNL A   1      44.357  33.628  27.738  1.00  0.00     0.010 A 
ATOM     84  C   UNL A   1      45.341  35.367  29.639  1.00  0.00     0.020 A 
ATOM     85  C   UNL A   1      44.760  34.902  27.345  1.00  0.00     0.020 A 
ATOM     86  C   UNL A   1      45.208  35.780  28.316  1.00  0.00     0.054 A 
BRANCH  86  87
ATOM     87  S   UNL A   1      45.642  37.475  27.893  1.00  0.00     0.124 S 
ATOM     88  O   UNL A   1      46.029  37.339  26.491  1.00  0.00    -0.237 OA
ATOM     89  O   UNL A   1      44.389  38.189  28.132  1.00  0.00    -0.237 OA
ATOM     90  O   UNL A   1      46.726  37.800  28.816  1.00  0.00    -0.744 OA
ENDBRANCH  86  87
ENDBRANCH  60  81
ENDBRANCH  34  35
ENDBRANCH  26  29
ENDBRANCH  24  25
ENDBRANCH  23  24
ENDBRANCH   1  23
TORSDOF 17
ENDMDL
