MODEL 1
REMARK VINA RESULT:     -12.6      0.000      0.000
REMARK SMILES CC(C)(C)OC(=O)N1C[C@@H](C(=O)NCCCCNC(=O)c2ccc(-c3c4nc(c(-c5ccc(S(=O)(=O)[O-])cc5)c5ccc([nH]5)c(-c5ccc(S(=O)(=O)[O-])cc5)c5nc(c(-c6ccc(S(=O)(=O)[O-])cc6)c6ccc3[nH]6)C=C5)C=C4)cc2)[C@@]2(C1)C(=O)Nc1ccccc12
REMARK SMILES IDX 15 1 14 2 13 3 11 4 12 5 10 7 8 8 9 9 82 10 81 11 83 12
REMARK SMILES IDX 91 13 84 14 85 15 86 16 90 17 87 19 89 20 88 21 6 22 7 23
REMARK SMILES IDX 5 24 2 25 1 26 3 27 4 28 16 29 17 30 18 31 19 32 20 34 21 35
REMARK SMILES IDX 22 36 80 37 23 38 79 39 24 40 25 41 26 42 73 43 27 44 78 45
REMARK SMILES IDX 72 46 74 47 28 48 77 49 71 50 70 51 29 53 59 54 40 55 58 56
REMARK SMILES IDX 41 57 44 58 57 59 75 60 42 61 43 62 56 64 76 65 45 66 30 67
REMARK SMILES IDX 31 68 39 69 32 70 38 71 33 72 34 73 35 74 36 75 37 76 60 77
REMARK SMILES IDX 61 78 69 79 62 80 68 81 63 82 64 83 65 84 66 85 67 86 46 87
REMARK SMILES IDX 47 88 55 89 48 90 54 91 49 92 50 93 51 94 52 95 53 96
REMARK H PARENT 13 6 85 18 18 33 74 52 44 63
REMARK Flexibility Score: inf
ROOT
ATOM      1  C   UNL A   1      37.789  21.948  25.620  1.00  0.00     0.023 C 
ENDROOT
BRANCH   1   2
ATOM      2  C   UNL A   1      36.541  21.073  25.477  1.00  0.00     0.116 C 
BRANCH   2   3
ATOM      3  N   UNL A   1      35.531  21.334  26.488  1.00  0.00    -0.356 N 
ATOM      4  C   UNL A   1      34.263  21.819  26.467  1.00  0.00     0.226 C 
ATOM      5  O   UNL A   1      33.687  21.842  27.564  1.00  0.00    -0.275 OA
ATOM      6  H   UNL A   1      35.836  21.108  27.397  1.00  0.00     0.163 HD
BRANCH   4   7
ATOM      7  C   UNL A   1      33.518  22.343  25.245  1.00  0.00     0.120 C 
ATOM      8  N   UNL A   1      31.507  23.562  25.554  1.00  0.00    -0.306 N 
ATOM      9  C   UNL A   1      32.944  23.731  25.451  1.00  0.00     0.138 C 
ATOM     10  C   UNL A   1      31.087  22.191  25.239  1.00  0.00     0.145 C 
ATOM     11  C   UNL A   1      32.357  21.519  24.664  1.00  0.00     0.107 C 
ATOM     12  C   UNL A   1      32.242  21.787  23.126  1.00  0.00     0.237 C 
ATOM     13  C   UNL A   1      32.520  20.006  24.654  1.00  0.00    -0.006 A 
ATOM     14  O   UNL A   1      32.194  22.867  22.558  1.00  0.00    -0.274 OA
ATOM     15  N   UNL A   1      32.168  20.571  22.477  1.00  0.00    -0.325 N 
ATOM     16  C   UNL A   1      32.366  19.524  23.353  1.00  0.00     0.045 A 
ATOM     17  C   UNL A   1      32.928  19.101  25.625  1.00  0.00     0.007 A 
ATOM     18  H   UNL A   1      31.994  20.465  21.515  1.00  0.00     0.169 HD
ATOM     19  C   UNL A   1      32.521  18.196  22.992  1.00  0.00     0.026 A 
ATOM     20  C   UNL A   1      33.111  17.752  25.293  1.00  0.00     0.000 A 
ATOM     21  C   UNL A   1      32.898  17.298  23.987  1.00  0.00     0.002 A 
BRANCH   8  22
ATOM     22  C   UNL A   1      30.725  24.675  25.752  1.00  0.00     0.410 C 
ATOM     23  O   UNL A   1      30.447  25.072  26.875  1.00  0.00    -0.224 OA
BRANCH  22  24
ATOM     24  O   UNL A   1      30.264  25.223  24.599  1.00  0.00    -0.444 OA
BRANCH  24  25
ATOM     25  C   UNL A   1      30.772  26.513  24.139  1.00  0.00     0.106 C 
ATOM     26  C   UNL A   1      29.557  27.262  23.572  1.00  0.00     0.056 C 
ATOM     27  C   UNL A   1      31.780  26.249  23.017  1.00  0.00     0.056 C 
ATOM     28  C   UNL A   1      31.395  27.415  25.221  1.00  0.00     0.056 C 
ENDBRANCH  24  25
ENDBRANCH  22  24
ENDBRANCH   8  22
ENDBRANCH   4   7
ENDBRANCH   2   3
ENDBRANCH   1   2
BRANCH   1  29
ATOM     29  C   UNL A   1      37.545  23.455  25.550  1.00  0.00     0.023 C 
BRANCH  29  30
ATOM     30  C   UNL A   1      38.463  24.277  26.442  1.00  0.00     0.116 C 
BRANCH  30  31
ATOM     31  N   UNL A   1      39.874  24.079  26.137  1.00  0.00    -0.352 N 
ATOM     32  C   UNL A   1      40.953  24.801  26.579  1.00  0.00     0.251 C 
ATOM     33  H   UNL A   1      40.079  23.327  25.536  1.00  0.00     0.163 HD
ATOM     34  O   UNL A   1      42.073  24.573  26.133  1.00  0.00    -0.269 OA
BRANCH  32  35
ATOM     35  C   UNL A   1      40.740  25.879  27.562  1.00  0.00     0.039 A 
ATOM     36  C   UNL A   1      39.749  25.718  28.532  1.00  0.00     0.014 A 
ATOM     37  C   UNL A   1      41.547  27.020  27.550  1.00  0.00     0.014 A 
ATOM     38  C   UNL A   1      39.609  26.679  29.535  1.00  0.00     0.010 A 
ATOM     39  C   UNL A   1      41.456  27.936  28.588  1.00  0.00     0.010 A 
ATOM     40  C   UNL A   1      40.485  27.775  29.588  1.00  0.00    -0.014 A 
BRANCH  40  41
ATOM     41  C   UNL A   1      40.401  28.774  30.679  1.00  0.00     0.031 A 
ATOM     42  C   UNL A   1      41.277  28.630  31.891  1.00  0.00     0.074 A 
ATOM     43  C   UNL A   1      39.483  29.758  30.609  1.00  0.00     0.049 A 
ATOM     44  N   UNL A   1      41.295  29.350  32.983  1.00  0.00    -0.248 NA
ATOM     45  C   UNL A   1      42.238  27.515  31.888  1.00  0.00     0.031 C 
ATOM     46  C   UNL A   1      38.545  29.967  29.502  1.00  0.00     0.029 A 
ATOM     47  N   UNL A   1      39.181  30.761  31.493  1.00  0.00    -0.354 N 
ATOM     48  C   UNL A   1      42.250  28.762  33.804  1.00  0.00     0.074 A 
ATOM     49  C   UNL A   1      42.755  27.601  33.105  1.00  0.00     0.031 C 
ATOM     50  C   UNL A   1      37.790  31.046  29.764  1.00  0.00     0.029 A 
ATOM     51  C   UNL A   1      38.163  31.582  31.069  1.00  0.00     0.049 A 
ATOM     52  H   UNL A   1      39.650  30.883  32.350  1.00  0.00     0.167 HD
ATOM     53  C   UNL A   1      42.681  29.165  35.022  1.00  0.00     0.031 A 
ATOM     54  C   UNL A   1      37.591  32.645  31.668  1.00  0.00     0.031 A 
ATOM     55  C   UNL A   1      42.188  30.331  35.702  1.00  0.00     0.049 A 
ATOM     56  C   UNL A   1      38.096  33.081  33.015  1.00  0.00     0.074 A 
ATOM     57  C   UNL A   1      42.599  30.861  36.913  1.00  0.00     0.029 A 
ATOM     58  N   UNL A   1      41.175  31.152  35.228  1.00  0.00    -0.354 N 
ATOM     59  N   UNL A   1      39.043  32.547  33.750  1.00  0.00    -0.248 NA
ATOM     60  C   UNL A   1      37.465  34.267  33.607  1.00  0.00     0.031 C 
ATOM     61  C   UNL A   1      41.807  31.980  37.189  1.00  0.00     0.029 A 
ATOM     62  C   UNL A   1      40.936  32.175  36.128  1.00  0.00     0.049 A 
ATOM     63  H   UNL A   1      40.698  31.025  34.376  1.00  0.00     0.167 HD
ATOM     64  C   UNL A   1      39.137  33.347  34.883  1.00  0.00     0.074 A 
ATOM     65  C   UNL A   1      38.161  34.408  34.728  1.00  0.00     0.031 C 
ATOM     66  C   UNL A   1      39.957  33.218  35.955  1.00  0.00     0.031 A 
BRANCH  53  67
ATOM     67  C   UNL A   1      43.739  28.330  35.692  1.00  0.00    -0.014 A 
ATOM     68  C   UNL A   1      43.391  27.271  36.551  1.00  0.00     0.010 A 
ATOM     69  C   UNL A   1      45.099  28.592  35.445  1.00  0.00     0.010 A 
ATOM     70  C   UNL A   1      44.382  26.520  37.186  1.00  0.00     0.020 A 
ATOM     71  C   UNL A   1      46.095  27.825  36.058  1.00  0.00     0.020 A 
ATOM     72  C   UNL A   1      45.728  26.806  36.941  1.00  0.00     0.054 A 
BRANCH  72  73
ATOM     73  S   UNL A   1      46.995  25.806  37.768  1.00  0.00     0.124 S 
ATOM     74  O   UNL A   1      46.618  25.947  39.173  1.00  0.00    -0.237 OA
ATOM     75  O   UNL A   1      46.786  24.481  37.192  1.00  0.00    -0.237 OA
ATOM     76  O   UNL A   1      48.249  26.454  37.392  1.00  0.00    -0.744 OA
ENDBRANCH  72  73
ENDBRANCH  53  67
BRANCH  54  77
ATOM     77  C   UNL A   1      36.494  33.379  30.984  1.00  0.00    -0.014 A 
ATOM     78  C   UNL A   1      36.724  34.016  29.752  1.00  0.00     0.010 A 
ATOM     79  C   UNL A   1      35.206  33.426  31.549  1.00  0.00     0.010 A 
ATOM     80  C   UNL A   1      35.692  34.699  29.105  1.00  0.00     0.020 A 
ATOM     81  C   UNL A   1      34.165  34.088  30.892  1.00  0.00     0.020 A 
ATOM     82  C   UNL A   1      34.418  34.729  29.678  1.00  0.00     0.054 A 
BRANCH  82  83
ATOM     83  S   UNL A   1      33.076  35.571  28.791  1.00  0.00     0.124 S 
ATOM     84  O   UNL A   1      32.500  34.483  28.008  1.00  0.00    -0.237 OA
ATOM     85  O   UNL A   1      32.245  36.077  29.880  1.00  0.00    -0.237 OA
ATOM     86  O   UNL A   1      33.772  36.599  28.020  1.00  0.00    -0.744 OA
ENDBRANCH  82  83
ENDBRANCH  54  77
BRANCH  66  87
ATOM     87  C   UNL A   1      39.853  34.262  37.031  1.00  0.00    -0.014 A 
ATOM     88  C   UNL A   1      40.494  35.506  36.899  1.00  0.00     0.010 A 
ATOM     89  C   UNL A   1      39.057  34.013  38.164  1.00  0.00     0.010 A 
ATOM     90  C   UNL A   1      40.363  36.474  37.898  1.00  0.00     0.020 A 
ATOM     91  C   UNL A   1      38.904  34.988  39.152  1.00  0.00     0.020 A 
ATOM     92  C   UNL A   1      39.571  36.208  39.019  1.00  0.00     0.054 A 
BRANCH  92  93
ATOM     93  S   UNL A   1      39.379  37.497  40.281  1.00  0.00     0.124 S 
ATOM     94  O   UNL A   1      38.767  36.756  41.380  1.00  0.00    -0.237 OA
ATOM     95  O   UNL A   1      40.755  37.934  40.506  1.00  0.00    -0.237 OA
ATOM     96  O   UNL A   1      38.516  38.485  39.638  1.00  0.00    -0.744 OA
ENDBRANCH  92  93
ENDBRANCH  66  87
ENDBRANCH  40  41
ENDBRANCH  32  35
ENDBRANCH  30  31
ENDBRANCH  29  30
ENDBRANCH   1  29
TORSDOF 17
ENDMDL
MODEL 2
REMARK VINA RESULT:     -12.4      6.431     11.607
REMARK SMILES CC(C)(C)OC(=O)N1C[C@@H](C(=O)NCCCCNC(=O)c2ccc(-c3c4nc(c(-c5ccc(S(=O)(=O)[O-])cc5)c5ccc([nH]5)c(-c5ccc(S(=O)(=O)[O-])cc5)c5nc(c(-c6ccc(S(=O)(=O)[O-])cc6)c6ccc3[nH]6)C=C5)C=C4)cc2)[C@@]2(C1)C(=O)Nc1ccccc12
REMARK SMILES IDX 15 1 14 2 13 3 11 4 12 5 10 7 8 8 9 9 82 10 81 11 83 12
REMARK SMILES IDX 91 13 84 14 85 15 86 16 90 17 87 19 89 20 88 21 6 22 7 23
REMARK SMILES IDX 5 24 2 25 1 26 3 27 4 28 16 29 17 30 18 31 19 32 20 34 21 35
REMARK SMILES IDX 22 36 80 37 23 38 79 39 24 40 25 41 26 42 73 43 27 44 78 45
REMARK SMILES IDX 72 46 74 47 28 48 77 49 71 50 70 51 29 53 59 54 40 55 58 56
REMARK SMILES IDX 41 57 44 58 57 59 75 60 42 61 43 62 56 64 76 65 45 66 30 67
REMARK SMILES IDX 31 68 39 69 32 70 38 71 33 72 34 73 35 74 36 75 37 76 60 77
REMARK SMILES IDX 61 78 69 79 62 80 68 81 63 82 64 83 65 84 66 85 67 86 46 87
REMARK SMILES IDX 47 88 55 89 48 90 54 91 49 92 50 93 51 94 52 95 53 96
REMARK H PARENT 13 6 85 18 18 33 74 52 44 63
REMARK Flexibility Score: inf
ROOT
ATOM      1  C   UNL A   1      33.350  30.336  27.153  1.00  0.00     0.023 C 
ENDROOT
BRANCH   1   2
ATOM      2  C   UNL A   1      32.401  30.177  25.962  1.00  0.00     0.116 C 
BRANCH   2   3
ATOM      3  N   UNL A   1      33.058  29.695  24.759  1.00  0.00    -0.356 N 
ATOM      4  C   UNL A   1      33.074  28.516  24.088  1.00  0.00     0.226 C 
ATOM      5  O   UNL A   1      33.731  28.512  23.039  1.00  0.00    -0.275 OA
ATOM      6  H   UNL A   1      33.619  30.382  24.332  1.00  0.00     0.163 HD
BRANCH   4   7
ATOM      7  C   UNL A   1      32.387  27.224  24.518  1.00  0.00     0.120 C 
ATOM      8  N   UNL A   1      33.069  25.174  23.541  1.00  0.00    -0.306 N 
ATOM      9  C   UNL A   1      33.348  26.059  24.655  1.00  0.00     0.138 C 
ATOM     10  C   UNL A   1      31.871  25.579  22.798  1.00  0.00     0.145 C 
ATOM     11  C   UNL A   1      31.223  26.677  23.676  1.00  0.00     0.107 C 
ATOM     12  C   UNL A   1      30.244  25.872  24.595  1.00  0.00     0.237 C 
ATOM     13  C   UNL A   1      30.255  27.695  23.091  1.00  0.00    -0.006 A 
ATOM     14  O   UNL A   1      30.522  24.984  25.386  1.00  0.00    -0.274 OA
ATOM     15  N   UNL A   1      28.958  26.310  24.349  1.00  0.00    -0.325 N 
ATOM     16  C   UNL A   1      28.953  27.398  23.501  1.00  0.00     0.045 A 
ATOM     17  C   UNL A   1      30.450  28.882  22.397  1.00  0.00     0.007 A 
ATOM     18  H   UNL A   1      28.149  25.898  24.728  1.00  0.00     0.169 HD
ATOM     19  C   UNL A   1      27.847  28.171  23.195  1.00  0.00     0.026 A 
ATOM     20  C   UNL A   1      29.354  29.698  22.084  1.00  0.00     0.000 A 
ATOM     21  C   UNL A   1      28.058  29.340  22.470  1.00  0.00     0.002 A 
BRANCH   8  22
ATOM     22  C   UNL A   1      33.809  24.022  23.413  1.00  0.00     0.410 C 
ATOM     23  O   UNL A   1      34.410  23.757  22.381  1.00  0.00    -0.224 OA
BRANCH  22  24
ATOM     24  O   UNL A   1      33.746  23.215  24.502  1.00  0.00    -0.444 OA
BRANCH  24  25
ATOM     25  C   UNL A   1      34.955  22.894  25.255  1.00  0.00     0.106 C 
ATOM     26  C   UNL A   1      35.463  21.563  24.681  1.00  0.00     0.056 C 
ATOM     27  C   UNL A   1      34.558  22.700  26.722  1.00  0.00     0.056 C 
ATOM     28  C   UNL A   1      36.110  23.907  25.139  1.00  0.00     0.056 C 
ENDBRANCH  24  25
ENDBRANCH  22  24
ENDBRANCH   8  22
ENDBRANCH   4   7
ENDBRANCH   2   3
ENDBRANCH   1   2
BRANCH   1  29
ATOM     29  C   UNL A   1      34.393  29.231  27.315  1.00  0.00     0.023 C 
BRANCH  29  30
ATOM     30  C   UNL A   1      35.674  29.678  28.001  1.00  0.00     0.116 C 
BRANCH  30  31
ATOM     31  N   UNL A   1      35.569  29.673  29.454  1.00  0.00    -0.352 N 
ATOM     32  C   UNL A   1      36.568  29.521  30.382  1.00  0.00     0.251 C 
ATOM     33  H   UNL A   1      34.663  29.794  29.817  1.00  0.00     0.163 HD
ATOM     34  O   UNL A   1      36.294  29.424  31.574  1.00  0.00    -0.269 OA
BRANCH  32  35
ATOM     35  C   UNL A   1      37.967  29.435  29.923  1.00  0.00     0.039 A 
ATOM     36  C   UNL A   1      38.948  29.026  30.828  1.00  0.00     0.014 A 
ATOM     37  C   UNL A   1      38.295  29.713  28.593  1.00  0.00     0.014 A 
ATOM     38  C   UNL A   1      40.255  28.834  30.381  1.00  0.00     0.010 A 
ATOM     39  C   UNL A   1      39.578  29.451  28.134  1.00  0.00     0.010 A 
ATOM     40  C   UNL A   1      40.570  29.012  29.024  1.00  0.00    -0.014 A 
BRANCH  40  41
ATOM     41  C   UNL A   1      41.935  28.751  28.510  1.00  0.00     0.031 A 
ATOM     42  C   UNL A   1      42.309  27.369  28.054  1.00  0.00     0.074 A 
ATOM     43  C   UNL A   1      42.852  29.738  28.531  1.00  0.00     0.049 A 
ATOM     44  N   UNL A   1      43.470  26.922  27.651  1.00  0.00    -0.248 NA
ATOM     45  C   UNL A   1      41.247  26.350  28.083  1.00  0.00     0.031 C 
ATOM     46  C   UNL A   1      42.615  31.107  28.997  1.00  0.00     0.029 A 
ATOM     47  N   UNL A   1      44.172  29.738  28.159  1.00  0.00    -0.354 N 
ATOM     48  C   UNL A   1      43.283  25.568  27.400  1.00  0.00     0.074 A 
ATOM     49  C   UNL A   1      41.912  25.257  27.741  1.00  0.00     0.031 C 
ATOM     50  C   UNL A   1      43.745  31.819  28.862  1.00  0.00     0.029 A 
ATOM     51  C   UNL A   1      44.794  30.951  28.334  1.00  0.00     0.049 A 
ATOM     52  H   UNL A   1      44.630  28.944  27.800  1.00  0.00     0.167 HD
ATOM     53  C   UNL A   1      44.169  24.669  26.911  1.00  0.00     0.031 A 
ATOM     54  C   UNL A   1      46.068  31.321  28.100  1.00  0.00     0.031 A 
ATOM     55  C   UNL A   1      45.525  24.990  26.556  1.00  0.00     0.049 A 
ATOM     56  C   UNL A   1      47.030  30.309  27.545  1.00  0.00     0.074 A 
ATOM     57  C   UNL A   1      46.487  24.168  25.997  1.00  0.00     0.029 A 
ATOM     58  N   UNL A   1      46.110  26.236  26.723  1.00  0.00    -0.354 N 
ATOM     59  N   UNL A   1      46.819  29.046  27.256  1.00  0.00    -0.248 NA
ATOM     60  C   UNL A   1      48.396  30.772  27.272  1.00  0.00     0.031 C 
ATOM     61  C   UNL A   1      47.666  24.907  25.863  1.00  0.00     0.029 A 
ATOM     62  C   UNL A   1      47.425  26.203  26.293  1.00  0.00     0.049 A 
ATOM     63  H   UNL A   1      45.656  27.029  27.093  1.00  0.00     0.167 HD
ATOM     64  C   UNL A   1      48.021  28.569  26.747  1.00  0.00     0.074 A 
ATOM     65  C   UNL A   1      48.948  29.683  26.753  1.00  0.00     0.031 C 
ATOM     66  C   UNL A   1      48.330  27.323  26.312  1.00  0.00     0.031 A 
BRANCH  53  67
ATOM     67  C   UNL A   1      43.692  23.252  26.736  1.00  0.00    -0.014 A 
ATOM     68  C   UNL A   1      43.100  22.550  27.802  1.00  0.00     0.010 A 
ATOM     69  C   UNL A   1      43.817  22.620  25.485  1.00  0.00     0.010 A 
ATOM     70  C   UNL A   1      42.685  21.227  27.633  1.00  0.00     0.020 A 
ATOM     71  C   UNL A   1      43.377  21.305  25.305  1.00  0.00     0.020 A 
ATOM     72  C   UNL A   1      42.832  20.611  26.388  1.00  0.00     0.054 A 
BRANCH  72  73
ATOM     73  S   UNL A   1      42.271  18.897  26.192  1.00  0.00     0.124 S 
ATOM     74  O   UNL A   1      42.451  18.367  27.542  1.00  0.00    -0.237 OA
ATOM     75  O   UNL A   1      40.885  19.059  25.762  1.00  0.00    -0.237 OA
ATOM     76  O   UNL A   1      43.173  18.350  25.182  1.00  0.00    -0.744 OA
ENDBRANCH  72  73
ENDBRANCH  53  67
BRANCH  54  77
ATOM     77  C   UNL A   1      46.495  32.719  28.370  1.00  0.00    -0.014 A 
ATOM     78  C   UNL A   1      47.040  33.068  29.619  1.00  0.00     0.010 A 
ATOM     79  C   UNL A   1      46.381  33.706  27.373  1.00  0.00     0.010 A 
ATOM     80  C   UNL A   1      47.449  34.380  29.871  1.00  0.00     0.020 A 
ATOM     81  C   UNL A   1      46.813  35.013  27.615  1.00  0.00     0.020 A 
ATOM     82  C   UNL A   1      47.335  35.344  28.866  1.00  0.00     0.054 A 
BRANCH  82  83
ATOM     83  S   UNL A   1      47.928  37.028  29.194  1.00  0.00     0.124 S 
ATOM     84  O   UNL A   1      46.860  37.842  28.625  1.00  0.00    -0.237 OA
ATOM     85  O   UNL A   1      48.033  37.048  30.651  1.00  0.00    -0.237 OA
ATOM     86  O   UNL A   1      49.206  37.083  28.486  1.00  0.00    -0.744 OA
ENDBRANCH  82  83
ENDBRANCH  54  77
BRANCH  66  87
ATOM     87  C   UNL A   1      49.720  27.104  25.781  1.00  0.00    -0.014 A 
ATOM     88  C   UNL A   1      50.712  26.502  26.574  1.00  0.00     0.010 A 
ATOM     89  C   UNL A   1      50.019  27.458  24.453  1.00  0.00     0.010 A 
ATOM     90  C   UNL A   1      51.991  26.283  26.054  1.00  0.00     0.020 A 
ATOM     91  C   UNL A   1      51.288  27.218  23.923  1.00  0.00     0.020 A 
ATOM     92  C   UNL A   1      52.271  26.644  24.733  1.00  0.00     0.054 A 
BRANCH  92  93
ATOM     93  S   UNL A   1      53.924  26.308  24.066  1.00  0.00     0.124 S 
ATOM     94  O   UNL A   1      53.632  26.018  22.665  1.00  0.00    -0.237 OA
ATOM     95  O   UNL A   1      54.631  27.563  24.314  1.00  0.00    -0.237 OA
ATOM     96  O   UNL A   1      54.390  25.171  24.855  1.00  0.00    -0.744 OA
ENDBRANCH  92  93
ENDBRANCH  66  87
ENDBRANCH  40  41
ENDBRANCH  32  35
ENDBRANCH  30  31
ENDBRANCH  29  30
ENDBRANCH   1  29
TORSDOF 17
ENDMDL
MODEL 3
REMARK VINA RESULT:     -12.3      6.163     10.619
REMARK SMILES CC(C)(C)OC(=O)N1C[C@@H](C(=O)NCCCCNC(=O)c2ccc(-c3c4nc(c(-c5ccc(S(=O)(=O)[O-])cc5)c5ccc([nH]5)c(-c5ccc(S(=O)(=O)[O-])cc5)c5nc(c(-c6ccc(S(=O)(=O)[O-])cc6)c6ccc3[nH]6)C=C5)C=C4)cc2)[C@@]2(C1)C(=O)Nc1ccccc12
REMARK SMILES IDX 15 1 14 2 13 3 11 4 12 5 10 7 8 8 9 9 82 10 81 11 83 12
REMARK SMILES IDX 91 13 84 14 85 15 86 16 90 17 87 19 89 20 88 21 6 22 7 23
REMARK SMILES IDX 5 24 2 25 1 26 3 27 4 28 16 29 17 30 18 31 19 32 20 34 21 35
REMARK SMILES IDX 22 36 80 37 23 38 79 39 24 40 25 41 26 42 73 43 27 44 78 45
REMARK SMILES IDX 72 46 74 47 28 48 77 49 71 50 70 51 29 53 59 54 40 55 58 56
REMARK SMILES IDX 41 57 44 58 57 59 75 60 42 61 43 62 56 64 76 65 45 66 30 67
REMARK SMILES IDX 31 68 39 69 32 70 38 71 33 72 34 73 35 74 36 75 37 76 60 77
REMARK SMILES IDX 61 78 69 79 62 80 68 81 63 82 64 83 65 84 66 85 67 86 46 87
REMARK SMILES IDX 47 88 55 89 48 90 54 91 49 92 50 93 51 94 52 95 53 96
REMARK H PARENT 13 6 85 18 18 33 74 52 44 63
REMARK Flexibility Score: inf
ROOT
ATOM      1  C   UNL A   1      37.409  21.238  24.648  1.00  0.00     0.023 C 
ENDROOT
BRANCH   1   2
ATOM      2  C   UNL A   1      37.198  22.642  25.222  1.00  0.00     0.116 C 
BRANCH   2   3
ATOM      3  N   UNL A   1      36.177  22.698  26.255  1.00  0.00    -0.356 N 
ATOM      4  C   UNL A   1      34.926  23.219  26.331  1.00  0.00     0.226 C 
ATOM      5  O   UNL A   1      34.329  23.008  27.396  1.00  0.00    -0.275 OA
ATOM      6  H   UNL A   1      36.456  22.258  27.090  1.00  0.00     0.163 HD
BRANCH   4   7
ATOM      7  C   UNL A   1      34.221  24.036  25.254  1.00  0.00     0.120 C 
ATOM      8  N   UNL A   1      32.549  25.590  25.894  1.00  0.00    -0.306 N 
ATOM      9  C   UNL A   1      33.976  25.474  25.667  1.00  0.00     0.138 C 
ATOM     10  C   UNL A   1      31.821  24.387  25.475  1.00  0.00     0.145 C 
ATOM     11  C   UNL A   1      32.870  23.548  24.706  1.00  0.00     0.107 C 
ATOM     12  C   UNL A   1      32.701  24.029  23.226  1.00  0.00     0.237 C 
ATOM     13  C   UNL A   1      32.702  22.047  24.514  1.00  0.00    -0.006 A 
ATOM     14  O   UNL A   1      32.843  25.159  22.787  1.00  0.00    -0.274 OA
ATOM     15  N   UNL A   1      32.318  22.946  22.459  1.00  0.00    -0.325 N 
ATOM     16  C   UNL A   1      32.351  21.778  23.190  1.00  0.00     0.045 A 
ATOM     17  C   UNL A   1      32.977  20.962  25.335  1.00  0.00     0.007 A 
ATOM     18  H   UNL A   1      32.054  23.002  21.512  1.00  0.00     0.169 HD
ATOM     19  C   UNL A   1      32.189  20.504  22.673  1.00  0.00     0.026 A 
ATOM     20  C   UNL A   1      32.840  19.657  24.840  1.00  0.00     0.000 A 
ATOM     21  C   UNL A   1      32.438  19.428  23.521  1.00  0.00     0.002 A 
BRANCH   8  22
ATOM     22  C   UNL A   1      32.041  26.806  26.290  1.00  0.00     0.410 C 
ATOM     23  O   UNL A   1      31.133  26.886  27.106  1.00  0.00    -0.224 OA
BRANCH  22  24
ATOM     24  O   UNL A   1      32.602  27.861  25.646  1.00  0.00    -0.444 OA
BRANCH  24  25
ATOM     25  C   UNL A   1      31.882  28.537  24.571  1.00  0.00     0.106 C 
ATOM     26  C   UNL A   1      32.918  28.781  23.464  1.00  0.00     0.056 C 
ATOM     27  C   UNL A   1      31.385  29.881  25.111  1.00  0.00     0.056 C 
ATOM     28  C   UNL A   1      30.721  27.748  23.937  1.00  0.00     0.056 C 
ENDBRANCH  24  25
ENDBRANCH  22  24
ENDBRANCH   8  22
ENDBRANCH   4   7
ENDBRANCH   2   3
ENDBRANCH   1   2
BRANCH   1  29
ATOM     29  C   UNL A   1      38.078  20.238  25.589  1.00  0.00     0.023 C 
BRANCH  29  30
ATOM     30  C   UNL A   1      39.494  20.615  25.995  1.00  0.00     0.116 C 
BRANCH  30  31
ATOM     31  N   UNL A   1      40.406  19.479  25.988  1.00  0.00    -0.352 N 
ATOM     32  C   UNL A   1      41.773  19.480  26.110  1.00  0.00     0.251 C 
ATOM     33  H   UNL A   1      39.987  18.596  25.881  1.00  0.00     0.163 HD
ATOM     34  O   UNL A   1      42.407  18.440  25.966  1.00  0.00    -0.269 OA
BRANCH  32  35
ATOM     35  C   UNL A   1      42.468  20.754  26.374  1.00  0.00     0.039 A 
ATOM     36  C   UNL A   1      42.912  21.515  25.291  1.00  0.00     0.014 A 
ATOM     37  C   UNL A   1      42.639  21.210  27.683  1.00  0.00     0.014 A 
ATOM     38  C   UNL A   1      43.472  22.772  25.520  1.00  0.00     0.010 A 
ATOM     39  C   UNL A   1      43.128  22.490  27.905  1.00  0.00     0.010 A 
ATOM     40  C   UNL A   1      43.552  23.280  26.826  1.00  0.00    -0.014 A 
BRANCH  40  41
ATOM     41  C   UNL A   1      44.081  24.638  27.092  1.00  0.00     0.031 A 
ATOM     42  C   UNL A   1      43.146  25.734  27.519  1.00  0.00     0.074 A 
ATOM     43  C   UNL A   1      45.385  24.897  26.871  1.00  0.00     0.049 A 
ATOM     44  N   UNL A   1      43.400  27.001  27.720  1.00  0.00    -0.248 NA
ATOM     45  C   UNL A   1      41.735  25.362  27.719  1.00  0.00     0.031 C 
ATOM     46  C   UNL A   1      46.378  23.923  26.409  1.00  0.00     0.029 A 
ATOM     47  N   UNL A   1      46.097  26.062  26.996  1.00  0.00    -0.354 N 
ATOM     48  C   UNL A   1      42.180  27.581  28.047  1.00  0.00     0.074 A 
ATOM     49  C   UNL A   1      41.180  26.538  27.972  1.00  0.00     0.031 C 
ATOM     50  C   UNL A   1      47.573  24.526  26.312  1.00  0.00     0.029 A 
ATOM     51  C   UNL A   1      47.426  25.934  26.670  1.00  0.00     0.049 A 
ATOM     52  H   UNL A   1      45.695  26.910  27.293  1.00  0.00     0.167 HD
ATOM     53  C   UNL A   1      41.919  28.862  28.397  1.00  0.00     0.031 A 
ATOM     54  C   UNL A   1      48.414  26.849  26.655  1.00  0.00     0.031 A 
ATOM     55  C   UNL A   1      42.922  29.888  28.488  1.00  0.00     0.049 A 
ATOM     56  C   UNL A   1      48.104  28.263  27.061  1.00  0.00     0.074 A 
ATOM     57  C   UNL A   1      42.775  31.204  28.891  1.00  0.00     0.029 A 
ATOM     58  N   UNL A   1      44.262  29.712  28.175  1.00  0.00    -0.354 N 
ATOM     59  N   UNL A   1      46.954  28.779  27.426  1.00  0.00    -0.248 NA
ATOM     60  C   UNL A   1      49.223  29.212  27.064  1.00  0.00     0.031 C 
ATOM     61  C   UNL A   1      44.018  31.834  28.783  1.00  0.00     0.029 A 
ATOM     62  C   UNL A   1      44.950  30.899  28.360  1.00  0.00     0.049 A 
ATOM     63  H   UNL A   1      44.664  28.868  27.867  1.00  0.00     0.167 HD
ATOM     64  C   UNL A   1      47.216  30.112  27.724  1.00  0.00     0.074 A 
ATOM     65  C   UNL A   1      48.636  30.315  27.511  1.00  0.00     0.031 C 
ATOM     66  C   UNL A   1      46.362  31.079  28.138  1.00  0.00     0.031 A 
BRANCH  53  67
ATOM     67  C   UNL A   1      40.490  29.218  28.704  1.00  0.00    -0.014 A 
ATOM     68  C   UNL A   1      40.067  29.440  30.027  1.00  0.00     0.010 A 
ATOM     69  C   UNL A   1      39.561  29.354  27.656  1.00  0.00     0.010 A 
ATOM     70  C   UNL A   1      38.731  29.746  30.301  1.00  0.00     0.020 A 
ATOM     71  C   UNL A   1      38.229  29.687  27.924  1.00  0.00     0.020 A 
ATOM     72  C   UNL A   1      37.820  29.861  29.248  1.00  0.00     0.054 A 
BRANCH  72  73
ATOM     73  S   UNL A   1      36.095  30.272  29.630  1.00  0.00     0.124 S 
ATOM     74  O   UNL A   1      35.386  29.664  28.507  1.00  0.00    -0.237 OA
ATOM     75  O   UNL A   1      35.890  29.628  30.925  1.00  0.00    -0.237 OA
ATOM     76  O   UNL A   1      36.084  31.733  29.656  1.00  0.00    -0.744 OA
ENDBRANCH  72  73
ENDBRANCH  53  67
BRANCH  54  77
ATOM     77  C   UNL A   1      49.791  26.447  26.264  1.00  0.00    -0.014 A 
ATOM     78  C   UNL A   1      50.244  26.650  24.948  1.00  0.00     0.010 A 
ATOM     79  C   UNL A   1      50.665  25.881  27.210  1.00  0.00     0.010 A 
ATOM     80  C   UNL A   1      51.541  26.279  24.582  1.00  0.00     0.020 A 
ATOM     81  C   UNL A   1      51.971  25.532  26.852  1.00  0.00     0.020 A 
ATOM     82  C   UNL A   1      52.397  25.725  25.537  1.00  0.00     0.054 A 
BRANCH  82  83
ATOM     83  S   UNL A   1      54.096  25.307  25.055  1.00  0.00     0.124 S 
ATOM     84  O   UNL A   1      54.239  26.026  23.793  1.00  0.00    -0.237 OA
ATOM     85  O   UNL A   1      54.880  25.828  26.172  1.00  0.00    -0.237 OA
ATOM     86  O   UNL A   1      54.071  23.850  24.948  1.00  0.00    -0.744 OA
ENDBRANCH  82  83
ENDBRANCH  54  77
BRANCH  66  87
ATOM     87  C   UNL A   1      46.943  32.438  28.414  1.00  0.00    -0.014 A 
ATOM     88  C   UNL A   1      47.467  32.760  29.678  1.00  0.00     0.010 A 
ATOM     89  C   UNL A   1      47.012  33.386  27.376  1.00  0.00     0.010 A 
ATOM     90  C   UNL A   1      48.027  34.020  29.907  1.00  0.00     0.020 A 
ATOM     91  C   UNL A   1      47.594  34.637  27.595  1.00  0.00     0.020 A 
ATOM     92  C   UNL A   1      48.085  34.950  28.865  1.00  0.00     0.054 A 
BRANCH  92  93
ATOM     93  S   UNL A   1      48.857  36.562  29.173  1.00  0.00     0.124 S 
ATOM     94  O   UNL A   1      48.126  37.028  30.348  1.00  0.00    -0.237 OA
ATOM     95  O   UNL A   1      50.257  36.210  29.401  1.00  0.00    -0.237 OA
ATOM     96  O   UNL A   1      48.602  37.308  27.943  1.00  0.00    -0.744 OA
ENDBRANCH  92  93
ENDBRANCH  66  87
ENDBRANCH  40  41
ENDBRANCH  32  35
ENDBRANCH  30  31
ENDBRANCH  29  30
ENDBRANCH   1  29
TORSDOF 17
ENDMDL
