MODEL 1
REMARK VINA RESULT:     -12.2      0.000      0.000
REMARK SMILES Cc1ccc(S(=O)(=O)n2cc(C(=O)C(=O)NCC(=O)NCCCCNC(=O)c3ccc(-c4c5nc(c(-c6ccc(S(=O)(=O)[O-])cc6)c6ccc([nH]6)c(-c6ccc(S(=O)(=O)[O-])cc6)c6nc(c(-c7ccc(S(=O)(=O)[O-])cc7)c7ccc4[nH]7)C=C6)C=C5)cc3)c3ccccc32)cc1
REMARK SMILES IDX 21 1 20 2 18 3 19 4 17 6 16 7 14 8 15 9 12 11 13 12 11 13
REMARK SMILES IDX 9 14 10 15 93 16 88 17 92 18 89 19 91 20 90 21 6 22 7 23
REMARK SMILES IDX 8 24 5 25 1 26 2 27 3 28 95 29 4 30 94 31 22 32 23 33 24 34
REMARK SMILES IDX 25 35 26 36 27 38 28 39 29 40 87 41 30 42 86 43 31 44 32 45
REMARK SMILES IDX 33 46 80 47 34 48 85 49 79 50 81 51 35 52 84 53 78 54 77 55
REMARK SMILES IDX 36 57 66 58 47 59 65 60 48 61 51 62 64 63 82 64 49 65 50 66
REMARK SMILES IDX 63 68 83 69 52 70 37 71 38 72 46 73 39 74 45 75 40 76 41 77
REMARK SMILES IDX 42 78 43 79 44 80 67 81 68 82 76 83 69 84 75 85 70 86 71 87
REMARK SMILES IDX 72 88 73 89 74 90 53 91 54 92 62 93 55 94 61 95 56 96 57 97
REMARK SMILES IDX 58 98 59 99 60 100
REMARK H PARENT 20 5 16 10 25 37 81 56 51 67
REMARK Flexibility Score: inf
ROOT
ATOM      1  C   UNL A   1      37.843  22.362  25.784  1.00  0.00     0.116 C 
ENDROOT
BRANCH   1   2
ATOM      2  N   UNL A   1      36.537  22.661  26.348  1.00  0.00    -0.355 N 
ATOM      3  C   UNL A   1      35.339  22.041  26.143  1.00  0.00     0.239 C 
ATOM      4  O   UNL A   1      34.350  22.443  26.761  1.00  0.00    -0.273 OA
ATOM      5  H   UNL A   1      36.512  23.424  26.970  1.00  0.00     0.163 HD
BRANCH   3   6
ATOM      6  C   UNL A   1      35.259  20.805  25.248  1.00  0.00     0.216 C 
BRANCH   6   7
ATOM      7  N   UNL A   1      34.083  19.981  25.505  1.00  0.00    -0.340 N 
ATOM      8  C   UNL A   1      32.876  19.907  24.844  1.00  0.00     0.292 C 
ATOM      9  O   UNL A   1      32.060  19.065  25.207  1.00  0.00    -0.265 OA
ATOM     10  H   UNL A   1      34.165  19.378  26.280  1.00  0.00     0.164 HD
BRANCH   8  11
ATOM     11  C   UNL A   1      32.553  20.854  23.662  1.00  0.00     0.252 C 
ATOM     12  O   UNL A   1      32.433  20.356  22.544  1.00  0.00    -0.283 OA
BRANCH  11  13
ATOM     13  C   UNL A   1      32.349  22.299  23.854  1.00  0.00     0.054 A 
ATOM     14  N   UNL A   1      32.552  24.522  23.706  1.00  0.00    -0.240 N 
ATOM     15  C   UNL A   1      32.941  23.330  23.146  1.00  0.00     0.117 A 
ATOM     16  C   UNL A   1      31.678  24.317  24.751  1.00  0.00     0.065 A 
ATOM     17  C   UNL A   1      31.531  22.927  24.862  1.00  0.00     0.012 A 
ATOM     18  C   UNL A   1      31.032  25.206  25.631  1.00  0.00     0.028 A 
ATOM     19  C   UNL A   1      30.685  22.424  25.878  1.00  0.00     0.011 A 
ATOM     20  C   UNL A   1      30.227  24.673  26.641  1.00  0.00     0.002 A 
ATOM     21  C   UNL A   1      30.047  23.301  26.760  1.00  0.00     0.001 A 
BRANCH  14  22
ATOM     22  S   UNL A   1      33.234  26.022  23.269  1.00  0.00     0.268 S 
ATOM     23  O   UNL A   1      33.621  25.887  21.873  1.00  0.00    -0.201 OA
ATOM     24  O   UNL A   1      34.172  26.362  24.312  1.00  0.00    -0.201 OA
BRANCH  22  25
ATOM     25  C   UNL A   1      31.954  27.255  23.318  1.00  0.00     0.088 A 
ATOM     26  C   UNL A   1      29.157  30.523  23.470  1.00  0.00     0.044 C 
ATOM     27  C   UNL A   1      30.115  29.368  23.429  1.00  0.00    -0.051 A 
ATOM     28  C   UNL A   1      31.222  29.353  24.284  1.00  0.00     0.005 A 
ATOM     29  C   UNL A   1      29.921  28.300  22.543  1.00  0.00     0.005 A 
ATOM     30  C   UNL A   1      32.141  28.306  24.226  1.00  0.00     0.022 A 
ATOM     31  C   UNL A   1      30.831  27.237  22.492  1.00  0.00     0.022 A 
ENDBRANCH  22  25
ENDBRANCH  14  22
ENDBRANCH  11  13
ENDBRANCH   8  11
ENDBRANCH   6   7
ENDBRANCH   3   6
ENDBRANCH   1   2
BRANCH   1  32
ATOM     32  C   UNL A   1      38.991  22.864  26.669  1.00  0.00     0.023 C 
BRANCH  32  33
ATOM     33  C   UNL A   1      40.106  21.843  26.900  1.00  0.00     0.023 C 
BRANCH  33  34
ATOM     34  C   UNL A   1      41.383  22.127  26.122  1.00  0.00     0.116 C 
BRANCH  34  35
ATOM     35  N   UNL A   1      42.609  21.962  26.888  1.00  0.00    -0.352 N 
ATOM     36  C   UNL A   1      43.525  22.966  27.186  1.00  0.00     0.251 C 
ATOM     37  H   UNL A   1      42.810  21.060  27.225  1.00  0.00     0.163 HD
ATOM     38  O   UNL A   1      44.725  22.773  27.321  1.00  0.00    -0.269 OA
BRANCH  36  39
ATOM     39  C   UNL A   1      42.946  24.286  27.512  1.00  0.00     0.039 A 
ATOM     40  C   UNL A   1      42.964  25.261  26.505  1.00  0.00     0.014 A 
ATOM     41  C   UNL A   1      42.770  24.625  28.847  1.00  0.00     0.014 A 
ATOM     42  C   UNL A   1      43.051  26.598  26.859  1.00  0.00     0.010 A 
ATOM     43  C   UNL A   1      43.010  25.923  29.204  1.00  0.00     0.010 A 
ATOM     44  C   UNL A   1      43.188  26.891  28.209  1.00  0.00    -0.014 A 
BRANCH  44  45
ATOM     45  C   UNL A   1      43.417  28.210  28.745  1.00  0.00     0.031 A 
ATOM     46  C   UNL A   1      42.225  29.051  28.916  1.00  0.00     0.074 A 
ATOM     47  C   UNL A   1      44.628  28.464  29.281  1.00  0.00     0.049 A 
ATOM     48  N   UNL A   1      42.254  30.299  29.196  1.00  0.00    -0.248 NA
ATOM     49  C   UNL A   1      40.865  28.536  28.741  1.00  0.00     0.031 C 
ATOM     50  C   UNL A   1      45.018  29.497  30.230  1.00  0.00     0.029 A 
ATOM     51  N   UNL A   1      45.837  27.913  28.866  1.00  0.00    -0.354 N 
ATOM     52  C   UNL A   1      40.979  30.656  29.575  1.00  0.00     0.074 A 
ATOM     53  C   UNL A   1      40.132  29.569  29.164  1.00  0.00     0.031 C 
ATOM     54  C   UNL A   1      46.348  29.693  30.133  1.00  0.00     0.029 A 
ATOM     55  C   UNL A   1      46.812  28.911  28.996  1.00  0.00     0.049 A 
ATOM     56  H   UNL A   1      45.979  26.995  28.540  1.00  0.00     0.167 HD
ATOM     57  C   UNL A   1      40.837  31.763  30.351  1.00  0.00     0.031 A 
ATOM     58  C   UNL A   1      47.339  29.457  27.856  1.00  0.00     0.031 A 
ATOM     59  C   UNL A   1      42.122  32.454  30.469  1.00  0.00     0.049 A 
ATOM     60  C   UNL A   1      46.930  30.908  27.668  1.00  0.00     0.074 A 
ATOM     61  C   UNL A   1      43.098  32.463  31.450  1.00  0.00     0.029 A 
ATOM     62  N   UNL A   1      42.724  32.925  29.309  1.00  0.00    -0.354 N 
ATOM     63  N   UNL A   1      45.880  31.467  28.211  1.00  0.00    -0.248 NA
ATOM     64  C   UNL A   1      47.725  31.855  26.900  1.00  0.00     0.031 C 
ATOM     65  C   UNL A   1      44.319  32.875  30.842  1.00  0.00     0.029 A 
ATOM     66  C   UNL A   1      44.074  33.145  29.505  1.00  0.00     0.049 A 
ATOM     67  H   UNL A   1      42.252  33.082  28.460  1.00  0.00     0.167 HD
ATOM     68  C   UNL A   1      45.862  32.813  27.928  1.00  0.00     0.074 A 
ATOM     69  C   UNL A   1      47.043  32.997  27.101  1.00  0.00     0.031 C 
ATOM     70  C   UNL A   1      44.893  33.658  28.407  1.00  0.00     0.031 A 
BRANCH  57  71
ATOM     71  C   UNL A   1      39.634  32.068  31.212  1.00  0.00    -0.014 A 
ATOM     72  C   UNL A   1      38.796  33.138  30.836  1.00  0.00     0.010 A 
ATOM     73  C   UNL A   1      39.295  31.409  32.411  1.00  0.00     0.010 A 
ATOM     74  C   UNL A   1      37.717  33.557  31.626  1.00  0.00     0.020 A 
ATOM     75  C   UNL A   1      38.223  31.823  33.219  1.00  0.00     0.020 A 
ATOM     76  C   UNL A   1      37.441  32.901  32.822  1.00  0.00     0.054 A 
BRANCH  76  77
ATOM     77  S   UNL A   1      36.045  33.465  33.826  1.00  0.00     0.124 S 
ATOM     78  O   UNL A   1      34.907  32.839  33.159  1.00  0.00    -0.237 OA
ATOM     79  O   UNL A   1      36.374  32.932  35.146  1.00  0.00    -0.237 OA
ATOM     80  O   UNL A   1      36.100  34.921  33.715  1.00  0.00    -0.744 OA
ENDBRANCH  76  77
ENDBRANCH  57  71
BRANCH  58  81
ATOM     81  C   UNL A   1      47.544  28.436  26.772  1.00  0.00    -0.014 A 
ATOM     82  C   UNL A   1      46.509  28.307  25.813  1.00  0.00     0.010 A 
ATOM     83  C   UNL A   1      48.832  27.990  26.424  1.00  0.00     0.010 A 
ATOM     84  C   UNL A   1      46.791  27.944  24.492  1.00  0.00     0.020 A 
ATOM     85  C   UNL A   1      49.112  27.600  25.100  1.00  0.00     0.020 A 
ATOM     86  C   UNL A   1      48.105  27.656  24.130  1.00  0.00     0.054 A 
BRANCH  86  87
ATOM     87  S   UNL A   1      48.499  27.564  22.352  1.00  0.00     0.124 S 
ATOM     88  O   UNL A   1      48.414  26.133  22.089  1.00  0.00    -0.237 OA
ATOM     89  O   UNL A   1      47.438  28.381  21.754  1.00  0.00    -0.237 OA
ATOM     90  O   UNL A   1      49.839  28.135  22.272  1.00  0.00    -0.744 OA
ENDBRANCH  86  87
ENDBRANCH  58  81
BRANCH  70  91
ATOM     91  C   UNL A   1      44.607  35.082  27.944  1.00  0.00    -0.014 A 
ATOM     92  C   UNL A   1      43.505  35.478  27.178  1.00  0.00     0.010 A 
ATOM     93  C   UNL A   1      45.465  36.132  28.375  1.00  0.00     0.010 A 
ATOM     94  C   UNL A   1      43.283  36.821  26.839  1.00  0.00     0.020 A 
ATOM     95  C   UNL A   1      45.228  37.480  28.094  1.00  0.00     0.020 A 
ATOM     96  C   UNL A   1      44.141  37.815  27.305  1.00  0.00     0.054 A 
BRANCH  96  97
ATOM     97  S   UNL A   1      43.796  39.534  26.884  1.00  0.00     0.124 S 
ATOM     98  O   UNL A   1      44.040  40.210  28.156  1.00  0.00    -0.237 OA
ATOM     99  O   UNL A   1      44.774  39.803  25.832  1.00  0.00    -0.237 OA
ATOM    100  O   UNL A   1      42.403  39.514  26.444  1.00  0.00    -0.744 OA
ENDBRANCH  96  97
ENDBRANCH  70  91
ENDBRANCH  44  45
ENDBRANCH  36  39
ENDBRANCH  34  35
ENDBRANCH  33  34
ENDBRANCH  32  33
ENDBRANCH   1  32
TORSDOF 19
ENDMDL
MODEL 2
REMARK VINA RESULT:     -12.1      4.364      6.286
REMARK SMILES Cc1ccc(S(=O)(=O)n2cc(C(=O)C(=O)NCC(=O)NCCCCNC(=O)c3ccc(-c4c5nc(c(-c6ccc(S(=O)(=O)[O-])cc6)c6ccc([nH]6)c(-c6ccc(S(=O)(=O)[O-])cc6)c6nc(c(-c7ccc(S(=O)(=O)[O-])cc7)c7ccc4[nH]7)C=C6)C=C5)cc3)c3ccccc32)cc1
REMARK SMILES IDX 21 1 20 2 18 3 19 4 17 6 16 7 14 8 15 9 12 11 13 12 11 13
REMARK SMILES IDX 9 14 10 15 93 16 88 17 92 18 89 19 91 20 90 21 6 22 7 23
REMARK SMILES IDX 8 24 5 25 1 26 2 27 3 28 95 29 4 30 94 31 22 32 23 33 24 34
REMARK SMILES IDX 25 35 26 36 27 38 28 39 29 40 87 41 30 42 86 43 31 44 32 45
REMARK SMILES IDX 33 46 80 47 34 48 85 49 79 50 81 51 35 52 84 53 78 54 77 55
REMARK SMILES IDX 36 57 66 58 47 59 65 60 48 61 51 62 64 63 82 64 49 65 50 66
REMARK SMILES IDX 63 68 83 69 52 70 37 71 38 72 46 73 39 74 45 75 40 76 41 77
REMARK SMILES IDX 42 78 43 79 44 80 67 81 68 82 76 83 69 84 75 85 70 86 71 87
REMARK SMILES IDX 72 88 73 89 74 90 53 91 54 92 62 93 55 94 61 95 56 96 57 97
REMARK SMILES IDX 58 98 59 99 60 100
REMARK H PARENT 20 5 16 10 25 37 81 56 51 67
REMARK Flexibility Score: inf
ROOT
ATOM      1  C   UNL A   1      38.586  23.807  26.015  1.00  0.00     0.116 C 
ENDROOT
BRANCH   1   2
ATOM      2  N   UNL A   1      38.618  22.402  25.640  1.00  0.00    -0.355 N 
ATOM      3  C   UNL A   1      37.595  21.574  25.282  1.00  0.00     0.239 C 
ATOM      4  O   UNL A   1      37.857  20.411  24.964  1.00  0.00    -0.273 OA
ATOM      5  H   UNL A   1      39.511  21.986  25.647  1.00  0.00     0.163 HD
BRANCH   3   6
ATOM      6  C   UNL A   1      36.171  22.118  25.173  1.00  0.00     0.216 C 
BRANCH   6   7
ATOM      7  N   UNL A   1      35.260  21.554  26.162  1.00  0.00    -0.340 N 
ATOM      8  C   UNL A   1      33.924  21.229  26.071  1.00  0.00     0.292 C 
ATOM      9  O   UNL A   1      33.386  20.685  27.030  1.00  0.00    -0.265 OA
ATOM     10  H   UNL A   1      35.667  21.376  27.041  1.00  0.00     0.164 HD
BRANCH   8  11
ATOM     11  C   UNL A   1      33.113  21.533  24.786  1.00  0.00     0.252 C 
ATOM     12  O   UNL A   1      32.925  20.611  23.995  1.00  0.00    -0.283 OA
BRANCH  11  13
ATOM     13  C   UNL A   1      32.541  22.863  24.522  1.00  0.00     0.054 A 
ATOM     14  N   UNL A   1      31.350  24.748  24.698  1.00  0.00    -0.240 N 
ATOM     15  C   UNL A   1      31.745  23.616  25.367  1.00  0.00     0.117 A 
ATOM     16  C   UNL A   1      31.895  24.794  23.433  1.00  0.00     0.065 A 
ATOM     17  C   UNL A   1      32.653  23.621  23.299  1.00  0.00     0.012 A 
ATOM     18  C   UNL A   1      31.773  25.724  22.384  1.00  0.00     0.028 A 
ATOM     19  C   UNL A   1      33.326  23.397  22.076  1.00  0.00     0.011 A 
ATOM     20  C   UNL A   1      32.428  25.456  21.179  1.00  0.00     0.002 A 
ATOM     21  C   UNL A   1      33.202  24.313  21.027  1.00  0.00     0.001 A 
BRANCH  14  22
ATOM     22  S   UNL A   1      30.181  25.829  25.307  1.00  0.00     0.268 S 
ATOM     23  O   UNL A   1      29.704  25.235  26.547  1.00  0.00    -0.201 OA
ATOM     24  O   UNL A   1      29.305  26.146  24.204  1.00  0.00    -0.201 OA
BRANCH  22  25
ATOM     25  C   UNL A   1      30.998  27.343  25.757  1.00  0.00     0.088 A 
ATOM     26  C   UNL A   1      33.239  30.775  27.069  1.00  0.00     0.044 C 
ATOM     27  C   UNL A   1      32.435  29.593  26.611  1.00  0.00    -0.051 A 
ATOM     28  C   UNL A   1      32.139  28.563  27.511  1.00  0.00     0.005 A 
ATOM     29  C   UNL A   1      31.976  29.499  25.290  1.00  0.00     0.005 A 
ATOM     30  C   UNL A   1      31.430  27.441  27.087  1.00  0.00     0.022 A 
ATOM     31  C   UNL A   1      31.249  28.383  24.862  1.00  0.00     0.022 A 
ENDBRANCH  22  25
ENDBRANCH  14  22
ENDBRANCH  11  13
ENDBRANCH   8  11
ENDBRANCH   6   7
ENDBRANCH   3   6
ENDBRANCH   1   2
BRANCH   1  32
ATOM     32  C   UNL A   1      39.723  24.183  26.973  1.00  0.00     0.023 C 
BRANCH  32  33
ATOM     33  C   UNL A   1      40.023  25.681  27.043  1.00  0.00     0.023 C 
BRANCH  33  34
ATOM     34  C   UNL A   1      41.456  26.013  27.431  1.00  0.00     0.116 C 
BRANCH  34  35
ATOM     35  N   UNL A   1      42.233  26.661  26.384  1.00  0.00    -0.352 N 
ATOM     36  C   UNL A   1      41.985  27.920  25.847  1.00  0.00     0.251 C 
ATOM     37  H   UNL A   1      43.002  26.164  26.024  1.00  0.00     0.163 HD
ATOM     38  O   UNL A   1      42.240  28.227  24.691  1.00  0.00    -0.269 OA
BRANCH  36  39
ATOM     39  C   UNL A   1      41.546  28.953  26.808  1.00  0.00     0.039 A 
ATOM     40  C   UNL A   1      42.544  29.620  27.533  1.00  0.00     0.014 A 
ATOM     41  C   UNL A   1      40.223  28.954  27.226  1.00  0.00     0.014 A 
ATOM     42  C   UNL A   1      42.258  30.084  28.807  1.00  0.00     0.010 A 
ATOM     43  C   UNL A   1      39.974  29.269  28.533  1.00  0.00     0.010 A 
ATOM     44  C   UNL A   1      41.003  29.793  29.324  1.00  0.00    -0.014 A 
BRANCH  44  45
ATOM     45  C   UNL A   1      40.580  30.086  30.671  1.00  0.00     0.031 A 
ATOM     46  C   UNL A   1      39.845  31.345  30.856  1.00  0.00     0.074 A 
ATOM     47  C   UNL A   1      40.653  29.090  31.578  1.00  0.00     0.049 A 
ATOM     48  N   UNL A   1      39.560  31.855  31.994  1.00  0.00    -0.248 NA
ATOM     49  C   UNL A   1      39.394  32.167  29.730  1.00  0.00     0.031 C 
ATOM     50  C   UNL A   1      39.949  28.944  32.845  1.00  0.00     0.029 A 
ATOM     51  N   UNL A   1      41.600  28.071  31.597  1.00  0.00    -0.354 N 
ATOM     52  C   UNL A   1      38.622  32.838  31.769  1.00  0.00     0.074 A 
ATOM     53  C   UNL A   1      38.640  33.077  30.351  1.00  0.00     0.031 C 
ATOM     54  C   UNL A   1      40.641  28.091  33.626  1.00  0.00     0.029 A 
ATOM     55  C   UNL A   1      41.894  27.806  32.942  1.00  0.00     0.049 A 
ATOM     56  H   UNL A   1      41.991  27.622  30.813  1.00  0.00     0.167 HD
ATOM     57  C   UNL A   1      37.824  33.200  32.808  1.00  0.00     0.031 A 
ATOM     58  C   UNL A   1      43.126  28.166  33.421  1.00  0.00     0.031 A 
ATOM     59  C   UNL A   1      38.284  32.549  34.036  1.00  0.00     0.049 A 
ATOM     60  C   UNL A   1      43.046  29.304  34.424  1.00  0.00     0.074 A 
ATOM     61  C   UNL A   1      37.863  31.418  34.715  1.00  0.00     0.029 A 
ATOM     62  N   UNL A   1      39.571  32.821  34.483  1.00  0.00    -0.354 N 
ATOM     63  N   UNL A   1      42.057  30.156  34.514  1.00  0.00    -0.248 NA
ATOM     64  C   UNL A   1      44.054  29.518  35.452  1.00  0.00     0.031 C 
ATOM     65  C   UNL A   1      38.949  30.970  35.522  1.00  0.00     0.029 A 
ATOM     66  C   UNL A   1      40.010  31.845  35.356  1.00  0.00     0.049 A 
ATOM     67  H   UNL A   1      40.100  33.606  34.213  1.00  0.00     0.167 HD
ATOM     68  C   UNL A   1      42.246  30.985  35.596  1.00  0.00     0.074 A 
ATOM     69  C   UNL A   1      43.516  30.538  36.143  1.00  0.00     0.031 C 
ATOM     70  C   UNL A   1      41.341  31.952  35.954  1.00  0.00     0.031 A 
BRANCH  57  71
ATOM     71  C   UNL A   1      36.494  33.903  32.675  1.00  0.00    -0.014 A 
ATOM     72  C   UNL A   1      35.662  33.560  31.588  1.00  0.00     0.010 A 
ATOM     73  C   UNL A   1      36.021  34.930  33.515  1.00  0.00     0.010 A 
ATOM     74  C   UNL A   1      34.458  34.229  31.327  1.00  0.00     0.020 A 
ATOM     75  C   UNL A   1      34.821  35.617  33.262  1.00  0.00     0.020 A 
ATOM     76  C   UNL A   1      34.047  35.263  32.163  1.00  0.00     0.054 A 
BRANCH  76  77
ATOM     77  S   UNL A   1      32.492  36.114  31.802  1.00  0.00     0.124 S 
ATOM     78  O   UNL A   1      31.502  35.227  32.409  1.00  0.00    -0.237 OA
ATOM     79  O   UNL A   1      32.677  37.400  32.467  1.00  0.00    -0.237 OA
ATOM     80  O   UNL A   1      32.456  36.170  30.342  1.00  0.00    -0.744 OA
ENDBRANCH  76  77
ENDBRANCH  57  71
BRANCH  58  81
ATOM     81  C   UNL A   1      44.223  27.930  32.420  1.00  0.00    -0.014 A 
ATOM     82  C   UNL A   1      44.663  26.593  32.261  1.00  0.00     0.010 A 
ATOM     83  C   UNL A   1      44.465  28.839  31.375  1.00  0.00     0.010 A 
ATOM     84  C   UNL A   1      45.135  26.132  31.027  1.00  0.00     0.020 A 
ATOM     85  C   UNL A   1      44.964  28.381  30.140  1.00  0.00     0.020 A 
ATOM     86  C   UNL A   1      45.221  27.018  29.956  1.00  0.00     0.054 A 
BRANCH  86  87
ATOM     87  S   UNL A   1      45.467  26.319  28.290  1.00  0.00     0.124 S 
ATOM     88  O   UNL A   1      45.091  27.432  27.428  1.00  0.00    -0.237 OA
ATOM     89  O   UNL A   1      46.894  25.981  28.299  1.00  0.00    -0.237 OA
ATOM     90  O   UNL A   1      44.560  25.176  28.265  1.00  0.00    -0.744 OA
ENDBRANCH  86  87
ENDBRANCH  58  81
BRANCH  70  91
ATOM     91  C   UNL A   1      41.562  33.096  36.937  1.00  0.00    -0.014 A 
ATOM     92  C   UNL A   1      40.896  33.254  38.157  1.00  0.00     0.010 A 
ATOM     93  C   UNL A   1      42.576  34.055  36.662  1.00  0.00     0.010 A 
ATOM     94  C   UNL A   1      41.197  34.308  39.034  1.00  0.00     0.020 A 
ATOM     95  C   UNL A   1      42.927  35.076  37.549  1.00  0.00     0.020 A 
ATOM     96  C   UNL A   1      42.216  35.207  38.728  1.00  0.00     0.054 A 
BRANCH  96  97
ATOM     97  S   UNL A   1      42.601  36.522  39.902  1.00  0.00     0.124 S 
ATOM     98  O   UNL A   1      42.461  35.831  41.182  1.00  0.00    -0.237 OA
ATOM     99  O   UNL A   1      43.966  36.884  39.531  1.00  0.00    -0.237 OA
ATOM    100  O   UNL A   1      41.592  37.542  39.629  1.00  0.00    -0.744 OA
ENDBRANCH  96  97
ENDBRANCH  70  91
ENDBRANCH  44  45
ENDBRANCH  36  39
ENDBRANCH  34  35
ENDBRANCH  33  34
ENDBRANCH  32  33
ENDBRANCH   1  32
TORSDOF 19
ENDMDL
MODEL 3
REMARK VINA RESULT:     -12.0      3.365      7.847
REMARK SMILES Cc1ccc(S(=O)(=O)n2cc(C(=O)C(=O)NCC(=O)NCCCCNC(=O)c3ccc(-c4c5nc(c(-c6ccc(S(=O)(=O)[O-])cc6)c6ccc([nH]6)c(-c6ccc(S(=O)(=O)[O-])cc6)c6nc(c(-c7ccc(S(=O)(=O)[O-])cc7)c7ccc4[nH]7)C=C6)C=C5)cc3)c3ccccc32)cc1
REMARK SMILES IDX 21 1 20 2 18 3 19 4 17 6 16 7 14 8 15 9 12 11 13 12 11 13
REMARK SMILES IDX 9 14 10 15 93 16 88 17 92 18 89 19 91 20 90 21 6 22 7 23
REMARK SMILES IDX 8 24 5 25 1 26 2 27 3 28 95 29 4 30 94 31 22 32 23 33 24 34
REMARK SMILES IDX 25 35 26 36 27 38 28 39 29 40 87 41 30 42 86 43 31 44 32 45
REMARK SMILES IDX 33 46 80 47 34 48 85 49 79 50 81 51 35 52 84 53 78 54 77 55
REMARK SMILES IDX 36 57 66 58 47 59 65 60 48 61 51 62 64 63 82 64 49 65 50 66
REMARK SMILES IDX 63 68 83 69 52 70 37 71 38 72 46 73 39 74 45 75 40 76 41 77
REMARK SMILES IDX 42 78 43 79 44 80 67 81 68 82 76 83 69 84 75 85 70 86 71 87
REMARK SMILES IDX 72 88 73 89 74 90 53 91 54 92 62 93 55 94 61 95 56 96 57 97
REMARK SMILES IDX 58 98 59 99 60 100
REMARK H PARENT 20 5 16 10 25 37 81 56 51 67
REMARK Flexibility Score: inf
ROOT
ATOM      1  C   UNL A   1      38.344  24.113  26.957  1.00  0.00     0.116 C 
ENDROOT
BRANCH   1   2
ATOM      2  N   UNL A   1      38.279  23.252  25.787  1.00  0.00    -0.355 N 
ATOM      3  C   UNL A   1      37.212  22.592  25.251  1.00  0.00     0.239 C 
ATOM      4  O   UNL A   1      37.378  21.937  24.219  1.00  0.00    -0.273 OA
ATOM      5  H   UNL A   1      39.132  23.125  25.313  1.00  0.00     0.163 HD
BRANCH   3   6
ATOM      6  C   UNL A   1      35.821  22.761  25.861  1.00  0.00     0.216 C 
BRANCH   6   7
ATOM      7  N   UNL A   1      34.833  21.842  25.308  1.00  0.00    -0.340 N 
ATOM      8  C   UNL A   1      34.024  21.953  24.197  1.00  0.00     0.292 C 
ATOM      9  O   UNL A   1      33.321  20.997  23.886  1.00  0.00    -0.265 OA
ATOM     10  H   UNL A   1      34.725  21.003  25.812  1.00  0.00     0.164 HD
BRANCH   8  11
ATOM     11  C   UNL A   1      34.006  23.249  23.349  1.00  0.00     0.252 C 
ATOM     12  O   UNL A   1      34.787  23.328  22.403  1.00  0.00    -0.283 OA
BRANCH  11  13
ATOM     13  C   UNL A   1      33.063  24.346  23.622  1.00  0.00     0.054 A 
ATOM     14  N   UNL A   1      32.054  26.342  23.628  1.00  0.00    -0.240 N 
ATOM     15  C   UNL A   1      33.023  25.588  23.014  1.00  0.00     0.117 A 
ATOM     16  C   UNL A   1      31.411  25.621  24.610  1.00  0.00     0.065 A 
ATOM     17  C   UNL A   1      32.024  24.359  24.624  1.00  0.00     0.012 A 
ATOM     18  C   UNL A   1      30.381  25.957  25.510  1.00  0.00     0.028 A 
ATOM     19  C   UNL A   1      31.564  23.403  25.558  1.00  0.00     0.011 A 
ATOM     20  C   UNL A   1      29.972  24.997  26.439  1.00  0.00     0.002 A 
ATOM     21  C   UNL A   1      30.548  23.734  26.460  1.00  0.00     0.001 A 
BRANCH  14  22
ATOM     22  S   UNL A   1      31.837  28.006  23.326  1.00  0.00     0.268 S 
ATOM     23  O   UNL A   1      30.399  28.204  23.226  1.00  0.00    -0.201 OA
ATOM     24  O   UNL A   1      32.749  28.348  22.260  1.00  0.00    -0.201 OA
BRANCH  22  25
ATOM     25  C   UNL A   1      32.371  28.911  24.760  1.00  0.00     0.088 A 
ATOM     26  C   UNL A   1      34.034  31.128  28.052  1.00  0.00     0.044 C 
ATOM     27  C   UNL A   1      33.438  30.342  26.921  1.00  0.00    -0.051 A 
ATOM     28  C   UNL A   1      34.183  29.326  26.313  1.00  0.00     0.005 A 
ATOM     29  C   UNL A   1      32.144  30.612  26.457  1.00  0.00     0.005 A 
ATOM     30  C   UNL A   1      33.656  28.616  25.234  1.00  0.00     0.022 A 
ATOM     31  C   UNL A   1      31.602  29.892  25.386  1.00  0.00     0.022 A 
ENDBRANCH  22  25
ENDBRANCH  14  22
ENDBRANCH  11  13
ENDBRANCH   8  11
ENDBRANCH   6   7
ENDBRANCH   3   6
ENDBRANCH   1   2
BRANCH   1  32
ATOM     32  C   UNL A   1      39.501  25.117  26.882  1.00  0.00     0.023 C 
BRANCH  32  33
ATOM     33  C   UNL A   1      40.227  25.347  28.208  1.00  0.00     0.023 C 
BRANCH  33  34
ATOM     34  C   UNL A   1      39.638  26.464  29.057  1.00  0.00     0.116 C 
BRANCH  34  35
ATOM     35  N   UNL A   1      38.555  27.201  28.423  1.00  0.00    -0.352 N 
ATOM     36  C   UNL A   1      38.495  28.581  28.258  1.00  0.00     0.251 C 
ATOM     37  H   UNL A   1      37.796  26.676  28.080  1.00  0.00     0.163 HD
ATOM     38  O   UNL A   1      37.452  29.219  28.248  1.00  0.00    -0.269 OA
BRANCH  36  39
ATOM     39  C   UNL A   1      39.771  29.242  27.915  1.00  0.00     0.039 A 
ATOM     40  C   UNL A   1      40.412  28.828  26.739  1.00  0.00     0.014 A 
ATOM     41  C   UNL A   1      40.453  29.930  28.909  1.00  0.00     0.014 A 
ATOM     42  C   UNL A   1      41.794  28.888  26.665  1.00  0.00     0.010 A 
ATOM     43  C   UNL A   1      41.818  29.851  28.907  1.00  0.00     0.010 A 
ATOM     44  C   UNL A   1      42.475  29.295  27.804  1.00  0.00    -0.014 A 
BRANCH  44  45
ATOM     45  C   UNL A   1      43.910  29.298  27.947  1.00  0.00     0.031 A 
ATOM     46  C   UNL A   1      44.628  30.362  27.233  1.00  0.00     0.074 A 
ATOM     47  C   UNL A   1      44.442  28.515  28.908  1.00  0.00     0.049 A 
ATOM     48  N   UNL A   1      45.898  30.409  27.091  1.00  0.00    -0.248 NA
ATOM     49  C   UNL A   1      43.936  31.471  26.570  1.00  0.00     0.031 C 
ATOM     50  C   UNL A   1      45.744  28.604  29.554  1.00  0.00     0.029 A 
ATOM     51  N   UNL A   1      43.931  27.296  29.343  1.00  0.00    -0.354 N 
ATOM     52  C   UNL A   1      46.206  31.678  26.653  1.00  0.00     0.074 A 
ATOM     53  C   UNL A   1      44.959  32.258  26.230  1.00  0.00     0.031 C 
ATOM     54  C   UNL A   1      46.049  27.400  30.079  1.00  0.00     0.029 A 
ATOM     55  C   UNL A   1      45.025  26.467  29.629  1.00  0.00     0.049 A 
ATOM     56  H   UNL A   1      42.980  27.059  29.433  1.00  0.00     0.167 HD
ATOM     57  C   UNL A   1      47.468  32.133  26.871  1.00  0.00     0.031 A 
ATOM     58  C   UNL A   1      45.270  25.405  28.800  1.00  0.00     0.031 A 
ATOM     59  C   UNL A   1      48.302  31.050  27.395  1.00  0.00     0.049 A 
ATOM     60  C   UNL A   1      46.548  25.580  27.998  1.00  0.00     0.074 A 
ATOM     61  C   UNL A   1      48.705  30.709  28.675  1.00  0.00     0.029 A 
ATOM     62  N   UNL A   1      48.478  29.916  26.611  1.00  0.00    -0.354 N 
ATOM     63  N   UNL A   1      47.121  26.728  27.743  1.00  0.00    -0.248 NA
ATOM     64  C   UNL A   1      47.313  24.454  27.482  1.00  0.00     0.031 C 
ATOM     65  C   UNL A   1      49.055  29.327  28.664  1.00  0.00     0.029 A 
ATOM     66  C   UNL A   1      48.894  28.844  27.376  1.00  0.00     0.049 A 
ATOM     67  H   UNL A   1      48.326  29.882  25.639  1.00  0.00     0.167 HD
ATOM     68  C   UNL A   1      48.316  26.524  27.092  1.00  0.00     0.074 A 
ATOM     69  C   UNL A   1      48.380  25.078  26.954  1.00  0.00     0.031 C 
ATOM     70  C   UNL A   1      49.151  27.553  26.736  1.00  0.00     0.031 A 
BRANCH  57  71
ATOM     71  C   UNL A   1      47.876  33.587  26.875  1.00  0.00    -0.014 A 
ATOM     72  C   UNL A   1      47.788  34.303  28.087  1.00  0.00     0.010 A 
ATOM     73  C   UNL A   1      48.289  34.327  25.749  1.00  0.00     0.010 A 
ATOM     74  C   UNL A   1      48.048  35.678  28.165  1.00  0.00     0.020 A 
ATOM     75  C   UNL A   1      48.544  35.707  25.808  1.00  0.00     0.020 A 
ATOM     76  C   UNL A   1      48.417  36.377  27.019  1.00  0.00     0.054 A 
BRANCH  76  77
ATOM     77  S   UNL A   1      48.743  38.153  27.145  1.00  0.00     0.124 S 
ATOM     78  O   UNL A   1      47.880  38.703  26.104  1.00  0.00    -0.237 OA
ATOM     79  O   UNL A   1      48.342  38.448  28.518  1.00  0.00    -0.237 OA
ATOM     80  O   UNL A   1      50.176  38.264  26.881  1.00  0.00    -0.744 OA
ENDBRANCH  76  77
ENDBRANCH  57  71
BRANCH  58  81
ATOM     81  C   UNL A   1      44.007  24.735  28.337  1.00  0.00    -0.014 A 
ATOM     82  C   UNL A   1      43.778  24.701  26.939  1.00  0.00     0.010 A 
ATOM     83  C   UNL A   1      43.344  23.792  29.143  1.00  0.00     0.010 A 
ATOM     84  C   UNL A   1      43.085  23.639  26.348  1.00  0.00     0.020 A 
ATOM     85  C   UNL A   1      42.624  22.736  28.550  1.00  0.00     0.020 A 
ATOM     86  C   UNL A   1      42.568  22.628  27.156  1.00  0.00     0.054 A 
BRANCH  86  87
ATOM     87  S   UNL A   1      42.017  21.090  26.347  1.00  0.00     0.124 S 
ATOM     88  O   UNL A   1      43.074  20.858  25.370  1.00  0.00    -0.237 OA
ATOM     89  O   UNL A   1      41.972  20.146  27.467  1.00  0.00    -0.237 OA
ATOM     90  O   UNL A   1      40.718  21.449  25.787  1.00  0.00    -0.744 OA
ENDBRANCH  86  87
ENDBRANCH  58  81
BRANCH  70  91
ATOM     91  C   UNL A   1      50.337  27.484  25.781  1.00  0.00    -0.014 A 
ATOM     92  C   UNL A   1      51.673  27.311  26.162  1.00  0.00     0.010 A 
ATOM     93  C   UNL A   1      50.097  27.513  24.379  1.00  0.00     0.010 A 
ATOM     94  C   UNL A   1      52.704  27.202  25.217  1.00  0.00     0.020 A 
ATOM     95  C   UNL A   1      51.105  27.349  23.426  1.00  0.00     0.020 A 
ATOM     96  C   UNL A   1      52.413  27.213  23.855  1.00  0.00     0.054 A 
BRANCH  96  97
ATOM     97  S   UNL A   1      53.763  27.026  22.673  1.00  0.00     0.124 S 
ATOM     98  O   UNL A   1      53.181  26.108  21.696  1.00  0.00    -0.237 OA
ATOM     99  O   UNL A   1      53.963  28.395  22.205  1.00  0.00    -0.237 OA
ATOM    100  O   UNL A   1      54.855  26.478  23.472  1.00  0.00    -0.744 OA
ENDBRANCH  96  97
ENDBRANCH  70  91
ENDBRANCH  44  45
ENDBRANCH  36  39
ENDBRANCH  34  35
ENDBRANCH  33  34
ENDBRANCH  32  33
ENDBRANCH   1  32
TORSDOF 19
ENDMDL
