MODEL 1
REMARK VINA RESULT:     -12.0      0.000      0.000
REMARK SMILES O=C(Nc1c(F)cc(F)cc1F)N[C@H]1C=C[C@@H](C(=O)NCCCCNC(=O)c2ccc(-c3c4nc(c(-c5ccc(S(=O)(=O)[O-])cc5)c5ccc([nH]5)c(-c5ccc(S(=O)(=O)[O-])cc5)c5nc(c(-c6ccc(S(=O)(=O)[O-])cc6)c6ccc3[nH]6)C=C5)C=C4)cc2)C1
REMARK SMILES IDX 23 1 22 2 21 3 20 4 18 5 19 6 17 8 14 9 15 10 88 11 16 12
REMARK SMILES IDX 13 13 1 14 2 15 3 16 4 19 5 20 11 21 6 22 7 23 10 24 12 25
REMARK SMILES IDX 8 26 9 27 24 28 25 29 26 30 27 32 28 33 29 34 87 35 30 36
REMARK SMILES IDX 86 37 31 38 32 39 33 40 80 41 34 42 85 43 79 44 81 45 35 46
REMARK SMILES IDX 84 47 78 48 77 49 36 51 66 52 47 53 65 54 48 55 51 56 64 57
REMARK SMILES IDX 82 58 49 59 50 60 63 62 83 63 52 64 37 65 38 66 46 67 39 68
REMARK SMILES IDX 45 69 40 70 41 71 42 72 43 73 44 74 67 75 68 76 76 77 69 78
REMARK SMILES IDX 75 79 70 80 71 81 72 82 73 83 74 84 53 85 54 86 62 87 55 88
REMARK SMILES IDX 61 89 56 90 57 91 58 92 59 93 60 94
REMARK H PARENT 20 7 3 17 13 18 25 31 81 50 51 61
REMARK Flexibility Score: inf
ROOT
ATOM      1  C   UNL A   1      33.931  27.991  25.889  1.00  0.00     0.023 C 
ENDROOT
BRANCH   1   2
ATOM      2  C   UNL A   1      33.976  26.496  25.574  1.00  0.00     0.023 C 
BRANCH   2   3
ATOM      3  C   UNL A   1      33.745  26.145  24.106  1.00  0.00     0.116 C 
BRANCH   3   4
ATOM      4  N   UNL A   1      33.183  27.253  23.366  1.00  0.00    -0.356 N 
ATOM      5  C   UNL A   1      31.890  27.633  23.179  1.00  0.00     0.227 C 
ATOM      6  O   UNL A   1      31.696  28.664  22.526  1.00  0.00    -0.274 OA
ATOM      7  H   UNL A   1      33.847  27.829  22.922  1.00  0.00     0.163 HD
BRANCH   5   8
ATOM      8  C   UNL A   1      30.697  26.859  23.752  1.00  0.00     0.103 C 
ATOM      9  C   UNL A   1      30.338  24.727  24.934  1.00  0.00     0.107 C 
ATOM     10  C   UNL A   1      30.289  25.901  25.857  1.00  0.00    -0.006 C 
ATOM     11  C   UNL A   1      30.751  25.335  23.580  1.00  0.00     0.047 C 
ATOM     12  C   UNL A   1      30.492  27.061  25.222  1.00  0.00    -0.016 C 
BRANCH   9  13
ATOM     13  N   UNL A   1      31.326  23.801  25.431  1.00  0.00    -0.332 N 
ATOM     14  O   UNL A   1      30.211  23.306  27.339  1.00  0.00    -0.248 OA
ATOM     15  C   UNL A   1      31.157  23.107  26.579  1.00  0.00     0.319 C 
ATOM     16  N   UNL A   1      31.997  22.074  26.847  1.00  0.00    -0.303 N 
ATOM     17  H   UNL A   1      31.727  21.562  27.643  1.00  0.00     0.172 HD
ATOM     18  H   UNL A   1      32.154  23.669  24.915  1.00  0.00     0.165 HD
BRANCH  16  19
ATOM     19  C   UNL A   1      33.169  21.566  26.247  1.00  0.00     0.115 A 
ATOM     20  C   UNL A   1      33.251  20.520  25.324  1.00  0.00     0.152 A 
ATOM     21  C   UNL A   1      34.370  22.198  26.608  1.00  0.00     0.152 A 
ATOM     22  F   UNL A   1      32.151  19.897  24.878  1.00  0.00    -0.204 F 
ATOM     23  C   UNL A   1      34.475  20.101  24.803  1.00  0.00     0.081 A 
ATOM     24  C   UNL A   1      35.602  21.784  26.115  1.00  0.00     0.081 A 
ATOM     25  F   UNL A   1      34.338  23.219  27.479  1.00  0.00    -0.204 F 
ATOM     26  C   UNL A   1      35.640  20.736  25.210  1.00  0.00     0.129 A 
ATOM     27  F   UNL A   1      36.816  20.349  24.705  1.00  0.00    -0.207 F 
ENDBRANCH  16  19
ENDBRANCH   9  13
ENDBRANCH   5   8
ENDBRANCH   3   4
ENDBRANCH   2   3
ENDBRANCH   1   2
BRANCH   1  28
ATOM     28  C   UNL A   1      33.455  28.349  27.293  1.00  0.00     0.116 C 
BRANCH  28  29
ATOM     29  N   UNL A   1      33.396  29.785  27.529  1.00  0.00    -0.352 N 
ATOM     30  C   UNL A   1      34.380  30.623  27.997  1.00  0.00     0.251 C 
ATOM     31  H   UNL A   1      32.533  30.213  27.328  1.00  0.00     0.163 HD
ATOM     32  O   UNL A   1      34.124  31.802  28.220  1.00  0.00    -0.269 OA
BRANCH  30  33
ATOM     33  C   UNL A   1      35.732  30.086  28.248  1.00  0.00     0.039 A 
ATOM     34  C   UNL A   1      36.680  30.122  27.223  1.00  0.00     0.014 A 
ATOM     35  C   UNL A   1      36.067  29.578  29.506  1.00  0.00     0.014 A 
ATOM     36  C   UNL A   1      37.990  29.711  27.482  1.00  0.00     0.010 A 
ATOM     37  C   UNL A   1      37.386  29.236  29.780  1.00  0.00     0.010 A 
ATOM     38  C   UNL A   1      38.361  29.296  28.772  1.00  0.00    -0.014 A 
BRANCH  38  39
ATOM     39  C   UNL A   1      39.761  28.921  29.093  1.00  0.00     0.031 A 
ATOM     40  C   UNL A   1      40.681  29.925  29.731  1.00  0.00     0.074 A 
ATOM     41  C   UNL A   1      40.225  27.705  28.743  1.00  0.00     0.049 A 
ATOM     42  N   UNL A   1      41.953  29.813  30.019  1.00  0.00    -0.248 NA
ATOM     43  C   UNL A   1      40.102  31.236  30.065  1.00  0.00     0.031 C 
ATOM     44  C   UNL A   1      39.442  26.656  28.084  1.00  0.00     0.029 A 
ATOM     45  N   UNL A   1      41.471  27.148  28.883  1.00  0.00    -0.354 N 
ATOM     46  C   UNL A   1      42.330  31.042  30.546  1.00  0.00     0.074 A 
ATOM     47  C   UNL A   1      41.166  31.900  30.491  1.00  0.00     0.031 C 
ATOM     48  C   UNL A   1      40.219  25.576  27.905  1.00  0.00     0.029 A 
ATOM     49  C   UNL A   1      41.562  25.866  28.394  1.00  0.00     0.049 A 
ATOM     50  H   UNL A   1      42.229  27.622  29.296  1.00  0.00     0.167 HD
ATOM     51  C   UNL A   1      43.530  31.418  31.051  1.00  0.00     0.031 A 
ATOM     52  C   UNL A   1      42.610  25.022  28.342  1.00  0.00     0.031 A 
ATOM     53  C   UNL A   1      44.683  30.560  31.108  1.00  0.00     0.049 A 
ATOM     54  C   UNL A   1      43.937  25.463  28.895  1.00  0.00     0.074 A 
ATOM     55  C   UNL A   1      45.930  30.828  31.644  1.00  0.00     0.029 A 
ATOM     56  N   UNL A   1      44.732  29.267  30.609  1.00  0.00    -0.354 N 
ATOM     57  N   UNL A   1      44.259  26.610  29.445  1.00  0.00    -0.248 NA
ATOM     58  C   UNL A   1      45.038  24.493  28.830  1.00  0.00     0.031 C 
ATOM     59  C   UNL A   1      46.747  29.714  31.427  1.00  0.00     0.029 A 
ATOM     60  C   UNL A   1      45.993  28.730  30.805  1.00  0.00     0.049 A 
ATOM     61  H   UNL A   1      43.980  28.799  30.179  1.00  0.00     0.167 HD
ATOM     62  C   UNL A   1      45.593  26.490  29.816  1.00  0.00     0.074 A 
ATOM     63  C   UNL A   1      46.014  25.155  29.439  1.00  0.00     0.031 C 
ATOM     64  C   UNL A   1      46.397  27.401  30.419  1.00  0.00     0.031 A 
BRANCH  51  65
ATOM     65  C   UNL A   1      43.649  32.830  31.563  1.00  0.00    -0.014 A 
ATOM     66  C   UNL A   1      44.030  33.883  30.710  1.00  0.00     0.010 A 
ATOM     67  C   UNL A   1      43.372  33.111  32.913  1.00  0.00     0.010 A 
ATOM     68  C   UNL A   1      44.189  35.178  31.211  1.00  0.00     0.020 A 
ATOM     69  C   UNL A   1      43.500  34.412  33.410  1.00  0.00     0.020 A 
ATOM     70  C   UNL A   1      43.932  35.432  32.561  1.00  0.00     0.054 A 
BRANCH  70  71
ATOM     71  S   UNL A   1      44.156  37.119  33.186  1.00  0.00     0.124 S 
ATOM     72  O   UNL A   1      44.304  37.881  31.949  1.00  0.00    -0.237 OA
ATOM     73  O   UNL A   1      42.918  37.356  33.924  1.00  0.00    -0.237 OA
ATOM     74  O   UNL A   1      45.360  37.028  34.008  1.00  0.00    -0.744 OA
ENDBRANCH  70  71
ENDBRANCH  51  65
BRANCH  52  75
ATOM     75  C   UNL A   1      42.432  23.660  27.769  1.00  0.00    -0.014 A 
ATOM     76  C   UNL A   1      42.750  23.410  26.422  1.00  0.00     0.010 A 
ATOM     77  C   UNL A   1      41.979  22.598  28.574  1.00  0.00     0.010 A 
ATOM     78  C   UNL A   1      42.613  22.125  25.889  1.00  0.00     0.020 A 
ATOM     79  C   UNL A   1      41.865  21.307  28.050  1.00  0.00     0.020 A 
ATOM     80  C   UNL A   1      42.177  21.080  26.708  1.00  0.00     0.054 A 
BRANCH  80  81
ATOM     81  S   UNL A   1      42.078  19.407  26.011  1.00  0.00     0.124 S 
ATOM     82  O   UNL A   1      42.937  19.515  24.837  1.00  0.00    -0.237 OA
ATOM     83  O   UNL A   1      42.594  18.581  27.101  1.00  0.00    -0.237 OA
ATOM     84  O   UNL A   1      40.653  19.237  25.733  1.00  0.00    -0.744 OA
ENDBRANCH  80  81
ENDBRANCH  52  75
BRANCH  64  85
ATOM     85  C   UNL A   1      47.806  26.978  30.737  1.00  0.00    -0.014 A 
ATOM     86  C   UNL A   1      48.867  27.250  29.855  1.00  0.00     0.010 A 
ATOM     87  C   UNL A   1      48.079  26.348  31.964  1.00  0.00     0.010 A 
ATOM     88  C   UNL A   1      50.171  26.872  30.183  1.00  0.00     0.020 A 
ATOM     89  C   UNL A   1      49.386  25.993  32.309  1.00  0.00     0.020 A 
ATOM     90  C   UNL A   1      50.423  26.246  31.409  1.00  0.00     0.054 A 
BRANCH  90  91
ATOM     91  S   UNL A   1      52.131  25.808  31.832  1.00  0.00     0.124 S 
ATOM     92  O   UNL A   1      52.831  26.069  30.577  1.00  0.00    -0.237 OA
ATOM     93  O   UNL A   1      52.436  26.727  32.926  1.00  0.00    -0.237 OA
ATOM     94  O   UNL A   1      52.043  24.401  32.214  1.00  0.00    -0.744 OA
ENDBRANCH  90  91
ENDBRANCH  64  85
ENDBRANCH  38  39
ENDBRANCH  30  33
ENDBRANCH  28  29
ENDBRANCH   1  28
TORSDOF 16
ENDMDL
MODEL 2
REMARK VINA RESULT:     -11.7      2.783      9.269
REMARK SMILES O=C(Nc1c(F)cc(F)cc1F)N[C@H]1C=C[C@@H](C(=O)NCCCCNC(=O)c2ccc(-c3c4nc(c(-c5ccc(S(=O)(=O)[O-])cc5)c5ccc([nH]5)c(-c5ccc(S(=O)(=O)[O-])cc5)c5nc(c(-c6ccc(S(=O)(=O)[O-])cc6)c6ccc3[nH]6)C=C5)C=C4)cc2)C1
REMARK SMILES IDX 23 1 22 2 21 3 20 4 18 5 19 6 17 8 14 9 15 10 88 11 16 12
REMARK SMILES IDX 13 13 1 14 2 15 3 16 4 19 5 20 11 21 6 22 7 23 10 24 12 25
REMARK SMILES IDX 8 26 9 27 24 28 25 29 26 30 27 32 28 33 29 34 87 35 30 36
REMARK SMILES IDX 86 37 31 38 32 39 33 40 80 41 34 42 85 43 79 44 81 45 35 46
REMARK SMILES IDX 84 47 78 48 77 49 36 51 66 52 47 53 65 54 48 55 51 56 64 57
REMARK SMILES IDX 82 58 49 59 50 60 63 62 83 63 52 64 37 65 38 66 46 67 39 68
REMARK SMILES IDX 45 69 40 70 41 71 42 72 43 73 44 74 67 75 68 76 76 77 69 78
REMARK SMILES IDX 75 79 70 80 71 81 72 82 73 83 74 84 53 85 54 86 62 87 55 88
REMARK SMILES IDX 61 89 56 90 57 91 58 92 59 93 60 94
REMARK H PARENT 20 7 3 17 13 18 25 31 81 50 51 61
REMARK Flexibility Score: inf
ROOT
ATOM      1  C   UNL A   1      35.679  23.648  25.623  1.00  0.00     0.023 C 
ENDROOT
BRANCH   1   2
ATOM      2  C   UNL A   1      34.719  24.785  25.274  1.00  0.00     0.023 C 
BRANCH   2   3
ATOM      3  C   UNL A   1      33.404  24.774  26.050  1.00  0.00     0.116 C 
BRANCH   3   4
ATOM      4  N   UNL A   1      32.838  23.446  26.138  1.00  0.00    -0.356 N 
ATOM      5  C   UNL A   1      31.784  22.884  25.484  1.00  0.00     0.227 C 
ATOM      6  O   UNL A   1      31.544  21.695  25.725  1.00  0.00    -0.274 OA
ATOM      7  H   UNL A   1      33.289  22.849  26.777  1.00  0.00     0.163 HD
BRANCH   5   8
ATOM      8  C   UNL A   1      30.921  23.647  24.473  1.00  0.00     0.103 C 
ATOM      9  C   UNL A   1      30.628  25.988  23.764  1.00  0.00     0.107 C 
ATOM     10  C   UNL A   1      31.444  25.199  22.791  1.00  0.00    -0.006 C 
ATOM     11  C   UNL A   1      30.407  25.016  24.938  1.00  0.00     0.047 C 
ATOM     12  C   UNL A   1      31.614  23.929  23.176  1.00  0.00    -0.016 C 
BRANCH   9  13
ATOM     13  N   UNL A   1      31.391  27.146  24.160  1.00  0.00    -0.332 N 
ATOM     14  O   UNL A   1      30.911  28.359  22.309  1.00  0.00    -0.248 OA
ATOM     15  C   UNL A   1      31.425  28.279  23.424  1.00  0.00     0.319 C 
ATOM     16  N   UNL A   1      31.945  29.403  23.980  1.00  0.00    -0.303 N 
ATOM     17  H   UNL A   1      31.823  30.198  23.412  1.00  0.00     0.172 HD
ATOM     18  H   UNL A   1      31.905  27.110  24.999  1.00  0.00     0.165 HD
BRANCH  16  19
ATOM     19  C   UNL A   1      32.619  29.695  25.185  1.00  0.00     0.115 A 
ATOM     20  C   UNL A   1      32.229  30.618  26.160  1.00  0.00     0.152 A 
ATOM     21  C   UNL A   1      33.791  28.962  25.429  1.00  0.00     0.152 A 
ATOM     22  F   UNL A   1      31.095  31.321  26.039  1.00  0.00    -0.204 F 
ATOM     23  C   UNL A   1      32.986  30.824  27.313  1.00  0.00     0.081 A 
ATOM     24  C   UNL A   1      34.570  29.165  26.562  1.00  0.00     0.081 A 
ATOM     25  F   UNL A   1      34.195  28.052  24.528  1.00  0.00    -0.204 F 
ATOM     26  C   UNL A   1      34.154  30.096  27.499  1.00  0.00     0.129 A 
ATOM     27  F   UNL A   1      34.877  30.279  28.608  1.00  0.00    -0.207 F 
ENDBRANCH  16  19
ENDBRANCH   9  13
ENDBRANCH   5   8
ENDBRANCH   3   4
ENDBRANCH   2   3
ENDBRANCH   1   2
BRANCH   1  28
ATOM     28  C   UNL A   1      36.991  23.639  24.847  1.00  0.00     0.116 C 
BRANCH  28  29
ATOM     29  N   UNL A   1      37.917  22.609  25.298  1.00  0.00    -0.352 N 
ATOM     30  C   UNL A   1      39.016  22.735  26.113  1.00  0.00     0.251 C 
ATOM     31  H   UNL A   1      37.729  21.698  24.975  1.00  0.00     0.163 HD
ATOM     32  O   UNL A   1      39.740  21.765  26.319  1.00  0.00    -0.269 OA
BRANCH  30  33
ATOM     33  C   UNL A   1      39.329  24.047  26.713  1.00  0.00     0.039 A 
ATOM     34  C   UNL A   1      38.883  24.328  28.007  1.00  0.00     0.014 A 
ATOM     35  C   UNL A   1      40.089  24.983  26.007  1.00  0.00     0.014 A 
ATOM     36  C   UNL A   1      39.260  25.525  28.620  1.00  0.00     0.010 A 
ATOM     37  C   UNL A   1      40.521  26.141  26.644  1.00  0.00     0.010 A 
ATOM     38  C   UNL A   1      40.110  26.425  27.957  1.00  0.00    -0.014 A 
BRANCH  38  39
ATOM     39  C   UNL A   1      40.583  27.671  28.610  1.00  0.00     0.031 A 
ATOM     40  C   UNL A   1      41.976  27.742  29.174  1.00  0.00     0.074 A 
ATOM     41  C   UNL A   1      39.738  28.709  28.763  1.00  0.00     0.049 A 
ATOM     42  N   UNL A   1      42.546  28.710  29.845  1.00  0.00    -0.248 NA
ATOM     43  C   UNL A   1      42.830  26.558  28.982  1.00  0.00     0.031 C 
ATOM     44  C   UNL A   1      38.350  28.750  28.294  1.00  0.00     0.029 A 
ATOM     45  N   UNL A   1      39.918  29.929  29.366  1.00  0.00    -0.354 N 
ATOM     46  C   UNL A   1      43.815  28.245  30.172  1.00  0.00     0.074 A 
ATOM     47  C   UNL A   1      43.911  26.891  29.670  1.00  0.00     0.031 C 
ATOM     48  C   UNL A   1      37.818  29.943  28.602  1.00  0.00     0.029 A 
ATOM     49  C   UNL A   1      38.806  30.736  29.326  1.00  0.00     0.049 A 
ATOM     50  H   UNL A   1      40.766  30.201  29.788  1.00  0.00     0.167 HD
ATOM     51  C   UNL A   1      44.817  28.892  30.813  1.00  0.00     0.031 A 
ATOM     52  C   UNL A   1      38.603  31.972  29.819  1.00  0.00     0.031 A 
ATOM     53  C   UNL A   1      44.719  30.241  31.306  1.00  0.00     0.049 A 
ATOM     54  C   UNL A   1      39.724  32.668  30.539  1.00  0.00     0.074 A 
ATOM     55  C   UNL A   1      45.693  31.004  31.925  1.00  0.00     0.029 A 
ATOM     56  N   UNL A   1      43.578  31.026  31.238  1.00  0.00    -0.354 N 
ATOM     57  N   UNL A   1      40.938  32.236  30.787  1.00  0.00    -0.248 NA
ATOM     58  C   UNL A   1      39.453  34.024  31.036  1.00  0.00     0.031 C 
ATOM     59  C   UNL A   1      45.126  32.235  32.274  1.00  0.00     0.029 A 
ATOM     60  C   UNL A   1      43.815  32.258  31.822  1.00  0.00     0.049 A 
ATOM     61  H   UNL A   1      42.724  30.748  30.834  1.00  0.00     0.167 HD
ATOM     62  C   UNL A   1      41.584  33.276  31.445  1.00  0.00     0.074 A 
ATOM     63  C   UNL A   1      40.630  34.362  31.547  1.00  0.00     0.031 C 
ATOM     64  C   UNL A   1      42.853  33.327  31.920  1.00  0.00     0.031 A 
BRANCH  51  65
ATOM     65  C   UNL A   1      46.101  28.132  31.029  1.00  0.00    -0.014 A 
ATOM     66  C   UNL A   1      47.123  28.144  30.061  1.00  0.00     0.010 A 
ATOM     67  C   UNL A   1      46.292  27.403  32.215  1.00  0.00     0.010 A 
ATOM     68  C   UNL A   1      48.285  27.392  30.249  1.00  0.00     0.020 A 
ATOM     69  C   UNL A   1      47.468  26.674  32.421  1.00  0.00     0.020 A 
ATOM     70  C   UNL A   1      48.446  26.653  31.425  1.00  0.00     0.054 A 
BRANCH  70  71
ATOM     71  S   UNL A   1      49.960  25.678  31.639  1.00  0.00     0.124 S 
ATOM     72  O   UNL A   1      49.542  24.691  32.631  1.00  0.00    -0.237 OA
ATOM     73  O   UNL A   1      50.199  25.156  30.296  1.00  0.00    -0.237 OA
ATOM     74  O   UNL A   1      50.939  26.655  32.108  1.00  0.00    -0.744 OA
ENDBRANCH  70  71
ENDBRANCH  51  65
BRANCH  52  75
ATOM     75  C   UNL A   1      37.289  32.641  29.617  1.00  0.00    -0.014 A 
ATOM     76  C   UNL A   1      36.430  32.861  30.708  1.00  0.00     0.010 A 
ATOM     77  C   UNL A   1      36.903  33.092  28.341  1.00  0.00     0.010 A 
ATOM     78  C   UNL A   1      35.209  33.516  30.528  1.00  0.00     0.020 A 
ATOM     79  C   UNL A   1      35.693  33.769  28.161  1.00  0.00     0.020 A 
ATOM     80  C   UNL A   1      34.850  33.971  29.256  1.00  0.00     0.054 A 
BRANCH  80  81
ATOM     81  S   UNL A   1      33.293  34.883  29.061  1.00  0.00     0.124 S 
ATOM     82  O   UNL A   1      33.760  36.189  28.606  1.00  0.00    -0.237 OA
ATOM     83  O   UNL A   1      32.582  34.083  28.066  1.00  0.00    -0.237 OA
ATOM     84  O   UNL A   1      32.712  34.856  30.401  1.00  0.00    -0.744 OA
ENDBRANCH  80  81
ENDBRANCH  52  75
BRANCH  64  85
ATOM     85  C   UNL A   1      43.298  34.612  32.567  1.00  0.00    -0.014 A 
ATOM     86  C   UNL A   1      43.177  34.811  33.954  1.00  0.00     0.010 A 
ATOM     87  C   UNL A   1      43.897  35.612  31.780  1.00  0.00     0.010 A 
ATOM     88  C   UNL A   1      43.622  36.000  34.537  1.00  0.00     0.020 A 
ATOM     89  C   UNL A   1      44.368  36.791  32.363  1.00  0.00     0.020 A 
ATOM     90  C   UNL A   1      44.215  36.983  33.737  1.00  0.00     0.054 A 
BRANCH  90  91
ATOM     91  S   UNL A   1      44.826  38.498  34.525  1.00  0.00     0.124 S 
ATOM     92  O   UNL A   1      45.943  38.862  33.656  1.00  0.00    -0.237 OA
ATOM     93  O   UNL A   1      43.667  39.384  34.461  1.00  0.00    -0.237 OA
ATOM     94  O   UNL A   1      45.199  38.064  35.868  1.00  0.00    -0.744 OA
ENDBRANCH  90  91
ENDBRANCH  64  85
ENDBRANCH  38  39
ENDBRANCH  30  33
ENDBRANCH  28  29
ENDBRANCH   1  28
TORSDOF 16
ENDMDL
MODEL 3
REMARK VINA RESULT:     -11.5      4.592     10.260
REMARK SMILES O=C(Nc1c(F)cc(F)cc1F)N[C@H]1C=C[C@@H](C(=O)NCCCCNC(=O)c2ccc(-c3c4nc(c(-c5ccc(S(=O)(=O)[O-])cc5)c5ccc([nH]5)c(-c5ccc(S(=O)(=O)[O-])cc5)c5nc(c(-c6ccc(S(=O)(=O)[O-])cc6)c6ccc3[nH]6)C=C5)C=C4)cc2)C1
REMARK SMILES IDX 23 1 22 2 21 3 20 4 18 5 19 6 17 8 14 9 15 10 88 11 16 12
REMARK SMILES IDX 13 13 1 14 2 15 3 16 4 19 5 20 11 21 6 22 7 23 10 24 12 25
REMARK SMILES IDX 8 26 9 27 24 28 25 29 26 30 27 32 28 33 29 34 87 35 30 36
REMARK SMILES IDX 86 37 31 38 32 39 33 40 80 41 34 42 85 43 79 44 81 45 35 46
REMARK SMILES IDX 84 47 78 48 77 49 36 51 66 52 47 53 65 54 48 55 51 56 64 57
REMARK SMILES IDX 82 58 49 59 50 60 63 62 83 63 52 64 37 65 38 66 46 67 39 68
REMARK SMILES IDX 45 69 40 70 41 71 42 72 43 73 44 74 67 75 68 76 76 77 69 78
REMARK SMILES IDX 75 79 70 80 71 81 72 82 73 83 74 84 53 85 54 86 62 87 55 88
REMARK SMILES IDX 61 89 56 90 57 91 58 92 59 93 60 94
REMARK H PARENT 20 7 3 17 13 18 25 31 81 50 51 61
REMARK Flexibility Score: inf
ROOT
ATOM      1  C   UNL A   1      40.088  21.953  27.023  1.00  0.00     0.023 C 
ENDROOT
BRANCH   1   2
ATOM      2  C   UNL A   1      38.826  22.522  26.377  1.00  0.00     0.023 C 
BRANCH   2   3
ATOM      3  C   UNL A   1      38.145  21.594  25.374  1.00  0.00     0.116 C 
BRANCH   3   4
ATOM      4  N   UNL A   1      37.406  22.328  24.371  1.00  0.00    -0.356 N 
ATOM      5  C   UNL A   1      36.069  22.539  24.228  1.00  0.00     0.227 C 
ATOM      6  O   UNL A   1      35.711  23.255  23.286  1.00  0.00    -0.274 OA
ATOM      7  H   UNL A   1      37.963  22.745  23.674  1.00  0.00     0.163 HD
BRANCH   5   8
ATOM      8  C   UNL A   1      35.021  21.951  25.180  1.00  0.00     0.103 C 
ATOM      9  C   UNL A   1      32.850  22.646  26.113  1.00  0.00     0.107 C 
ATOM     10  C   UNL A   1      32.698  21.661  25.000  1.00  0.00    -0.006 C 
ATOM     11  C   UNL A   1      34.359  22.951  26.137  1.00  0.00     0.047 C 
ATOM     12  C   UNL A   1      33.874  21.286  24.483  1.00  0.00    -0.016 C 
BRANCH   9  13
ATOM     13  N   UNL A   1      32.069  23.815  25.791  1.00  0.00    -0.332 N 
ATOM     14  O   UNL A   1      30.427  23.395  27.292  1.00  0.00    -0.248 OA
ATOM     15  C   UNL A   1      30.937  24.138  26.454  1.00  0.00     0.319 C 
ATOM     16  N   UNL A   1      30.404  25.374  26.274  1.00  0.00    -0.303 N 
ATOM     17  H   UNL A   1      29.650  25.554  26.881  1.00  0.00     0.172 HD
ATOM     18  H   UNL A   1      32.374  24.401  25.061  1.00  0.00     0.165 HD
BRANCH  16  19
ATOM     19  C   UNL A   1      30.682  26.460  25.417  1.00  0.00     0.115 A 
ATOM     20  C   UNL A   1      31.403  27.614  25.736  1.00  0.00     0.152 A 
ATOM     21  C   UNL A   1      30.195  26.350  24.105  1.00  0.00     0.152 A 
ATOM     22  F   UNL A   1      31.953  27.779  26.947  1.00  0.00    -0.204 F 
ATOM     23  C   UNL A   1      31.607  28.628  24.800  1.00  0.00     0.081 A 
ATOM     24  C   UNL A   1      30.371  27.356  23.163  1.00  0.00     0.081 A 
ATOM     25  F   UNL A   1      29.511  25.251  23.749  1.00  0.00    -0.204 F 
ATOM     26  C   UNL A   1      31.083  28.489  23.522  1.00  0.00     0.129 A 
ATOM     27  F   UNL A   1      31.287  29.450  22.615  1.00  0.00    -0.207 F 
ENDBRANCH  16  19
ENDBRANCH   9  13
ENDBRANCH   5   8
ENDBRANCH   3   4
ENDBRANCH   2   3
ENDBRANCH   1   2
BRANCH   1  28
ATOM     28  C   UNL A   1      41.195  22.965  27.300  1.00  0.00     0.116 C 
BRANCH  28  29
ATOM     29  N   UNL A   1      41.542  23.768  26.136  1.00  0.00    -0.352 N 
ATOM     30  C   UNL A   1      41.691  25.131  26.042  1.00  0.00     0.251 C 
ATOM     31  H   UNL A   1      41.690  23.266  25.302  1.00  0.00     0.163 HD
ATOM     32  O   UNL A   1      41.902  25.650  24.950  1.00  0.00    -0.269 OA
BRANCH  30  33
ATOM     33  C   UNL A   1      41.569  25.960  27.258  1.00  0.00     0.039 A 
ATOM     34  C   UNL A   1      42.575  26.883  27.555  1.00  0.00     0.014 A 
ATOM     35  C   UNL A   1      40.447  25.845  28.081  1.00  0.00     0.014 A 
ATOM     36  C   UNL A   1      42.420  27.742  28.646  1.00  0.00     0.010 A 
ATOM     37  C   UNL A   1      40.262  26.747  29.123  1.00  0.00     0.010 A 
ATOM     38  C   UNL A   1      41.247  27.704  29.418  1.00  0.00    -0.014 A 
BRANCH  38  39
ATOM     39  C   UNL A   1      41.024  28.650  30.539  1.00  0.00     0.031 A 
ATOM     40  C   UNL A   1      41.853  28.543  31.790  1.00  0.00     0.074 A 
ATOM     41  C   UNL A   1      40.029  29.555  30.464  1.00  0.00     0.049 A 
ATOM     42  N   UNL A   1      41.760  29.225  32.903  1.00  0.00    -0.248 NA
ATOM     43  C   UNL A   1      42.908  27.516  31.800  1.00  0.00     0.031 C 
ATOM     44  C   UNL A   1      39.129  29.733  29.320  1.00  0.00     0.029 A 
ATOM     45  N   UNL A   1      39.598  30.489  31.371  1.00  0.00    -0.354 N 
ATOM     46  C   UNL A   1      42.726  28.697  33.751  1.00  0.00     0.074 A 
ATOM     47  C   UNL A   1      43.359  27.606  33.042  1.00  0.00     0.031 C 
ATOM     48  C   UNL A   1      38.275  30.734  29.586  1.00  0.00     0.029 A 
ATOM     49  C   UNL A   1      38.534  31.241  30.929  1.00  0.00     0.049 A 
ATOM     50  H   UNL A   1      40.012  30.611  32.256  1.00  0.00     0.167 HD
ATOM     51  C   UNL A   1      43.072  29.096  34.999  1.00  0.00     0.031 A 
ATOM     52  C   UNL A   1      37.843  32.223  31.538  1.00  0.00     0.031 A 
ATOM     53  C   UNL A   1      42.443  30.185  35.698  1.00  0.00     0.049 A 
ATOM     54  C   UNL A   1      38.234  32.643  32.928  1.00  0.00     0.074 A 
ATOM     55  C   UNL A   1      42.752  30.701  36.944  1.00  0.00     0.029 A 
ATOM     56  N   UNL A   1      41.376  30.925  35.212  1.00  0.00    -0.354 N 
ATOM     57  N   UNL A   1      39.190  32.171  33.692  1.00  0.00    -0.248 NA
ATOM     58  C   UNL A   1      37.459  33.734  33.533  1.00  0.00     0.031 C 
ATOM     59  C   UNL A   1      41.840  31.722  37.232  1.00  0.00     0.029 A 
ATOM     60  C   UNL A   1      40.998  31.880  36.141  1.00  0.00     0.049 A 
ATOM     61  H   UNL A   1      40.948  30.792  34.335  1.00  0.00     0.167 HD
ATOM     62  C   UNL A   1      39.150  32.926  34.858  1.00  0.00     0.074 A 
ATOM     63  C   UNL A   1      38.083  33.892  34.694  1.00  0.00     0.031 C 
ATOM     64  C   UNL A   1      39.929  32.831  35.964  1.00  0.00     0.031 A 
BRANCH  51  65
ATOM     65  C   UNL A   1      44.173  28.331  35.687  1.00  0.00    -0.014 A 
ATOM     66  C   UNL A   1      45.520  28.711  35.544  1.00  0.00     0.010 A 
ATOM     67  C   UNL A   1      43.858  27.222  36.491  1.00  0.00     0.010 A 
ATOM     68  C   UNL A   1      46.535  27.961  36.144  1.00  0.00     0.020 A 
ATOM     69  C   UNL A   1      44.869  26.487  37.119  1.00  0.00     0.020 A 
ATOM     70  C   UNL A   1      46.203  26.847  36.920  1.00  0.00     0.054 A 
BRANCH  70  71
ATOM     71  S   UNL A   1      47.540  25.886  37.679  1.00  0.00     0.124 S 
ATOM     72  O   UNL A   1      48.391  26.938  38.229  1.00  0.00    -0.237 OA
ATOM     73  O   UNL A   1      46.833  25.072  38.663  1.00  0.00    -0.237 OA
ATOM     74  O   UNL A   1      48.114  25.144  36.558  1.00  0.00    -0.744 OA
ENDBRANCH  70  71
ENDBRANCH  51  65
BRANCH  52  75
ATOM     75  C   UNL A   1      36.729  32.898  30.817  1.00  0.00    -0.014 A 
ATOM     76  C   UNL A   1      35.395  32.652  31.185  1.00  0.00     0.010 A 
ATOM     77  C   UNL A   1      36.996  33.815  29.784  1.00  0.00     0.010 A 
ATOM     78  C   UNL A   1      34.347  33.307  30.532  1.00  0.00     0.020 A 
ATOM     79  C   UNL A   1      35.952  34.490  29.144  1.00  0.00     0.020 A 
ATOM     80  C   UNL A   1      34.633  34.226  29.518  1.00  0.00     0.054 A 
BRANCH  80  81
ATOM     81  S   UNL A   1      33.260  35.118  28.734  1.00  0.00     0.124 S 
ATOM     82  O   UNL A   1      32.504  35.588  29.890  1.00  0.00    -0.237 OA
ATOM     83  O   UNL A   1      33.952  36.150  27.967  1.00  0.00    -0.237 OA
ATOM     84  O   UNL A   1      32.602  34.091  27.930  1.00  0.00    -0.744 OA
ENDBRANCH  80  81
ENDBRANCH  52  75
BRANCH  64  85
ATOM     85  C   UNL A   1      39.678  33.816  37.075  1.00  0.00    -0.014 A 
ATOM     86  C   UNL A   1      38.981  33.442  38.238  1.00  0.00     0.010 A 
ATOM     87  C   UNL A   1      40.197  35.119  36.975  1.00  0.00     0.010 A 
ATOM     88  C   UNL A   1      38.783  34.365  39.268  1.00  0.00     0.020 A 
ATOM     89  C   UNL A   1      40.026  36.036  38.015  1.00  0.00     0.020 A 
ATOM     90  C   UNL A   1      39.307  35.657  39.150  1.00  0.00     0.054 A 
BRANCH  90  91
ATOM     91  S   UNL A   1      39.078  36.822  40.521  1.00  0.00     0.124 S 
ATOM     92  O   UNL A   1      40.445  36.992  41.006  1.00  0.00    -0.237 OA
ATOM     93  O   UNL A   1      38.496  37.986  39.858  1.00  0.00    -0.237 OA
ATOM     94  O   UNL A   1      38.179  36.115  41.429  1.00  0.00    -0.744 OA
ENDBRANCH  90  91
ENDBRANCH  64  85
ENDBRANCH  38  39
ENDBRANCH  30  33
ENDBRANCH  28  29
ENDBRANCH   1  28
TORSDOF 16
ENDMDL
