MODEL 1
REMARK VINA RESULT:     -11.1      0.000      0.000
REMARK SMILES CC1(C)C(=O)N([C@H]2COC[C@@H]2C(=O)NCCCCNC(=O)c2ccc(-c3c4nc(c(-c5ccc(S(=O)(=O)[O-])cc5)c5ccc([nH]5)c(-c5ccc(S(=O)(=O)[O-])cc5)c5nc(c(-c6ccc(S(=O)(=O)[O-])cc6)c6ccc3[nH]6)C=C5)C=C4)cc2)S1(=O)=O
REMARK SMILES IDX 17 1 16 2 15 3 14 4 12 5 13 6 11 8 7 9 8 10 9 11 10 12 6 13
REMARK SMILES IDX 1 14 2 15 3 16 4 17 82 18 5 19 83 20 84 21 18 22 19 23 20 24
REMARK SMILES IDX 21 26 22 27 23 28 81 29 24 30 80 31 25 32 26 33 27 34 74 35
REMARK SMILES IDX 28 36 79 37 73 38 75 39 29 40 78 41 72 42 71 43 30 45 60 46
REMARK SMILES IDX 41 47 59 48 42 49 45 50 58 51 76 52 43 53 44 54 57 56 77 57
REMARK SMILES IDX 46 58 31 59 32 60 40 61 33 62 39 63 34 64 35 65 36 66 37 67
REMARK SMILES IDX 38 68 61 69 62 70 70 71 63 72 69 73 64 74 65 75 66 76 67 77
REMARK SMILES IDX 68 78 47 79 48 80 56 81 49 82 55 83 50 84 51 85 52 86 53 87
REMARK SMILES IDX 54 88
REMARK H PARENT 14 7 19 25 75 44 45 55
REMARK Flexibility Score: inf
ROOT
ATOM      1  C   UNL A   1      32.457  28.128  26.087  1.00  0.00     0.023 C 
ENDROOT
BRANCH   1   2
ATOM      2  C   UNL A   1      31.387  27.168  26.613  1.00  0.00     0.023 C 
BRANCH   2   3
ATOM      3  C   UNL A   1      30.696  26.337  25.533  1.00  0.00     0.116 C 
BRANCH   3   4
ATOM      4  N   UNL A   1      30.385  27.137  24.358  1.00  0.00    -0.356 N 
ATOM      5  C   UNL A   1      30.743  26.978  23.053  1.00  0.00     0.227 C 
ATOM      6  O   UNL A   1      30.423  27.852  22.248  1.00  0.00    -0.275 OA
ATOM      7  H   UNL A   1      29.821  27.925  24.536  1.00  0.00     0.163 HD
BRANCH   5   8
ATOM      8  C   UNL A   1      31.516  25.749  22.622  1.00  0.00     0.130 C 
ATOM      9  C   UNL A   1      32.842  25.689  23.356  1.00  0.00     0.143 C 
ATOM     10  C   UNL A   1      33.825  26.283  22.359  1.00  0.00     0.187 C 
ATOM     11  O   UNL A   1      33.307  26.031  21.049  1.00  0.00    -0.378 OA
ATOM     12  C   UNL A   1      31.891  25.845  21.153  1.00  0.00     0.176 C 
BRANCH   9  13
ATOM     13  N   UNL A   1      33.195  24.337  23.795  1.00  0.00    -0.231 N 
ATOM     14  C   UNL A   1      34.970  21.614  25.067  1.00  0.00     0.041 C 
ATOM     15  C   UNL A   1      33.746  22.374  24.570  1.00  0.00     0.165 C 
ATOM     16  C   UNL A   1      32.459  21.592  24.848  1.00  0.00     0.041 C 
ATOM     17  C   UNL A   1      33.648  23.854  25.029  1.00  0.00     0.259 C 
ATOM     18  S   UNL A   1      33.884  23.093  22.959  1.00  0.00     0.252 S 
ATOM     19  O   UNL A   1      33.723  24.466  26.076  1.00  0.00    -0.272 OA
ATOM     20  O   UNL A   1      35.235  23.439  22.596  1.00  0.00    -0.205 OA
ATOM     21  O   UNL A   1      32.926  22.548  22.025  1.00  0.00    -0.205 OA
ENDBRANCH   9  13
ENDBRANCH   5   8
ENDBRANCH   3   4
ENDBRANCH   2   3
ENDBRANCH   1   2
BRANCH   1  22
ATOM     22  C   UNL A   1      33.507  28.556  27.109  1.00  0.00     0.116 C 
BRANCH  22  23
ATOM     23  N   UNL A   1      33.435  29.971  27.441  1.00  0.00    -0.352 N 
ATOM     24  C   UNL A   1      34.377  30.768  28.045  1.00  0.00     0.251 C 
ATOM     25  H   UNL A   1      32.593  30.419  27.198  1.00  0.00     0.163 HD
ATOM     26  O   UNL A   1      34.087  31.914  28.375  1.00  0.00    -0.269 OA
BRANCH  24  27
ATOM     27  C   UNL A   1      35.727  30.230  28.326  1.00  0.00     0.039 A 
ATOM     28  C   UNL A   1      36.695  30.279  27.319  1.00  0.00     0.014 A 
ATOM     29  C   UNL A   1      36.043  29.698  29.578  1.00  0.00     0.014 A 
ATOM     30  C   UNL A   1      37.999  29.861  27.593  1.00  0.00     0.010 A 
ATOM     31  C   UNL A   1      37.361  29.355  29.872  1.00  0.00     0.010 A 
ATOM     32  C   UNL A   1      38.354  29.433  28.884  1.00  0.00    -0.014 A 
BRANCH  32  33
ATOM     33  C   UNL A   1      39.757  29.078  29.221  1.00  0.00     0.031 A 
ATOM     34  C   UNL A   1      40.660  30.090  29.876  1.00  0.00     0.074 A 
ATOM     35  C   UNL A   1      40.240  27.867  28.879  1.00  0.00     0.049 A 
ATOM     36  N   UNL A   1      41.924  29.981  30.196  1.00  0.00    -0.248 NA
ATOM     37  C   UNL A   1      40.072  31.402  30.192  1.00  0.00     0.031 C 
ATOM     38  C   UNL A   1      39.480  26.810  28.205  1.00  0.00     0.029 A 
ATOM     39  N   UNL A   1      41.488  27.318  29.047  1.00  0.00    -0.354 N 
ATOM     40  C   UNL A   1      42.286  31.210  30.735  1.00  0.00     0.074 A 
ATOM     41  C   UNL A   1      41.123  32.067  30.650  1.00  0.00     0.031 C 
ATOM     42  C   UNL A   1      40.267  25.735  28.045  1.00  0.00     0.029 A 
ATOM     43  C   UNL A   1      41.599  26.037  28.560  1.00  0.00     0.049 A 
ATOM     44  H   UNL A   1      42.233  27.798  29.475  1.00  0.00     0.167 HD
ATOM     45  C   UNL A   1      43.472  31.587  31.271  1.00  0.00     0.031 A 
ATOM     46  C   UNL A   1      42.654  25.200  28.523  1.00  0.00     0.031 A 
ATOM     47  C   UNL A   1      44.627  30.732  31.356  1.00  0.00     0.049 A 
ATOM     48  C   UNL A   1      43.968  25.649  29.102  1.00  0.00     0.074 A 
ATOM     49  C   UNL A   1      45.858  31.004  31.929  1.00  0.00     0.029 A 
ATOM     50  N   UNL A   1      44.697  29.442  30.852  1.00  0.00    -0.354 N 
ATOM     51  N   UNL A   1      44.270  26.793  29.670  1.00  0.00    -0.248 NA
ATOM     52  C   UNL A   1      45.081  24.692  29.044  1.00  0.00     0.031 C 
ATOM     53  C   UNL A   1      46.690  29.901  31.716  1.00  0.00     0.029 A 
ATOM     54  C   UNL A   1      45.959  28.916  31.074  1.00  0.00     0.049 A 
ATOM     55  H   UNL A   1      43.959  28.970  30.403  1.00  0.00     0.167 HD
ATOM     56  C   UNL A   1      45.598  26.679  30.066  1.00  0.00     0.074 A 
ATOM     57  C   UNL A   1      46.037  25.352  29.685  1.00  0.00     0.031 C 
ATOM     58  C   UNL A   1      46.384  27.593  30.690  1.00  0.00     0.031 A 
BRANCH  45  59
ATOM     59  C   UNL A   1      43.583  32.996  31.797  1.00  0.00    -0.014 A 
ATOM     60  C   UNL A   1      44.065  34.040  30.986  1.00  0.00     0.010 A 
ATOM     61  C   UNL A   1      43.162  33.288  33.107  1.00  0.00     0.010 A 
ATOM     62  C   UNL A   1      44.166  35.340  31.490  1.00  0.00     0.020 A 
ATOM     63  C   UNL A   1      43.232  34.593  33.605  1.00  0.00     0.020 A 
ATOM     64  C   UNL A   1      43.752  35.607  32.798  1.00  0.00     0.054 A 
BRANCH  64  65
ATOM     65  S   UNL A   1      43.877  37.307  33.418  1.00  0.00     0.124 S 
ATOM     66  O   UNL A   1      45.149  37.271  34.136  1.00  0.00    -0.237 OA
ATOM     67  O   UNL A   1      43.872  38.096  32.189  1.00  0.00    -0.237 OA
ATOM     68  O   UNL A   1      42.693  37.459  34.259  1.00  0.00    -0.744 OA
ENDBRANCH  64  65
ENDBRANCH  45  59
BRANCH  46  69
ATOM     69  C   UNL A   1      42.508  23.843  27.924  1.00  0.00    -0.014 A 
ATOM     70  C   UNL A   1      42.696  23.647  26.544  1.00  0.00     0.010 A 
ATOM     71  C   UNL A   1      42.189  22.737  28.734  1.00  0.00     0.010 A 
ATOM     72  C   UNL A   1      42.547  22.374  25.982  1.00  0.00     0.020 A 
ATOM     73  C   UNL A   1      42.071  21.459  28.180  1.00  0.00     0.020 A 
ATOM     74  C   UNL A   1      42.238  21.288  26.806  1.00  0.00     0.054 A 
BRANCH  74  75
ATOM     75  S   UNL A   1      42.099  19.639  26.061  1.00  0.00     0.124 S 
ATOM     76  O   UNL A   1      42.498  18.773  27.164  1.00  0.00    -0.237 OA
ATOM     77  O   UNL A   1      40.689  19.581  25.686  1.00  0.00    -0.237 OA
ATOM     78  O   UNL A   1      43.032  19.693  24.937  1.00  0.00    -0.744 OA
ENDBRANCH  74  75
ENDBRANCH  46  69
BRANCH  58  79
ATOM     79  C   UNL A   1      47.789  27.177  31.040  1.00  0.00    -0.014 A 
ATOM     80  C   UNL A   1      48.880  27.517  30.220  1.00  0.00     0.010 A 
ATOM     81  C   UNL A   1      48.027  26.483  32.242  1.00  0.00     0.010 A 
ATOM     82  C   UNL A   1      50.178  27.140  30.579  1.00  0.00     0.020 A 
ATOM     83  C   UNL A   1      49.325  26.134  32.619  1.00  0.00     0.020 A 
ATOM     84  C   UNL A   1      50.392  26.453  31.778  1.00  0.00     0.054 A 
BRANCH  84  85
ATOM     85  S   UNL A   1      52.090  26.016  32.242  1.00  0.00     0.124 S 
ATOM     86  O   UNL A   1      51.877  24.899  33.159  1.00  0.00    -0.237 OA
ATOM     87  O   UNL A   1      52.692  25.667  30.957  1.00  0.00    -0.237 OA
ATOM     88  O   UNL A   1      52.607  27.237  32.855  1.00  0.00    -0.744 OA
ENDBRANCH  84  85
ENDBRANCH  58  79
ENDBRANCH  32  33
ENDBRANCH  24  27
ENDBRANCH  22  23
ENDBRANCH   1  22
TORSDOF 15
ENDMDL
MODEL 2
REMARK VINA RESULT:     -10.9      1.125      2.077
REMARK SMILES CC1(C)C(=O)N([C@H]2COC[C@@H]2C(=O)NCCCCNC(=O)c2ccc(-c3c4nc(c(-c5ccc(S(=O)(=O)[O-])cc5)c5ccc([nH]5)c(-c5ccc(S(=O)(=O)[O-])cc5)c5nc(c(-c6ccc(S(=O)(=O)[O-])cc6)c6ccc3[nH]6)C=C5)C=C4)cc2)S1(=O)=O
REMARK SMILES IDX 17 1 16 2 15 3 14 4 12 5 13 6 11 8 7 9 8 10 9 11 10 12 6 13
REMARK SMILES IDX 1 14 2 15 3 16 4 17 82 18 5 19 83 20 84 21 18 22 19 23 20 24
REMARK SMILES IDX 21 26 22 27 23 28 81 29 24 30 80 31 25 32 26 33 27 34 74 35
REMARK SMILES IDX 28 36 79 37 73 38 75 39 29 40 78 41 72 42 71 43 30 45 60 46
REMARK SMILES IDX 41 47 59 48 42 49 45 50 58 51 76 52 43 53 44 54 57 56 77 57
REMARK SMILES IDX 46 58 31 59 32 60 40 61 33 62 39 63 34 64 35 65 36 66 37 67
REMARK SMILES IDX 38 68 61 69 62 70 70 71 63 72 69 73 64 74 65 75 66 76 67 77
REMARK SMILES IDX 68 78 47 79 48 80 56 81 49 82 55 83 50 84 51 85 52 86 53 87
REMARK SMILES IDX 54 88
REMARK H PARENT 14 7 19 25 75 44 45 55
REMARK Flexibility Score: inf
ROOT
ATOM      1  C   UNL A   1      33.958  28.537  25.251  1.00  0.00     0.023 C 
ENDROOT
BRANCH   1   2
ATOM      2  C   UNL A   1      32.812  28.199  24.293  1.00  0.00     0.023 C 
BRANCH   2   3
ATOM      3  C   UNL A   1      31.499  27.831  24.980  1.00  0.00     0.116 C 
BRANCH   3   4
ATOM      4  N   UNL A   1      30.844  26.712  24.320  1.00  0.00    -0.356 N 
ATOM      5  C   UNL A   1      31.098  25.374  24.376  1.00  0.00     0.227 C 
ATOM      6  O   UNL A   1      30.449  24.625  23.645  1.00  0.00    -0.275 OA
ATOM      7  H   UNL A   1      30.091  26.963  23.736  1.00  0.00     0.163 HD
BRANCH   5   8
ATOM      8  C   UNL A   1      32.155  24.840  25.319  1.00  0.00     0.130 C 
ATOM      9  C   UNL A   1      32.404  23.370  25.039  1.00  0.00     0.143 C 
ATOM     10  C   UNL A   1      31.551  22.663  26.081  1.00  0.00     0.187 C 
ATOM     11  O   UNL A   1      31.438  23.541  27.205  1.00  0.00    -0.378 OA
ATOM     12  C   UNL A   1      31.657  24.882  26.754  1.00  0.00     0.176 C 
BRANCH   9  13
ATOM     13  N   UNL A   1      33.821  23.007  25.094  1.00  0.00    -0.231 N 
ATOM     14  C   UNL A   1      36.940  21.661  24.291  1.00  0.00     0.041 C 
ATOM     15  C   UNL A   1      35.949  22.526  25.060  1.00  0.00     0.165 C 
ATOM     16  C   UNL A   1      36.673  23.498  25.996  1.00  0.00     0.041 C 
ATOM     17  C   UNL A   1      34.871  23.234  24.195  1.00  0.00     0.259 C 
ATOM     18  S   UNL A   1      34.555  21.680  25.747  1.00  0.00     0.252 S 
ATOM     19  O   UNL A   1      34.846  23.924  23.196  1.00  0.00    -0.272 OA
ATOM     20  O   UNL A   1      34.175  20.502  25.009  1.00  0.00    -0.205 OA
ATOM     21  O   UNL A   1      34.512  21.763  27.188  1.00  0.00    -0.205 OA
ENDBRANCH   9  13
ENDBRANCH   5   8
ENDBRANCH   3   4
ENDBRANCH   2   3
ENDBRANCH   1   2
BRANCH   1  22
ATOM     22  C   UNL A   1      33.575  28.603  26.727  1.00  0.00     0.116 C 
BRANCH  22  23
ATOM     23  N   UNL A   1      33.450  29.966  27.222  1.00  0.00    -0.352 N 
ATOM     24  C   UNL A   1      34.339  30.701  27.969  1.00  0.00     0.251 C 
ATOM     25  H   UNL A   1      32.611  30.425  26.988  1.00  0.00     0.163 HD
ATOM     26  O   UNL A   1      34.004  31.794  28.417  1.00  0.00    -0.269 OA
BRANCH  24  27
ATOM     27  C   UNL A   1      35.685  30.157  28.258  1.00  0.00     0.039 A 
ATOM     28  C   UNL A   1      36.646  30.163  27.243  1.00  0.00     0.014 A 
ATOM     29  C   UNL A   1      36.004  29.663  29.525  1.00  0.00     0.014 A 
ATOM     30  C   UNL A   1      37.948  29.740  27.522  1.00  0.00     0.010 A 
ATOM     31  C   UNL A   1      37.320  29.316  29.821  1.00  0.00     0.010 A 
ATOM     32  C   UNL A   1      38.307  29.350  28.823  1.00  0.00    -0.014 A 
BRANCH  32  33
ATOM     33  C   UNL A   1      39.709  28.991  29.162  1.00  0.00     0.031 A 
ATOM     34  C   UNL A   1      40.614  30.001  29.814  1.00  0.00     0.074 A 
ATOM     35  C   UNL A   1      40.187  27.777  28.824  1.00  0.00     0.049 A 
ATOM     36  N   UNL A   1      41.878  29.888  30.135  1.00  0.00    -0.248 NA
ATOM     37  C   UNL A   1      40.032  31.316  30.127  1.00  0.00     0.031 C 
ATOM     38  C   UNL A   1      39.423  26.721  28.152  1.00  0.00     0.029 A 
ATOM     39  N   UNL A   1      41.432  27.224  28.994  1.00  0.00    -0.354 N 
ATOM     40  C   UNL A   1      42.245  31.117  30.671  1.00  0.00     0.074 A 
ATOM     41  C   UNL A   1      41.085  31.978  30.584  1.00  0.00     0.031 C 
ATOM     42  C   UNL A   1      40.206  25.643  27.996  1.00  0.00     0.029 A 
ATOM     43  C   UNL A   1      41.539  25.941  28.511  1.00  0.00     0.049 A 
ATOM     44  H   UNL A   1      42.180  27.702  29.421  1.00  0.00     0.167 HD
ATOM     45  C   UNL A   1      43.432  31.491  31.207  1.00  0.00     0.031 A 
ATOM     46  C   UNL A   1      42.591  25.099  28.476  1.00  0.00     0.031 A 
ATOM     47  C   UNL A   1      44.583  30.632  31.296  1.00  0.00     0.049 A 
ATOM     48  C   UNL A   1      43.907  25.545  29.055  1.00  0.00     0.074 A 
ATOM     49  C   UNL A   1      45.815  30.901  31.868  1.00  0.00     0.029 A 
ATOM     50  N   UNL A   1      44.649  29.340  30.795  1.00  0.00    -0.354 N 
ATOM     51  N   UNL A   1      44.212  26.690  29.620  1.00  0.00    -0.248 NA
ATOM     52  C   UNL A   1      45.016  24.584  29.001  1.00  0.00     0.031 C 
ATOM     53  C   UNL A   1      46.644  29.794  31.659  1.00  0.00     0.029 A 
ATOM     54  C   UNL A   1      45.909  28.810  31.019  1.00  0.00     0.049 A 
ATOM     55  H   UNL A   1      43.910  28.870  30.347  1.00  0.00     0.167 HD
ATOM     56  C   UNL A   1      45.540  26.572  30.017  1.00  0.00     0.074 A 
ATOM     57  C   UNL A   1      45.973  25.242  29.640  1.00  0.00     0.031 C 
ATOM     58  C   UNL A   1      46.329  27.484  30.639  1.00  0.00     0.031 A 
BRANCH  45  59
ATOM     59  C   UNL A   1      43.549  32.901  31.730  1.00  0.00    -0.014 A 
ATOM     60  C   UNL A   1      44.030  33.942  30.915  1.00  0.00     0.010 A 
ATOM     61  C   UNL A   1      43.132  33.197  33.040  1.00  0.00     0.010 A 
ATOM     62  C   UNL A   1      44.136  35.243  31.415  1.00  0.00     0.020 A 
ATOM     63  C   UNL A   1      43.207  34.503  33.534  1.00  0.00     0.020 A 
ATOM     64  C   UNL A   1      43.726  35.515  32.724  1.00  0.00     0.054 A 
BRANCH  64  65
ATOM     65  S   UNL A   1      43.858  37.215  33.339  1.00  0.00     0.124 S 
ATOM     66  O   UNL A   1      43.800  37.987  32.099  1.00  0.00    -0.237 OA
ATOM     67  O   UNL A   1      42.688  37.332  34.206  1.00  0.00    -0.237 OA
ATOM     68  O   UNL A   1      45.145  37.239  34.027  1.00  0.00    -0.744 OA
ENDBRANCH  64  65
ENDBRANCH  45  59
BRANCH  46  69
ATOM     69  C   UNL A   1      42.440  23.741  27.882  1.00  0.00    -0.014 A 
ATOM     70  C   UNL A   1      41.992  22.663  28.666  1.00  0.00     0.010 A 
ATOM     71  C   UNL A   1      42.735  23.521  26.524  1.00  0.00     0.010 A 
ATOM     72  C   UNL A   1      41.862  21.387  28.109  1.00  0.00     0.020 A 
ATOM     73  C   UNL A   1      42.577  22.253  25.957  1.00  0.00     0.020 A 
ATOM     74  C   UNL A   1      42.153  21.192  26.756  1.00  0.00     0.054 A 
BRANCH  74  75
ATOM     75  S   UNL A   1      41.928  19.537  26.045  1.00  0.00     0.124 S 
ATOM     76  O   UNL A   1      42.841  19.569  24.908  1.00  0.00    -0.237 OA
ATOM     77  O   UNL A   1      42.320  18.664  27.149  1.00  0.00    -0.237 OA
ATOM     78  O   UNL A   1      40.507  19.501  25.708  1.00  0.00    -0.744 OA
ENDBRANCH  74  75
ENDBRANCH  46  69
BRANCH  58  79
ATOM     79  C   UNL A   1      47.733  27.064  30.991  1.00  0.00    -0.014 A 
ATOM     80  C   UNL A   1      48.032  26.471  32.230  1.00  0.00     0.010 A 
ATOM     81  C   UNL A   1      48.758  27.215  30.038  1.00  0.00     0.010 A 
ATOM     82  C   UNL A   1      49.338  26.068  32.523  1.00  0.00     0.020 A 
ATOM     83  C   UNL A   1      50.058  26.784  30.315  1.00  0.00     0.020 A 
ATOM     84  C   UNL A   1      50.343  26.225  31.562  1.00  0.00     0.054 A 
BRANCH  84  85
ATOM     85  S   UNL A   1      52.019  25.653  31.951  1.00  0.00     0.124 S 
ATOM     86  O   UNL A   1      52.280  26.317  33.225  1.00  0.00    -0.237 OA
ATOM     87  O   UNL A   1      51.853  24.203  32.021  1.00  0.00    -0.237 OA
ATOM     88  O   UNL A   1      52.819  26.128  30.824  1.00  0.00    -0.744 OA
ENDBRANCH  84  85
ENDBRANCH  58  79
ENDBRANCH  32  33
ENDBRANCH  24  27
ENDBRANCH  22  23
ENDBRANCH   1  22
TORSDOF 15
ENDMDL
MODEL 3
REMARK VINA RESULT:     -10.7      3.199      4.113
REMARK SMILES CC1(C)C(=O)N([C@H]2COC[C@@H]2C(=O)NCCCCNC(=O)c2ccc(-c3c4nc(c(-c5ccc(S(=O)(=O)[O-])cc5)c5ccc([nH]5)c(-c5ccc(S(=O)(=O)[O-])cc5)c5nc(c(-c6ccc(S(=O)(=O)[O-])cc6)c6ccc3[nH]6)C=C5)C=C4)cc2)S1(=O)=O
REMARK SMILES IDX 17 1 16 2 15 3 14 4 12 5 13 6 11 8 7 9 8 10 9 11 10 12 6 13
REMARK SMILES IDX 1 14 2 15 3 16 4 17 82 18 5 19 83 20 84 21 18 22 19 23 20 24
REMARK SMILES IDX 21 26 22 27 23 28 81 29 24 30 80 31 25 32 26 33 27 34 74 35
REMARK SMILES IDX 28 36 79 37 73 38 75 39 29 40 78 41 72 42 71 43 30 45 60 46
REMARK SMILES IDX 41 47 59 48 42 49 45 50 58 51 76 52 43 53 44 54 57 56 77 57
REMARK SMILES IDX 46 58 31 59 32 60 40 61 33 62 39 63 34 64 35 65 36 66 37 67
REMARK SMILES IDX 38 68 61 69 62 70 70 71 63 72 69 73 64 74 65 75 66 76 67 77
REMARK SMILES IDX 68 78 47 79 48 80 56 81 49 82 55 83 50 84 51 85 52 86 53 87
REMARK SMILES IDX 54 88
REMARK H PARENT 14 7 19 25 75 44 45 55
REMARK Flexibility Score: inf
ROOT
ATOM      1  C   UNL A   1      34.663  30.589  27.535  1.00  0.00     0.023 C 
ENDROOT
BRANCH   1   2
ATOM      2  C   UNL A   1      34.880  29.100  27.250  1.00  0.00     0.023 C 
BRANCH   2   3
ATOM      3  C   UNL A   1      33.964  28.521  26.173  1.00  0.00     0.116 C 
BRANCH   3   4
ATOM      4  N   UNL A   1      32.866  29.425  25.863  1.00  0.00    -0.356 N 
ATOM      5  C   UNL A   1      31.703  29.211  25.184  1.00  0.00     0.227 C 
ATOM      6  O   UNL A   1      30.964  30.173  24.974  1.00  0.00    -0.275 OA
ATOM      7  H   UNL A   1      32.982  30.343  26.199  1.00  0.00     0.163 HD
BRANCH   5   8
ATOM      8  C   UNL A   1      31.346  27.819  24.708  1.00  0.00     0.130 C 
ATOM      9  C   UNL A   1      32.026  27.535  23.383  1.00  0.00     0.143 C 
ATOM     10  C   UNL A   1      30.942  27.833  22.359  1.00  0.00     0.187 C 
ATOM     11  O   UNL A   1      29.681  27.599  22.994  1.00  0.00    -0.378 OA
ATOM     12  C   UNL A   1      29.859  27.724  24.409  1.00  0.00     0.176 C 
BRANCH   9  13
ATOM     13  N   UNL A   1      32.563  26.176  23.292  1.00  0.00    -0.231 N 
ATOM     14  C   UNL A   1      33.188  22.915  22.214  1.00  0.00     0.041 C 
ATOM     15  C   UNL A   1      33.407  24.180  23.035  1.00  0.00     0.165 C 
ATOM     16  C   UNL A   1      34.727  24.117  23.808  1.00  0.00     0.041 C 
ATOM     17  C   UNL A   1      33.241  25.515  22.259  1.00  0.00     0.259 C 
ATOM     18  S   UNL A   1      32.004  24.765  23.941  1.00  0.00     0.252 S 
ATOM     19  O   UNL A   1      33.655  25.999  21.225  1.00  0.00    -0.272 OA
ATOM     20  O   UNL A   1      30.743  24.418  23.338  1.00  0.00    -0.205 OA
ATOM     21  O   UNL A   1      32.228  24.767  25.368  1.00  0.00    -0.205 OA
ENDBRANCH   9  13
ENDBRANCH   5   8
ENDBRANCH   3   4
ENDBRANCH   2   3
ENDBRANCH   1   2
BRANCH   1  22
ATOM     22  C   UNL A   1      35.729  31.248  28.406  1.00  0.00     0.116 C 
BRANCH  22  23
ATOM     23  N   UNL A   1      35.604  30.905  29.815  1.00  0.00    -0.352 N 
ATOM     24  C   UNL A   1      36.531  30.334  30.653  1.00  0.00     0.251 C 
ATOM     25  H   UNL A   1      34.733  31.112  30.224  1.00  0.00     0.163 HD
ATOM     26  O   UNL A   1      36.201  29.987  31.784  1.00  0.00    -0.269 OA
BRANCH  24  27
ATOM     27  C   UNL A   1      37.915  30.111  30.179  1.00  0.00     0.039 A 
ATOM     28  C   UNL A   1      38.940  29.993  31.121  1.00  0.00     0.014 A 
ATOM     29  C   UNL A   1      38.198  29.998  28.815  1.00  0.00     0.014 A 
ATOM     30  C   UNL A   1      40.236  29.690  30.698  1.00  0.00     0.010 A 
ATOM     31  C   UNL A   1      39.473  29.620  28.402  1.00  0.00     0.010 A 
ATOM     32  C   UNL A   1      40.507  29.461  29.338  1.00  0.00    -0.014 A 
BRANCH  32  33
ATOM     33  C   UNL A   1      41.857  29.042  28.879  1.00  0.00     0.031 A 
ATOM     34  C   UNL A   1      42.977  30.045  28.800  1.00  0.00     0.074 A 
ATOM     35  C   UNL A   1      42.060  27.772  28.474  1.00  0.00     0.049 A 
ATOM     36  N   UNL A   1      44.204  29.878  28.376  1.00  0.00    -0.248 NA
ATOM     37  C   UNL A   1      42.673  31.420  29.231  1.00  0.00     0.031 C 
ATOM     38  C   UNL A   1      41.048  26.713  28.465  1.00  0.00     0.029 A 
ATOM     39  N   UNL A   1      43.186  27.156  27.986  1.00  0.00    -0.354 N 
ATOM     40  C   UNL A   1      44.811  31.125  28.474  1.00  0.00     0.074 A 
ATOM     41  C   UNL A   1      43.804  32.049  28.948  1.00  0.00     0.031 C 
ATOM     42  C   UNL A   1      41.606  25.575  28.024  1.00  0.00     0.029 A 
ATOM     43  C   UNL A   1      43.000  25.830  27.675  1.00  0.00     0.049 A 
ATOM     44  H   UNL A   1      44.046  27.620  27.869  1.00  0.00     0.167 HD
ATOM     45  C   UNL A   1      46.097  31.467  28.214  1.00  0.00     0.031 A 
ATOM     46  C   UNL A   1      43.850  24.920  27.158  1.00  0.00     0.031 A 
ATOM     47  C   UNL A   1      47.098  30.544  27.746  1.00  0.00     0.049 A 
ATOM     48  C   UNL A   1      45.266  25.329  26.854  1.00  0.00     0.074 A 
ATOM     49  C   UNL A   1      48.440  30.783  27.504  1.00  0.00     0.029 A 
ATOM     50  N   UNL A   1      46.868  29.211  27.444  1.00  0.00    -0.354 N 
ATOM     51  N   UNL A   1      45.839  26.498  27.020  1.00  0.00    -0.248 NA
ATOM     52  C   UNL A   1      46.152  24.295  26.303  1.00  0.00     0.031 C 
ATOM     53  C   UNL A   1      49.006  29.609  26.998  1.00  0.00     0.029 A 
ATOM     54  C   UNL A   1      48.036  28.620  26.990  1.00  0.00     0.049 A 
ATOM     55  H   UNL A   1      46.003  28.751  27.539  1.00  0.00     0.167 HD
ATOM     56  C   UNL A   1      47.162  26.329  26.623  1.00  0.00     0.074 A 
ATOM     57  C   UNL A   1      47.306  24.944  26.224  1.00  0.00     0.031 C 
ATOM     58  C   UNL A   1      48.167  27.240  26.595  1.00  0.00     0.031 A 
BRANCH  45  59
ATOM     59  C   UNL A   1      46.490  32.908  28.420  1.00  0.00    -0.014 A 
ATOM     60  C   UNL A   1      46.992  33.357  29.656  1.00  0.00     0.010 A 
ATOM     61  C   UNL A   1      46.397  33.817  27.351  1.00  0.00     0.010 A 
ATOM     62  C   UNL A   1      47.348  34.697  29.832  1.00  0.00     0.020 A 
ATOM     63  C   UNL A   1      46.782  35.152  27.514  1.00  0.00     0.020 A 
ATOM     64  C   UNL A   1      47.238  35.587  28.760  1.00  0.00     0.054 A 
BRANCH  64  65
ATOM     65  S   UNL A   1      47.726  37.315  29.013  1.00  0.00     0.124 S 
ATOM     66  O   UNL A   1      48.608  37.547  27.871  1.00  0.00    -0.237 OA
ATOM     67  O   UNL A   1      46.446  38.018  28.970  1.00  0.00    -0.237 OA
ATOM     68  O   UNL A   1      48.384  37.304  30.316  1.00  0.00    -0.744 OA
ENDBRANCH  64  65
ENDBRANCH  45  59
BRANCH  46  69
ATOM     69  C   UNL A   1      43.388  23.526  26.906  1.00  0.00    -0.014 A 
ATOM     70  C   UNL A   1      43.201  23.062  25.591  1.00  0.00     0.010 A 
ATOM     71  C   UNL A   1      43.140  22.653  27.981  1.00  0.00     0.010 A 
ATOM     72  C   UNL A   1      42.756  21.757  25.358  1.00  0.00     0.020 A 
ATOM     73  C   UNL A   1      42.725  21.338  27.749  1.00  0.00     0.020 A 
ATOM     74  C   UNL A   1      42.524  20.903  26.439  1.00  0.00     0.054 A 
BRANCH  74  75
ATOM     75  S   UNL A   1      41.994  19.198  26.107  1.00  0.00     0.124 S 
ATOM     76  O   UNL A   1      42.371  18.518  27.341  1.00  0.00    -0.237 OA
ATOM     77  O   UNL A   1      40.560  19.353  25.881  1.00  0.00    -0.237 OA
ATOM     78  O   UNL A   1      42.767  18.826  24.924  1.00  0.00    -0.744 OA
ENDBRANCH  74  75
ENDBRANCH  46  69
BRANCH  58  79
ATOM     79  C   UNL A   1      49.526  26.762  26.153  1.00  0.00    -0.014 A 
ATOM     80  C   UNL A   1      49.968  26.929  24.829  1.00  0.00     0.010 A 
ATOM     81  C   UNL A   1      50.397  26.187  27.098  1.00  0.00     0.010 A 
ATOM     82  C   UNL A   1      51.243  26.499  24.450  1.00  0.00     0.020 A 
ATOM     83  C   UNL A   1      51.683  25.785  26.731  1.00  0.00     0.020 A 
ATOM     84  C   UNL A   1      52.093  25.931  25.404  1.00  0.00     0.054 A 
BRANCH  84  85
ATOM     85  S   UNL A   1      53.758  25.423  24.897  1.00  0.00     0.124 S 
ATOM     86  O   UNL A   1      53.621  23.971  24.812  1.00  0.00    -0.237 OA
ATOM     87  O   UNL A   1      53.927  26.112  23.620  1.00  0.00    -0.237 OA
ATOM     88  O   UNL A   1      54.614  25.906  25.978  1.00  0.00    -0.744 OA
ENDBRANCH  84  85
ENDBRANCH  58  79
ENDBRANCH  32  33
ENDBRANCH  24  27
ENDBRANCH  22  23
ENDBRANCH   1  22
TORSDOF 15
ENDMDL
