MODEL 1
REMARK VINA RESULT:     -12.5      0.000      0.000
REMARK SMILES O=C(NCCCCNC(=O)c1cccn2c(=O)c3ccc(Cl)cc3nc12)c1ccc(-c2c3nc(c(-c4ccc(S(=O)(=O)[O-])cc4)c4ccc([nH]4)c(-c4ccc(S(=O)(=O)[O-])cc4)c4nc(c(-c5ccc(S(=O)(=O)[O-])cc5)c5ccc2[nH]5)C=C4)C=C3)cc1
REMARK SMILES IDX 4 1 3 2 1 3 2 4 27 6 28 7 86 8 29 9 85 10 30 11 31 12 32 13
REMARK SMILES IDX 79 14 33 15 84 16 78 17 80 18 34 19 83 20 77 21 76 22 35 24
REMARK SMILES IDX 65 25 46 26 64 27 47 28 50 29 63 30 81 31 48 32 49 33 62 35
REMARK SMILES IDX 82 36 51 37 36 38 37 39 45 40 38 41 44 42 39 43 40 44 41 45
REMARK SMILES IDX 42 46 43 47 66 48 67 49 75 50 68 51 74 52 69 53 70 54 71 55
REMARK SMILES IDX 72 56 73 57 52 58 53 59 61 60 54 61 60 62 55 63 56 64 57 65
REMARK SMILES IDX 58 66 59 67 5 68 6 69 7 70 8 71 9 72 10 74 11 75 12 76 26 77
REMARK SMILES IDX 13 78 15 79 25 80 14 81 16 82 24 83 17 84 18 85 23 86 19 87
REMARK SMILES IDX 21 88 20 89 22 90
REMARK H PARENT 3 5 80 23 50 34 8 73
REMARK Flexibility Score: inf
ROOT
ATOM      1  C   UNL A   1      33.536  28.174  26.880  1.00  0.00     0.116 C 
ENDROOT
BRANCH   1   2
ATOM      2  N   UNL A   1      33.414  29.608  27.087  1.00  0.00    -0.352 N 
ATOM      3  O   UNL A   1      33.919  31.651  27.869  1.00  0.00    -0.269 OA
ATOM      4  C   UNL A   1      34.285  30.489  27.673  1.00  0.00     0.251 C 
ATOM      5  H   UNL A   1      32.577  30.007  26.756  1.00  0.00     0.163 HD
BRANCH   4   6
ATOM      6  C   UNL A   1      35.643  30.066  28.088  1.00  0.00     0.039 A 
ATOM      7  C   UNL A   1      36.668  30.082  27.137  1.00  0.00     0.014 A 
ATOM      8  C   UNL A   1      35.905  29.613  29.384  1.00  0.00     0.014 A 
ATOM      9  C   UNL A   1      37.959  29.680  27.496  1.00  0.00     0.010 A 
ATOM     10  C   UNL A   1      37.207  29.284  29.759  1.00  0.00     0.010 A 
ATOM     11  C   UNL A   1      38.243  29.293  28.815  1.00  0.00    -0.014 A 
BRANCH  11  12
ATOM     12  C   UNL A   1      39.605  28.846  29.208  1.00  0.00     0.031 A 
ATOM     13  C   UNL A   1      40.481  29.749  30.038  1.00  0.00     0.074 A 
ATOM     14  C   UNL A   1      40.068  27.646  28.806  1.00  0.00     0.049 A 
ATOM     15  N   UNL A   1      41.707  29.555  30.449  1.00  0.00    -0.248 NA
ATOM     16  C   UNL A   1      39.910  31.045  30.445  1.00  0.00     0.031 C 
ATOM     17  C   UNL A   1      39.324  26.686  27.990  1.00  0.00     0.029 A 
ATOM     18  N   UNL A   1      41.271  27.025  29.035  1.00  0.00    -0.354 N 
ATOM     19  C   UNL A   1      42.056  30.702  31.151  1.00  0.00     0.074 A 
ATOM     20  C   UNL A   1      40.936  31.611  31.063  1.00  0.00     0.031 C 
ATOM     21  C   UNL A   1      40.069  25.582  27.822  1.00  0.00     0.029 A 
ATOM     22  C   UNL A   1      41.361  25.770  28.479  1.00  0.00     0.049 A 
ATOM     23  H   UNL A   1      42.002  27.439  29.550  1.00  0.00     0.167 HD
ATOM     24  C   UNL A   1      43.194  30.963  31.834  1.00  0.00     0.031 A 
ATOM     25  C   UNL A   1      42.364  24.867  28.497  1.00  0.00     0.031 A 
ATOM     26  C   UNL A   1      44.296  30.045  31.944  1.00  0.00     0.049 A 
ATOM     27  C   UNL A   1      43.631  25.187  29.242  1.00  0.00     0.074 A 
ATOM     28  C   UNL A   1      45.475  30.206  32.651  1.00  0.00     0.029 A 
ATOM     29  N   UNL A   1      44.354  28.796  31.345  1.00  0.00    -0.354 N 
ATOM     30  N   UNL A   1      43.928  26.265  29.927  1.00  0.00    -0.248 NA
ATOM     31  C   UNL A   1      44.693  24.172  29.224  1.00  0.00     0.031 C 
ATOM     32  C   UNL A   1      46.270  29.079  32.433  1.00  0.00     0.029 A 
ATOM     33  C   UNL A   1      45.560  28.186  31.646  1.00  0.00     0.049 A 
ATOM     34  H   UNL A   1      43.645  28.403  30.788  1.00  0.00     0.167 HD
ATOM     35  C   UNL A   1      45.205  26.051  30.437  1.00  0.00     0.074 A 
ATOM     36  C   UNL A   1      45.618  24.735  29.993  1.00  0.00     0.031 C 
ATOM     37  C   UNL A   1      45.963  26.876  31.200  1.00  0.00     0.031 A 
BRANCH  24  38
ATOM     38  C   UNL A   1      43.308  32.287  32.546  1.00  0.00    -0.014 A 
ATOM     39  C   UNL A   1      43.931  33.376  31.909  1.00  0.00     0.010 A 
ATOM     40  C   UNL A   1      42.894  32.421  33.884  1.00  0.00     0.010 A 
ATOM     41  C   UNL A   1      44.158  34.568  32.603  1.00  0.00     0.020 A 
ATOM     42  C   UNL A   1      43.092  33.622  34.571  1.00  0.00     0.020 A 
ATOM     43  C   UNL A   1      43.745  34.680  33.932  1.00  0.00     0.054 A 
BRANCH  43  44
ATOM     44  S   UNL A   1      44.061  36.228  34.824  1.00  0.00     0.124 S 
ATOM     45  O   UNL A   1      45.332  35.949  35.483  1.00  0.00    -0.237 OA
ATOM     46  O   UNL A   1      44.110  37.213  33.746  1.00  0.00    -0.237 OA
ATOM     47  O   UNL A   1      42.907  36.351  35.713  1.00  0.00    -0.744 OA
ENDBRANCH  43  44
ENDBRANCH  24  38
BRANCH  25  48
ATOM     48  C   UNL A   1      42.168  23.554  27.824  1.00  0.00    -0.014 A 
ATOM     49  C   UNL A   1      41.547  22.486  28.500  1.00  0.00     0.010 A 
ATOM     50  C   UNL A   1      42.684  23.335  26.534  1.00  0.00     0.010 A 
ATOM     51  C   UNL A   1      41.502  21.213  27.927  1.00  0.00     0.020 A 
ATOM     52  C   UNL A   1      42.617  22.068  25.945  1.00  0.00     0.020 A 
ATOM     53  C   UNL A   1      42.054  21.008  26.660  1.00  0.00     0.054 A 
BRANCH  53  54
ATOM     54  S   UNL A   1      42.051  19.332  25.966  1.00  0.00     0.124 S 
ATOM     55  O   UNL A   1      42.934  19.484  24.814  1.00  0.00    -0.237 OA
ATOM     56  O   UNL A   1      42.583  18.529  27.065  1.00  0.00    -0.237 OA
ATOM     57  O   UNL A   1      40.644  19.095  25.650  1.00  0.00    -0.744 OA
ENDBRANCH  53  54
ENDBRANCH  25  48
BRANCH  37  58
ATOM     58  C   UNL A   1      47.332  26.406  31.621  1.00  0.00    -0.014 A 
ATOM     59  C   UNL A   1      48.397  26.449  30.701  1.00  0.00     0.010 A 
ATOM     60  C   UNL A   1      47.525  25.780  32.865  1.00  0.00     0.010 A 
ATOM     61  C   UNL A   1      49.616  25.838  30.998  1.00  0.00     0.020 A 
ATOM     62  C   UNL A   1      48.754  25.191  33.177  1.00  0.00     0.020 A 
ATOM     63  C   UNL A   1      49.781  25.199  32.230  1.00  0.00     0.054 A 
BRANCH  63  64
ATOM     64  S   UNL A   1      51.354  24.366  32.579  1.00  0.00     0.124 S 
ATOM     65  O   UNL A   1      51.090  23.006  32.117  1.00  0.00    -0.237 OA
ATOM     66  O   UNL A   1      52.309  25.129  31.780  1.00  0.00    -0.237 OA
ATOM     67  O   UNL A   1      51.506  24.514  34.025  1.00  0.00    -0.744 OA
ENDBRANCH  63  64
ENDBRANCH  37  58
ENDBRANCH  11  12
ENDBRANCH   4   6
ENDBRANCH   1   2
BRANCH   1  68
ATOM     68  C   UNL A   1      33.089  27.733  25.489  1.00  0.00     0.023 C 
BRANCH  68  69
ATOM     69  C   UNL A   1      34.107  27.931  24.366  1.00  0.00     0.023 C 
BRANCH  69  70
ATOM     70  C   UNL A   1      33.557  28.514  23.069  1.00  0.00     0.116 C 
BRANCH  70  71
ATOM     71  N   UNL A   1      33.747  27.639  21.923  1.00  0.00    -0.352 N 
ATOM     72  C   UNL A   1      33.064  26.511  21.563  1.00  0.00     0.255 C 
ATOM     73  H   UNL A   1      34.478  27.897  21.316  1.00  0.00     0.163 HD
ATOM     74  O   UNL A   1      33.370  25.914  20.530  1.00  0.00    -0.269 OA
BRANCH  72  75
ATOM     75  C   UNL A   1      31.937  26.054  22.407  1.00  0.00     0.083 A 
ATOM     76  C   UNL A   1      32.062  24.882  23.055  1.00  0.00     0.019 A 
ATOM     77  C   UNL A   1      30.718  26.897  22.636  1.00  0.00     0.153 A 
ATOM     78  C   UNL A   1      30.989  24.365  23.857  1.00  0.00     0.019 A 
ATOM     79  N   UNL A   1      29.714  26.340  23.439  1.00  0.00    -0.267 N 
ATOM     80  N   UNL A   1      30.619  28.072  22.095  1.00  0.00    -0.229 NA
ATOM     81  C   UNL A   1      29.873  25.082  24.014  1.00  0.00     0.096 A 
ATOM     82  C   UNL A   1      28.524  27.030  23.683  1.00  0.00     0.265 A 
ATOM     83  C   UNL A   1      29.496  28.857  22.363  1.00  0.00     0.080 A 
ATOM     84  O   UNL A   1      27.572  26.587  24.326  1.00  0.00    -0.268 OA
ATOM     85  C   UNL A   1      28.431  28.391  23.129  1.00  0.00     0.066 A 
ATOM     86  C   UNL A   1      29.450  30.160  21.861  1.00  0.00     0.049 A 
ATOM     87  C   UNL A   1      27.319  29.202  23.389  1.00  0.00     0.017 A 
ATOM     88  C   UNL A   1      28.350  30.977  22.125  1.00  0.00     0.043 A 
ATOM     89  C   UNL A   1      27.281  30.502  22.885  1.00  0.00     0.021 A 
ATOM     90  Cl  UNL A   1      28.310  32.587  21.519  1.00  0.00    -0.084 Cl
ENDBRANCH  72  75
ENDBRANCH  70  71
ENDBRANCH  69  70
ENDBRANCH  68  69
ENDBRANCH   1  68
TORSDOF 14
ENDMDL
MODEL 2
REMARK VINA RESULT:     -12.5      4.126      9.970
REMARK SMILES O=C(NCCCCNC(=O)c1cccn2c(=O)c3ccc(Cl)cc3nc12)c1ccc(-c2c3nc(c(-c4ccc(S(=O)(=O)[O-])cc4)c4ccc([nH]4)c(-c4ccc(S(=O)(=O)[O-])cc4)c4nc(c(-c5ccc(S(=O)(=O)[O-])cc5)c5ccc2[nH]5)C=C4)C=C3)cc1
REMARK SMILES IDX 4 1 3 2 1 3 2 4 27 6 28 7 86 8 29 9 85 10 30 11 31 12 32 13
REMARK SMILES IDX 79 14 33 15 84 16 78 17 80 18 34 19 83 20 77 21 76 22 35 24
REMARK SMILES IDX 65 25 46 26 64 27 47 28 50 29 63 30 81 31 48 32 49 33 62 35
REMARK SMILES IDX 82 36 51 37 36 38 37 39 45 40 38 41 44 42 39 43 40 44 41 45
REMARK SMILES IDX 42 46 43 47 66 48 67 49 75 50 68 51 74 52 69 53 70 54 71 55
REMARK SMILES IDX 72 56 73 57 52 58 53 59 61 60 54 61 60 62 55 63 56 64 57 65
REMARK SMILES IDX 58 66 59 67 5 68 6 69 7 70 8 71 9 72 10 74 11 75 12 76 26 77
REMARK SMILES IDX 13 78 15 79 25 80 14 81 16 82 24 83 17 84 18 85 23 86 19 87
REMARK SMILES IDX 21 88 20 89 22 90
REMARK H PARENT 3 5 80 23 50 34 8 73
REMARK Flexibility Score: inf
ROOT
ATOM      1  C   UNL A   1      36.979  23.735  24.852  1.00  0.00     0.116 C 
ENDROOT
BRANCH   1   2
ATOM      2  N   UNL A   1      37.849  22.681  25.348  1.00  0.00    -0.352 N 
ATOM      3  O   UNL A   1      39.630  21.745  26.345  1.00  0.00    -0.269 OA
ATOM      4  C   UNL A   1      38.953  22.760  26.157  1.00  0.00     0.251 C 
ATOM      5  H   UNL A   1      37.608  21.771  25.059  1.00  0.00     0.163 HD
BRANCH   4   6
ATOM      6  C   UNL A   1      39.353  24.038  26.789  1.00  0.00     0.039 A 
ATOM      7  C   UNL A   1      40.159  24.921  26.063  1.00  0.00     0.014 A 
ATOM      8  C   UNL A   1      38.984  24.354  28.099  1.00  0.00     0.014 A 
ATOM      9  C   UNL A   1      40.560  26.132  26.636  1.00  0.00     0.010 A 
ATOM     10  C   UNL A   1      39.323  25.593  28.641  1.00  0.00     0.010 A 
ATOM     11  C   UNL A   1      40.132  26.486  27.925  1.00  0.00    -0.014 A 
BRANCH  11  12
ATOM     12  C   UNL A   1      40.565  27.761  28.555  1.00  0.00     0.031 A 
ATOM     13  C   UNL A   1      41.989  27.923  29.018  1.00  0.00     0.074 A 
ATOM     14  C   UNL A   1      39.682  28.764  28.734  1.00  0.00     0.049 A 
ATOM     15  N   UNL A   1      42.548  28.941  29.621  1.00  0.00    -0.248 NA
ATOM     16  C   UNL A   1      42.901  26.789  28.787  1.00  0.00     0.031 C 
ATOM     17  C   UNL A   1      38.273  28.726  28.342  1.00  0.00     0.029 A 
ATOM     18  N   UNL A   1      39.840  30.012  29.285  1.00  0.00    -0.354 N 
ATOM     19  C   UNL A   1      43.867  28.568  29.849  1.00  0.00     0.074 A 
ATOM     20  C   UNL A   1      44.013  27.211  29.373  1.00  0.00     0.031 C 
ATOM     21  C   UNL A   1      37.706  29.909  28.626  1.00  0.00     0.029 A 
ATOM     22  C   UNL A   1      38.697  30.776  29.260  1.00  0.00     0.049 A 
ATOM     23  H   UNL A   1      40.693  30.330  29.663  1.00  0.00     0.167 HD
ATOM     24  C   UNL A   1      44.874  29.299  30.379  1.00  0.00     0.031 A 
ATOM     25  C   UNL A   1      38.468  32.034  29.692  1.00  0.00     0.031 A 
ATOM     26  C   UNL A   1      44.733  30.659  30.826  1.00  0.00     0.049 A 
ATOM     27  C   UNL A   1      39.596  32.822  30.301  1.00  0.00     0.074 A 
ATOM     28  C   UNL A   1      45.709  31.495  31.338  1.00  0.00     0.029 A 
ATOM     29  N   UNL A   1      43.553  31.385  30.804  1.00  0.00    -0.354 N 
ATOM     30  N   UNL A   1      40.844  32.461  30.478  1.00  0.00    -0.248 NA
ATOM     31  C   UNL A   1      39.290  34.183  30.761  1.00  0.00     0.031 C 
ATOM     32  C   UNL A   1      45.107  32.708  31.681  1.00  0.00     0.029 A 
ATOM     33  C   UNL A   1      43.771  32.652  31.319  1.00  0.00     0.049 A 
ATOM     34  H   UNL A   1      42.688  31.050  30.474  1.00  0.00     0.167 HD
ATOM     35  C   UNL A   1      41.478  33.557  31.055  1.00  0.00     0.074 A 
ATOM     36  C   UNL A   1      40.479  34.599  31.183  1.00  0.00     0.031 C 
ATOM     37  C   UNL A   1      42.770  33.683  31.443  1.00  0.00     0.031 A 
BRANCH  24  38
ATOM     38  C   UNL A   1      46.235  28.661  30.486  1.00  0.00    -0.014 A 
ATOM     39  C   UNL A   1      46.614  28.009  31.675  1.00  0.00     0.010 A 
ATOM     40  C   UNL A   1      47.177  28.798  29.450  1.00  0.00     0.010 A 
ATOM     41  C   UNL A   1      47.916  27.527  31.834  1.00  0.00     0.020 A 
ATOM     42  C   UNL A   1      48.471  28.290  29.595  1.00  0.00     0.020 A 
ATOM     43  C   UNL A   1      48.839  27.679  30.796  1.00  0.00     0.054 A 
BRANCH  43  44
ATOM     44  S   UNL A   1      50.529  27.061  31.025  1.00  0.00     0.124 S 
ATOM     45  O   UNL A   1      50.394  26.228  32.215  1.00  0.00    -0.237 OA
ATOM     46  O   UNL A   1      50.780  26.345  29.776  1.00  0.00    -0.237 OA
ATOM     47  O   UNL A   1      51.316  28.280  31.200  1.00  0.00    -0.744 OA
ENDBRANCH  43  44
ENDBRANCH  24  38
BRANCH  25  48
ATOM     48  C   UNL A   1      37.116  32.629  29.505  1.00  0.00    -0.014 A 
ATOM     49  C   UNL A   1      36.759  33.229  28.283  1.00  0.00     0.010 A 
ATOM     50  C   UNL A   1      36.210  32.680  30.579  1.00  0.00     0.010 A 
ATOM     51  C   UNL A   1      35.553  33.922  28.157  1.00  0.00     0.020 A 
ATOM     52  C   UNL A   1      34.989  33.349  30.450  1.00  0.00     0.020 A 
ATOM     53  C   UNL A   1      34.683  33.993  29.248  1.00  0.00     0.054 A 
BRANCH  53  54
ATOM     54  S   UNL A   1      33.156  34.960  29.087  1.00  0.00     0.124 S 
ATOM     55  O   UNL A   1      32.444  34.221  28.048  1.00  0.00    -0.237 OA
ATOM     56  O   UNL A   1      32.579  34.874  30.426  1.00  0.00    -0.237 OA
ATOM     57  O   UNL A   1      33.630  36.286  28.699  1.00  0.00    -0.744 OA
ENDBRANCH  53  54
ENDBRANCH  25  48
BRANCH  37  58
ATOM     58  C   UNL A   1      43.211  34.988  32.054  1.00  0.00    -0.014 A 
ATOM     59  C   UNL A   1      42.971  35.234  33.419  1.00  0.00     0.010 A 
ATOM     60  C   UNL A   1      43.717  36.023  31.249  1.00  0.00     0.010 A 
ATOM     61  C   UNL A   1      43.186  36.503  33.960  1.00  0.00     0.020 A 
ATOM     62  C   UNL A   1      43.959  37.288  31.793  1.00  0.00     0.020 A 
ATOM     63  C   UNL A   1      43.665  37.527  33.137  1.00  0.00     0.054 A 
BRANCH  63  64
ATOM     64  S   UNL A   1      43.890  39.183  33.843  1.00  0.00     0.124 S 
ATOM     65  O   UNL A   1      42.691  39.878  33.383  1.00  0.00    -0.237 OA
ATOM     66  O   UNL A   1      43.952  38.917  35.278  1.00  0.00    -0.237 OA
ATOM     67  O   UNL A   1      45.144  39.641  33.248  1.00  0.00    -0.744 OA
ENDBRANCH  63  64
ENDBRANCH  37  58
ENDBRANCH  11  12
ENDBRANCH   4   6
ENDBRANCH   1   2
BRANCH   1  68
ATOM     68  C   UNL A   1      35.506  23.486  25.162  1.00  0.00     0.023 C 
BRANCH  68  69
ATOM     69  C   UNL A   1      35.125  23.492  26.643  1.00  0.00     0.023 C 
BRANCH  69  70
ATOM     70  C   UNL A   1      34.312  22.294  27.122  1.00  0.00     0.116 C 
BRANCH  70  71
ATOM     71  N   UNL A   1      33.004  22.661  27.639  1.00  0.00    -0.352 N 
ATOM     72  C   UNL A   1      31.853  22.966  26.966  1.00  0.00     0.255 C 
ATOM     73  H   UNL A   1      32.936  22.697  28.621  1.00  0.00     0.163 HD
ATOM     74  O   UNL A   1      30.830  23.234  27.596  1.00  0.00    -0.269 OA
BRANCH  72  75
ATOM     75  C   UNL A   1      31.854  22.924  25.486  1.00  0.00     0.083 A 
ATOM     76  C   UNL A   1      31.779  24.088  24.817  1.00  0.00     0.019 A 
ATOM     77  C   UNL A   1      32.034  21.645  24.725  1.00  0.00     0.153 A 
ATOM     78  C   UNL A   1      31.736  24.112  23.383  1.00  0.00     0.019 A 
ATOM     79  N   UNL A   1      31.995  21.738  23.327  1.00  0.00    -0.267 N 
ATOM     80  N   UNL A   1      32.202  20.522  25.353  1.00  0.00    -0.229 NA
ATOM     81  C   UNL A   1      31.831  22.969  22.697  1.00  0.00     0.096 A 
ATOM     82  C   UNL A   1      32.116  20.600  22.527  1.00  0.00     0.265 A 
ATOM     83  C   UNL A   1      32.415  19.353  24.620  1.00  0.00     0.080 A 
ATOM     84  O   UNL A   1      32.033  20.590  21.299  1.00  0.00    -0.268 OA
ATOM     85  C   UNL A   1      32.373  19.331  23.229  1.00  0.00     0.066 A 
ATOM     86  C   UNL A   1      32.700  18.170  25.308  1.00  0.00     0.049 A 
ATOM     87  C   UNL A   1      32.599  18.145  22.518  1.00  0.00     0.017 A 
ATOM     88  C   UNL A   1      32.936  16.988  24.605  1.00  0.00     0.043 A 
ATOM     89  C   UNL A   1      32.883  16.969  23.212  1.00  0.00     0.021 A 
ATOM     90  Cl  UNL A   1      33.303  15.540  25.459  1.00  0.00    -0.084 Cl
ENDBRANCH  72  75
ENDBRANCH  70  71
ENDBRANCH  69  70
ENDBRANCH  68  69
ENDBRANCH   1  68
TORSDOF 14
ENDMDL
MODEL 3
REMARK VINA RESULT:     -12.4      3.289      9.349
REMARK SMILES O=C(NCCCCNC(=O)c1cccn2c(=O)c3ccc(Cl)cc3nc12)c1ccc(-c2c3nc(c(-c4ccc(S(=O)(=O)[O-])cc4)c4ccc([nH]4)c(-c4ccc(S(=O)(=O)[O-])cc4)c4nc(c(-c5ccc(S(=O)(=O)[O-])cc5)c5ccc2[nH]5)C=C4)C=C3)cc1
REMARK SMILES IDX 4 1 3 2 1 3 2 4 27 6 28 7 86 8 29 9 85 10 30 11 31 12 32 13
REMARK SMILES IDX 79 14 33 15 84 16 78 17 80 18 34 19 83 20 77 21 76 22 35 24
REMARK SMILES IDX 65 25 46 26 64 27 47 28 50 29 63 30 81 31 48 32 49 33 62 35
REMARK SMILES IDX 82 36 51 37 36 38 37 39 45 40 38 41 44 42 39 43 40 44 41 45
REMARK SMILES IDX 42 46 43 47 66 48 67 49 75 50 68 51 74 52 69 53 70 54 71 55
REMARK SMILES IDX 72 56 73 57 52 58 53 59 61 60 54 61 60 62 55 63 56 64 57 65
REMARK SMILES IDX 58 66 59 67 5 68 6 69 7 70 8 71 9 72 10 74 11 75 12 76 26 77
REMARK SMILES IDX 13 78 15 79 25 80 14 81 16 82 24 83 17 84 18 85 23 86 19 87
REMARK SMILES IDX 21 88 20 89 22 90
REMARK H PARENT 3 5 80 23 50 34 8 73
REMARK Flexibility Score: inf
ROOT
ATOM      1  C   UNL A   1      36.766  23.553  25.801  1.00  0.00     0.116 C 
ENDROOT
BRANCH   1   2
ATOM      2  N   UNL A   1      37.899  22.647  25.896  1.00  0.00    -0.352 N 
ATOM      3  O   UNL A   1      40.026  21.995  26.204  1.00  0.00    -0.269 OA
ATOM      4  C   UNL A   1      39.176  22.880  26.338  1.00  0.00     0.251 C 
ATOM      5  H   UNL A   1      37.723  21.726  25.598  1.00  0.00     0.163 HD
BRANCH   4   6
ATOM      6  C   UNL A   1      39.553  24.173  26.953  1.00  0.00     0.039 A 
ATOM      7  C   UNL A   1      40.230  25.115  26.171  1.00  0.00     0.014 A 
ATOM      8  C   UNL A   1      39.290  24.449  28.298  1.00  0.00     0.014 A 
ATOM      9  C   UNL A   1      40.607  26.342  26.726  1.00  0.00     0.010 A 
ATOM     10  C   UNL A   1      39.601  25.701  28.828  1.00  0.00     0.010 A 
ATOM     11  C   UNL A   1      40.281  26.652  28.056  1.00  0.00    -0.014 A 
BRANCH  11  12
ATOM     12  C   UNL A   1      40.690  27.944  28.666  1.00  0.00     0.031 A 
ATOM     13  C   UNL A   1      42.114  28.141  29.120  1.00  0.00     0.074 A 
ATOM     14  C   UNL A   1      39.788  28.931  28.835  1.00  0.00     0.049 A 
ATOM     15  N   UNL A   1      42.654  29.179  29.706  1.00  0.00    -0.248 NA
ATOM     16  C   UNL A   1      43.047  27.023  28.902  1.00  0.00     0.031 C 
ATOM     17  C   UNL A   1      38.379  28.860  28.449  1.00  0.00     0.029 A 
ATOM     18  N   UNL A   1      39.924  30.190  29.367  1.00  0.00    -0.354 N 
ATOM     19  C   UNL A   1      43.981  28.835  29.934  1.00  0.00     0.074 A 
ATOM     20  C   UNL A   1      44.152  27.475  29.477  1.00  0.00     0.031 C 
ATOM     21  C   UNL A   1      37.790  30.035  28.718  1.00  0.00     0.029 A 
ATOM     22  C   UNL A   1      38.766  30.931  29.336  1.00  0.00     0.049 A 
ATOM     23  H   UNL A   1      40.771  30.531  29.737  1.00  0.00     0.167 HD
ATOM     24  C   UNL A   1      44.976  29.594  30.449  1.00  0.00     0.031 A 
ATOM     25  C   UNL A   1      38.513  32.190  29.751  1.00  0.00     0.031 A 
ATOM     26  C   UNL A   1      44.809  30.957  30.877  1.00  0.00     0.049 A 
ATOM     27  C   UNL A   1      39.627  33.009  30.344  1.00  0.00     0.074 A 
ATOM     28  C   UNL A   1      45.771  31.820  31.373  1.00  0.00     0.029 A 
ATOM     29  N   UNL A   1      43.614  31.659  30.850  1.00  0.00    -0.354 N 
ATOM     30  N   UNL A   1      40.883  32.676  30.521  1.00  0.00    -0.248 NA
ATOM     31  C   UNL A   1      39.296  34.371  30.786  1.00  0.00     0.031 C 
ATOM     32  C   UNL A   1      45.146  33.025  31.701  1.00  0.00     0.029 A 
ATOM     33  C   UNL A   1      43.809  32.937  31.346  1.00  0.00     0.049 A 
ATOM     34  H   UNL A   1      42.756  31.302  30.529  1.00  0.00     0.167 HD
ATOM     35  C   UNL A   1      41.498  33.793  31.079  1.00  0.00     0.074 A 
ATOM     36  C   UNL A   1      40.478  34.816  31.197  1.00  0.00     0.031 C 
ATOM     37  C   UNL A   1      42.789  33.950  31.460  1.00  0.00     0.031 A 
BRANCH  24  38
ATOM     38  C   UNL A   1      46.350  28.985  30.559  1.00  0.00    -0.014 A 
ATOM     39  C   UNL A   1      46.748  28.363  31.757  1.00  0.00     0.010 A 
ATOM     40  C   UNL A   1      47.282  29.121  29.514  1.00  0.00     0.010 A 
ATOM     41  C   UNL A   1      48.061  27.909  31.917  1.00  0.00     0.020 A 
ATOM     42  C   UNL A   1      48.587  28.642  29.661  1.00  0.00     0.020 A 
ATOM     43  C   UNL A   1      48.974  28.060  30.871  1.00  0.00     0.054 A 
BRANCH  43  44
ATOM     44  S   UNL A   1      50.677  27.480  31.100  1.00  0.00     0.124 S 
ATOM     45  O   UNL A   1      51.282  27.779  29.806  1.00  0.00    -0.237 OA
ATOM     46  O   UNL A   1      51.144  28.295  32.220  1.00  0.00    -0.237 OA
ATOM     47  O   UNL A   1      50.516  26.059  31.403  1.00  0.00    -0.744 OA
ENDBRANCH  43  44
ENDBRANCH  24  38
BRANCH  25  48
ATOM     48  C   UNL A   1      37.149  32.755  29.562  1.00  0.00    -0.014 A 
ATOM     49  C   UNL A   1      36.727  33.202  28.295  1.00  0.00     0.010 A 
ATOM     50  C   UNL A   1      36.297  32.934  30.666  1.00  0.00     0.010 A 
ATOM     51  C   UNL A   1      35.510  33.872  28.147  1.00  0.00     0.020 A 
ATOM     52  C   UNL A   1      35.065  33.580  30.518  1.00  0.00     0.020 A 
ATOM     53  C   UNL A   1      34.695  34.073  29.264  1.00  0.00     0.054 A 
BRANCH  53  54
ATOM     54  S   UNL A   1      33.154  35.010  29.064  1.00  0.00     0.124 S 
ATOM     55  O   UNL A   1      32.597  34.961  30.412  1.00  0.00    -0.237 OA
ATOM     56  O   UNL A   1      33.630  36.320  28.627  1.00  0.00    -0.237 OA
ATOM     57  O   UNL A   1      32.419  34.249  28.055  1.00  0.00    -0.744 OA
ENDBRANCH  53  54
ENDBRANCH  25  48
BRANCH  37  58
ATOM     58  C   UNL A   1      43.206  35.272  32.050  1.00  0.00    -0.014 A 
ATOM     59  C   UNL A   1      42.936  35.546  33.405  1.00  0.00     0.010 A 
ATOM     60  C   UNL A   1      43.719  36.293  31.232  1.00  0.00     0.010 A 
ATOM     61  C   UNL A   1      43.129  36.829  33.920  1.00  0.00     0.020 A 
ATOM     62  C   UNL A   1      43.939  37.573  31.753  1.00  0.00     0.020 A 
ATOM     63  C   UNL A   1      43.616  37.838  33.085  1.00  0.00     0.054 A 
BRANCH  63  64
ATOM     64  S   UNL A   1      43.812  39.511  33.758  1.00  0.00     0.124 S 
ATOM     65  O   UNL A   1      44.015  39.249  35.180  1.00  0.00    -0.237 OA
ATOM     66  O   UNL A   1      44.978  40.015  33.038  1.00  0.00    -0.237 OA
ATOM     67  O   UNL A   1      42.550  40.167  33.418  1.00  0.00    -0.744 OA
ENDBRANCH  63  64
ENDBRANCH  37  58
ENDBRANCH  11  12
ENDBRANCH   4   6
ENDBRANCH   1   2
BRANCH   1  68
ATOM     68  C   UNL A   1      35.422  22.835  25.875  1.00  0.00     0.023 C 
BRANCH  68  69
ATOM     69  C   UNL A   1      34.719  22.870  27.233  1.00  0.00     0.023 C 
BRANCH  69  70
ATOM     70  C   UNL A   1      33.672  21.787  27.465  1.00  0.00     0.116 C 
BRANCH  70  71
ATOM     71  N   UNL A   1      32.339  22.321  27.697  1.00  0.00    -0.352 N 
ATOM     72  C   UNL A   1      31.481  22.935  26.828  1.00  0.00     0.255 C 
ATOM     73  H   UNL A   1      32.005  22.226  28.619  1.00  0.00     0.163 HD
ATOM     74  O   UNL A   1      30.373  23.302  27.221  1.00  0.00    -0.269 OA
BRANCH  72  75
ATOM     75  C   UNL A   1      31.891  23.109  25.416  1.00  0.00     0.083 A 
ATOM     76  C   UNL A   1      31.714  22.077  24.572  1.00  0.00     0.019 A 
ATOM     77  C   UNL A   1      32.399  24.417  24.888  1.00  0.00     0.153 A 
ATOM     78  C   UNL A   1      32.128  22.168  23.200  1.00  0.00     0.019 A 
ATOM     79  N   UNL A   1      32.772  24.443  23.538  1.00  0.00    -0.267 N 
ATOM     80  N   UNL A   1      32.489  25.451  25.665  1.00  0.00    -0.229 NA
ATOM     81  C   UNL A   1      32.641  23.312  22.737  1.00  0.00     0.096 A 
ATOM     82  C   UNL A   1      33.292  25.603  22.958  1.00  0.00     0.265 A 
ATOM     83  C   UNL A   1      32.918  26.670  25.137  1.00  0.00     0.080 A 
ATOM     84  O   UNL A   1      33.698  25.690  21.799  1.00  0.00    -0.268 OA
ATOM     85  C   UNL A   1      33.335  26.800  23.815  1.00  0.00     0.066 A 
ATOM     86  C   UNL A   1      32.910  27.801  25.958  1.00  0.00     0.049 A 
ATOM     87  C   UNL A   1      33.754  28.037  23.307  1.00  0.00     0.017 A 
ATOM     88  C   UNL A   1      33.316  29.037  25.456  1.00  0.00     0.043 A 
ATOM     89  C   UNL A   1      33.742  29.160  24.134  1.00  0.00     0.021 A 
ATOM     90  Cl  UNL A   1      33.285  30.428  26.469  1.00  0.00    -0.084 Cl
ENDBRANCH  72  75
ENDBRANCH  70  71
ENDBRANCH  69  70
ENDBRANCH  68  69
ENDBRANCH   1  68
TORSDOF 14
ENDMDL
