MODEL 1
REMARK VINA RESULT:     -11.2      0.000      0.000
REMARK SMILES COc1ccc2c(c1)[C@H]([NH2+][C@H]1CCC[C@H](C(=O)NCCCCNC(=O)c3ccc(-c4c5nc(c(-c6ccc(S(=O)(=O)[O-])cc6)c6ccc([nH]6)c(-c6ccc(S(=O)(=O)[O-])cc6)c6nc(c(-c7ccc(S(=O)(=O)[O-])cc7)c7ccc4[nH]7)C=C6)C=C5)cc3)C1)CC2
REMARK SMILES IDX 20 1 19 2 18 3 16 4 17 5 15 7 11 8 12 9 86 10 13 11 14 12
REMARK SMILES IDX 10 13 9 16 3 17 4 18 8 19 5 20 7 21 6 22 88 23 87 24 2 25
REMARK SMILES IDX 1 26 21 27 22 28 23 29 24 30 25 32 26 33 27 34 85 35 28 36
REMARK SMILES IDX 84 37 29 38 30 39 31 40 78 41 32 42 83 43 77 44 79 45 33 46
REMARK SMILES IDX 82 47 76 48 75 49 34 51 64 52 45 53 63 54 46 55 49 56 62 57
REMARK SMILES IDX 80 58 47 59 48 60 61 62 81 63 50 64 35 65 36 66 44 67 37 68
REMARK SMILES IDX 43 69 38 70 39 71 40 72 41 73 42 74 65 75 66 76 74 77 67 78
REMARK SMILES IDX 73 79 68 80 69 81 70 82 71 83 72 84 51 85 52 86 60 87 53 88
REMARK SMILES IDX 59 89 54 90 55 91 56 92 57 93 58 94
REMARK H PARENT 18 6 10 14 10 15 23 31 79 50 49 61
REMARK Flexibility Score: inf
ROOT
ATOM      1  C   UNL A   1      37.937  23.379  25.366  1.00  0.00     0.023 C 
ENDROOT
BRANCH   1   2
ATOM      2  C   UNL A   1      36.673  23.836  26.096  1.00  0.00     0.116 C 
BRANCH   2   3
ATOM      3  N   UNL A   1      35.953  22.759  26.739  1.00  0.00    -0.356 N 
ATOM      4  C   UNL A   1      34.621  22.485  26.788  1.00  0.00     0.223 C 
ATOM      5  O   UNL A   1      34.277  21.428  27.324  1.00  0.00    -0.275 OA
ATOM      6  H   UNL A   1      36.523  22.117  27.222  1.00  0.00     0.163 HD
BRANCH   4   7
ATOM      7  C   UNL A   1      33.564  23.425  26.198  1.00  0.00     0.084 C 
ATOM      8  C   UNL A   1      31.015  23.927  26.546  1.00  0.00     0.183 C 
ATOM      9  C   UNL A   1      30.732  22.819  25.530  1.00  0.00     0.065 C 
ATOM     10  C   UNL A   1      32.401  23.676  27.170  1.00  0.00     0.078 C 
ATOM     11  C   UNL A   1      31.792  22.600  24.451  1.00  0.00     0.007 C 
ATOM     12  C   UNL A   1      33.216  23.063  24.750  1.00  0.00     0.014 C 
BRANCH   8  13
ATOM     13  N   UNL A   1      30.695  25.316  26.160  1.00  0.00    -0.338 N 
ATOM     14  H   UNL A   1      30.395  25.297  25.185  1.00  0.00     0.347 HD
ATOM     15  H   UNL A   1      29.993  25.610  26.839  1.00  0.00     0.347 HD
BRANCH  13  16
ATOM     16  C   UNL A   1      31.735  26.316  26.269  1.00  0.00     0.214 C 
ATOM     17  C   UNL A   1      33.334  26.921  22.845  1.00  0.00     0.119 A 
ATOM     18  C   UNL A   1      34.040  28.082  23.178  1.00  0.00     0.047 A 
ATOM     19  C   UNL A   1      32.411  26.362  23.725  1.00  0.00     0.056 A 
ATOM     20  C   UNL A   1      33.813  28.707  24.408  1.00  0.00     0.008 A 
ATOM     21  C   UNL A   1      32.312  26.889  24.998  1.00  0.00     0.016 A 
ATOM     22  C   UNL A   1      32.933  28.111  25.298  1.00  0.00    -0.038 A 
ATOM     23  C   UNL A   1      32.534  28.568  26.673  1.00  0.00     0.042 C 
ATOM     24  C   UNL A   1      31.336  27.632  26.959  1.00  0.00     0.075 C 
BRANCH  17  25
ATOM     25  O   UNL A   1      33.550  26.278  21.656  1.00  0.00    -0.497 OA
ATOM     26  C   UNL A   1      32.783  25.070  21.600  1.00  0.00     0.278 C 
ENDBRANCH  17  25
ENDBRANCH  13  16
ENDBRANCH   8  13
ENDBRANCH   4   7
ENDBRANCH   2   3
ENDBRANCH   1   2
BRANCH   1  27
ATOM     27  C   UNL A   1      38.791  22.368  26.122  1.00  0.00     0.023 C 
BRANCH  27  28
ATOM     28  C   UNL A   1      39.935  22.973  26.918  1.00  0.00     0.116 C 
BRANCH  28  29
ATOM     29  N   UNL A   1      41.140  23.188  26.127  1.00  0.00    -0.352 N 
ATOM     30  C   UNL A   1      41.936  24.311  26.108  1.00  0.00     0.251 C 
ATOM     31  H   UNL A   1      41.416  22.447  25.540  1.00  0.00     0.163 HD
ATOM     32  O   UNL A   1      42.875  24.408  25.327  1.00  0.00    -0.269 OA
BRANCH  30  33
ATOM     33  C   UNL A   1      41.594  25.413  27.028  1.00  0.00     0.039 A 
ATOM     34  C   UNL A   1      40.638  25.197  28.022  1.00  0.00     0.014 A 
ATOM     35  C   UNL A   1      42.320  26.606  26.976  1.00  0.00     0.014 A 
ATOM     36  C   UNL A   1      40.462  26.157  29.020  1.00  0.00     0.010 A 
ATOM     37  C   UNL A   1      42.194  27.524  28.010  1.00  0.00     0.010 A 
ATOM     38  C   UNL A   1      41.268  27.307  29.045  1.00  0.00    -0.014 A 
BRANCH  38  39
ATOM     39  C   UNL A   1      41.174  28.311  30.134  1.00  0.00     0.031 A 
ATOM     40  C   UNL A   1      42.059  28.170  31.342  1.00  0.00     0.074 A 
ATOM     41  C   UNL A   1      40.224  29.268  30.092  1.00  0.00     0.049 A 
ATOM     42  N   UNL A   1      42.021  28.825  32.472  1.00  0.00    -0.248 NA
ATOM     43  C   UNL A   1      43.098  27.127  31.286  1.00  0.00     0.031 C 
ATOM     44  C   UNL A   1      39.274  29.481  28.995  1.00  0.00     0.029 A 
ATOM     45  N   UNL A   1      39.885  30.229  31.010  1.00  0.00    -0.354 N 
ATOM     46  C   UNL A   1      42.996  28.246  33.275  1.00  0.00     0.074 A 
ATOM     47  C   UNL A   1      43.591  27.170  32.516  1.00  0.00     0.031 C 
ATOM     48  C   UNL A   1      38.467  30.510  29.303  1.00  0.00     0.029 A 
ATOM     49  C   UNL A   1      38.810  31.003  30.634  1.00  0.00     0.049 A 
ATOM     50  H   UNL A   1      40.365  30.355  31.861  1.00  0.00     0.167 HD
ATOM     51  C   UNL A   1      43.368  28.588  34.530  1.00  0.00     0.031 A 
ATOM     52  C   UNL A   1      38.163  31.983  31.293  1.00  0.00     0.031 A 
ATOM     53  C   UNL A   1      42.813  29.694  35.259  1.00  0.00     0.049 A 
ATOM     54  C   UNL A   1      38.624  32.366  32.675  1.00  0.00     0.074 A 
ATOM     55  C   UNL A   1      43.190  30.180  36.499  1.00  0.00     0.029 A 
ATOM     56  N   UNL A   1      41.771  30.492  34.814  1.00  0.00    -0.354 N 
ATOM     57  N   UNL A   1      39.600  31.856  33.387  1.00  0.00    -0.248 NA
ATOM     58  C   UNL A   1      37.903  33.463  33.339  1.00  0.00     0.031 C 
ATOM     59  C   UNL A   1      42.349  31.249  36.821  1.00  0.00     0.029 A 
ATOM     60  C   UNL A   1      41.481  31.456  35.762  1.00  0.00     0.049 A 
ATOM     61  H   UNL A   1      41.306  30.388  33.952  1.00  0.00     0.167 HD
ATOM     62  C   UNL A   1      39.632  32.593  34.566  1.00  0.00     0.074 A 
ATOM     63  C   UNL A   1      38.585  33.586  34.471  1.00  0.00     0.031 C 
ATOM     64  C   UNL A   1      40.455  32.457  35.633  1.00  0.00     0.031 A 
BRANCH  51  65
ATOM     65  C   UNL A   1      44.432  27.764  35.200  1.00  0.00    -0.014 A 
ATOM     66  C   UNL A   1      45.789  28.117  35.108  1.00  0.00     0.010 A 
ATOM     67  C   UNL A   1      44.058  26.669  36.000  1.00  0.00     0.010 A 
ATOM     68  C   UNL A   1      46.758  27.375  35.788  1.00  0.00     0.020 A 
ATOM     69  C   UNL A   1      45.022  25.939  36.702  1.00  0.00     0.020 A 
ATOM     70  C   UNL A   1      46.368  26.293  36.583  1.00  0.00     0.054 A 
BRANCH  70  71
ATOM     71  S   UNL A   1      47.640  25.389  37.506  1.00  0.00     0.124 S 
ATOM     72  O   UNL A   1      47.220  25.605  38.887  1.00  0.00    -0.237 OA
ATOM     73  O   UNL A   1      47.487  24.023  37.010  1.00  0.00    -0.237 OA
ATOM     74  O   UNL A   1      48.884  26.051  37.122  1.00  0.00    -0.744 OA
ENDBRANCH  70  71
ENDBRANCH  51  65
BRANCH  52  75
ATOM     75  C   UNL A   1      37.000  32.675  30.672  1.00  0.00    -0.014 A 
ATOM     76  C   UNL A   1      35.687  32.353  31.063  1.00  0.00     0.010 A 
ATOM     77  C   UNL A   1      37.196  33.632  29.660  1.00  0.00     0.010 A 
ATOM     78  C   UNL A   1      34.592  32.945  30.425  1.00  0.00     0.020 A 
ATOM     79  C   UNL A   1      36.104  34.246  29.040  1.00  0.00     0.020 A 
ATOM     80  C   UNL A   1      34.808  33.882  29.412  1.00  0.00     0.054 A 
BRANCH  80  81
ATOM     81  S   UNL A   1      33.375  34.646  28.601  1.00  0.00     0.124 S 
ATOM     82  O   UNL A   1      32.962  33.599  27.672  1.00  0.00    -0.237 OA
ATOM     83  O   UNL A   1      32.470  34.893  29.720  1.00  0.00    -0.237 OA
ATOM     84  O   UNL A   1      33.934  35.847  27.985  1.00  0.00    -0.744 OA
ENDBRANCH  80  81
ENDBRANCH  52  75
BRANCH  64  85
ATOM     85  C   UNL A   1      40.306  33.438  36.763  1.00  0.00    -0.014 A 
ATOM     86  C   UNL A   1      40.987  34.667  36.754  1.00  0.00     0.010 A 
ATOM     87  C   UNL A   1      39.395  33.161  37.799  1.00  0.00     0.010 A 
ATOM     88  C   UNL A   1      40.769  35.598  37.771  1.00  0.00     0.020 A 
ATOM     89  C   UNL A   1      39.157  34.099  38.805  1.00  0.00     0.020 A 
ATOM     90  C   UNL A   1      39.851  35.310  38.789  1.00  0.00     0.054 A 
BRANCH  90  91
ATOM     91  S   UNL A   1      39.527  36.566  40.057  1.00  0.00     0.124 S 
ATOM     92  O   UNL A   1      38.580  35.879  40.930  1.00  0.00    -0.237 OA
ATOM     93  O   UNL A   1      40.853  36.798  40.627  1.00  0.00    -0.237 OA
ATOM     94  O   UNL A   1      38.977  37.687  39.300  1.00  0.00    -0.744 OA
ENDBRANCH  90  91
ENDBRANCH  64  85
ENDBRANCH  38  39
ENDBRANCH  30  33
ENDBRANCH  28  29
ENDBRANCH  27  28
ENDBRANCH   1  27
TORSDOF 17
ENDMDL
MODEL 2
REMARK VINA RESULT:     -11.0      5.740     10.129
REMARK SMILES COc1ccc2c(c1)[C@H]([NH2+][C@H]1CCC[C@H](C(=O)NCCCCNC(=O)c3ccc(-c4c5nc(c(-c6ccc(S(=O)(=O)[O-])cc6)c6ccc([nH]6)c(-c6ccc(S(=O)(=O)[O-])cc6)c6nc(c(-c7ccc(S(=O)(=O)[O-])cc7)c7ccc4[nH]7)C=C6)C=C5)cc3)C1)CC2
REMARK SMILES IDX 20 1 19 2 18 3 16 4 17 5 15 7 11 8 12 9 86 10 13 11 14 12
REMARK SMILES IDX 10 13 9 16 3 17 4 18 8 19 5 20 7 21 6 22 88 23 87 24 2 25
REMARK SMILES IDX 1 26 21 27 22 28 23 29 24 30 25 32 26 33 27 34 85 35 28 36
REMARK SMILES IDX 84 37 29 38 30 39 31 40 78 41 32 42 83 43 77 44 79 45 33 46
REMARK SMILES IDX 82 47 76 48 75 49 34 51 64 52 45 53 63 54 46 55 49 56 62 57
REMARK SMILES IDX 80 58 47 59 48 60 61 62 81 63 50 64 35 65 36 66 44 67 37 68
REMARK SMILES IDX 43 69 38 70 39 71 40 72 41 73 42 74 65 75 66 76 74 77 67 78
REMARK SMILES IDX 73 79 68 80 69 81 70 82 71 83 72 84 51 85 52 86 60 87 53 88
REMARK SMILES IDX 59 89 54 90 55 91 56 92 57 93 58 94
REMARK H PARENT 18 6 10 14 10 15 23 31 79 50 49 61
REMARK Flexibility Score: inf
ROOT
ATOM      1  C   UNL A   1      37.208  20.682  24.858  1.00  0.00     0.023 C 
ENDROOT
BRANCH   1   2
ATOM      2  C   UNL A   1      35.684  20.741  24.978  1.00  0.00     0.116 C 
BRANCH   2   3
ATOM      3  N   UNL A   1      35.219  21.045  26.314  1.00  0.00    -0.356 N 
ATOM      4  C   UNL A   1      34.309  21.958  26.751  1.00  0.00     0.223 C 
ATOM      5  O   UNL A   1      34.015  21.938  27.950  1.00  0.00    -0.275 OA
ATOM      6  H   UNL A   1      35.630  20.501  27.024  1.00  0.00     0.163 HD
BRANCH   4   7
ATOM      7  C   UNL A   1      33.646  22.975  25.816  1.00  0.00     0.084 C 
ATOM      8  C   UNL A   1      32.957  25.503  25.887  1.00  0.00     0.183 C 
ATOM      9  C   UNL A   1      31.627  25.049  26.490  1.00  0.00     0.065 C 
ATOM     10  C   UNL A   1      34.018  24.422  26.172  1.00  0.00     0.078 C 
ATOM     11  C   UNL A   1      31.130  23.665  26.074  1.00  0.00     0.007 C 
ATOM     12  C   UNL A   1      32.166  22.658  25.578  1.00  0.00     0.014 C 
BRANCH   8  13
ATOM     13  N   UNL A   1      32.939  26.082  24.529  1.00  0.00    -0.338 N 
ATOM     14  H   UNL A   1      33.702  26.757  24.478  1.00  0.00     0.347 HD
ATOM     15  H   UNL A   1      33.014  25.274  23.910  1.00  0.00     0.347 HD
BRANCH  13  16
ATOM     16  C   UNL A   1      31.739  26.757  24.086  1.00  0.00     0.214 C 
ATOM     17  C   UNL A   1      31.543  30.243  25.654  1.00  0.00     0.119 A 
ATOM     18  C   UNL A   1      30.512  30.744  24.852  1.00  0.00     0.047 A 
ATOM     19  C   UNL A   1      32.142  29.018  25.375  1.00  0.00     0.056 A 
ATOM     20  C   UNL A   1      30.076  30.016  23.742  1.00  0.00     0.008 A 
ATOM     21  C   UNL A   1      31.599  28.232  24.377  1.00  0.00     0.016 A 
ATOM     22  C   UNL A   1      30.642  28.772  23.505  1.00  0.00    -0.038 A 
ATOM     23  C   UNL A   1      30.340  27.797  22.402  1.00  0.00     0.042 C 
ATOM     24  C   UNL A   1      31.508  26.796  22.566  1.00  0.00     0.075 C 
BRANCH  17  25
ATOM     25  O   UNL A   1      31.977  30.926  26.759  1.00  0.00    -0.497 OA
ATOM     26  C   UNL A   1      31.522  32.283  26.712  1.00  0.00     0.278 C 
ENDBRANCH  17  25
ENDBRANCH  13  16
ENDBRANCH   8  13
ENDBRANCH   4   7
ENDBRANCH   2   3
ENDBRANCH   1   2
BRANCH   1  27
ATOM     27  C   UNL A   1      37.942  21.937  25.314  1.00  0.00     0.023 C 
BRANCH  27  28
ATOM     28  C   UNL A   1      39.058  21.692  26.315  1.00  0.00     0.116 C 
BRANCH  28  29
ATOM     29  N   UNL A   1      39.733  20.414  26.127  1.00  0.00    -0.352 N 
ATOM     30  C   UNL A   1      41.089  20.177  26.150  1.00  0.00     0.251 C 
ATOM     31  H   UNL A   1      39.155  19.633  25.966  1.00  0.00     0.163 HD
ATOM     32  O   UNL A   1      41.542  19.070  25.885  1.00  0.00    -0.269 OA
BRANCH  30  33
ATOM     33  C   UNL A   1      41.983  21.309  26.461  1.00  0.00     0.039 A 
ATOM     34  C   UNL A   1      42.329  22.201  25.443  1.00  0.00     0.014 A 
ATOM     35  C   UNL A   1      42.362  21.547  27.784  1.00  0.00     0.014 A 
ATOM     36  C   UNL A   1      42.996  23.382  25.769  1.00  0.00     0.010 A 
ATOM     37  C   UNL A   1      42.960  22.757  28.113  1.00  0.00     0.010 A 
ATOM     38  C   UNL A   1      43.278  23.688  27.111  1.00  0.00    -0.014 A 
BRANCH  38  39
ATOM     39  C   UNL A   1      43.909  24.971  27.509  1.00  0.00     0.031 A 
ATOM     40  C   UNL A   1      43.053  26.060  28.095  1.00  0.00     0.074 A 
ATOM     41  C   UNL A   1      45.211  25.197  27.241  1.00  0.00     0.049 A 
ATOM     42  N   UNL A   1      43.362  27.305  28.349  1.00  0.00    -0.248 NA
ATOM     43  C   UNL A   1      41.653  25.714  28.398  1.00  0.00     0.031 C 
ATOM     44  C   UNL A   1      46.137  24.236  26.633  1.00  0.00     0.029 A 
ATOM     45  N   UNL A   1      45.978  26.321  27.422  1.00  0.00    -0.354 N 
ATOM     46  C   UNL A   1      42.188  27.899  28.796  1.00  0.00     0.074 A 
ATOM     47  C   UNL A   1      41.155  26.889  28.756  1.00  0.00     0.031 C 
ATOM     48  C   UNL A   1      47.345  24.810  26.500  1.00  0.00     0.029 A 
ATOM     49  C   UNL A   1      47.272  26.190  26.970  1.00  0.00     0.049 A 
ATOM     50  H   UNL A   1      45.635  27.145  27.838  1.00  0.00     0.167 HD
ATOM     51  C   UNL A   1      41.993  29.171  29.214  1.00  0.00     0.031 A 
ATOM     52  C   UNL A   1      48.277  27.085  26.921  1.00  0.00     0.031 A 
ATOM     53  C   UNL A   1      43.035  30.155  29.306  1.00  0.00     0.049 A 
ATOM     54  C   UNL A   1      48.039  28.484  27.428  1.00  0.00     0.074 A 
ATOM     55  C   UNL A   1      42.956  31.443  29.807  1.00  0.00     0.029 A 
ATOM     56  N   UNL A   1      44.345  29.960  28.899  1.00  0.00    -0.354 N 
ATOM     57  N   UNL A   1      46.941  29.005  27.920  1.00  0.00    -0.248 NA
ATOM     58  C   UNL A   1      49.178  29.414  27.381  1.00  0.00     0.031 C 
ATOM     59  C   UNL A   1      44.212  32.041  29.667  1.00  0.00     0.029 A 
ATOM     60  C   UNL A   1      45.081  31.110  29.122  1.00  0.00     0.049 A 
ATOM     61  H   UNL A   1      44.699  29.129  28.509  1.00  0.00     0.167 HD
ATOM     62  C   UNL A   1      47.267  30.310  28.273  1.00  0.00     0.074 A 
ATOM     63  C   UNL A   1      48.664  30.498  27.945  1.00  0.00     0.031 C 
ATOM     64  C   UNL A   1      46.479  31.266  28.818  1.00  0.00     0.031 A 
BRANCH  51  65
ATOM     65  C   UNL A   1      40.601  29.578  29.611  1.00  0.00    -0.014 A 
ATOM     66  C   UNL A   1      40.234  29.686  30.963  1.00  0.00     0.010 A 
ATOM     67  C   UNL A   1      39.673  29.934  28.615  1.00  0.00     0.010 A 
ATOM     68  C   UNL A   1      38.955  30.126  31.313  1.00  0.00     0.020 A 
ATOM     69  C   UNL A   1      38.401  30.397  28.962  1.00  0.00     0.020 A 
ATOM     70  C   UNL A   1      38.048  30.481  30.311  1.00  0.00     0.054 A 
BRANCH  70  71
ATOM     71  S   UNL A   1      36.418  31.109  30.796  1.00  0.00     0.124 S 
ATOM     72  O   UNL A   1      36.738  32.461  31.246  1.00  0.00    -0.237 OA
ATOM     73  O   UNL A   1      35.657  31.024  29.552  1.00  0.00    -0.237 OA
ATOM     74  O   UNL A   1      35.990  30.188  31.847  1.00  0.00    -0.744 OA
ENDBRANCH  70  71
ENDBRANCH  51  65
BRANCH  52  75
ATOM     75  C   UNL A   1      49.605  26.704  26.366  1.00  0.00    -0.014 A 
ATOM     76  C   UNL A   1      49.900  26.924  25.009  1.00  0.00     0.010 A 
ATOM     77  C   UNL A   1      50.569  26.085  27.182  1.00  0.00     0.010 A 
ATOM     78  C   UNL A   1      51.117  26.496  24.469  1.00  0.00     0.020 A 
ATOM     79  C   UNL A   1      51.798  25.681  26.652  1.00  0.00     0.020 A 
ATOM     80  C   UNL A   1      52.055  25.869  25.293  1.00  0.00     0.054 A 
BRANCH  80  81
ATOM     81  S   UNL A   1      53.631  25.327  24.576  1.00  0.00     0.124 S 
ATOM     82  O   UNL A   1      53.482  25.727  23.181  1.00  0.00    -0.237 OA
ATOM     83  O   UNL A   1      54.611  26.084  25.350  1.00  0.00    -0.237 OA
ATOM     84  O   UNL A   1      53.636  23.886  24.820  1.00  0.00    -0.744 OA
ENDBRANCH  80  81
ENDBRANCH  52  75
BRANCH  64  85
ATOM     85  C   UNL A   1      47.113  32.588  29.157  1.00  0.00    -0.014 A 
ATOM     86  C   UNL A   1      47.100  33.655  28.244  1.00  0.00     0.010 A 
ATOM     87  C   UNL A   1      47.644  32.786  30.445  1.00  0.00     0.010 A 
ATOM     88  C   UNL A   1      47.621  34.899  28.610  1.00  0.00     0.020 A 
ATOM     89  C   UNL A   1      48.143  34.034  30.822  1.00  0.00     0.020 A 
ATOM     90  C   UNL A   1      48.135  35.081  29.899  1.00  0.00     0.054 A 
BRANCH  90  91
ATOM     91  S   UNL A   1      48.735  36.724  30.378  1.00  0.00     0.124 S 
ATOM     92  O   UNL A   1      49.845  36.396  31.269  1.00  0.00    -0.237 OA
ATOM     93  O   UNL A   1      49.112  37.316  29.096  1.00  0.00    -0.237 OA
ATOM     94  O   UNL A   1      47.578  37.339  31.025  1.00  0.00    -0.744 OA
ENDBRANCH  90  91
ENDBRANCH  64  85
ENDBRANCH  38  39
ENDBRANCH  30  33
ENDBRANCH  28  29
ENDBRANCH  27  28
ENDBRANCH   1  27
TORSDOF 17
ENDMDL
MODEL 3
REMARK VINA RESULT:     -10.9      6.018     10.196
REMARK SMILES COc1ccc2c(c1)[C@H]([NH2+][C@H]1CCC[C@H](C(=O)NCCCCNC(=O)c3ccc(-c4c5nc(c(-c6ccc(S(=O)(=O)[O-])cc6)c6ccc([nH]6)c(-c6ccc(S(=O)(=O)[O-])cc6)c6nc(c(-c7ccc(S(=O)(=O)[O-])cc7)c7ccc4[nH]7)C=C6)C=C5)cc3)C1)CC2
REMARK SMILES IDX 20 1 19 2 18 3 16 4 17 5 15 7 11 8 12 9 86 10 13 11 14 12
REMARK SMILES IDX 10 13 9 16 3 17 4 18 8 19 5 20 7 21 6 22 88 23 87 24 2 25
REMARK SMILES IDX 1 26 21 27 22 28 23 29 24 30 25 32 26 33 27 34 85 35 28 36
REMARK SMILES IDX 84 37 29 38 30 39 31 40 78 41 32 42 83 43 77 44 79 45 33 46
REMARK SMILES IDX 82 47 76 48 75 49 34 51 64 52 45 53 63 54 46 55 49 56 62 57
REMARK SMILES IDX 80 58 47 59 48 60 61 62 81 63 50 64 35 65 36 66 44 67 37 68
REMARK SMILES IDX 43 69 38 70 39 71 40 72 41 73 42 74 65 75 66 76 74 77 67 78
REMARK SMILES IDX 73 79 68 80 69 81 70 82 71 83 72 84 51 85 52 86 60 87 53 88
REMARK SMILES IDX 59 89 54 90 55 91 56 92 57 93 58 94
REMARK H PARENT 18 6 10 14 10 15 23 31 79 50 49 61
REMARK Flexibility Score: inf
ROOT
ATOM      1  C   UNL A   1      38.155  23.242  25.981  1.00  0.00     0.023 C 
ENDROOT
BRANCH   1   2
ATOM      2  C   UNL A   1      36.635  23.299  26.139  1.00  0.00     0.116 C 
BRANCH   2   3
ATOM      3  N   UNL A   1      35.976  22.042  25.862  1.00  0.00    -0.356 N 
ATOM      4  C   UNL A   1      34.724  21.778  25.397  1.00  0.00     0.223 C 
ATOM      5  O   UNL A   1      34.447  20.602  25.146  1.00  0.00    -0.275 OA
ATOM      6  H   UNL A   1      36.525  21.244  26.038  1.00  0.00     0.163 HD
BRANCH   4   7
ATOM      7  C   UNL A   1      33.680  22.877  25.172  1.00  0.00     0.084 C 
ATOM      8  C   UNL A   1      31.121  23.029  24.623  1.00  0.00     0.183 C 
ATOM      9  C   UNL A   1      31.508  22.961  23.144  1.00  0.00     0.065 C 
ATOM     10  C   UNL A   1      32.251  22.390  25.453  1.00  0.00     0.078 C 
ATOM     11  C   UNL A   1      32.868  23.549  22.771  1.00  0.00     0.007 C 
ATOM     12  C   UNL A   1      33.926  23.645  23.868  1.00  0.00     0.014 C 
BRANCH   8  13
ATOM     13  N   UNL A   1      30.548  24.291  25.130  1.00  0.00    -0.338 N 
ATOM     14  H   UNL A   1      29.728  24.501  24.561  1.00  0.00     0.347 HD
ATOM     15  H   UNL A   1      30.373  24.108  26.119  1.00  0.00     0.347 HD
BRANCH  13  16
ATOM     16  C   UNL A   1      31.383  25.473  25.131  1.00  0.00     0.214 C 
ATOM     17  C   UNL A   1      29.594  28.341  23.335  1.00  0.00     0.119 A 
ATOM     18  C   UNL A   1      30.451  29.370  23.741  1.00  0.00     0.047 A 
ATOM     19  C   UNL A   1      29.701  27.061  23.873  1.00  0.00     0.056 A 
ATOM     20  C   UNL A   1      31.426  29.123  24.711  1.00  0.00     0.008 A 
ATOM     21  C   UNL A   1      30.768  26.784  24.707  1.00  0.00     0.016 A 
ATOM     22  C   UNL A   1      31.560  27.831  25.199  1.00  0.00    -0.038 A 
ATOM     23  C   UNL A   1      32.530  27.309  26.221  1.00  0.00     0.042 C 
ATOM     24  C   UNL A   1      31.938  25.907  26.499  1.00  0.00     0.075 C 
BRANCH  17  25
ATOM     25  O   UNL A   1      28.642  28.549  22.373  1.00  0.00    -0.497 OA
ATOM     26  C   UNL A   1      28.249  29.926  22.357  1.00  0.00     0.278 C 
ENDBRANCH  17  25
ENDBRANCH  13  16
ENDBRANCH   8  13
ENDBRANCH   4   7
ENDBRANCH   2   3
ENDBRANCH   1   2
BRANCH   1  27
ATOM     27  C   UNL A   1      38.719  21.869  25.635  1.00  0.00     0.023 C 
BRANCH  27  28
ATOM     28  C   UNL A   1      39.696  21.309  26.654  1.00  0.00     0.116 C 
BRANCH  28  29
ATOM     29  N   UNL A   1      40.447  20.160  26.165  1.00  0.00    -0.352 N 
ATOM     30  C   UNL A   1      41.793  20.105  25.880  1.00  0.00     0.251 C 
ATOM     31  H   UNL A   1      39.935  19.331  26.022  1.00  0.00     0.163 HD
ATOM     32  O   UNL A   1      42.293  19.102  25.383  1.00  0.00    -0.269 OA
BRANCH  30  33
ATOM     33  C   UNL A   1      42.606  21.306  26.150  1.00  0.00     0.039 A 
ATOM     34  C   UNL A   1      42.808  22.234  25.126  1.00  0.00     0.014 A 
ATOM     35  C   UNL A   1      43.049  21.562  27.449  1.00  0.00     0.014 A 
ATOM     36  C   UNL A   1      43.393  23.465  25.427  1.00  0.00     0.010 A 
ATOM     37  C   UNL A   1      43.564  22.814  27.758  1.00  0.00     0.010 A 
ATOM     38  C   UNL A   1      43.736  23.780  26.752  1.00  0.00    -0.014 A 
BRANCH  38  39
ATOM     39  C   UNL A   1      44.281  25.108  27.129  1.00  0.00     0.031 A 
ATOM     40  C   UNL A   1      43.365  26.130  27.744  1.00  0.00     0.074 A 
ATOM     41  C   UNL A   1      45.552  25.431  26.816  1.00  0.00     0.049 A 
ATOM     42  N   UNL A   1      43.587  27.395  27.987  1.00  0.00    -0.248 NA
ATOM     43  C   UNL A   1      42.006  25.680  28.094  1.00  0.00     0.031 C 
ATOM     44  C   UNL A   1      46.528  24.542  26.178  1.00  0.00     0.029 A 
ATOM     45  N   UNL A   1      46.238  26.610  26.972  1.00  0.00    -0.354 N 
ATOM     46  C   UNL A   1      42.388  27.900  28.474  1.00  0.00     0.074 A 
ATOM     47  C   UNL A   1      41.433  26.815  28.468  1.00  0.00     0.031 C 
ATOM     48  C   UNL A   1      47.683  25.205  26.004  1.00  0.00     0.029 A 
ATOM     49  C   UNL A   1      47.522  26.576  26.476  1.00  0.00     0.049 A 
ATOM     50  H   UNL A   1      45.848  27.407  27.399  1.00  0.00     0.167 HD
ATOM     51  C   UNL A   1      42.111  29.155  28.898  1.00  0.00     0.031 A 
ATOM     52  C   UNL A   1      48.454  27.545  26.394  1.00  0.00     0.031 A 
ATOM     53  C   UNL A   1      43.078  30.215  28.955  1.00  0.00     0.049 A 
ATOM     54  C   UNL A   1      48.128  28.922  26.908  1.00  0.00     0.074 A 
ATOM     55  C   UNL A   1      42.919  31.494  29.459  1.00  0.00     0.029 A 
ATOM     56  N   UNL A   1      44.384  30.119  28.504  1.00  0.00    -0.354 N 
ATOM     57  N   UNL A   1      47.010  29.360  27.437  1.00  0.00    -0.248 NA
ATOM     58  C   UNL A   1      49.191  29.936  26.823  1.00  0.00     0.031 C 
ATOM     59  C   UNL A   1      44.120  32.185  29.276  1.00  0.00     0.029 A 
ATOM     60  C   UNL A   1      45.038  31.322  28.702  1.00  0.00     0.049 A 
ATOM     61  H   UNL A   1      44.787  29.316  28.102  1.00  0.00     0.167 HD
ATOM     62  C   UNL A   1      47.249  30.687  27.779  1.00  0.00     0.074 A 
ATOM     63  C   UNL A   1      48.615  30.980  27.404  1.00  0.00     0.031 C 
ATOM     64  C   UNL A   1      46.409  31.583  28.351  1.00  0.00     0.031 A 
BRANCH  51  65
ATOM     65  C   UNL A   1      40.707  29.456  29.342  1.00  0.00    -0.014 A 
ATOM     66  C   UNL A   1      40.358  29.450  30.703  1.00  0.00     0.010 A 
ATOM     67  C   UNL A   1      39.743  29.829  28.386  1.00  0.00     0.010 A 
ATOM     68  C   UNL A   1      39.064  29.794  31.101  1.00  0.00     0.020 A 
ATOM     69  C   UNL A   1      38.454  30.197  28.783  1.00  0.00     0.020 A 
ATOM     70  C   UNL A   1      38.121  30.167  30.139  1.00  0.00     0.054 A 
BRANCH  70  71
ATOM     71  S   UNL A   1      36.468  30.669  30.690  1.00  0.00     0.124 S 
ATOM     72  O   UNL A   1      35.648  30.322  29.533  1.00  0.00    -0.237 OA
ATOM     73  O   UNL A   1      36.260  29.844  31.877  1.00  0.00    -0.237 OA
ATOM     74  O   UNL A   1      36.608  32.100  30.947  1.00  0.00    -0.744 OA
ENDBRANCH  70  71
ENDBRANCH  51  65
BRANCH  52  75
ATOM     75  C   UNL A   1      49.788  27.264  25.794  1.00  0.00    -0.014 A 
ATOM     76  C   UNL A   1      49.994  27.420  24.411  1.00  0.00     0.010 A 
ATOM     77  C   UNL A   1      50.848  26.803  26.595  1.00  0.00     0.010 A 
ATOM     78  C   UNL A   1      51.223  27.082  23.835  1.00  0.00     0.020 A 
ATOM     79  C   UNL A   1      52.086  26.491  26.026  1.00  0.00     0.020 A 
ATOM     80  C   UNL A   1      52.259  26.612  24.646  1.00  0.00     0.054 A 
BRANCH  80  81
ATOM     81  S   UNL A   1      53.849  26.185  23.882  1.00  0.00     0.124 S 
ATOM     82  O   UNL A   1      54.643  27.378  24.151  1.00  0.00    -0.237 OA
ATOM     83  O   UNL A   1      54.242  24.984  24.614  1.00  0.00    -0.237 OA
ATOM     84  O   UNL A   1      53.502  25.963  22.480  1.00  0.00    -0.744 OA
ENDBRANCH  80  81
ENDBRANCH  52  75
BRANCH  64  85
ATOM     85  C   UNL A   1      46.953  32.949  28.668  1.00  0.00    -0.014 A 
ATOM     86  C   UNL A   1      47.613  33.205  29.880  1.00  0.00     0.010 A 
ATOM     87  C   UNL A   1      46.880  33.961  27.692  1.00  0.00     0.010 A 
ATOM     88  C   UNL A   1      48.183  34.458  30.118  1.00  0.00     0.020 A 
ATOM     89  C   UNL A   1      47.469  35.207  27.917  1.00  0.00     0.020 A 
ATOM     90  C   UNL A   1      48.111  35.450  29.133  1.00  0.00     0.054 A 
BRANCH  90  91
ATOM     91  S   UNL A   1      48.925  37.043  29.433  1.00  0.00     0.124 S 
ATOM     92  O   UNL A   1      49.316  37.444  28.084  1.00  0.00    -0.237 OA
ATOM     93  O   UNL A   1      47.861  37.839  30.041  1.00  0.00    -0.237 OA
ATOM     94  O   UNL A   1      50.029  36.704  30.327  1.00  0.00    -0.744 OA
ENDBRANCH  90  91
ENDBRANCH  64  85
ENDBRANCH  38  39
ENDBRANCH  30  33
ENDBRANCH  28  29
ENDBRANCH  27  28
ENDBRANCH   1  27
TORSDOF 17
ENDMDL
