MODEL 1
REMARK VINA RESULT:     -11.3      0.000      0.000
REMARK SMILES CC(C)n1cncc1[C@@H](O)[C@H](C)C(=O)NCCCCNC(=O)c1ccc(-c2c3nc(c(-c4ccc(S(=O)(=O)[O-])cc4)c4ccc([nH]4)c(-c4ccc(S(=O)(=O)[O-])cc4)c4nc(c(-c5ccc(S(=O)(=O)[O-])cc5)c5ccc2[nH]5)C=C4)C=C3)cc1
REMARK SMILES IDX 17 1 16 2 15 3 13 4 14 5 11 7 12 8 9 9 8 10 4 11 5 12 6 13
REMARK SMILES IDX 7 14 2 15 1 16 3 17 10 18 18 20 19 21 20 22 21 23 22 25
REMARK SMILES IDX 23 26 24 27 82 28 25 29 81 30 26 31 27 32 28 33 75 34 29 35
REMARK SMILES IDX 80 36 74 37 76 38 30 39 79 40 73 41 72 42 31 44 61 45 42 46
REMARK SMILES IDX 60 47 43 48 46 49 59 50 77 51 44 52 45 53 58 55 78 56 47 57
REMARK SMILES IDX 32 58 33 59 41 60 34 61 40 62 35 63 36 64 37 65 38 66 39 67
REMARK SMILES IDX 62 68 63 69 71 70 64 71 70 72 65 73 66 74 67 75 68 76 69 77
REMARK SMILES IDX 48 78 49 79 57 80 50 81 56 82 51 83 52 84 53 85 54 86 55 87
REMARK H PARENT 15 6 10 19 20 24 76 43 46 54
REMARK Flexibility Score: inf
ROOT
ATOM      1  C   UNL A   1      35.741  20.837  25.213  1.00  0.00     0.023 C 
ENDROOT
BRANCH   1   2
ATOM      2  C   UNL A   1      34.435  20.295  24.639  1.00  0.00     0.116 C 
BRANCH   2   3
ATOM      3  N   UNL A   1      33.257  20.735  25.364  1.00  0.00    -0.356 N 
ATOM      4  C   UNL A   1      32.214  21.500  24.929  1.00  0.00     0.225 C 
ATOM      5  O   UNL A   1      31.236  21.610  25.676  1.00  0.00    -0.275 OA
ATOM      6  H   UNL A   1      33.204  20.441  26.301  1.00  0.00     0.163 HD
BRANCH   4   7
ATOM      7  C   UNL A   1      32.263  22.284  23.621  1.00  0.00     0.110 C 
ATOM      8  C   UNL A   1      32.044  21.333  22.437  1.00  0.00     0.021 C 
BRANCH   7   9
ATOM      9  C   UNL A   1      31.524  23.648  23.647  1.00  0.00     0.175 C 
BRANCH   9  10
ATOM     10  C   UNL A   1      32.255  24.780  22.995  1.00  0.00     0.067 A 
ATOM     11  N   UNL A   1      32.256  26.104  23.380  1.00  0.00    -0.330 N 
ATOM     12  C   UNL A   1      33.078  26.780  22.510  1.00  0.00     0.199 A 
ATOM     13  N   UNL A   1      33.569  25.996  21.583  1.00  0.00    -0.245 NA
ATOM     14  C   UNL A   1      33.042  24.768  21.852  1.00  0.00     0.137 A 
BRANCH  11  15
ATOM     15  C   UNL A   1      31.488  26.789  24.415  1.00  0.00     0.082 C 
ATOM     16  C   UNL A   1      32.383  27.233  25.572  1.00  0.00     0.031 C 
ATOM     17  C   UNL A   1      30.597  27.915  23.893  1.00  0.00     0.031 C 
ENDBRANCH  11  15
ENDBRANCH   9  10
BRANCH   9  18
ATOM     18  O   UNL A   1      30.247  23.629  23.024  1.00  0.00    -0.386 OA
ATOM     19  H   UNL A   1      29.641  24.211  23.509  1.00  0.00     0.211 HD
ENDBRANCH   9  18
ENDBRANCH   7   9
ENDBRANCH   4   7
ENDBRANCH   2   3
ENDBRANCH   1   2
BRANCH   1  20
ATOM     20  C   UNL A   1      35.854  22.363  25.281  1.00  0.00     0.023 C 
BRANCH  20  21
ATOM     21  C   UNL A   1      37.273  22.894  25.472  1.00  0.00     0.116 C 
BRANCH  21  22
ATOM     22  N   UNL A   1      38.182  21.894  26.021  1.00  0.00    -0.352 N 
ATOM     23  C   UNL A   1      39.428  22.093  26.568  1.00  0.00     0.251 C 
ATOM     24  H   UNL A   1      37.866  20.961  25.994  1.00  0.00     0.163 HD
ATOM     25  O   UNL A   1      40.216  21.152  26.685  1.00  0.00    -0.269 OA
BRANCH  23  26
ATOM     26  C   UNL A   1      39.823  23.447  26.991  1.00  0.00     0.039 A 
ATOM     27  C   UNL A   1      38.857  24.448  27.124  1.00  0.00     0.014 A 
ATOM     28  C   UNL A   1      41.160  23.703  27.295  1.00  0.00     0.014 A 
ATOM     29  C   UNL A   1      39.224  25.681  27.658  1.00  0.00     0.010 A 
ATOM     30  C   UNL A   1      41.509  24.901  27.893  1.00  0.00     0.010 A 
ATOM     31  C   UNL A   1      40.547  25.899  28.073  1.00  0.00    -0.014 A 
BRANCH  31  32
ATOM     32  C   UNL A   1      40.878  27.113  28.829  1.00  0.00     0.031 A 
ATOM     33  C   UNL A   1      41.930  27.990  28.232  1.00  0.00     0.074 A 
ATOM     34  C   UNL A   1      40.130  27.601  29.841  1.00  0.00     0.049 A 
ATOM     35  N   UNL A   1      43.067  28.345  28.738  1.00  0.00    -0.248 NA
ATOM     36  C   UNL A   1      41.707  28.486  26.864  1.00  0.00     0.031 C 
ATOM     37  C   UNL A   1      38.854  27.077  30.335  1.00  0.00     0.029 A 
ATOM     38  N   UNL A   1      40.278  28.765  30.540  1.00  0.00    -0.354 N 
ATOM     39  C   UNL A   1      43.609  29.275  27.852  1.00  0.00     0.074 A 
ATOM     40  C   UNL A   1      42.814  29.198  26.652  1.00  0.00     0.031 C 
ATOM     41  C   UNL A   1      38.226  28.037  31.048  1.00  0.00     0.029 A 
ATOM     42  C   UNL A   1      39.121  29.172  31.194  1.00  0.00     0.049 A 
ATOM     43  H   UNL A   1      41.122  29.269  30.577  1.00  0.00     0.167 HD
ATOM     44  C   UNL A   1      44.518  30.212  28.245  1.00  0.00     0.031 A 
ATOM     45  C   UNL A   1      38.881  30.374  31.771  1.00  0.00     0.031 A 
ATOM     46  C   UNL A   1      45.086  29.918  29.536  1.00  0.00     0.049 A 
ATOM     47  C   UNL A   1      40.185  31.020  32.038  1.00  0.00     0.074 A 
ATOM     48  C   UNL A   1      45.762  28.853  30.096  1.00  0.00     0.029 A 
ATOM     49  N   UNL A   1      44.683  30.704  30.588  1.00  0.00    -0.354 N 
ATOM     50  N   UNL A   1      41.048  30.574  32.906  1.00  0.00    -0.248 NA
ATOM     51  C   UNL A   1      40.704  31.990  31.087  1.00  0.00     0.031 C 
ATOM     52  C   UNL A   1      45.328  28.811  31.454  1.00  0.00     0.029 A 
ATOM     53  C   UNL A   1      44.446  29.875  31.652  1.00  0.00     0.049 A 
ATOM     54  H   UNL A   1      44.584  31.684  30.580  1.00  0.00     0.167 HD
ATOM     55  C   UNL A   1      42.286  30.868  32.358  1.00  0.00     0.074 A 
ATOM     56  C   UNL A   1      42.012  31.858  31.323  1.00  0.00     0.031 C 
ATOM     57  C   UNL A   1      43.369  30.071  32.602  1.00  0.00     0.031 A 
BRANCH  44  58
ATOM     58  C   UNL A   1      44.582  31.613  27.664  1.00  0.00    -0.014 A 
ATOM     59  C   UNL A   1      45.694  31.972  26.870  1.00  0.00     0.010 A 
ATOM     60  C   UNL A   1      43.764  32.665  28.123  1.00  0.00     0.010 A 
ATOM     61  C   UNL A   1      46.029  33.316  26.648  1.00  0.00     0.020 A 
ATOM     62  C   UNL A   1      44.058  34.006  27.862  1.00  0.00     0.020 A 
ATOM     63  C   UNL A   1      45.218  34.323  27.170  1.00  0.00     0.054 A 
BRANCH  63  64
ATOM     64  S   UNL A   1      45.734  36.052  27.020  1.00  0.00     0.124 S 
ATOM     65  O   UNL A   1      44.448  36.733  26.911  1.00  0.00    -0.237 OA
ATOM     66  O   UNL A   1      46.464  36.271  28.265  1.00  0.00    -0.237 OA
ATOM     67  O   UNL A   1      46.555  36.057  25.811  1.00  0.00    -0.744 OA
ENDBRANCH  63  64
ENDBRANCH  44  58
BRANCH  45  68
ATOM     68  C   UNL A   1      37.585  31.083  31.906  1.00  0.00    -0.014 A 
ATOM     69  C   UNL A   1      37.160  31.585  33.149  1.00  0.00     0.010 A 
ATOM     70  C   UNL A   1      36.876  31.491  30.757  1.00  0.00     0.010 A 
ATOM     71  C   UNL A   1      36.102  32.506  33.232  1.00  0.00     0.020 A 
ATOM     72  C   UNL A   1      35.812  32.395  30.833  1.00  0.00     0.020 A 
ATOM     73  C   UNL A   1      35.446  32.919  32.069  1.00  0.00     0.054 A 
BRANCH  73  74
ATOM     74  S   UNL A   1      34.199  34.235  32.164  1.00  0.00     0.124 S 
ATOM     75  O   UNL A   1      34.980  35.371  32.646  1.00  0.00    -0.237 OA
ATOM     76  O   UNL A   1      33.729  34.330  30.785  1.00  0.00    -0.237 OA
ATOM     77  O   UNL A   1      33.218  33.713  33.114  1.00  0.00    -0.744 OA
ENDBRANCH  73  74
ENDBRANCH  45  68
BRANCH  57  78
ATOM     78  C   UNL A   1      43.325  29.126  33.778  1.00  0.00    -0.014 A 
ATOM     79  C   UNL A   1      43.700  29.485  35.086  1.00  0.00     0.010 A 
ATOM     80  C   UNL A   1      42.759  27.855  33.569  1.00  0.00     0.010 A 
ATOM     81  C   UNL A   1      43.549  28.582  36.148  1.00  0.00     0.020 A 
ATOM     82  C   UNL A   1      42.587  26.958  34.625  1.00  0.00     0.020 A 
ATOM     83  C   UNL A   1      42.995  27.322  35.909  1.00  0.00     0.054 A 
BRANCH  83  84
ATOM     84  S   UNL A   1      42.766  26.174  37.295  1.00  0.00     0.124 S 
ATOM     85  O   UNL A   1      43.730  26.665  38.277  1.00  0.00    -0.237 OA
ATOM     86  O   UNL A   1      41.360  26.361  37.644  1.00  0.00    -0.237 OA
ATOM     87  O   UNL A   1      43.083  24.866  36.721  1.00  0.00    -0.744 OA
ENDBRANCH  83  84
ENDBRANCH  57  78
ENDBRANCH  31  32
ENDBRANCH  23  26
ENDBRANCH  21  22
ENDBRANCH  20  21
ENDBRANCH   1  20
TORSDOF 18
ENDMDL
MODEL 2
REMARK VINA RESULT:     -11.3      2.737      9.257
REMARK SMILES CC(C)n1cncc1[C@@H](O)[C@H](C)C(=O)NCCCCNC(=O)c1ccc(-c2c3nc(c(-c4ccc(S(=O)(=O)[O-])cc4)c4ccc([nH]4)c(-c4ccc(S(=O)(=O)[O-])cc4)c4nc(c(-c5ccc(S(=O)(=O)[O-])cc5)c5ccc2[nH]5)C=C4)C=C3)cc1
REMARK SMILES IDX 17 1 16 2 15 3 13 4 14 5 11 7 12 8 9 9 8 10 4 11 5 12 6 13
REMARK SMILES IDX 7 14 2 15 1 16 3 17 10 18 18 20 19 21 20 22 21 23 22 25
REMARK SMILES IDX 23 26 24 27 82 28 25 29 81 30 26 31 27 32 28 33 75 34 29 35
REMARK SMILES IDX 80 36 74 37 76 38 30 39 79 40 73 41 72 42 31 44 61 45 42 46
REMARK SMILES IDX 60 47 43 48 46 49 59 50 77 51 44 52 45 53 58 55 78 56 47 57
REMARK SMILES IDX 32 58 33 59 41 60 34 61 40 62 35 63 36 64 37 65 38 66 39 67
REMARK SMILES IDX 62 68 63 69 71 70 64 71 70 72 65 73 66 74 67 75 68 76 69 77
REMARK SMILES IDX 48 78 49 79 57 80 50 81 56 82 51 83 52 84 53 85 54 86 55 87
REMARK H PARENT 15 6 10 19 20 24 76 43 46 54
REMARK Flexibility Score: inf
ROOT
ATOM      1  C   UNL A   1      31.689  27.324  26.577  1.00  0.00     0.023 C 
ENDROOT
BRANCH   1   2
ATOM      2  C   UNL A   1      31.561  26.026  25.786  1.00  0.00     0.116 C 
BRANCH   2   3
ATOM      3  N   UNL A   1      30.637  25.076  26.378  1.00  0.00    -0.356 N 
ATOM      4  C   UNL A   1      30.878  23.816  26.846  1.00  0.00     0.225 C 
ATOM      5  O   UNL A   1      29.968  23.252  27.463  1.00  0.00    -0.275 OA
ATOM      6  H   UNL A   1      29.705  25.384  26.453  1.00  0.00     0.163 HD
BRANCH   4   7
ATOM      7  C   UNL A   1      32.173  23.067  26.549  1.00  0.00     0.110 C 
ATOM      8  C   UNL A   1      32.760  22.508  27.851  1.00  0.00     0.021 C 
BRANCH   7   9
ATOM      9  C   UNL A   1      32.135  22.168  25.285  1.00  0.00     0.175 C 
BRANCH   9  10
ATOM     10  C   UNL A   1      33.077  22.566  24.192  1.00  0.00     0.067 A 
ATOM     11  N   UNL A   1      34.453  22.489  24.208  1.00  0.00    -0.330 N 
ATOM     12  C   UNL A   1      34.901  22.941  22.989  1.00  0.00     0.199 A 
ATOM     13  N   UNL A   1      33.918  23.333  22.217  1.00  0.00    -0.245 NA
ATOM     14  C   UNL A   1      32.793  23.138  22.960  1.00  0.00     0.137 A 
BRANCH  11  15
ATOM     15  C   UNL A   1      35.369  22.125  25.285  1.00  0.00     0.082 C 
ATOM     16  C   UNL A   1      36.419  21.121  24.811  1.00  0.00     0.031 C 
ATOM     17  C   UNL A   1      35.981  23.317  26.018  1.00  0.00     0.031 C 
ENDBRANCH  11  15
ENDBRANCH   9  10
BRANCH   9  18
ATOM     18  O   UNL A   1      32.422  20.799  25.537  1.00  0.00    -0.386 OA
ATOM     19  H   UNL A   1      32.534  20.332  24.694  1.00  0.00     0.211 HD
ENDBRANCH   9  18
ENDBRANCH   7   9
ENDBRANCH   4   7
ENDBRANCH   2   3
ENDBRANCH   1   2
BRANCH   1  20
ATOM     20  C   UNL A   1      32.957  28.141  26.313  1.00  0.00     0.023 C 
BRANCH  20  21
ATOM     21  C   UNL A   1      33.414  29.015  27.479  1.00  0.00     0.116 C 
BRANCH  21  22
ATOM     22  N   UNL A   1      33.525  30.424  27.120  1.00  0.00    -0.352 N 
ATOM     23  C   UNL A   1      34.497  31.320  27.501  1.00  0.00     0.251 C 
ATOM     24  H   UNL A   1      32.817  30.778  26.534  1.00  0.00     0.163 HD
ATOM     25  O   UNL A   1      34.298  32.533  27.407  1.00  0.00    -0.269 OA
BRANCH  23  26
ATOM     26  C   UNL A   1      35.768  30.817  28.047  1.00  0.00     0.039 A 
ATOM     27  C   UNL A   1      36.181  29.511  27.771  1.00  0.00     0.014 A 
ATOM     28  C   UNL A   1      36.569  31.670  28.806  1.00  0.00     0.014 A 
ATOM     29  C   UNL A   1      37.448  29.097  28.175  1.00  0.00     0.010 A 
ATOM     30  C   UNL A   1      37.854  31.284  29.143  1.00  0.00     0.010 A 
ATOM     31  C   UNL A   1      38.300  29.995  28.838  1.00  0.00    -0.014 A 
BRANCH  31  32
ATOM     32  C   UNL A   1      39.702  29.627  29.067  1.00  0.00     0.031 A 
ATOM     33  C   UNL A   1      40.125  29.522  30.497  1.00  0.00     0.074 A 
ATOM     34  C   UNL A   1      40.520  29.132  28.115  1.00  0.00     0.049 A 
ATOM     35  N   UNL A   1      41.046  30.186  31.116  1.00  0.00    -0.248 NA
ATOM     36  C   UNL A   1      39.378  28.594  31.361  1.00  0.00     0.031 C 
ATOM     37  C   UNL A   1      40.177  28.815  26.726  1.00  0.00     0.029 A 
ATOM     38  N   UNL A   1      41.796  28.658  28.234  1.00  0.00    -0.354 N 
ATOM     39  C   UNL A   1      41.144  29.618  32.386  1.00  0.00     0.074 A 
ATOM     40  C   UNL A   1      39.993  28.762  32.532  1.00  0.00     0.031 C 
ATOM     41  C   UNL A   1      41.108  27.980  26.218  1.00  0.00     0.029 A 
ATOM     42  C   UNL A   1      42.184  27.836  27.183  1.00  0.00     0.049 A 
ATOM     43  H   UNL A   1      42.385  28.879  28.991  1.00  0.00     0.167 HD
ATOM     44  C   UNL A   1      42.280  29.699  33.135  1.00  0.00     0.031 A 
ATOM     45  C   UNL A   1      43.282  27.044  27.120  1.00  0.00     0.031 A 
ATOM     46  C   UNL A   1      43.198  30.690  32.634  1.00  0.00     0.049 A 
ATOM     47  C   UNL A   1      44.260  27.541  28.112  1.00  0.00     0.074 A 
ATOM     48  C   UNL A   1      43.138  32.042  32.362  1.00  0.00     0.029 A 
ATOM     49  N   UNL A   1      44.333  30.230  32.011  1.00  0.00    -0.354 N 
ATOM     50  N   UNL A   1      44.864  28.691  28.017  1.00  0.00    -0.248 NA
ATOM     51  C   UNL A   1      44.328  26.910  29.420  1.00  0.00     0.031 C 
ATOM     52  C   UNL A   1      43.968  32.226  31.216  1.00  0.00     0.029 A 
ATOM     53  C   UNL A   1      44.517  30.986  30.884  1.00  0.00     0.049 A 
ATOM     54  H   UNL A   1      44.909  29.492  32.318  1.00  0.00     0.167 HD
ATOM     55  C   UNL A   1      45.015  29.123  29.325  1.00  0.00     0.074 A 
ATOM     56  C   UNL A   1      44.801  27.932  30.138  1.00  0.00     0.031 C 
ATOM     57  C   UNL A   1      45.011  30.455  29.630  1.00  0.00     0.031 A 
BRANCH  44  58
ATOM     58  C   UNL A   1      42.751  28.595  34.065  1.00  0.00    -0.014 A 
ATOM     59  C   UNL A   1      43.065  27.330  33.519  1.00  0.00     0.010 A 
ATOM     60  C   UNL A   1      42.592  28.660  35.464  1.00  0.00     0.010 A 
ATOM     61  C   UNL A   1      43.104  26.180  34.319  1.00  0.00     0.020 A 
ATOM     62  C   UNL A   1      42.683  27.529  36.278  1.00  0.00     0.020 A 
ATOM     63  C   UNL A   1      42.887  26.288  35.692  1.00  0.00     0.054 A 
BRANCH  63  64
ATOM     64  S   UNL A   1      42.780  24.787  36.699  1.00  0.00     0.124 S 
ATOM     65  O   UNL A   1      43.787  25.048  37.722  1.00  0.00    -0.237 OA
ATOM     66  O   UNL A   1      41.392  24.813  37.154  1.00  0.00    -0.237 OA
ATOM     67  O   UNL A   1      43.102  23.720  35.754  1.00  0.00    -0.744 OA
ENDBRANCH  63  64
ENDBRANCH  44  58
BRANCH  45  68
ATOM     68  C   UNL A   1      43.442  25.755  26.403  1.00  0.00    -0.014 A 
ATOM     69  C   UNL A   1      44.470  25.573  25.461  1.00  0.00     0.010 A 
ATOM     70  C   UNL A   1      42.734  24.612  26.831  1.00  0.00     0.010 A 
ATOM     71  C   UNL A   1      44.815  24.289  25.008  1.00  0.00     0.020 A 
ATOM     72  C   UNL A   1      43.061  23.332  26.373  1.00  0.00     0.020 A 
ATOM     73  C   UNL A   1      44.118  23.173  25.482  1.00  0.00     0.054 A 
BRANCH  73  74
ATOM     74  S   UNL A   1      44.681  21.507  25.027  1.00  0.00     0.124 S 
ATOM     75  O   UNL A   1      43.697  20.655  25.690  1.00  0.00    -0.237 OA
ATOM     76  O   UNL A   1      44.614  21.535  23.569  1.00  0.00    -0.237 OA
ATOM     77  O   UNL A   1      46.032  21.437  25.581  1.00  0.00    -0.744 OA
ENDBRANCH  73  74
ENDBRANCH  45  68
BRANCH  57  78
ATOM     78  C   UNL A   1      45.261  31.453  28.526  1.00  0.00    -0.014 A 
ATOM     79  C   UNL A   1      44.281  31.858  27.600  1.00  0.00     0.010 A 
ATOM     80  C   UNL A   1      46.509  32.102  28.505  1.00  0.00     0.010 A 
ATOM     81  C   UNL A   1      44.557  32.856  26.655  1.00  0.00     0.020 A 
ATOM     82  C   UNL A   1      46.784  33.111  27.581  1.00  0.00     0.020 A 
ATOM     83  C   UNL A   1      45.810  33.476  26.650  1.00  0.00     0.054 A 
BRANCH  83  84
ATOM     84  S   UNL A   1      46.145  34.794  25.450  1.00  0.00     0.124 S 
ATOM     85  O   UNL A   1      45.219  34.480  24.366  1.00  0.00    -0.237 OA
ATOM     86  O   UNL A   1      45.842  36.007  26.206  1.00  0.00    -0.237 OA
ATOM     87  O   UNL A   1      47.560  34.617  25.124  1.00  0.00    -0.744 OA
ENDBRANCH  83  84
ENDBRANCH  57  78
ENDBRANCH  31  32
ENDBRANCH  23  26
ENDBRANCH  21  22
ENDBRANCH  20  21
ENDBRANCH   1  20
TORSDOF 18
ENDMDL
MODEL 3
REMARK VINA RESULT:     -11.1      2.466      3.723
REMARK SMILES CC(C)n1cncc1[C@@H](O)[C@H](C)C(=O)NCCCCNC(=O)c1ccc(-c2c3nc(c(-c4ccc(S(=O)(=O)[O-])cc4)c4ccc([nH]4)c(-c4ccc(S(=O)(=O)[O-])cc4)c4nc(c(-c5ccc(S(=O)(=O)[O-])cc5)c5ccc2[nH]5)C=C4)C=C3)cc1
REMARK SMILES IDX 17 1 16 2 15 3 13 4 14 5 11 7 12 8 9 9 8 10 4 11 5 12 6 13
REMARK SMILES IDX 7 14 2 15 1 16 3 17 10 18 18 20 19 21 20 22 21 23 22 25
REMARK SMILES IDX 23 26 24 27 82 28 25 29 81 30 26 31 27 32 28 33 75 34 29 35
REMARK SMILES IDX 80 36 74 37 76 38 30 39 79 40 73 41 72 42 31 44 61 45 42 46
REMARK SMILES IDX 60 47 43 48 46 49 59 50 77 51 44 52 45 53 58 55 78 56 47 57
REMARK SMILES IDX 32 58 33 59 41 60 34 61 40 62 35 63 36 64 37 65 38 66 39 67
REMARK SMILES IDX 62 68 63 69 71 70 64 71 70 72 65 73 66 74 67 75 68 76 69 77
REMARK SMILES IDX 48 78 49 79 57 80 50 81 56 82 51 83 52 84 53 85 54 86 55 87
REMARK H PARENT 15 6 10 19 20 24 76 43 46 54
REMARK Flexibility Score: inf
ROOT
ATOM      1  C   UNL A   1      40.369  22.653  27.598  1.00  0.00     0.023 C 
ENDROOT
BRANCH   1   2
ATOM      2  C   UNL A   1      39.257  23.002  26.614  1.00  0.00     0.116 C 
BRANCH   2   3
ATOM      3  N   UNL A   1      38.534  21.844  26.122  1.00  0.00    -0.356 N 
ATOM      4  C   UNL A   1      37.542  21.780  25.187  1.00  0.00     0.225 C 
ATOM      5  O   UNL A   1      37.188  20.660  24.805  1.00  0.00    -0.275 OA
ATOM      6  H   UNL A   1      38.796  20.983  26.521  1.00  0.00     0.163 HD
BRANCH   4   7
ATOM      7  C   UNL A   1      36.810  23.021  24.685  1.00  0.00     0.110 C 
ATOM      8  C   UNL A   1      36.650  22.949  23.161  1.00  0.00     0.021 C 
BRANCH   7   9
ATOM      9  C   UNL A   1      35.605  23.467  25.556  1.00  0.00     0.175 C 
BRANCH   9  10
ATOM     10  C   UNL A   1      34.257  23.139  24.992  1.00  0.00     0.067 A 
ATOM     11  N   UNL A   1      33.443  23.964  24.246  1.00  0.00    -0.330 N 
ATOM     12  C   UNL A   1      32.316  23.244  23.927  1.00  0.00     0.199 A 
ATOM     13  N   UNL A   1      32.337  22.040  24.443  1.00  0.00    -0.245 NA
ATOM     14  C   UNL A   1      33.513  21.977  25.129  1.00  0.00     0.137 A 
BRANCH  11  15
ATOM     15  C   UNL A   1      33.587  25.375  23.898  1.00  0.00     0.082 C 
ATOM     16  C   UNL A   1      33.306  25.616  22.416  1.00  0.00     0.031 C 
ATOM     17  C   UNL A   1      32.814  26.327  24.808  1.00  0.00     0.031 C 
ENDBRANCH  11  15
ENDBRANCH   9  10
BRANCH   9  18
ATOM     18  O   UNL A   1      35.599  22.915  26.866  1.00  0.00    -0.386 OA
ATOM     19  H   UNL A   1      34.704  22.965  27.234  1.00  0.00     0.211 HD
ENDBRANCH   9  18
ENDBRANCH   7   9
ENDBRANCH   4   7
ENDBRANCH   2   3
ENDBRANCH   1   2
BRANCH   1  20
ATOM     20  C   UNL A   1      41.196  21.411  27.253  1.00  0.00     0.023 C 
BRANCH  20  21
ATOM     21  C   UNL A   1      41.602  21.296  25.785  1.00  0.00     0.116 C 
BRANCH  21  22
ATOM     22  N   UNL A   1      42.971  20.822  25.613  1.00  0.00    -0.352 N 
ATOM     23  C   UNL A   1      44.135  21.552  25.684  1.00  0.00     0.251 C 
ATOM     24  H   UNL A   1      43.075  19.862  25.420  1.00  0.00     0.163 HD
ATOM     25  O   UNL A   1      45.179  21.112  25.199  1.00  0.00    -0.269 OA
BRANCH  23  26
ATOM     26  C   UNL A   1      44.116  22.878  26.324  1.00  0.00     0.039 A 
ATOM     27  C   UNL A   1      43.674  23.995  25.609  1.00  0.00     0.014 A 
ATOM     28  C   UNL A   1      44.505  22.996  27.658  1.00  0.00     0.014 A 
ATOM     29  C   UNL A   1      43.530  25.213  26.270  1.00  0.00     0.010 A 
ATOM     30  C   UNL A   1      44.293  24.186  28.331  1.00  0.00     0.010 A 
ATOM     31  C   UNL A   1      43.811  25.303  27.643  1.00  0.00    -0.014 A 
BRANCH  31  32
ATOM     32  C   UNL A   1      43.453  26.523  28.376  1.00  0.00     0.031 A 
ATOM     33  C   UNL A   1      44.450  27.634  28.322  1.00  0.00     0.074 A 
ATOM     34  C   UNL A   1      42.216  26.788  28.844  1.00  0.00     0.049 A 
ATOM     35  N   UNL A   1      45.076  28.205  29.300  1.00  0.00    -0.248 NA
ATOM     36  C   UNL A   1      44.842  28.133  26.993  1.00  0.00     0.031 C 
ATOM     37  C   UNL A   1      41.008  25.977  28.672  1.00  0.00     0.029 A 
ATOM     38  N   UNL A   1      41.743  27.923  29.440  1.00  0.00    -0.354 N 
ATOM     39  C   UNL A   1      45.778  29.271  28.739  1.00  0.00     0.074 A 
ATOM     40  C   UNL A   1      45.727  29.078  27.310  1.00  0.00     0.031 C 
ATOM     41  C   UNL A   1      39.921  26.742  28.909  1.00  0.00     0.029 A 
ATOM     42  C   UNL A   1      40.359  28.037  29.401  1.00  0.00     0.049 A 
ATOM     43  H   UNL A   1      42.327  28.597  29.857  1.00  0.00     0.167 HD
ATOM     44  C   UNL A   1      46.145  30.365  29.465  1.00  0.00     0.031 A 
ATOM     45  C   UNL A   1      39.614  29.130  29.695  1.00  0.00     0.031 A 
ATOM     46  C   UNL A   1      46.039  30.142  30.884  1.00  0.00     0.049 A 
ATOM     47  C   UNL A   1      40.439  30.032  30.530  1.00  0.00     0.074 A 
ATOM     48  C   UNL A   1      46.551  29.225  31.780  1.00  0.00     0.029 A 
ATOM     49  N   UNL A   1      45.007  30.772  31.538  1.00  0.00    -0.354 N 
ATOM     50  N   UNL A   1      40.823  29.745  31.741  1.00  0.00    -0.248 NA
ATOM     51  C   UNL A   1      41.146  31.134  29.898  1.00  0.00     0.031 C 
ATOM     52  C   UNL A   1      45.515  29.027  32.741  1.00  0.00     0.029 A 
ATOM     53  C   UNL A   1      44.451  29.863  32.398  1.00  0.00     0.049 A 
ATOM     54  H   UNL A   1      44.721  31.705  31.413  1.00  0.00     0.167 HD
ATOM     55  C   UNL A   1      42.074  30.328  31.864  1.00  0.00     0.074 A 
ATOM     56  C   UNL A   1      42.153  31.280  30.762  1.00  0.00     0.031 C 
ATOM     57  C   UNL A   1      43.030  29.775  32.669  1.00  0.00     0.031 A 
BRANCH  44  58
ATOM     58  C   UNL A   1      46.194  31.771  28.896  1.00  0.00    -0.014 A 
ATOM     59  C   UNL A   1      44.984  32.405  28.536  1.00  0.00     0.010 A 
ATOM     60  C   UNL A   1      47.384  32.355  28.415  1.00  0.00     0.010 A 
ATOM     61  C   UNL A   1      44.965  33.493  27.652  1.00  0.00     0.020 A 
ATOM     62  C   UNL A   1      47.379  33.473  27.576  1.00  0.00     0.020 A 
ATOM     63  C   UNL A   1      46.166  34.001  27.159  1.00  0.00     0.054 A 
BRANCH  63  64
ATOM     64  S   UNL A   1      46.135  35.299  25.897  1.00  0.00     0.124 S 
ATOM     65  O   UNL A   1      45.589  34.581  24.751  1.00  0.00    -0.237 OA
ATOM     66  O   UNL A   1      45.256  36.299  26.497  1.00  0.00    -0.237 OA
ATOM     67  O   UNL A   1      47.537  35.696  25.784  1.00  0.00    -0.744 OA
ENDBRANCH  63  64
ENDBRANCH  44  58
BRANCH  45  68
ATOM     68  C   UNL A   1      38.309  29.532  29.117  1.00  0.00    -0.014 A 
ATOM     69  C   UNL A   1      38.150  29.694  27.730  1.00  0.00     0.010 A 
ATOM     70  C   UNL A   1      37.144  29.513  29.913  1.00  0.00     0.010 A 
ATOM     71  C   UNL A   1      36.871  29.774  27.153  1.00  0.00     0.020 A 
ATOM     72  C   UNL A   1      35.868  29.608  29.349  1.00  0.00     0.020 A 
ATOM     73  C   UNL A   1      35.737  29.714  27.967  1.00  0.00     0.054 A 
BRANCH  73  74
ATOM     74  S   UNL A   1      34.090  29.644  27.204  1.00  0.00     0.124 S 
ATOM     75  O   UNL A   1      34.403  29.308  25.818  1.00  0.00    -0.237 OA
ATOM     76  O   UNL A   1      33.425  28.598  27.975  1.00  0.00    -0.237 OA
ATOM     77  O   UNL A   1      33.559  30.991  27.408  1.00  0.00    -0.744 OA
ENDBRANCH  73  74
ENDBRANCH  45  68
BRANCH  57  78
ATOM     78  C   UNL A   1      42.605  28.790  33.730  1.00  0.00    -0.014 A 
ATOM     79  C   UNL A   1      42.640  27.393  33.561  1.00  0.00     0.010 A 
ATOM     80  C   UNL A   1      42.273  29.302  34.998  1.00  0.00     0.010 A 
ATOM     81  C   UNL A   1      42.314  26.535  34.621  1.00  0.00     0.020 A 
ATOM     82  C   UNL A   1      41.967  28.453  36.063  1.00  0.00     0.020 A 
ATOM     83  C   UNL A   1      41.977  27.071  35.866  1.00  0.00     0.054 A 
BRANCH  83  84
ATOM     84  S   UNL A   1      41.595  25.953  37.242  1.00  0.00     0.124 S 
ATOM     85  O   UNL A   1      42.748  26.127  38.122  1.00  0.00    -0.237 OA
ATOM     86  O   UNL A   1      40.331  26.481  37.749  1.00  0.00    -0.237 OA
ATOM     87  O   UNL A   1      41.497  24.639  36.607  1.00  0.00    -0.744 OA
ENDBRANCH  83  84
ENDBRANCH  57  78
ENDBRANCH  31  32
ENDBRANCH  23  26
ENDBRANCH  21  22
ENDBRANCH  20  21
ENDBRANCH   1  20
TORSDOF 18
ENDMDL
