MODEL 1
REMARK VINA RESULT:     -12.9      0.000      0.000
REMARK SMILES Cc1nn(Cc2ccc(Cl)cc2Cl)c(C)c1NC(=O)c1c(C(=O)NCCCCNC(=O)c2ccc(-c3c4nc(c(-c5ccc(S(=O)(=O)[O-])cc5)c5ccc([nH]5)c(-c5ccc(S(=O)(=O)[O-])cc5)c5nc(c(-c6ccc(S(=O)(=O)[O-])cc6)c6ccc3[nH]6)C=C5)C=C4)cc2)cnn1C
REMARK SMILES IDX 26 1 25 2 24 3 22 4 23 5 21 7 20 8 94 9 92 10 93 11 95 12
REMARK SMILES IDX 18 13 17 14 19 16 16 17 1 18 2 19 3 20 4 21 14 22 15 23 5 24
REMARK SMILES IDX 6 25 7 26 12 27 8 28 11 29 13 30 9 31 10 32 27 33 28 34
REMARK SMILES IDX 29 35 30 36 31 38 32 39 33 40 91 41 34 42 90 43 35 44 36 45
REMARK SMILES IDX 37 46 84 47 38 48 89 49 83 50 85 51 39 52 88 53 82 54 81 55
REMARK SMILES IDX 40 57 70 58 51 59 69 60 52 61 55 62 68 63 86 64 53 65 54 66
REMARK SMILES IDX 67 68 87 69 56 70 41 71 42 72 50 73 43 74 49 75 44 76 45 77
REMARK SMILES IDX 46 78 47 79 48 80 71 81 72 82 80 83 73 84 79 85 74 86 75 87
REMARK SMILES IDX 76 88 77 89 78 90 57 91 58 92 66 93 59 94 65 95 60 96 61 97
REMARK SMILES IDX 62 98 63 99 64 100
REMARK H PARENT 24 6 17 15 29 37 85 56 55 67
REMARK Flexibility Score: inf
ROOT
ATOM      1  C   UNL A   1      37.974  23.839  26.080  1.00  0.00     0.023 C 
ENDROOT
BRANCH   1   2
ATOM      2  C   UNL A   1      36.468  23.817  25.777  1.00  0.00     0.116 C 
BRANCH   2   3
ATOM      3  N   UNL A   1      36.074  23.815  24.377  1.00  0.00    -0.352 N 
ATOM      4  C   UNL A   1      35.121  23.094  23.678  1.00  0.00     0.255 C 
ATOM      5  O   UNL A   1      34.850  23.493  22.546  1.00  0.00    -0.269 OA
ATOM      6  H   UNL A   1      36.583  24.447  23.820  1.00  0.00     0.163 HD
BRANCH   4   7
ATOM      7  C   UNL A   1      34.516  21.885  24.220  1.00  0.00     0.090 A 
ATOM      8  C   UNL A   1      33.316  21.289  23.798  1.00  0.00     0.138 A 
ATOM      9  N   UNL A   1      33.183  20.153  24.566  1.00  0.00    -0.262 N 
ATOM     10  C   UNL A   1      34.905  21.090  25.322  1.00  0.00     0.149 A 
ATOM     11  N   UNL A   1      34.155  20.002  25.482  1.00  0.00    -0.180 NA
ATOM     12  C   UNL A   1      32.244  19.066  24.399  1.00  0.00     0.174 C 
BRANCH   8  13
ATOM     13  C   UNL A   1      32.306  21.693  22.842  1.00  0.00     0.274 C 
ATOM     14  N   UNL A   1      31.529  22.814  23.006  1.00  0.00    -0.317 N 
ATOM     15  H   UNL A   1      30.735  22.843  22.424  1.00  0.00     0.170 HD
ATOM     16  O   UNL A   1      32.099  21.027  21.823  1.00  0.00    -0.267 OA
BRANCH  14  17
ATOM     17  C   UNL A   1      31.659  23.905  23.836  1.00  0.00     0.085 A 
ATOM     18  C   UNL A   1      30.777  22.873  26.085  1.00  0.00     0.071 C 
ATOM     19  C   UNL A   1      31.365  23.936  25.231  1.00  0.00     0.083 A 
ATOM     20  N   UNL A   1      31.744  25.093  25.787  1.00  0.00    -0.175 NA
ATOM     21  N   UNL A   1      32.272  25.778  24.756  1.00  0.00    -0.263 N 
ATOM     22  C   UNL A   1      32.007  25.205  23.535  1.00  0.00     0.060 A 
ATOM     23  C   UNL A   1      32.129  25.962  22.268  1.00  0.00     0.069 C 
BRANCH  21  24
ATOM     24  C   UNL A   1      33.286  26.792  25.018  1.00  0.00     0.181 C 
BRANCH  24  25
ATOM     25  C   UNL A   1      32.724  28.149  25.326  1.00  0.00    -0.008 A 
ATOM     26  C   UNL A   1      31.511  28.512  24.716  1.00  0.00     0.009 A 
ATOM     27  C   UNL A   1      33.332  29.061  26.206  1.00  0.00     0.047 A 
ATOM     28  C   UNL A   1      30.942  29.763  24.946  1.00  0.00     0.021 A 
ATOM     29  C   UNL A   1      32.775  30.324  26.416  1.00  0.00     0.041 A 
ATOM     30  Cl  UNL A   1      34.755  28.691  27.112  1.00  0.00    -0.084 Cl
ATOM     31  C   UNL A   1      31.586  30.670  25.781  1.00  0.00     0.042 A 
ATOM     32  Cl  UNL A   1      30.909  32.229  26.038  1.00  0.00    -0.084 Cl
ENDBRANCH  24  25
ENDBRANCH  21  24
ENDBRANCH  14  17
ENDBRANCH   8  13
ENDBRANCH   4   7
ENDBRANCH   2   3
ENDBRANCH   1   2
BRANCH   1  33
ATOM     33  C   UNL A   1      38.732  22.511  26.155  1.00  0.00     0.023 C 
BRANCH  33  34
ATOM     34  C   UNL A   1      39.979  22.558  27.019  1.00  0.00     0.116 C 
BRANCH  34  35
ATOM     35  N   UNL A   1      41.184  22.197  26.273  1.00  0.00    -0.352 N 
ATOM     36  C   UNL A   1      42.145  23.031  25.729  1.00  0.00     0.251 C 
ATOM     37  H   UNL A   1      41.331  21.233  26.140  1.00  0.00     0.163 HD
ATOM     38  O   UNL A   1      42.905  22.634  24.866  1.00  0.00    -0.269 OA
BRANCH  36  39
ATOM     39  C   UNL A   1      42.205  24.422  26.215  1.00  0.00     0.039 A 
ATOM     40  C   UNL A   1      41.447  25.425  25.612  1.00  0.00     0.014 A 
ATOM     41  C   UNL A   1      42.963  24.680  27.353  1.00  0.00     0.014 A 
ATOM     42  C   UNL A   1      41.373  26.668  26.236  1.00  0.00     0.010 A 
ATOM     43  C   UNL A   1      42.754  25.844  28.049  1.00  0.00     0.010 A 
ATOM     44  C   UNL A   1      41.997  26.862  27.480  1.00  0.00    -0.014 A 
BRANCH  44  45
ATOM     45  C   UNL A   1      41.763  28.092  28.236  1.00  0.00     0.031 A 
ATOM     46  C   UNL A   1      42.795  29.155  28.057  1.00  0.00     0.074 A 
ATOM     47  C   UNL A   1      40.617  28.367  28.893  1.00  0.00     0.049 A 
ATOM     48  N   UNL A   1      43.650  29.577  28.928  1.00  0.00    -0.248 NA
ATOM     49  C   UNL A   1      42.978  29.730  26.714  1.00  0.00     0.031 C 
ATOM     50  C   UNL A   1      39.359  27.611  28.916  1.00  0.00     0.029 A 
ATOM     51  N   UNL A   1      40.299  29.483  29.601  1.00  0.00    -0.354 N 
ATOM     52  C   UNL A   1      44.342  30.620  28.317  1.00  0.00     0.074 A 
ATOM     53  C   UNL A   1      44.011  30.552  26.915  1.00  0.00     0.031 C 
ATOM     54  C   UNL A   1      38.362  28.405  29.363  1.00  0.00     0.029 A 
ATOM     55  C   UNL A   1      38.941  29.646  29.839  1.00  0.00     0.049 A 
ATOM     56  H   UNL A   1      40.976  30.124  29.919  1.00  0.00     0.167 HD
ATOM     57  C   UNL A   1      44.954  31.601  29.038  1.00  0.00     0.031 A 
ATOM     58  C   UNL A   1      38.333  30.743  30.356  1.00  0.00     0.031 A 
ATOM     59  C   UNL A   1      45.088  31.246  30.429  1.00  0.00     0.049 A 
ATOM     60  C   UNL A   1      39.378  31.507  31.084  1.00  0.00     0.074 A 
ATOM     61  C   UNL A   1      45.666  30.186  31.103  1.00  0.00     0.029 A 
ATOM     62  N   UNL A   1      44.210  31.818  31.321  1.00  0.00    -0.354 N 
ATOM     63  N   UNL A   1      39.983  31.061  32.151  1.00  0.00    -0.248 NA
ATOM     64  C   UNL A   1      40.078  32.560  30.365  1.00  0.00     0.031 C 
ATOM     65  C   UNL A   1      44.734  29.864  32.134  1.00  0.00     0.029 A 
ATOM     66  C   UNL A   1      43.696  30.796  32.080  1.00  0.00     0.049 A 
ATOM     67  H   UNL A   1      43.994  32.775  31.400  1.00  0.00     0.167 HD
ATOM     68  C   UNL A   1      41.305  31.455  32.003  1.00  0.00     0.074 A 
ATOM     69  C   UNL A   1      41.283  32.449  30.930  1.00  0.00     0.031 C 
ATOM     70  C   UNL A   1      42.332  30.750  32.566  1.00  0.00     0.031 A 
BRANCH  57  71
ATOM     71  C   UNL A   1      45.088  33.026  28.559  1.00  0.00    -0.014 A 
ATOM     72  C   UNL A   1      46.305  33.709  28.750  1.00  0.00     0.010 A 
ATOM     73  C   UNL A   1      43.976  33.799  28.163  1.00  0.00     0.010 A 
ATOM     74  C   UNL A   1      46.389  35.102  28.598  1.00  0.00     0.020 A 
ATOM     75  C   UNL A   1      44.059  35.177  27.965  1.00  0.00     0.020 A 
ATOM     76  C   UNL A   1      45.261  35.826  28.213  1.00  0.00     0.054 A 
BRANCH  76  77
ATOM     77  S   UNL A   1      45.356  37.629  28.096  1.00  0.00     0.124 S 
ATOM     78  O   UNL A   1      46.446  37.933  29.018  1.00  0.00    -0.237 OA
ATOM     79  O   UNL A   1      45.646  37.832  26.680  1.00  0.00    -0.237 OA
ATOM     80  O   UNL A   1      44.030  38.069  28.523  1.00  0.00    -0.744 OA
ENDBRANCH  76  77
ENDBRANCH  57  71
BRANCH  58  81
ATOM     81  C   UNL A   1      37.026  31.327  29.963  1.00  0.00    -0.014 A 
ATOM     82  C   UNL A   1      36.104  31.742  30.943  1.00  0.00     0.010 A 
ATOM     83  C   UNL A   1      36.800  31.750  28.635  1.00  0.00     0.010 A 
ATOM     84  C   UNL A   1      35.053  32.618  30.624  1.00  0.00     0.020 A 
ATOM     85  C   UNL A   1      35.748  32.612  28.307  1.00  0.00     0.020 A 
ATOM     86  C   UNL A   1      34.898  33.070  29.312  1.00  0.00     0.054 A 
BRANCH  86  87
ATOM     87  S   UNL A   1      33.679  34.369  28.952  1.00  0.00     0.124 S 
ATOM     88  O   UNL A   1      32.751  33.684  28.056  1.00  0.00    -0.237 OA
ATOM     89  O   UNL A   1      33.158  34.689  30.277  1.00  0.00    -0.237 OA
ATOM     90  O   UNL A   1      34.475  35.427  28.331  1.00  0.00    -0.744 OA
ENDBRANCH  86  87
ENDBRANCH  58  81
BRANCH  70  91
ATOM     91  C   UNL A   1      42.024  29.678  33.588  1.00  0.00    -0.014 A 
ATOM     92  C   UNL A   1      41.675  28.352  33.264  1.00  0.00     0.010 A 
ATOM     93  C   UNL A   1      42.261  29.989  34.940  1.00  0.00     0.010 A 
ATOM     94  C   UNL A   1      41.548  27.375  34.267  1.00  0.00     0.020 A 
ATOM     95  C   UNL A   1      42.156  29.019  35.940  1.00  0.00     0.020 A 
ATOM     96  C   UNL A   1      41.791  27.717  35.600  1.00  0.00     0.054 A 
BRANCH  96  97
ATOM     97  S   UNL A   1      41.674  26.444  36.890  1.00  0.00     0.124 S 
ATOM     98  O   UNL A   1      40.421  26.782  37.559  1.00  0.00    -0.237 OA
ATOM     99  O   UNL A   1      41.662  25.201  36.121  1.00  0.00    -0.237 OA
ATOM    100  O   UNL A   1      42.878  26.651  37.695  1.00  0.00    -0.744 OA
ENDBRANCH  96  97
ENDBRANCH  70  91
ENDBRANCH  44  45
ENDBRANCH  36  39
ENDBRANCH  34  35
ENDBRANCH  33  34
ENDBRANCH   1  33
TORSDOF 18
ENDMDL
MODEL 2
REMARK VINA RESULT:     -12.5      1.626      2.391
REMARK SMILES Cc1nn(Cc2ccc(Cl)cc2Cl)c(C)c1NC(=O)c1c(C(=O)NCCCCNC(=O)c2ccc(-c3c4nc(c(-c5ccc(S(=O)(=O)[O-])cc5)c5ccc([nH]5)c(-c5ccc(S(=O)(=O)[O-])cc5)c5nc(c(-c6ccc(S(=O)(=O)[O-])cc6)c6ccc3[nH]6)C=C5)C=C4)cc2)cnn1C
REMARK SMILES IDX 26 1 25 2 24 3 22 4 23 5 21 7 20 8 94 9 92 10 93 11 95 12
REMARK SMILES IDX 18 13 17 14 19 16 16 17 1 18 2 19 3 20 4 21 14 22 15 23 5 24
REMARK SMILES IDX 6 25 7 26 12 27 8 28 11 29 13 30 9 31 10 32 27 33 28 34
REMARK SMILES IDX 29 35 30 36 31 38 32 39 33 40 91 41 34 42 90 43 35 44 36 45
REMARK SMILES IDX 37 46 84 47 38 48 89 49 83 50 85 51 39 52 88 53 82 54 81 55
REMARK SMILES IDX 40 57 70 58 51 59 69 60 52 61 55 62 68 63 86 64 53 65 54 66
REMARK SMILES IDX 67 68 87 69 56 70 41 71 42 72 50 73 43 74 49 75 44 76 45 77
REMARK SMILES IDX 46 78 47 79 48 80 71 81 72 82 80 83 73 84 79 85 74 86 75 87
REMARK SMILES IDX 76 88 77 89 78 90 57 91 58 92 66 93 59 94 65 95 60 96 61 97
REMARK SMILES IDX 62 98 63 99 64 100
REMARK H PARENT 24 6 17 15 29 37 85 56 55 67
REMARK Flexibility Score: inf
ROOT
ATOM      1  C   UNL A   1      37.516  22.959  25.263  1.00  0.00     0.023 C 
ENDROOT
BRANCH   1   2
ATOM      2  C   UNL A   1      36.348  22.448  24.408  1.00  0.00     0.116 C 
BRANCH   2   3
ATOM      3  N   UNL A   1      35.797  23.365  23.421  1.00  0.00    -0.352 N 
ATOM      4  C   UNL A   1      34.505  23.792  23.164  1.00  0.00     0.255 C 
ATOM      5  O   UNL A   1      34.385  24.765  22.423  1.00  0.00    -0.269 OA
ATOM      6  H   UNL A   1      36.472  23.756  22.822  1.00  0.00     0.163 HD
BRANCH   4   7
ATOM      7  C   UNL A   1      33.341  23.088  23.686  1.00  0.00     0.090 A 
ATOM      8  C   UNL A   1      32.783  23.232  24.967  1.00  0.00     0.138 A 
ATOM      9  N   UNL A   1      31.680  22.406  24.979  1.00  0.00    -0.262 N 
ATOM     10  C   UNL A   1      32.568  22.056  23.107  1.00  0.00     0.149 A 
ATOM     11  N   UNL A   1      31.519  21.702  23.845  1.00  0.00    -0.180 NA
ATOM     12  C   UNL A   1      30.628  22.333  25.968  1.00  0.00     0.174 C 
BRANCH   8  13
ATOM     13  C   UNL A   1      33.197  23.977  26.137  1.00  0.00     0.274 C 
ATOM     14  N   UNL A   1      33.015  25.333  26.263  1.00  0.00    -0.317 N 
ATOM     15  H   UNL A   1      33.546  25.746  26.982  1.00  0.00     0.170 HD
ATOM     16  O   UNL A   1      33.746  23.408  27.086  1.00  0.00    -0.267 OA
BRANCH  14  17
ATOM     17  C   UNL A   1      32.225  26.218  25.565  1.00  0.00     0.085 A 
ATOM     18  C   UNL A   1      34.050  27.934  24.773  1.00  0.00     0.071 C 
ATOM     19  C   UNL A   1      32.679  27.368  24.855  1.00  0.00     0.083 A 
ATOM     20  N   UNL A   1      31.690  27.934  24.151  1.00  0.00    -0.175 NA
ATOM     21  N   UNL A   1      30.630  27.147  24.412  1.00  0.00    -0.263 N 
ATOM     22  C   UNL A   1      30.851  26.269  25.448  1.00  0.00     0.060 A 
ATOM     23  C   UNL A   1      29.739  25.604  26.165  1.00  0.00     0.069 C 
BRANCH  21  24
ATOM     24  C   UNL A   1      29.551  27.057  23.437  1.00  0.00     0.181 C 
BRANCH  24  25
ATOM     25  C   UNL A   1      29.112  28.384  22.891  1.00  0.00    -0.008 A 
ATOM     26  C   UNL A   1      30.047  29.134  22.155  1.00  0.00     0.009 A 
ATOM     27  C   UNL A   1      27.818  28.904  23.057  1.00  0.00     0.047 A 
ATOM     28  C   UNL A   1      29.711  30.381  21.634  1.00  0.00     0.021 A 
ATOM     29  C   UNL A   1      27.489  30.165  22.556  1.00  0.00     0.041 A 
ATOM     30  Cl  UNL A   1      26.544  28.032  23.831  1.00  0.00    -0.084 Cl
ATOM     31  C   UNL A   1      28.439  30.900  21.852  1.00  0.00     0.042 A 
ATOM     32  Cl  UNL A   1      28.031  32.454  21.244  1.00  0.00    -0.084 Cl
ENDBRANCH  24  25
ENDBRANCH  21  24
ENDBRANCH  14  17
ENDBRANCH   8  13
ENDBRANCH   4   7
ENDBRANCH   2   3
ENDBRANCH   1   2
BRANCH   1  33
ATOM     33  C   UNL A   1      38.539  21.953  25.796  1.00  0.00     0.023 C 
BRANCH  33  34
ATOM     34  C   UNL A   1      39.714  22.588  26.517  1.00  0.00     0.116 C 
BRANCH  34  35
ATOM     35  N   UNL A   1      41.000  22.095  26.024  1.00  0.00    -0.352 N 
ATOM     36  C   UNL A   1      42.144  22.815  25.729  1.00  0.00     0.251 C 
ATOM     37  H   UNL A   1      41.059  21.123  25.883  1.00  0.00     0.163 HD
ATOM     38  O   UNL A   1      43.018  22.342  25.027  1.00  0.00    -0.269 OA
BRANCH  36  39
ATOM     39  C   UNL A   1      42.261  24.178  26.277  1.00  0.00     0.039 A 
ATOM     40  C   UNL A   1      41.714  25.270  25.603  1.00  0.00     0.014 A 
ATOM     41  C   UNL A   1      42.844  24.327  27.531  1.00  0.00     0.014 A 
ATOM     42  C   UNL A   1      41.662  26.497  26.259  1.00  0.00     0.010 A 
ATOM     43  C   UNL A   1      42.640  25.488  28.234  1.00  0.00     0.010 A 
ATOM     44  C   UNL A   1      42.091  26.594  27.594  1.00  0.00    -0.014 A 
BRANCH  44  45
ATOM     45  C   UNL A   1      41.858  27.821  28.354  1.00  0.00     0.031 A 
ATOM     46  C   UNL A   1      42.898  28.878  28.189  1.00  0.00     0.074 A 
ATOM     47  C   UNL A   1      40.708  28.100  29.003  1.00  0.00     0.049 A 
ATOM     48  N   UNL A   1      43.749  29.291  29.069  1.00  0.00    -0.248 NA
ATOM     49  C   UNL A   1      43.096  29.459  26.849  1.00  0.00     0.031 C 
ATOM     50  C   UNL A   1      39.446  27.352  29.012  1.00  0.00     0.029 A 
ATOM     51  N   UNL A   1      40.392  29.215  29.714  1.00  0.00    -0.354 N 
ATOM     52  C   UNL A   1      44.452  30.332  28.468  1.00  0.00     0.074 A 
ATOM     53  C   UNL A   1      44.132  30.273  27.062  1.00  0.00     0.031 C 
ATOM     54  C   UNL A   1      38.451  28.151  29.456  1.00  0.00     0.029 A 
ATOM     55  C   UNL A   1      39.033  29.386  29.942  1.00  0.00     0.049 A 
ATOM     56  H   UNL A   1      41.071  29.850  30.040  1.00  0.00     0.167 HD
ATOM     57  C   UNL A   1      45.065  31.306  29.198  1.00  0.00     0.031 A 
ATOM     58  C   UNL A   1      38.429  30.484  30.460  1.00  0.00     0.031 A 
ATOM     59  C   UNL A   1      45.186  30.943  30.588  1.00  0.00     0.049 A 
ATOM     60  C   UNL A   1      39.473  31.238  31.200  1.00  0.00     0.074 A 
ATOM     61  C   UNL A   1      45.751  29.876  31.261  1.00  0.00     0.029 A 
ATOM     62  N   UNL A   1      44.305  31.517  31.476  1.00  0.00    -0.354 N 
ATOM     63  N   UNL A   1      40.066  30.782  32.269  1.00  0.00    -0.248 NA
ATOM     64  C   UNL A   1      40.185  32.290  30.491  1.00  0.00     0.031 C 
ATOM     65  C   UNL A   1      44.810  29.555  32.284  1.00  0.00     0.029 A 
ATOM     66  C   UNL A   1      43.778  30.495  32.227  1.00  0.00     0.049 A 
ATOM     67  H   UNL A   1      44.094  32.475  31.558  1.00  0.00     0.167 HD
ATOM     68  C   UNL A   1      41.392  31.169  32.134  1.00  0.00     0.074 A 
ATOM     69  C   UNL A   1      41.385  32.168  31.065  1.00  0.00     0.031 C 
ATOM     70  C   UNL A   1      42.410  30.455  32.701  1.00  0.00     0.031 A 
BRANCH  57  71
ATOM     71  C   UNL A   1      45.213  32.732  28.727  1.00  0.00    -0.014 A 
ATOM     72  C   UNL A   1      46.471  33.360  28.802  1.00  0.00     0.010 A 
ATOM     73  C   UNL A   1      44.101  33.557  28.457  1.00  0.00     0.010 A 
ATOM     74  C   UNL A   1      46.600  34.750  28.661  1.00  0.00     0.020 A 
ATOM     75  C   UNL A   1      44.224  34.935  28.269  1.00  0.00     0.020 A 
ATOM     76  C   UNL A   1      45.471  35.528  28.403  1.00  0.00     0.054 A 
BRANCH  76  77
ATOM     77  S   UNL A   1      45.632  37.327  28.301  1.00  0.00     0.124 S 
ATOM     78  O   UNL A   1      46.883  37.558  29.017  1.00  0.00    -0.237 OA
ATOM     79  O   UNL A   1      45.675  37.552  26.859  1.00  0.00    -0.237 OA
ATOM     80  O   UNL A   1      44.427  37.816  28.966  1.00  0.00    -0.744 OA
ENDBRANCH  76  77
ENDBRANCH  57  71
BRANCH  58  81
ATOM     81  C   UNL A   1      37.128  31.079  30.059  1.00  0.00    -0.014 A 
ATOM     82  C   UNL A   1      36.285  31.667  31.020  1.00  0.00     0.010 A 
ATOM     83  C   UNL A   1      36.845  31.333  28.700  1.00  0.00     0.010 A 
ATOM     84  C   UNL A   1      35.257  32.547  30.641  1.00  0.00     0.020 A 
ATOM     85  C   UNL A   1      35.816  32.199  28.313  1.00  0.00     0.020 A 
ATOM     86  C   UNL A   1      35.047  32.828  29.289  1.00  0.00     0.054 A 
BRANCH  86  87
ATOM     87  S   UNL A   1      33.868  34.131  28.821  1.00  0.00     0.124 S 
ATOM     88  O   UNL A   1      33.278  34.492  30.106  1.00  0.00    -0.237 OA
ATOM     89  O   UNL A   1      34.734  35.138  28.216  1.00  0.00    -0.237 OA
ATOM     90  O   UNL A   1      32.963  33.457  27.889  1.00  0.00    -0.744 OA
ENDBRANCH  86  87
ENDBRANCH  58  81
BRANCH  70  91
ATOM     91  C   UNL A   1      42.086  29.380  33.716  1.00  0.00    -0.014 A 
ATOM     92  C   UNL A   1      41.668  28.076  33.382  1.00  0.00     0.010 A 
ATOM     93  C   UNL A   1      42.381  29.657  35.063  1.00  0.00     0.010 A 
ATOM     94  C   UNL A   1      41.530  27.089  34.373  1.00  0.00     0.020 A 
ATOM     95  C   UNL A   1      42.264  28.675  36.051  1.00  0.00     0.020 A 
ATOM     96  C   UNL A   1      41.830  27.397  35.703  1.00  0.00     0.054 A 
BRANCH  96  97
ATOM     97  S   UNL A   1      41.698  26.108  36.975  1.00  0.00     0.124 S 
ATOM     98  O   UNL A   1      40.347  26.307  37.491  1.00  0.00    -0.237 OA
ATOM     99  O   UNL A   1      41.907  24.877  36.216  1.00  0.00    -0.237 OA
ATOM    100  O   UNL A   1      42.771  26.434  37.915  1.00  0.00    -0.744 OA
ENDBRANCH  96  97
ENDBRANCH  70  91
ENDBRANCH  44  45
ENDBRANCH  36  39
ENDBRANCH  34  35
ENDBRANCH  33  34
ENDBRANCH   1  33
TORSDOF 18
ENDMDL
MODEL 3
REMARK VINA RESULT:     -11.9      3.283      9.467
REMARK SMILES Cc1nn(Cc2ccc(Cl)cc2Cl)c(C)c1NC(=O)c1c(C(=O)NCCCCNC(=O)c2ccc(-c3c4nc(c(-c5ccc(S(=O)(=O)[O-])cc5)c5ccc([nH]5)c(-c5ccc(S(=O)(=O)[O-])cc5)c5nc(c(-c6ccc(S(=O)(=O)[O-])cc6)c6ccc3[nH]6)C=C5)C=C4)cc2)cnn1C
REMARK SMILES IDX 26 1 25 2 24 3 22 4 23 5 21 7 20 8 94 9 92 10 93 11 95 12
REMARK SMILES IDX 18 13 17 14 19 16 16 17 1 18 2 19 3 20 4 21 14 22 15 23 5 24
REMARK SMILES IDX 6 25 7 26 12 27 8 28 11 29 13 30 9 31 10 32 27 33 28 34
REMARK SMILES IDX 29 35 30 36 31 38 32 39 33 40 91 41 34 42 90 43 35 44 36 45
REMARK SMILES IDX 37 46 84 47 38 48 89 49 83 50 85 51 39 52 88 53 82 54 81 55
REMARK SMILES IDX 40 57 70 58 51 59 69 60 52 61 55 62 68 63 86 64 53 65 54 66
REMARK SMILES IDX 67 68 87 69 56 70 41 71 42 72 50 73 43 74 49 75 44 76 45 77
REMARK SMILES IDX 46 78 47 79 48 80 71 81 72 82 80 83 73 84 79 85 74 86 75 87
REMARK SMILES IDX 76 88 77 89 78 90 57 91 58 92 66 93 59 94 65 95 60 96 61 97
REMARK SMILES IDX 62 98 63 99 64 100
REMARK H PARENT 24 6 17 15 29 37 85 56 55 67
REMARK Flexibility Score: inf
ROOT
ATOM      1  C   UNL A   1      32.278  31.167  26.740  1.00  0.00     0.023 C 
ENDROOT
BRANCH   1   2
ATOM      2  C   UNL A   1      31.786  30.047  25.812  1.00  0.00     0.116 C 
BRANCH   2   3
ATOM      3  N   UNL A   1      31.440  28.776  26.432  1.00  0.00    -0.352 N 
ATOM      4  C   UNL A   1      31.776  27.468  26.127  1.00  0.00     0.255 C 
ATOM      5  O   UNL A   1      31.531  26.623  26.987  1.00  0.00    -0.269 OA
ATOM      6  H   UNL A   1      30.855  28.865  27.218  1.00  0.00     0.163 HD
BRANCH   4   7
ATOM      7  C   UNL A   1      32.327  27.094  24.831  1.00  0.00     0.090 A 
ATOM      8  C   UNL A   1      31.650  26.426  23.798  1.00  0.00     0.138 A 
ATOM      9  N   UNL A   1      32.558  26.339  22.765  1.00  0.00    -0.262 N 
ATOM     10  C   UNL A   1      33.646  27.211  24.337  1.00  0.00     0.149 A 
ATOM     11  N   UNL A   1      33.771  26.835  23.066  1.00  0.00    -0.180 NA
ATOM     12  C   UNL A   1      32.319  25.938  21.395  1.00  0.00     0.174 C 
BRANCH   8  13
ATOM     13  C   UNL A   1      30.330  25.836  23.712  1.00  0.00     0.274 C 
ATOM     14  N   UNL A   1      30.100  24.492  23.875  1.00  0.00    -0.317 N 
ATOM     15  H   UNL A   1      29.217  24.192  23.560  1.00  0.00     0.170 HD
ATOM     16  O   UNL A   1      29.340  26.537  23.481  1.00  0.00    -0.267 OA
BRANCH  14  17
ATOM     17  C   UNL A   1      30.883  23.487  24.399  1.00  0.00     0.085 A 
ATOM     18  C   UNL A   1      30.167  23.621  26.923  1.00  0.00     0.071 C 
ATOM     19  C   UNL A   1      30.894  23.056  25.758  1.00  0.00     0.083 A 
ATOM     20  N   UNL A   1      31.644  21.959  25.919  1.00  0.00    -0.175 NA
ATOM     21  N   UNL A   1      32.094  21.702  24.677  1.00  0.00    -0.263 N 
ATOM     22  C   UNL A   1      31.870  22.735  23.797  1.00  0.00     0.060 A 
ATOM     23  C   UNL A   1      32.609  22.853  22.520  1.00  0.00     0.069 C 
BRANCH  21  24
ATOM     24  C   UNL A   1      32.442  20.334  24.312  1.00  0.00     0.181 C 
BRANCH  24  25
ATOM     25  C   UNL A   1      33.888  19.996  24.530  1.00  0.00    -0.008 A 
ATOM     26  C   UNL A   1      34.777  21.051  24.798  1.00  0.00     0.009 A 
ATOM     27  C   UNL A   1      34.393  18.684  24.502  1.00  0.00     0.047 A 
ATOM     28  C   UNL A   1      36.135  20.809  24.994  1.00  0.00     0.021 A 
ATOM     29  C   UNL A   1      35.757  18.445  24.673  1.00  0.00     0.041 A 
ATOM     30  Cl  UNL A   1      33.389  17.293  24.306  1.00  0.00    -0.084 Cl
ATOM     31  C   UNL A   1      36.622  19.508  24.912  1.00  0.00     0.042 A 
ATOM     32  Cl  UNL A   1      38.302  19.207  25.115  1.00  0.00    -0.084 Cl
ENDBRANCH  24  25
ENDBRANCH  21  24
ENDBRANCH  14  17
ENDBRANCH   8  13
ENDBRANCH   4   7
ENDBRANCH   2   3
ENDBRANCH   1   2
BRANCH   1  33
ATOM     33  C   UNL A   1      33.539  30.934  27.577  1.00  0.00     0.023 C 
BRANCH  33  34
ATOM     34  C   UNL A   1      34.308  32.201  27.902  1.00  0.00     0.116 C 
BRANCH  34  35
ATOM     35  N   UNL A   1      34.259  32.529  29.327  1.00  0.00    -0.352 N 
ATOM     36  C   UNL A   1      35.098  32.100  30.341  1.00  0.00     0.251 C 
ATOM     37  H   UNL A   1      33.533  33.135  29.601  1.00  0.00     0.163 HD
ATOM     38  O   UNL A   1      34.761  32.176  31.507  1.00  0.00    -0.269 OA
BRANCH  36  39
ATOM     39  C   UNL A   1      36.404  31.532  29.961  1.00  0.00     0.039 A 
ATOM     40  C   UNL A   1      37.521  32.351  29.797  1.00  0.00     0.014 A 
ATOM     41  C   UNL A   1      36.509  30.148  29.869  1.00  0.00     0.014 A 
ATOM     42  C   UNL A   1      38.769  31.751  29.650  1.00  0.00     0.010 A 
ATOM     43  C   UNL A   1      37.751  29.565  29.894  1.00  0.00     0.010 A 
ATOM     44  C   UNL A   1      38.886  30.354  29.739  1.00  0.00    -0.014 A 
BRANCH  44  45
ATOM     45  C   UNL A   1      40.207  29.728  29.786  1.00  0.00     0.031 A 
ATOM     46  C   UNL A   1      40.693  29.370  31.151  1.00  0.00     0.074 A 
ATOM     47  C   UNL A   1      40.880  29.303  28.697  1.00  0.00     0.049 A 
ATOM     48  N   UNL A   1      41.665  29.910  31.808  1.00  0.00    -0.248 NA
ATOM     49  C   UNL A   1      39.929  28.376  31.925  1.00  0.00     0.031 C 
ATOM     50  C   UNL A   1      40.439  29.254  27.298  1.00  0.00     0.029 A 
ATOM     51  N   UNL A   1      42.095  28.695  28.641  1.00  0.00    -0.354 N 
ATOM     52  C   UNL A   1      41.779  29.188  32.993  1.00  0.00     0.074 A 
ATOM     53  C   UNL A   1      40.586  28.381  33.087  1.00  0.00     0.031 C 
ATOM     54  C   UNL A   1      41.242  28.421  26.600  1.00  0.00     0.029 A 
ATOM     55  C   UNL A   1      42.356  28.041  27.445  1.00  0.00     0.049 A 
ATOM     56  H   UNL A   1      42.737  28.717  29.388  1.00  0.00     0.167 HD
ATOM     57  C   UNL A   1      42.945  29.133  33.697  1.00  0.00     0.031 A 
ATOM     58  C   UNL A   1      43.399  27.213  27.184  1.00  0.00     0.031 A 
ATOM     59  C   UNL A   1      43.880  30.144  33.272  1.00  0.00     0.049 A 
ATOM     60  C   UNL A   1      44.454  27.527  28.181  1.00  0.00     0.074 A 
ATOM     61  C   UNL A   1      43.833  31.522  33.174  1.00  0.00     0.029 A 
ATOM     62  N   UNL A   1      44.921  29.750  32.463  1.00  0.00    -0.354 N 
ATOM     63  N   UNL A   1      45.081  28.670  28.227  1.00  0.00    -0.248 NA
ATOM     64  C   UNL A   1      44.486  26.747  29.408  1.00  0.00     0.031 C 
ATOM     65  C   UNL A   1      44.472  31.817  31.933  1.00  0.00     0.029 A 
ATOM     66  C   UNL A   1      44.945  30.617  31.398  1.00  0.00     0.049 A 
ATOM     67  H   UNL A   1      45.532  28.994  32.619  1.00  0.00     0.167 HD
ATOM     68  C   UNL A   1      45.214  28.950  29.580  1.00  0.00     0.074 A 
ATOM     69  C   UNL A   1      44.907  27.689  30.256  1.00  0.00     0.031 C 
ATOM     70  C   UNL A   1      45.288  30.233  30.044  1.00  0.00     0.031 A 
BRANCH  57  71
ATOM     71  C   UNL A   1      43.375  27.931  34.503  1.00  0.00    -0.014 A 
ATOM     72  C   UNL A   1      42.968  27.816  35.846  1.00  0.00     0.010 A 
ATOM     73  C   UNL A   1      44.380  27.045  34.061  1.00  0.00     0.010 A 
ATOM     74  C   UNL A   1      43.572  26.892  36.713  1.00  0.00     0.020 A 
ATOM     75  C   UNL A   1      44.955  26.091  34.902  1.00  0.00     0.020 A 
ATOM     76  C   UNL A   1      44.567  26.042  36.233  1.00  0.00     0.054 A 
BRANCH  76  77
ATOM     77  S   UNL A   1      45.397  24.908  37.374  1.00  0.00     0.124 S 
ATOM     78  O   UNL A   1      44.908  23.611  36.917  1.00  0.00    -0.237 OA
ATOM     79  O   UNL A   1      46.807  25.184  37.113  1.00  0.00    -0.237 OA
ATOM     80  O   UNL A   1      44.917  25.333  38.687  1.00  0.00    -0.744 OA
ENDBRANCH  76  77
ENDBRANCH  57  71
BRANCH  58  81
ATOM     81  C   UNL A   1      43.388  25.965  26.378  1.00  0.00    -0.014 A 
ATOM     82  C   UNL A   1      44.374  25.737  25.401  1.00  0.00     0.010 A 
ATOM     83  C   UNL A   1      42.588  24.869  26.767  1.00  0.00     0.010 A 
ATOM     84  C   UNL A   1      44.612  24.445  24.900  1.00  0.00     0.020 A 
ATOM     85  C   UNL A   1      42.810  23.582  26.263  1.00  0.00     0.020 A 
ATOM     86  C   UNL A   1      43.845  23.371  25.355  1.00  0.00     0.054 A 
BRANCH  86  87
ATOM     87  S   UNL A   1      44.302  21.679  24.872  1.00  0.00     0.124 S 
ATOM     88  O   UNL A   1      45.529  21.460  25.631  1.00  0.00    -0.237 OA
ATOM     89  O   UNL A   1      43.143  20.903  25.304  1.00  0.00    -0.237 OA
ATOM     90  O   UNL A   1      44.476  21.770  23.423  1.00  0.00    -0.744 OA
ENDBRANCH  86  87
ENDBRANCH  58  81
BRANCH  70  91
ATOM     91  C   UNL A   1      45.501  31.366  29.063  1.00  0.00    -0.014 A 
ATOM     92  C   UNL A   1      46.766  31.813  28.635  1.00  0.00     0.010 A 
ATOM     93  C   UNL A   1      44.361  31.886  28.423  1.00  0.00     0.010 A 
ATOM     94  C   UNL A   1      46.883  32.769  27.610  1.00  0.00     0.020 A 
ATOM     95  C   UNL A   1      44.470  32.822  27.391  1.00  0.00     0.020 A 
ATOM     96  C   UNL A   1      45.731  33.267  26.995  1.00  0.00     0.054 A 
BRANCH  96  97
ATOM     97  S   UNL A   1      45.883  34.465  25.639  1.00  0.00     0.124 S 
ATOM     98  O   UNL A   1      45.390  35.698  26.247  1.00  0.00    -0.237 OA
ATOM     99  O   UNL A   1      47.313  34.439  25.340  1.00  0.00    -0.237 OA
ATOM    100  O   UNL A   1      45.029  33.913  24.587  1.00  0.00    -0.744 OA
ENDBRANCH  96  97
ENDBRANCH  70  91
ENDBRANCH  44  45
ENDBRANCH  36  39
ENDBRANCH  34  35
ENDBRANCH  33  34
ENDBRANCH   1  33
TORSDOF 18
ENDMDL
