MODEL 1
REMARK VINA RESULT:     -12.0      0.000      0.000
REMARK SMILES Cc1ccc(C)c([C@@H](C)[C@](C)(O)C(=O)NCCCCNC(=O)c2ccc(-c3c4nc(c(-c5ccc(S(=O)(=O)[O-])cc5)c5ccc([nH]5)c(-c5ccc(S(=O)(=O)[O-])cc5)c5nc(c(-c6ccc(S(=O)(=O)[O-])cc6)c6ccc3[nH]6)C=C5)C=C4)cc2)c1
REMARK SMILES IDX 18 1 17 2 16 3 15 4 13 5 14 6 10 8 11 9 8 10 9 11 7 12 1 13
REMARK SMILES IDX 2 14 3 15 83 16 4 17 5 18 6 19 12 20 19 22 20 23 21 24 22 26
REMARK SMILES IDX 23 27 24 28 82 29 25 30 81 31 26 32 27 33 28 34 75 35 29 36
REMARK SMILES IDX 80 37 74 38 76 39 30 40 79 41 73 42 72 43 31 45 61 46 42 47
REMARK SMILES IDX 60 48 43 49 46 50 59 51 77 52 44 53 45 54 58 56 78 57 47 58
REMARK SMILES IDX 32 59 33 60 41 61 34 62 40 63 35 64 36 65 37 66 38 67 39 68
REMARK SMILES IDX 62 69 63 70 71 71 64 72 70 73 65 74 66 75 67 76 68 77 69 78
REMARK SMILES IDX 48 79 49 80 57 81 50 82 56 83 51 84 52 85 53 86 54 87 55 88
REMARK H PARENT 15 7 12 21 20 25 76 44 46 55
REMARK Flexibility Score: inf
ROOT
ATOM      1  C   UNL A   1      38.681  21.359  25.720  1.00  0.00     0.023 C 
ENDROOT
BRANCH   1   2
ATOM      2  C   UNL A   1      37.666  20.384  25.100  1.00  0.00     0.023 C 
BRANCH   2   3
ATOM      3  C   UNL A   1      36.220  20.874  25.015  1.00  0.00     0.116 C 
BRANCH   3   4
ATOM      4  N   UNL A   1      35.230  19.819  25.083  1.00  0.00    -0.354 N 
ATOM      5  C   UNL A   1      33.862  19.855  25.125  1.00  0.00     0.252 C 
ATOM      6  O   UNL A   1      33.313  18.743  25.133  1.00  0.00    -0.272 OA
ATOM      7  H   UNL A   1      35.609  18.911  25.102  1.00  0.00     0.163 HD
BRANCH   5   8
ATOM      8  C   UNL A   1      33.008  21.188  25.168  1.00  0.00     0.146 C 
ATOM      9  C   UNL A   1      32.887  21.701  23.719  1.00  0.00     0.053 C 
BRANCH   8  10
ATOM     10  C   UNL A   1      33.504  22.303  26.177  1.00  0.00     0.057 C 
ATOM     11  C   UNL A   1      33.132  22.191  27.657  1.00  0.00     0.016 C 
BRANCH  10  12
ATOM     12  C   UNL A   1      33.335  23.721  25.672  1.00  0.00    -0.039 A 
ATOM     13  C   UNL A   1      30.261  25.828  26.034  1.00  0.00     0.044 C 
ATOM     14  C   UNL A   1      31.698  25.484  25.815  1.00  0.00    -0.051 A 
ATOM     15  C   UNL A   1      32.742  26.409  25.894  1.00  0.00     0.004 A 
ATOM     16  C   UNL A   1      32.006  24.152  25.621  1.00  0.00     0.007 A 
ATOM     17  C   UNL A   1      34.059  26.007  25.682  1.00  0.00     0.004 A 
ATOM     18  C   UNL A   1      34.375  24.654  25.541  1.00  0.00    -0.048 A 
ATOM     19  C   UNL A   1      35.792  24.284  25.215  1.00  0.00     0.044 C 
ENDBRANCH  10  12
ENDBRANCH   8  10
BRANCH   8  20
ATOM     20  O   UNL A   1      31.655  20.832  25.548  1.00  0.00    -0.380 OA
ATOM     21  H   UNL A   1      31.464  21.184  26.432  1.00  0.00     0.212 HD
ENDBRANCH   8  20
ENDBRANCH   5   8
ENDBRANCH   3   4
ENDBRANCH   2   3
ENDBRANCH   1   2
BRANCH   1  22
ATOM     22  C   UNL A   1      39.963  20.767  26.320  1.00  0.00     0.116 C 
BRANCH  22  23
ATOM     23  N   UNL A   1      41.214  21.219  25.714  1.00  0.00    -0.352 N 
ATOM     24  C   UNL A   1      41.845  22.464  25.733  1.00  0.00     0.251 C 
ATOM     25  H   UNL A   1      41.694  20.526  25.206  1.00  0.00     0.163 HD
ATOM     26  O   UNL A   1      42.861  22.629  25.087  1.00  0.00    -0.269 OA
BRANCH  24  27
ATOM     27  C   UNL A   1      41.345  23.558  26.619  1.00  0.00     0.039 A 
ATOM     28  C   UNL A   1      40.390  24.470  26.128  1.00  0.00     0.014 A 
ATOM     29  C   UNL A   1      41.941  23.803  27.844  1.00  0.00     0.014 A 
ATOM     30  C   UNL A   1      40.223  25.728  26.742  1.00  0.00     0.010 A 
ATOM     31  C   UNL A   1      41.838  25.070  28.393  1.00  0.00     0.010 A 
ATOM     32  C   UNL A   1      41.040  26.077  27.815  1.00  0.00    -0.014 A 
BRANCH  32  33
ATOM     33  C   UNL A   1      41.056  27.387  28.496  1.00  0.00     0.031 A 
ATOM     34  C   UNL A   1      42.100  28.281  27.965  1.00  0.00     0.074 A 
ATOM     35  C   UNL A   1      40.196  27.925  29.394  1.00  0.00     0.049 A 
ATOM     36  N   UNL A   1      43.296  28.341  28.450  1.00  0.00    -0.248 NA
ATOM     37  C   UNL A   1      41.912  29.022  26.713  1.00  0.00     0.031 C 
ATOM     38  C   UNL A   1      39.121  27.312  30.164  1.00  0.00     0.029 A 
ATOM     39  N   UNL A   1      40.045  29.252  29.717  1.00  0.00    -0.354 N 
ATOM     40  C   UNL A   1      43.920  29.329  27.722  1.00  0.00     0.074 A 
ATOM     41  C   UNL A   1      43.160  29.446  26.501  1.00  0.00     0.031 C 
ATOM     42  C   UNL A   1      38.269  28.256  30.632  1.00  0.00     0.029 A 
ATOM     43  C   UNL A   1      38.842  29.557  30.347  1.00  0.00     0.049 A 
ATOM     44  H   UNL A   1      40.731  29.930  29.520  1.00  0.00     0.167 HD
ATOM     45  C   UNL A   1      44.769  30.214  28.314  1.00  0.00     0.031 A 
ATOM     46  C   UNL A   1      38.445  30.720  30.927  1.00  0.00     0.031 A 
ATOM     47  C   UNL A   1      44.998  29.887  29.707  1.00  0.00     0.049 A 
ATOM     48  C   UNL A   1      39.681  31.372  31.404  1.00  0.00     0.074 A 
ATOM     49  C   UNL A   1      45.446  28.777  30.398  1.00  0.00     0.029 A 
ATOM     50  N   UNL A   1      44.351  30.674  30.637  1.00  0.00    -0.354 N 
ATOM     51  N   UNL A   1      40.375  30.896  32.398  1.00  0.00    -0.248 NA
ATOM     52  C   UNL A   1      40.393  32.287  30.528  1.00  0.00     0.031 C 
ATOM     53  C   UNL A   1      44.690  28.747  31.609  1.00  0.00     0.029 A 
ATOM     54  C   UNL A   1      43.856  29.865  31.630  1.00  0.00     0.049 A 
ATOM     55  H   UNL A   1      44.260  31.654  30.596  1.00  0.00     0.167 HD
ATOM     56  C   UNL A   1      41.691  31.042  31.993  1.00  0.00     0.074 A 
ATOM     57  C   UNL A   1      41.645  32.029  30.918  1.00  0.00     0.031 C 
ATOM     58  C   UNL A   1      42.645  30.141  32.378  1.00  0.00     0.031 A 
BRANCH  45  59
ATOM     59  C   UNL A   1      45.056  31.588  27.769  1.00  0.00    -0.014 A 
ATOM     60  C   UNL A   1      46.375  31.900  27.394  1.00  0.00     0.010 A 
ATOM     61  C   UNL A   1      44.131  32.652  27.800  1.00  0.00     0.010 A 
ATOM     62  C   UNL A   1      46.756  33.217  27.112  1.00  0.00     0.020 A 
ATOM     63  C   UNL A   1      44.484  33.957  27.466  1.00  0.00     0.020 A 
ATOM     64  C   UNL A   1      45.805  34.238  27.159  1.00  0.00     0.054 A 
BRANCH  64  65
ATOM     65  S   UNL A   1      46.317  35.947  26.881  1.00  0.00     0.124 S 
ATOM     66  O   UNL A   1      45.029  36.625  26.766  1.00  0.00    -0.237 OA
ATOM     67  O   UNL A   1      47.086  36.241  28.086  1.00  0.00    -0.237 OA
ATOM     68  O   UNL A   1      47.100  35.873  25.649  1.00  0.00    -0.744 OA
ENDBRANCH  64  65
ENDBRANCH  45  59
BRANCH  46  69
ATOM     69  C   UNL A   1      37.195  31.465  30.635  1.00  0.00    -0.014 A 
ATOM     70  C   UNL A   1      36.812  32.581  31.403  1.00  0.00     0.010 A 
ATOM     71  C   UNL A   1      36.471  31.214  29.456  1.00  0.00     0.010 A 
ATOM     72  C   UNL A   1      35.775  33.434  30.981  1.00  0.00     0.020 A 
ATOM     73  C   UNL A   1      35.431  32.053  29.029  1.00  0.00     0.020 A 
ATOM     74  C   UNL A   1      35.099  33.171  29.787  1.00  0.00     0.054 A 
BRANCH  74  75
ATOM     75  S   UNL A   1      33.849  34.346  29.185  1.00  0.00     0.124 S 
ATOM     76  O   UNL A   1      34.670  35.432  28.655  1.00  0.00    -0.237 OA
ATOM     77  O   UNL A   1      33.127  33.558  28.192  1.00  0.00    -0.237 OA
ATOM     78  O   UNL A   1      33.083  34.680  30.385  1.00  0.00    -0.744 OA
ENDBRANCH  74  75
ENDBRANCH  46  69
BRANCH  58  79
ATOM     79  C   UNL A   1      42.308  29.199  33.518  1.00  0.00    -0.014 A 
ATOM     80  C   UNL A   1      41.604  27.989  33.349  1.00  0.00     0.010 A 
ATOM     81  C   UNL A   1      42.820  29.496  34.791  1.00  0.00     0.010 A 
ATOM     82  C   UNL A   1      41.394  27.117  34.428  1.00  0.00     0.020 A 
ATOM     83  C   UNL A   1      42.630  28.624  35.869  1.00  0.00     0.020 A 
ATOM     84  C   UNL A   1      41.911  27.441  35.684  1.00  0.00     0.054 A 
BRANCH  84  85
ATOM     85  S   UNL A   1      41.681  26.284  37.065  1.00  0.00     0.124 S 
ATOM     86  O   UNL A   1      40.401  26.709  37.626  1.00  0.00    -0.237 OA
ATOM     87  O   UNL A   1      41.675  24.983  36.400  1.00  0.00    -0.237 OA
ATOM     88  O   UNL A   1      42.841  26.528  37.921  1.00  0.00    -0.744 OA
ENDBRANCH  84  85
ENDBRANCH  58  79
ENDBRANCH  32  33
ENDBRANCH  24  27
ENDBRANCH  22  23
ENDBRANCH   1  22
TORSDOF 17
ENDMDL
MODEL 2
REMARK VINA RESULT:     -12.0      1.212      2.032
REMARK SMILES Cc1ccc(C)c([C@@H](C)[C@](C)(O)C(=O)NCCCCNC(=O)c2ccc(-c3c4nc(c(-c5ccc(S(=O)(=O)[O-])cc5)c5ccc([nH]5)c(-c5ccc(S(=O)(=O)[O-])cc5)c5nc(c(-c6ccc(S(=O)(=O)[O-])cc6)c6ccc3[nH]6)C=C5)C=C4)cc2)c1
REMARK SMILES IDX 18 1 17 2 16 3 15 4 13 5 14 6 10 8 11 9 8 10 9 11 7 12 1 13
REMARK SMILES IDX 2 14 3 15 83 16 4 17 5 18 6 19 12 20 19 22 20 23 21 24 22 26
REMARK SMILES IDX 23 27 24 28 82 29 25 30 81 31 26 32 27 33 28 34 75 35 29 36
REMARK SMILES IDX 80 37 74 38 76 39 30 40 79 41 73 42 72 43 31 45 61 46 42 47
REMARK SMILES IDX 60 48 43 49 46 50 59 51 77 52 44 53 45 54 58 56 78 57 47 58
REMARK SMILES IDX 32 59 33 60 41 61 34 62 40 63 35 64 36 65 37 66 38 67 39 68
REMARK SMILES IDX 62 69 63 70 71 71 64 72 70 73 65 74 66 75 67 76 68 77 69 78
REMARK SMILES IDX 48 79 49 80 57 81 50 82 56 83 51 84 52 85 53 86 54 87 55 88
REMARK H PARENT 15 7 12 21 20 25 76 44 46 55
REMARK Flexibility Score: inf
ROOT
ATOM      1  C   UNL A   1      36.418  21.751  24.331  1.00  0.00     0.023 C 
ENDROOT
BRANCH   1   2
ATOM      2  C   UNL A   1      35.575  20.685  25.049  1.00  0.00     0.023 C 
BRANCH   2   3
ATOM      3  C   UNL A   1      34.121  21.056  25.345  1.00  0.00     0.116 C 
BRANCH   3   4
ATOM      4  N   UNL A   1      33.879  21.467  26.713  1.00  0.00    -0.354 N 
ATOM      5  C   UNL A   1      32.993  22.360  27.252  1.00  0.00     0.252 C 
ATOM      6  O   UNL A   1      33.021  22.438  28.489  1.00  0.00    -0.272 OA
ATOM      7  H   UNL A   1      34.456  21.023  27.375  1.00  0.00     0.163 HD
BRANCH   5   8
ATOM      8  C   UNL A   1      31.996  23.249  26.401  1.00  0.00     0.146 C 
ATOM      9  C   UNL A   1      31.166  22.292  25.523  1.00  0.00     0.053 C 
BRANCH   8  10
ATOM     10  C   UNL A   1      32.648  24.433  25.576  1.00  0.00     0.057 C 
ATOM     11  C   UNL A   1      34.135  24.744  25.763  1.00  0.00     0.016 C 
BRANCH  10  12
ATOM     12  C   UNL A   1      31.820  25.700  25.543  1.00  0.00    -0.039 A 
ATOM     13  C   UNL A   1      32.679  28.930  27.233  1.00  0.00     0.044 C 
ATOM     14  C   UNL A   1      32.024  27.987  26.277  1.00  0.00    -0.051 A 
ATOM     15  C   UNL A   1      31.365  28.390  25.113  1.00  0.00     0.004 A 
ATOM     16  C   UNL A   1      32.172  26.636  26.521  1.00  0.00     0.007 A 
ATOM     17  C   UNL A   1      30.783  27.448  24.268  1.00  0.00     0.004 A 
ATOM     18  C   UNL A   1      30.980  26.081  24.485  1.00  0.00    -0.048 A 
ATOM     19  C   UNL A   1      30.251  25.109  23.607  1.00  0.00     0.044 C 
ENDBRANCH  10  12
ENDBRANCH   8  10
BRANCH   8  20
ATOM     20  O   UNL A   1      31.038  23.836  27.317  1.00  0.00    -0.380 OA
ATOM     21  H   UNL A   1      31.371  23.761  28.225  1.00  0.00     0.212 HD
ENDBRANCH   8  20
ENDBRANCH   5   8
ENDBRANCH   3   4
ENDBRANCH   2   3
ENDBRANCH   1   2
BRANCH   1  22
ATOM     22  C   UNL A   1      37.523  22.446  25.138  1.00  0.00     0.116 C 
BRANCH  22  23
ATOM     23  N   UNL A   1      38.370  21.567  25.941  1.00  0.00    -0.352 N 
ATOM     24  C   UNL A   1      39.554  21.819  26.638  1.00  0.00     0.251 C 
ATOM     25  H   UNL A   1      38.051  20.637  26.002  1.00  0.00     0.163 HD
ATOM     26  O   UNL A   1      40.131  20.901  27.186  1.00  0.00    -0.269 OA
BRANCH  24  27
ATOM     27  C   UNL A   1      40.056  23.215  26.805  1.00  0.00     0.039 A 
ATOM     28  C   UNL A   1      41.298  23.438  27.432  1.00  0.00     0.014 A 
ATOM     29  C   UNL A   1      39.240  24.297  26.527  1.00  0.00     0.014 A 
ATOM     30  C   UNL A   1      41.601  24.696  27.989  1.00  0.00     0.010 A 
ATOM     31  C   UNL A   1      39.502  25.506  27.150  1.00  0.00     0.010 A 
ATOM     32  C   UNL A   1      40.644  25.707  27.951  1.00  0.00    -0.014 A 
BRANCH  32  33
ATOM     33  C   UNL A   1      40.771  27.039  28.577  1.00  0.00     0.031 A 
ATOM     34  C   UNL A   1      41.840  27.845  27.963  1.00  0.00     0.074 A 
ATOM     35  C   UNL A   1      39.988  27.663  29.490  1.00  0.00     0.049 A 
ATOM     36  N   UNL A   1      43.060  27.849  28.392  1.00  0.00    -0.248 NA
ATOM     37  C   UNL A   1      41.639  28.548  26.692  1.00  0.00     0.031 C 
ATOM     38  C   UNL A   1      38.916  27.147  30.332  1.00  0.00     0.029 A 
ATOM     39  N   UNL A   1      39.933  29.008  29.764  1.00  0.00    -0.354 N 
ATOM     40  C   UNL A   1      43.707  28.767  27.596  1.00  0.00     0.074 A 
ATOM     41  C   UNL A   1      42.899  28.885  26.407  1.00  0.00     0.031 C 
ATOM     42  C   UNL A   1      38.146  28.160  30.798  1.00  0.00     0.029 A 
ATOM     43  C   UNL A   1      38.782  29.412  30.435  1.00  0.00     0.049 A 
ATOM     44  H   UNL A   1      40.648  29.634  29.509  1.00  0.00     0.167 HD
ATOM     45  C   UNL A   1      44.635  29.620  28.113  1.00  0.00     0.031 A 
ATOM     46  C   UNL A   1      38.484  30.617  30.984  1.00  0.00     0.031 A 
ATOM     47  C   UNL A   1      44.910  29.333  29.507  1.00  0.00     0.049 A 
ATOM     48  C   UNL A   1      39.777  31.209  31.378  1.00  0.00     0.074 A 
ATOM     49  C   UNL A   1      45.322  28.225  30.222  1.00  0.00     0.029 A 
ATOM     50  N   UNL A   1      44.355  30.194  30.432  1.00  0.00    -0.354 N 
ATOM     51  N   UNL A   1      40.488  30.730  32.358  1.00  0.00    -0.248 NA
ATOM     52  C   UNL A   1      40.501  32.045  30.434  1.00  0.00     0.031 C 
ATOM     53  C   UNL A   1      44.623  28.288  31.466  1.00  0.00     0.029 A 
ATOM     54  C   UNL A   1      43.860  29.456  31.478  1.00  0.00     0.049 A 
ATOM     55  H   UNL A   1      44.322  31.175  30.355  1.00  0.00     0.167 HD
ATOM     56  C   UNL A   1      41.790  30.778  31.889  1.00  0.00     0.074 A 
ATOM     57  C   UNL A   1      41.752  31.724  30.778  1.00  0.00     0.031 C 
ATOM     58  C   UNL A   1      42.704  29.835  32.268  1.00  0.00     0.031 A 
BRANCH  45  59
ATOM     59  C   UNL A   1      44.978  30.952  27.500  1.00  0.00    -0.014 A 
ATOM     60  C   UNL A   1      46.258  31.126  26.943  1.00  0.00     0.010 A 
ATOM     61  C   UNL A   1      44.175  32.104  27.629  1.00  0.00     0.010 A 
ATOM     62  C   UNL A   1      46.725  32.393  26.579  1.00  0.00     0.020 A 
ATOM     63  C   UNL A   1      44.606  33.363  27.218  1.00  0.00     0.020 A 
ATOM     64  C   UNL A   1      45.894  33.505  26.728  1.00  0.00     0.054 A 
BRANCH  64  65
ATOM     65  S   UNL A   1      46.528  35.151  26.341  1.00  0.00     0.124 S 
ATOM     66  O   UNL A   1      47.164  34.926  25.046  1.00  0.00    -0.237 OA
ATOM     67  O   UNL A   1      45.311  35.957  26.322  1.00  0.00    -0.237 OA
ATOM     68  O   UNL A   1      47.440  35.435  27.447  1.00  0.00    -0.744 OA
ENDBRANCH  64  65
ENDBRANCH  45  59
BRANCH  46  69
ATOM     69  C   UNL A   1      37.268  31.428  30.718  1.00  0.00    -0.014 A 
ATOM     70  C   UNL A   1      37.065  32.670  31.347  1.00  0.00     0.010 A 
ATOM     71  C   UNL A   1      36.393  31.083  29.672  1.00  0.00     0.010 A 
ATOM     72  C   UNL A   1      36.053  33.548  30.914  1.00  0.00     0.020 A 
ATOM     73  C   UNL A   1      35.378  31.946  29.237  1.00  0.00     0.020 A 
ATOM     74  C   UNL A   1      35.223  33.185  29.851  1.00  0.00     0.054 A 
BRANCH  74  75
ATOM     75  S   UNL A   1      34.005  34.376  29.217  1.00  0.00     0.124 S 
ATOM     76  O   UNL A   1      33.261  33.576  28.246  1.00  0.00    -0.237 OA
ATOM     77  O   UNL A   1      33.271  34.749  30.422  1.00  0.00    -0.237 OA
ATOM     78  O   UNL A   1      34.827  35.439  28.641  1.00  0.00    -0.744 OA
ENDBRANCH  74  75
ENDBRANCH  46  69
BRANCH  58  79
ATOM     79  C   UNL A   1      42.365  28.959  33.459  1.00  0.00    -0.014 A 
ATOM     80  C   UNL A   1      41.554  27.810  33.378  1.00  0.00     0.010 A 
ATOM     81  C   UNL A   1      42.982  29.251  34.687  1.00  0.00     0.010 A 
ATOM     82  C   UNL A   1      41.343  26.991  34.498  1.00  0.00     0.020 A 
ATOM     83  C   UNL A   1      42.790  28.431  35.805  1.00  0.00     0.020 A 
ATOM     84  C   UNL A   1      41.966  27.308  35.707  1.00  0.00     0.054 A 
BRANCH  84  85
ATOM     85  S   UNL A   1      41.731  26.218  37.141  1.00  0.00     0.124 S 
ATOM     86  O   UNL A   1      42.891  26.530  37.972  1.00  0.00    -0.237 OA
ATOM     87  O   UNL A   1      40.442  26.655  37.672  1.00  0.00    -0.237 OA
ATOM     88  O   UNL A   1      41.729  24.876  36.561  1.00  0.00    -0.744 OA
ENDBRANCH  84  85
ENDBRANCH  58  79
ENDBRANCH  32  33
ENDBRANCH  24  27
ENDBRANCH  22  23
ENDBRANCH   1  22
TORSDOF 17
ENDMDL
MODEL 3
REMARK VINA RESULT:     -11.7      1.579      2.292
REMARK SMILES Cc1ccc(C)c([C@@H](C)[C@](C)(O)C(=O)NCCCCNC(=O)c2ccc(-c3c4nc(c(-c5ccc(S(=O)(=O)[O-])cc5)c5ccc([nH]5)c(-c5ccc(S(=O)(=O)[O-])cc5)c5nc(c(-c6ccc(S(=O)(=O)[O-])cc6)c6ccc3[nH]6)C=C5)C=C4)cc2)c1
REMARK SMILES IDX 18 1 17 2 16 3 15 4 13 5 14 6 10 8 11 9 8 10 9 11 7 12 1 13
REMARK SMILES IDX 2 14 3 15 83 16 4 17 5 18 6 19 12 20 19 22 20 23 21 24 22 26
REMARK SMILES IDX 23 27 24 28 82 29 25 30 81 31 26 32 27 33 28 34 75 35 29 36
REMARK SMILES IDX 80 37 74 38 76 39 30 40 79 41 73 42 72 43 31 45 61 46 42 47
REMARK SMILES IDX 60 48 43 49 46 50 59 51 77 52 44 53 45 54 58 56 78 57 47 58
REMARK SMILES IDX 32 59 33 60 41 61 34 62 40 63 35 64 36 65 37 66 38 67 39 68
REMARK SMILES IDX 62 69 63 70 71 71 64 72 70 73 65 74 66 75 67 76 68 77 69 78
REMARK SMILES IDX 48 79 49 80 57 81 50 82 56 83 51 84 52 85 53 86 54 87 55 88
REMARK H PARENT 15 7 12 21 20 25 76 44 46 55
REMARK Flexibility Score: inf
ROOT
ATOM      1  C   UNL A   1      35.932  22.595  25.607  1.00  0.00     0.023 C 
ENDROOT
BRANCH   1   2
ATOM      2  C   UNL A   1      35.088  21.715  24.670  1.00  0.00     0.023 C 
BRANCH   2   3
ATOM      3  C   UNL A   1      33.819  21.107  25.272  1.00  0.00     0.116 C 
BRANCH   3   4
ATOM      4  N   UNL A   1      33.560  21.506  26.640  1.00  0.00    -0.354 N 
ATOM      5  C   UNL A   1      32.772  22.492  27.168  1.00  0.00     0.252 C 
ATOM      6  O   UNL A   1      32.744  22.528  28.407  1.00  0.00    -0.272 OA
ATOM      7  H   UNL A   1      34.038  20.968  27.313  1.00  0.00     0.163 HD
BRANCH   5   8
ATOM      8  C   UNL A   1      31.948  23.532  26.302  1.00  0.00     0.146 C 
ATOM      9  C   UNL A   1      30.843  22.744  25.571  1.00  0.00     0.053 C 
BRANCH   8  10
ATOM     10  C   UNL A   1      32.792  24.454  25.330  1.00  0.00     0.057 C 
ATOM     11  C   UNL A   1      33.645  25.579  25.922  1.00  0.00     0.016 C 
BRANCH  10  12
ATOM     12  C   UNL A   1      32.038  24.921  24.103  1.00  0.00    -0.039 A 
ATOM     13  C   UNL A   1      30.178  28.153  23.766  1.00  0.00     0.044 C 
ATOM     14  C   UNL A   1      30.893  26.907  23.358  1.00  0.00    -0.051 A 
ATOM     15  C   UNL A   1      31.392  26.679  22.073  1.00  0.00     0.004 A 
ATOM     16  C   UNL A   1      31.154  25.977  24.345  1.00  0.00     0.007 A 
ATOM     17  C   UNL A   1      32.054  25.491  21.773  1.00  0.00     0.004 A 
ATOM     18  C   UNL A   1      32.366  24.577  22.783  1.00  0.00    -0.048 A 
ATOM     19  C   UNL A   1      32.989  23.269  22.392  1.00  0.00     0.044 C 
ENDBRANCH  10  12
ENDBRANCH   8  10
BRANCH   8  20
ATOM     20  O   UNL A   1      31.238  24.402  27.218  1.00  0.00    -0.380 OA
ATOM     21  H   UNL A   1      31.280  24.032  28.114  1.00  0.00     0.212 HD
ENDBRANCH   8  20
ENDBRANCH   5   8
ENDBRANCH   3   4
ENDBRANCH   2   3
ENDBRANCH   1   2
BRANCH   1  22
ATOM     22  C   UNL A   1      37.429  22.729  25.300  1.00  0.00     0.116 C 
BRANCH  22  23
ATOM     23  N   UNL A   1      38.317  21.878  26.089  1.00  0.00    -0.352 N 
ATOM     24  C   UNL A   1      39.495  22.171  26.779  1.00  0.00     0.251 C 
ATOM     25  H   UNL A   1      38.036  20.936  26.145  1.00  0.00     0.163 HD
ATOM     26  O   UNL A   1      40.114  21.273  27.315  1.00  0.00    -0.269 OA
BRANCH  24  27
ATOM     27  C   UNL A   1      39.943  23.585  26.953  1.00  0.00     0.039 A 
ATOM     28  C   UNL A   1      41.290  23.856  27.264  1.00  0.00     0.014 A 
ATOM     29  C   UNL A   1      39.022  24.617  27.003  1.00  0.00     0.014 A 
ATOM     30  C   UNL A   1      41.655  25.084  27.852  1.00  0.00     0.010 A 
ATOM     31  C   UNL A   1      39.367  25.787  27.658  1.00  0.00     0.010 A 
ATOM     32  C   UNL A   1      40.664  26.013  28.161  1.00  0.00    -0.014 A 
BRANCH  32  33
ATOM     33  C   UNL A   1      40.873  27.294  28.865  1.00  0.00     0.031 A 
ATOM     34  C   UNL A   1      41.970  28.082  28.279  1.00  0.00     0.074 A 
ATOM     35  C   UNL A   1      40.142  27.897  29.833  1.00  0.00     0.049 A 
ATOM     36  N   UNL A   1      43.197  27.997  28.678  1.00  0.00    -0.248 NA
ATOM     37  C   UNL A   1      41.780  28.875  27.059  1.00  0.00     0.031 C 
ATOM     38  C   UNL A   1      39.061  27.384  30.666  1.00  0.00     0.029 A 
ATOM     39  N   UNL A   1      40.162  29.223  30.193  1.00  0.00    -0.354 N 
ATOM     40  C   UNL A   1      43.875  28.931  27.927  1.00  0.00     0.074 A 
ATOM     41  C   UNL A   1      43.050  29.164  26.767  1.00  0.00     0.031 C 
ATOM     42  C   UNL A   1      38.354  28.402  31.212  1.00  0.00     0.029 A 
ATOM     43  C   UNL A   1      39.047  29.641  30.914  1.00  0.00     0.049 A 
ATOM     44  H   UNL A   1      40.904  29.827  29.961  1.00  0.00     0.167 HD
ATOM     45  C   UNL A   1      44.855  29.701  28.475  1.00  0.00     0.031 A 
ATOM     46  C   UNL A   1      38.823  30.823  31.544  1.00  0.00     0.031 A 
ATOM     47  C   UNL A   1      45.143  29.311  29.841  1.00  0.00     0.049 A 
ATOM     48  C   UNL A   1      40.153  31.322  31.944  1.00  0.00     0.074 A 
ATOM     49  C   UNL A   1      45.511  28.141  30.476  1.00  0.00     0.029 A 
ATOM     50  N   UNL A   1      44.653  30.139  30.831  1.00  0.00    -0.354 N 
ATOM     51  N   UNL A   1      40.857  30.746  32.876  1.00  0.00    -0.248 NA
ATOM     52  C   UNL A   1      40.900  32.178  31.038  1.00  0.00     0.031 C 
ATOM     53  C   UNL A   1      44.842  28.160  31.737  1.00  0.00     0.029 A 
ATOM     54  C   UNL A   1      44.140  29.361  31.840  1.00  0.00     0.049 A 
ATOM     55  H   UNL A   1      44.669  31.123  30.816  1.00  0.00     0.167 HD
ATOM     56  C   UNL A   1      42.150  30.758  32.381  1.00  0.00     0.074 A 
ATOM     57  C   UNL A   1      42.140  31.774  31.332  1.00  0.00     0.031 C 
ATOM     58  C   UNL A   1      43.022  29.748  32.678  1.00  0.00     0.031 A 
BRANCH  45  59
ATOM     59  C   UNL A   1      45.255  31.050  27.938  1.00  0.00    -0.014 A 
ATOM     60  C   UNL A   1      44.268  32.046  27.821  1.00  0.00     0.010 A 
ATOM     61  C   UNL A   1      46.509  31.320  27.353  1.00  0.00     0.010 A 
ATOM     62  C   UNL A   1      44.512  33.228  27.114  1.00  0.00     0.020 A 
ATOM     63  C   UNL A   1      46.783  32.517  26.694  1.00  0.00     0.020 A 
ATOM     64  C   UNL A   1      45.769  33.449  26.548  1.00  0.00     0.054 A 
BRANCH  64  65
ATOM     65  S   UNL A   1      46.055  34.934  25.562  1.00  0.00     0.124 S 
ATOM     66  O   UNL A   1      45.328  34.618  24.335  1.00  0.00    -0.237 OA
ATOM     67  O   UNL A   1      45.473  35.980  26.397  1.00  0.00    -0.237 OA
ATOM     68  O   UNL A   1      47.510  34.984  25.433  1.00  0.00    -0.744 OA
ENDBRANCH  64  65
ENDBRANCH  45  59
BRANCH  46  69
ATOM     69  C   UNL A   1      37.646  31.709  31.358  1.00  0.00    -0.014 A 
ATOM     70  C   UNL A   1      36.333  31.207  31.431  1.00  0.00     0.010 A 
ATOM     71  C   UNL A   1      37.801  33.106  31.319  1.00  0.00     0.010 A 
ATOM     72  C   UNL A   1      35.226  32.072  31.506  1.00  0.00     0.020 A 
ATOM     73  C   UNL A   1      36.705  33.978  31.387  1.00  0.00     0.020 A 
ATOM     74  C   UNL A   1      35.421  33.456  31.497  1.00  0.00     0.054 A 
BRANCH  74  75
ATOM     75  S   UNL A   1      33.998  34.564  31.724  1.00  0.00     0.124 S 
ATOM     76  O   UNL A   1      33.219  33.869  32.746  1.00  0.00    -0.237 OA
ATOM     77  O   UNL A   1      34.632  35.808  32.150  1.00  0.00    -0.237 OA
ATOM     78  O   UNL A   1      33.380  34.608  30.400  1.00  0.00    -0.744 OA
ENDBRANCH  74  75
ENDBRANCH  46  69
BRANCH  58  79
ATOM     79  C   UNL A   1      42.662  28.816  33.820  1.00  0.00    -0.014 A 
ATOM     80  C   UNL A   1      41.900  27.641  33.659  1.00  0.00     0.010 A 
ATOM     81  C   UNL A   1      43.209  29.083  35.085  1.00  0.00     0.010 A 
ATOM     82  C   UNL A   1      41.669  26.774  34.738  1.00  0.00     0.020 A 
ATOM     83  C   UNL A   1      42.997  28.215  36.163  1.00  0.00     0.020 A 
ATOM     84  C   UNL A   1      42.222  27.068  35.986  1.00  0.00     0.054 A 
BRANCH  84  85
ATOM     85  S   UNL A   1      41.963  25.916  37.366  1.00  0.00     0.124 S 
ATOM     86  O   UNL A   1      42.891  26.416  38.377  1.00  0.00    -0.237 OA
ATOM     87  O   UNL A   1      40.545  26.094  37.673  1.00  0.00    -0.237 OA
ATOM     88  O   UNL A   1      42.306  24.612  36.802  1.00  0.00    -0.744 OA
ENDBRANCH  84  85
ENDBRANCH  58  79
ENDBRANCH  32  33
ENDBRANCH  24  27
ENDBRANCH  22  23
ENDBRANCH   1  22
TORSDOF 17
ENDMDL
