MODEL 1
REMARK VINA RESULT:     -11.2      0.000      0.000
REMARK SMILES CC(C)(CC(=O)NCCCCNC(=O)c1ccc(-c2c3nc(c(-c4ccc(S(=O)(=O)[O-])cc4)c4ccc([nH]4)c(-c4ccc(S(=O)(=O)[O-])cc4)c4nc(c(-c5ccc(S(=O)(=O)[O-])cc5)c5ccc2[nH]5)C=C4)C=C3)cc1)CC(=O)Nc1cccc(S(N)(=O)=O)c1
REMARK SMILES IDX 8 1 7 2 5 3 6 4 4 6 2 7 1 8 3 9 75 10 76 11 77 12 78 13
REMARK SMILES IDX 79 15 80 16 88 17 81 18 83 19 82 20 84 21 86 22 87 23 85 24
REMARK SMILES IDX 9 27 10 28 11 29 12 30 13 31 14 33 15 34 16 35 74 36 17 37
REMARK SMILES IDX 73 38 18 39 19 40 20 41 67 42 21 43 72 44 66 45 68 46 22 47
REMARK SMILES IDX 71 48 65 49 64 50 23 52 53 53 34 54 52 55 35 56 38 57 51 58
REMARK SMILES IDX 69 59 36 60 37 61 50 63 70 64 39 65 24 66 25 67 33 68 26 69
REMARK SMILES IDX 32 70 27 71 28 72 29 73 30 74 31 75 54 76 55 77 63 78 56 79
REMARK SMILES IDX 62 80 57 81 58 82 59 83 60 84 61 85 40 86 41 87 49 88 42 89
REMARK SMILES IDX 48 90 43 91 44 92 45 93 46 94 47 95
REMARK H PARENT 7 5 78 14 85 25 85 26 12 32 68 51 38 62
REMARK Flexibility Score: inf
ROOT
ATOM      1  C   UNL A   1      31.221  26.670  25.700  1.00  0.00     0.116 C 
ENDROOT
BRANCH   1   2
ATOM      2  N   UNL A   1      30.889  25.550  26.548  1.00  0.00    -0.356 N 
ATOM      3  C   UNL A   1      31.483  24.331  26.533  1.00  0.00     0.220 C 
ATOM      4  O   UNL A   1      31.581  23.717  27.597  1.00  0.00    -0.275 OA
ATOM      5  H   UNL A   1      30.164  25.684  27.199  1.00  0.00     0.163 HD
BRANCH   3   6
ATOM      6  C   UNL A   1      32.104  23.781  25.260  1.00  0.00     0.107 C 
BRANCH   6   7
ATOM      7  C   UNL A   1      33.644  23.832  25.015  1.00  0.00    -0.018 C 
ATOM      8  C   UNL A   1      34.301  24.976  25.805  1.00  0.00     0.012 C 
ATOM      9  C   UNL A   1      34.203  22.520  25.632  1.00  0.00     0.012 C 
BRANCH   7  10
ATOM     10  C   UNL A   1      34.163  23.873  23.548  1.00  0.00     0.107 C 
BRANCH  10  11
ATOM     11  C   UNL A   1      33.179  23.677  22.418  1.00  0.00     0.224 C 
ATOM     12  O   UNL A   1      33.060  22.562  21.899  1.00  0.00    -0.275 OA
ATOM     13  N   UNL A   1      32.352  24.669  21.979  1.00  0.00    -0.326 N 
ATOM     14  H   UNL A   1      31.570  24.325  21.488  1.00  0.00     0.169 HD
BRANCH  13  15
ATOM     15  C   UNL A   1      32.366  26.076  22.070  1.00  0.00     0.042 A 
ATOM     16  C   UNL A   1      33.574  26.659  22.485  1.00  0.00     0.026 A 
ATOM     17  C   UNL A   1      31.248  26.895  21.958  1.00  0.00     0.047 A 
ATOM     18  C   UNL A   1      33.638  28.004  22.867  1.00  0.00     0.004 A 
ATOM     19  C   UNL A   1      31.293  28.210  22.429  1.00  0.00     0.084 A 
ATOM     20  C   UNL A   1      32.485  28.780  22.868  1.00  0.00     0.022 A 
BRANCH  19  21
ATOM     21  S   UNL A   1      29.781  29.108  22.646  1.00  0.00     0.238 S 
ATOM     22  O   UNL A   1      29.483  29.817  21.433  1.00  0.00    -0.207 OA
ATOM     23  O   UNL A   1      28.813  28.242  23.295  1.00  0.00    -0.207 OA
BRANCH  21  24
ATOM     24  N   UNL A   1      30.231  30.225  23.831  1.00  0.00    -0.225 NA
ATOM     25  H   UNL A   1      29.396  30.598  24.282  1.00  0.00     0.137 HD
ATOM     26  H   UNL A   1      30.754  30.988  23.400  1.00  0.00     0.137 HD
ENDBRANCH  21  24
ENDBRANCH  19  21
ENDBRANCH  13  15
ENDBRANCH  10  11
ENDBRANCH   7  10
ENDBRANCH   6   7
ENDBRANCH   3   6
ENDBRANCH   1   2
BRANCH   1  27
ATOM     27  C   UNL A   1      31.338  27.987  26.455  1.00  0.00     0.023 C 
BRANCH  27  28
ATOM     28  C   UNL A   1      32.428  28.030  27.517  1.00  0.00     0.023 C 
BRANCH  28  29
ATOM     29  C   UNL A   1      33.663  28.829  27.134  1.00  0.00     0.116 C 
BRANCH  29  30
ATOM     30  N   UNL A   1      33.718  30.150  27.757  1.00  0.00    -0.352 N 
ATOM     31  C   UNL A   1      34.760  30.756  28.412  1.00  0.00     0.251 C 
ATOM     32  H   UNL A   1      32.890  30.679  27.700  1.00  0.00     0.163 HD
ATOM     33  O   UNL A   1      34.623  31.848  28.948  1.00  0.00    -0.269 OA
BRANCH  31  34
ATOM     34  C   UNL A   1      36.030  30.022  28.492  1.00  0.00     0.039 A 
ATOM     35  C   UNL A   1      36.928  30.121  27.429  1.00  0.00     0.014 A 
ATOM     36  C   UNL A   1      36.384  29.402  29.693  1.00  0.00     0.014 A 
ATOM     37  C   UNL A   1      38.235  29.678  27.607  1.00  0.00     0.010 A 
ATOM     38  C   UNL A   1      37.708  29.050  29.897  1.00  0.00     0.010 A 
ATOM     39  C   UNL A   1      38.646  29.194  28.860  1.00  0.00    -0.014 A 
BRANCH  39  40
ATOM     40  C   UNL A   1      40.057  28.833  29.125  1.00  0.00     0.031 A 
ATOM     41  C   UNL A   1      40.974  29.859  29.726  1.00  0.00     0.074 A 
ATOM     42  C   UNL A   1      40.525  27.628  28.743  1.00  0.00     0.049 A 
ATOM     43  N   UNL A   1      42.263  29.797  29.922  1.00  0.00    -0.248 NA
ATOM     44  C   UNL A   1      40.361  31.140  30.121  1.00  0.00     0.031 C 
ATOM     45  C   UNL A   1      39.735  26.566  28.114  1.00  0.00     0.029 A 
ATOM     46  N   UNL A   1      41.787  27.096  28.824  1.00  0.00    -0.354 N 
ATOM     47  C   UNL A   1      42.620  31.037  30.436  1.00  0.00     0.074 A 
ATOM     48  C   UNL A   1      41.424  31.848  30.467  1.00  0.00     0.031 C 
ATOM     49  C   UNL A   1      40.523  25.499  27.898  1.00  0.00     0.029 A 
ATOM     50  C   UNL A   1      41.880  25.817  28.330  1.00  0.00     0.049 A 
ATOM     51  H   UNL A   1      42.554  27.586  29.199  1.00  0.00     0.167 HD
ATOM     52  C   UNL A   1      43.832  31.455  30.868  1.00  0.00     0.031 A 
ATOM     53  C   UNL A   1      42.943  24.996  28.232  1.00  0.00     0.031 A 
ATOM     54  C   UNL A   1      45.009  30.633  30.857  1.00  0.00     0.049 A 
ATOM     55  C   UNL A   1      44.283  25.484  28.707  1.00  0.00     0.074 A 
ATOM     56  C   UNL A   1      46.275  30.933  31.323  1.00  0.00     0.029 A 
ATOM     57  N   UNL A   1      45.062  29.341  30.353  1.00  0.00    -0.354 N 
ATOM     58  N   UNL A   1      44.594  26.643  29.238  1.00  0.00    -0.248 NA
ATOM     59  C   UNL A   1      45.415  24.558  28.568  1.00  0.00     0.031 C 
ATOM     60  C   UNL A   1      47.103  29.836  31.067  1.00  0.00     0.029 A 
ATOM     61  C   UNL A   1      46.342  28.837  30.479  1.00  0.00     0.049 A 
ATOM     62  H   UNL A   1      44.298  28.856  29.963  1.00  0.00     0.167 HD
ATOM     63  C   UNL A   1      45.955  26.579  29.513  1.00  0.00     0.074 A 
ATOM     64  C   UNL A   1      46.403  25.264  29.101  1.00  0.00     0.031 C 
ATOM     65  C   UNL A   1      46.761  27.524  30.058  1.00  0.00     0.031 A 
BRANCH  52  66
ATOM     66  C   UNL A   1      43.924  32.865  31.382  1.00  0.00    -0.014 A 
ATOM     67  C   UNL A   1      43.802  33.143  32.757  1.00  0.00     0.010 A 
ATOM     68  C   UNL A   1      44.115  33.928  30.483  1.00  0.00     0.010 A 
ATOM     69  C   UNL A   1      43.807  34.461  33.215  1.00  0.00     0.020 A 
ATOM     70  C   UNL A   1      44.150  35.248  30.942  1.00  0.00     0.020 A 
ATOM     71  C   UNL A   1      43.970  35.507  32.303  1.00  0.00     0.054 A 
BRANCH  71  72
ATOM     72  S   UNL A   1      43.959  37.212  32.921  1.00  0.00     0.124 S 
ATOM     73  O   UNL A   1      42.791  37.204  33.799  1.00  0.00    -0.237 OA
ATOM     74  O   UNL A   1      45.251  37.319  33.595  1.00  0.00    -0.237 OA
ATOM     75  O   UNL A   1      43.823  38.017  31.710  1.00  0.00    -0.744 OA
ENDBRANCH  71  72
ENDBRANCH  52  66
BRANCH  53  76
ATOM     76  C   UNL A   1      42.776  23.623  27.683  1.00  0.00    -0.014 A 
ATOM     77  C   UNL A   1      42.493  22.549  28.546  1.00  0.00     0.010 A 
ATOM     78  C   UNL A   1      42.868  23.383  26.301  1.00  0.00     0.010 A 
ATOM     79  C   UNL A   1      42.314  21.259  28.038  1.00  0.00     0.020 A 
ATOM     80  C   UNL A   1      42.668  22.098  25.786  1.00  0.00     0.020 A 
ATOM     81  C   UNL A   1      42.400  21.042  26.661  1.00  0.00     0.054 A 
BRANCH  81  82
ATOM     82  S   UNL A   1      42.100  19.371  26.019  1.00  0.00     0.124 S 
ATOM     83  O   UNL A   1      42.537  18.535  27.133  1.00  0.00    -0.237 OA
ATOM     84  O   UNL A   1      40.663  19.383  25.762  1.00  0.00    -0.237 OA
ATOM     85  O   UNL A   1      42.938  19.309  24.823  1.00  0.00    -0.744 OA
ENDBRANCH  81  82
ENDBRANCH  53  76
BRANCH  65  86
ATOM     86  C   UNL A   1      48.207  27.167  30.255  1.00  0.00    -0.014 A 
ATOM     87  C   UNL A   1      49.183  27.586  29.336  1.00  0.00     0.010 A 
ATOM     88  C   UNL A   1      48.601  26.480  31.417  1.00  0.00     0.010 A 
ATOM     89  C   UNL A   1      50.532  27.315  29.571  1.00  0.00     0.020 A 
ATOM     90  C   UNL A   1      49.951  26.225  31.666  1.00  0.00     0.020 A 
ATOM     91  C   UNL A   1      50.908  26.640  30.737  1.00  0.00     0.054 A 
BRANCH  91  92
ATOM     92  S   UNL A   1      52.672  26.368  31.057  1.00  0.00     0.124 S 
ATOM     93  O   UNL A   1      53.051  27.602  31.739  1.00  0.00    -0.237 OA
ATOM     94  O   UNL A   1      52.668  25.166  31.889  1.00  0.00    -0.237 OA
ATOM     95  O   UNL A   1      53.242  26.191  29.723  1.00  0.00    -0.744 OA
ENDBRANCH  91  92
ENDBRANCH  65  86
ENDBRANCH  39  40
ENDBRANCH  31  34
ENDBRANCH  29  30
ENDBRANCH  28  29
ENDBRANCH  27  28
ENDBRANCH   1  27
TORSDOF 20
ENDMDL
MODEL 2
REMARK VINA RESULT:     -11.0      1.209      2.067
REMARK SMILES CC(C)(CC(=O)NCCCCNC(=O)c1ccc(-c2c3nc(c(-c4ccc(S(=O)(=O)[O-])cc4)c4ccc([nH]4)c(-c4ccc(S(=O)(=O)[O-])cc4)c4nc(c(-c5ccc(S(=O)(=O)[O-])cc5)c5ccc2[nH]5)C=C4)C=C3)cc1)CC(=O)Nc1cccc(S(N)(=O)=O)c1
REMARK SMILES IDX 8 1 7 2 5 3 6 4 4 6 2 7 1 8 3 9 75 10 76 11 77 12 78 13
REMARK SMILES IDX 79 15 80 16 88 17 81 18 83 19 82 20 84 21 86 22 87 23 85 24
REMARK SMILES IDX 9 27 10 28 11 29 12 30 13 31 14 33 15 34 16 35 74 36 17 37
REMARK SMILES IDX 73 38 18 39 19 40 20 41 67 42 21 43 72 44 66 45 68 46 22 47
REMARK SMILES IDX 71 48 65 49 64 50 23 52 53 53 34 54 52 55 35 56 38 57 51 58
REMARK SMILES IDX 69 59 36 60 37 61 50 63 70 64 39 65 24 66 25 67 33 68 26 69
REMARK SMILES IDX 32 70 27 71 28 72 29 73 30 74 31 75 54 76 55 77 63 78 56 79
REMARK SMILES IDX 62 80 57 81 58 82 59 83 60 84 61 85 40 86 41 87 49 88 42 89
REMARK SMILES IDX 48 90 43 91 44 92 45 93 46 94 47 95
REMARK H PARENT 7 5 78 14 85 25 85 26 12 32 68 51 38 62
REMARK Flexibility Score: inf
ROOT
ATOM      1  C   UNL A   1      33.834  26.375  24.796  1.00  0.00     0.116 C 
ENDROOT
BRANCH   1   2
ATOM      2  N   UNL A   1      34.829  25.601  25.500  1.00  0.00    -0.356 N 
ATOM      3  C   UNL A   1      34.991  24.256  25.434  1.00  0.00     0.220 C 
ATOM      4  O   UNL A   1      36.132  23.801  25.534  1.00  0.00    -0.275 OA
ATOM      5  H   UNL A   1      35.448  26.096  26.082  1.00  0.00     0.163 HD
BRANCH   3   6
ATOM      6  C   UNL A   1      33.813  23.342  25.140  1.00  0.00     0.107 C 
BRANCH   6   7
ATOM      7  C   UNL A   1      32.689  23.094  26.193  1.00  0.00    -0.018 C 
ATOM      8  C   UNL A   1      31.731  21.979  25.741  1.00  0.00     0.012 C 
ATOM      9  C   UNL A   1      33.417  22.539  27.449  1.00  0.00     0.012 C 
BRANCH   7  10
ATOM     10  C   UNL A   1      31.849  24.309  26.684  1.00  0.00     0.107 C 
BRANCH  10  11
ATOM     11  C   UNL A   1      30.345  24.263  26.544  1.00  0.00     0.224 C 
ATOM     12  O   UNL A   1      29.675  23.631  27.366  1.00  0.00    -0.275 OA
ATOM     13  N   UNL A   1      29.673  24.952  25.577  1.00  0.00    -0.326 N 
ATOM     14  H   UNL A   1      28.723  25.091  25.798  1.00  0.00     0.169 HD
BRANCH  13  15
ATOM     15  C   UNL A   1      30.033  25.510  24.333  1.00  0.00     0.042 A 
ATOM     16  C   UNL A   1      30.828  24.707  23.500  1.00  0.00     0.026 A 
ATOM     17  C   UNL A   1      29.819  26.831  23.958  1.00  0.00     0.047 A 
ATOM     18  C   UNL A   1      31.465  25.236  22.372  1.00  0.00     0.004 A 
ATOM     19  C   UNL A   1      30.530  27.379  22.888  1.00  0.00     0.084 A 
ATOM     20  C   UNL A   1      31.341  26.589  22.077  1.00  0.00     0.022 A 
BRANCH  19  21
ATOM     21  S   UNL A   1      30.550  29.138  22.666  1.00  0.00     0.238 S 
ATOM     22  O   UNL A   1      29.759  29.471  21.514  1.00  0.00    -0.207 OA
ATOM     23  O   UNL A   1      30.345  29.773  23.955  1.00  0.00    -0.207 OA
BRANCH  21  24
ATOM     24  N   UNL A   1      32.178  29.404  22.303  1.00  0.00    -0.225 NA
ATOM     25  H   UNL A   1      32.270  29.658  21.320  1.00  0.00     0.137 HD
ATOM     26  H   UNL A   1      32.711  28.553  22.486  1.00  0.00     0.137 HD
ENDBRANCH  21  24
ENDBRANCH  19  21
ENDBRANCH  13  15
ENDBRANCH  10  11
ENDBRANCH   7  10
ENDBRANCH   6   7
ENDBRANCH   3   6
ENDBRANCH   1   2
BRANCH   1  27
ATOM     27  C   UNL A   1      33.818  27.845  25.196  1.00  0.00     0.023 C 
BRANCH  27  28
ATOM     28  C   UNL A   1      32.677  28.253  26.118  1.00  0.00     0.023 C 
BRANCH  28  29
ATOM     29  C   UNL A   1      33.102  28.655  27.521  1.00  0.00     0.116 C 
BRANCH  29  30
ATOM     30  N   UNL A   1      33.247  30.099  27.693  1.00  0.00    -0.352 N 
ATOM     31  C   UNL A   1      34.359  30.824  28.040  1.00  0.00     0.251 C 
ATOM     32  H   UNL A   1      32.430  30.627  27.540  1.00  0.00     0.163 HD
ATOM     33  O   UNL A   1      34.299  32.033  28.216  1.00  0.00    -0.269 OA
BRANCH  31  34
ATOM     34  C   UNL A   1      35.613  30.086  28.243  1.00  0.00     0.039 A 
ATOM     35  C   UNL A   1      36.555  30.073  27.215  1.00  0.00     0.014 A 
ATOM     36  C   UNL A   1      35.907  29.579  29.511  1.00  0.00     0.014 A 
ATOM     37  C   UNL A   1      37.846  29.633  27.490  1.00  0.00     0.010 A 
ATOM     38  C   UNL A   1      37.215  29.231  29.804  1.00  0.00     0.010 A 
ATOM     39  C   UNL A   1      38.198  29.265  28.799  1.00  0.00    -0.014 A 
BRANCH  39  40
ATOM     40  C   UNL A   1      39.590  28.914  29.157  1.00  0.00     0.031 A 
ATOM     41  C   UNL A   1      40.450  29.938  29.839  1.00  0.00     0.074 A 
ATOM     42  C   UNL A   1      40.098  27.722  28.788  1.00  0.00     0.049 A 
ATOM     43  N   UNL A   1      41.723  29.886  30.126  1.00  0.00    -0.248 NA
ATOM     44  C   UNL A   1      39.796  31.205  30.213  1.00  0.00     0.031 C 
ATOM     45  C   UNL A   1      39.368  26.663  28.085  1.00  0.00     0.029 A 
ATOM     46  N   UNL A   1      41.358  27.202  28.948  1.00  0.00    -0.354 N 
ATOM     47  C   UNL A   1      42.028  31.120  30.686  1.00  0.00     0.074 A 
ATOM     48  C   UNL A   1      40.823  31.918  30.646  1.00  0.00     0.031 C 
ATOM     49  C   UNL A   1      40.182  25.609  27.907  1.00  0.00     0.029 A 
ATOM     50  C   UNL A   1      41.501  25.932  28.440  1.00  0.00     0.049 A 
ATOM     51  H   UNL A   1      42.091  27.692  29.386  1.00  0.00     0.167 HD
ATOM     52  C   UNL A   1      43.201  31.543  31.210  1.00  0.00     0.031 A 
ATOM     53  C   UNL A   1      42.578  25.125  28.403  1.00  0.00     0.031 A 
ATOM     54  C   UNL A   1      44.386  30.733  31.268  1.00  0.00     0.049 A 
ATOM     55  C   UNL A   1      43.875  25.618  28.980  1.00  0.00     0.074 A 
ATOM     56  C   UNL A   1      45.612  31.038  31.829  1.00  0.00     0.029 A 
ATOM     57  N   UNL A   1      44.489  29.452  30.746  1.00  0.00    -0.354 N 
ATOM     58  N   UNL A   1      44.134  26.770  29.553  1.00  0.00    -0.248 NA
ATOM     59  C   UNL A   1      45.025  24.707  28.906  1.00  0.00     0.031 C 
ATOM     60  C   UNL A   1      46.469  29.955  31.613  1.00  0.00     0.029 A 
ATOM     61  C   UNL A   1      45.763  28.959  30.954  1.00  0.00     0.049 A 
ATOM     62  H   UNL A   1      43.761  28.966  30.295  1.00  0.00     0.167 HD
ATOM     63  C   UNL A   1      45.472  26.716  29.923  1.00  0.00     0.074 A 
ATOM     64  C   UNL A   1      45.965  25.414  29.520  1.00  0.00     0.031 C 
ATOM     65  C   UNL A   1      46.227  27.658  30.540  1.00  0.00     0.031 A 
BRANCH  52  66
ATOM     66  C   UNL A   1      43.240  32.944  31.755  1.00  0.00    -0.014 A 
ATOM     67  C   UNL A   1      43.659  34.020  30.951  1.00  0.00     0.010 A 
ATOM     68  C   UNL A   1      42.874  33.188  33.089  1.00  0.00     0.010 A 
ATOM     69  C   UNL A   1      43.771  35.304  31.489  1.00  0.00     0.020 A 
ATOM     70  C   UNL A   1      42.956  34.477  33.624  1.00  0.00     0.020 A 
ATOM     71  C   UNL A   1      43.429  35.522  32.825  1.00  0.00     0.054 A 
BRANCH  71  72
ATOM     72  S   UNL A   1      43.595  37.195  33.505  1.00  0.00     0.124 S 
ATOM     73  O   UNL A   1      44.810  37.072  34.307  1.00  0.00    -0.237 OA
ATOM     74  O   UNL A   1      43.716  38.020  32.305  1.00  0.00    -0.237 OA
ATOM     75  O   UNL A   1      42.363  37.383  34.266  1.00  0.00    -0.744 OA
ENDBRANCH  71  72
ENDBRANCH  52  66
BRANCH  53  76
ATOM     76  C   UNL A   1      42.466  23.761  27.819  1.00  0.00    -0.014 A 
ATOM     77  C   UNL A   1      42.986  23.496  26.540  1.00  0.00     0.010 A 
ATOM     78  C   UNL A   1      41.868  22.714  28.544  1.00  0.00     0.010 A 
ATOM     79  C   UNL A   1      42.904  22.213  25.992  1.00  0.00     0.020 A 
ATOM     80  C   UNL A   1      41.803  21.423  28.008  1.00  0.00     0.020 A 
ATOM     81  C   UNL A   1      42.315  21.184  26.730  1.00  0.00     0.054 A 
BRANCH  81  82
ATOM     82  S   UNL A   1      42.277  19.512  26.024  1.00  0.00     0.124 S 
ATOM     83  O   UNL A   1      42.841  18.714  27.108  1.00  0.00    -0.237 OA
ATOM     84  O   UNL A   1      40.855  19.310  25.762  1.00  0.00    -0.237 OA
ATOM     85  O   UNL A   1      43.112  19.627  24.830  1.00  0.00    -0.744 OA
ENDBRANCH  81  82
ENDBRANCH  53  76
BRANCH  65  86
ATOM     86  C   UNL A   1      47.659  27.313  30.833  1.00  0.00    -0.014 A 
ATOM     87  C   UNL A   1      47.986  26.413  31.861  1.00  0.00     0.010 A 
ATOM     88  C   UNL A   1      48.679  27.829  30.015  1.00  0.00     0.010 A 
ATOM     89  C   UNL A   1      49.315  26.040  32.072  1.00  0.00     0.020 A 
ATOM     90  C   UNL A   1      50.007  27.442  30.209  1.00  0.00     0.020 A 
ATOM     91  C   UNL A   1      50.317  26.555  31.242  1.00  0.00     0.054 A 
BRANCH  91  92
ATOM     92  S   UNL A   1      52.025  25.996  31.487  1.00  0.00     0.124 S 
ATOM     93  O   UNL A   1      52.555  27.022  32.380  1.00  0.00    -0.237 OA
ATOM     94  O   UNL A   1      51.849  24.674  32.083  1.00  0.00    -0.237 OA
ATOM     95  O   UNL A   1      52.585  25.993  30.137  1.00  0.00    -0.744 OA
ENDBRANCH  91  92
ENDBRANCH  65  86
ENDBRANCH  39  40
ENDBRANCH  31  34
ENDBRANCH  29  30
ENDBRANCH  28  29
ENDBRANCH  27  28
ENDBRANCH   1  27
TORSDOF 20
ENDMDL
MODEL 3
REMARK VINA RESULT:     -10.8      1.247      8.310
REMARK SMILES CC(C)(CC(=O)NCCCCNC(=O)c1ccc(-c2c3nc(c(-c4ccc(S(=O)(=O)[O-])cc4)c4ccc([nH]4)c(-c4ccc(S(=O)(=O)[O-])cc4)c4nc(c(-c5ccc(S(=O)(=O)[O-])cc5)c5ccc2[nH]5)C=C4)C=C3)cc1)CC(=O)Nc1cccc(S(N)(=O)=O)c1
REMARK SMILES IDX 8 1 7 2 5 3 6 4 4 6 2 7 1 8 3 9 75 10 76 11 77 12 78 13
REMARK SMILES IDX 79 15 80 16 88 17 81 18 83 19 82 20 84 21 86 22 87 23 85 24
REMARK SMILES IDX 9 27 10 28 11 29 12 30 13 31 14 33 15 34 16 35 74 36 17 37
REMARK SMILES IDX 73 38 18 39 19 40 20 41 67 42 21 43 72 44 66 45 68 46 22 47
REMARK SMILES IDX 71 48 65 49 64 50 23 52 53 53 34 54 52 55 35 56 38 57 51 58
REMARK SMILES IDX 69 59 36 60 37 61 50 63 70 64 39 65 24 66 25 67 33 68 26 69
REMARK SMILES IDX 32 70 27 71 28 72 29 73 30 74 31 75 54 76 55 77 63 78 56 79
REMARK SMILES IDX 62 80 57 81 58 82 59 83 60 84 61 85 40 86 41 87 49 88 42 89
REMARK SMILES IDX 48 90 43 91 44 92 45 93 46 94 47 95
REMARK H PARENT 7 5 78 14 85 25 85 26 12 32 68 51 38 62
REMARK Flexibility Score: inf
ROOT
ATOM      1  C   UNL A   1      33.937  26.280  24.445  1.00  0.00     0.116 C 
ENDROOT
BRANCH   1   2
ATOM      2  N   UNL A   1      34.790  25.590  25.383  1.00  0.00    -0.356 N 
ATOM      3  C   UNL A   1      34.915  24.245  25.513  1.00  0.00     0.220 C 
ATOM      4  O   UNL A   1      36.012  23.790  25.840  1.00  0.00    -0.275 OA
ATOM      5  H   UNL A   1      35.333  26.147  25.984  1.00  0.00     0.163 HD
BRANCH   3   6
ATOM      6  C   UNL A   1      33.763  23.318  25.162  1.00  0.00     0.107 C 
BRANCH   6   7
ATOM      7  C   UNL A   1      32.539  23.141  26.113  1.00  0.00    -0.018 C 
ATOM      8  C   UNL A   1      31.550  22.097  25.568  1.00  0.00     0.012 C 
ATOM      9  C   UNL A   1      33.116  22.531  27.420  1.00  0.00     0.012 C 
BRANCH   7  10
ATOM     10  C   UNL A   1      31.744  24.408  26.544  1.00  0.00     0.107 C 
BRANCH  10  11
ATOM     11  C   UNL A   1      30.237  24.400  26.434  1.00  0.00     0.224 C 
ATOM     12  O   UNL A   1      29.570  23.759  27.253  1.00  0.00    -0.275 OA
ATOM     13  N   UNL A   1      29.560  25.130  25.502  1.00  0.00    -0.326 N 
ATOM     14  H   UNL A   1      28.618  25.282  25.747  1.00  0.00     0.169 HD
BRANCH  13  15
ATOM     15  C   UNL A   1      29.907  25.715  24.267  1.00  0.00     0.042 A 
ATOM     16  C   UNL A   1      30.759  24.963  23.442  1.00  0.00     0.026 A 
ATOM     17  C   UNL A   1      29.623  27.024  23.895  1.00  0.00     0.047 A 
ATOM     18  C   UNL A   1      31.382  25.535  22.326  1.00  0.00     0.004 A 
ATOM     19  C   UNL A   1      30.318  27.618  22.838  1.00  0.00     0.084 A 
ATOM     20  C   UNL A   1      31.185  26.880  22.037  1.00  0.00     0.022 A 
BRANCH  19  21
ATOM     21  S   UNL A   1      30.241  29.376  22.626  1.00  0.00     0.238 S 
ATOM     22  O   UNL A   1      29.259  29.681  21.623  1.00  0.00    -0.207 OA
ATOM     23  O   UNL A   1      30.230  30.004  23.935  1.00  0.00    -0.207 OA
BRANCH  21  24
ATOM     24  N   UNL A   1      31.776  29.698  22.000  1.00  0.00    -0.225 NA
ATOM     25  H   UNL A   1      32.486  29.361  22.649  1.00  0.00     0.137 HD
ATOM     26  H   UNL A   1      31.886  30.704  21.868  1.00  0.00     0.137 HD
ENDBRANCH  21  24
ENDBRANCH  19  21
ENDBRANCH  13  15
ENDBRANCH  10  11
ENDBRANCH   7  10
ENDBRANCH   6   7
ENDBRANCH   3   6
ENDBRANCH   1   2
BRANCH   1  27
ATOM     27  C   UNL A   1      33.716  27.746  24.795  1.00  0.00     0.023 C 
BRANCH  27  28
ATOM     28  C   UNL A   1      32.688  28.003  25.888  1.00  0.00     0.023 C 
BRANCH  28  29
ATOM     29  C   UNL A   1      33.273  28.335  27.251  1.00  0.00     0.116 C 
BRANCH  29  30
ATOM     30  N   UNL A   1      33.245  29.763  27.563  1.00  0.00    -0.352 N 
ATOM     31  C   UNL A   1      34.259  30.572  28.010  1.00  0.00     0.251 C 
ATOM     32  H   UNL A   1      32.375  30.206  27.436  1.00  0.00     0.163 HD
ATOM     33  O   UNL A   1      34.055  31.744  28.298  1.00  0.00    -0.269 OA
BRANCH  31  34
ATOM     34  C   UNL A   1      35.586  29.966  28.179  1.00  0.00     0.039 A 
ATOM     35  C   UNL A   1      36.485  30.016  27.114  1.00  0.00     0.014 A 
ATOM     36  C   UNL A   1      35.978  29.526  29.446  1.00  0.00     0.014 A 
ATOM     37  C   UNL A   1      37.823  29.712  27.346  1.00  0.00     0.010 A 
ATOM     38  C   UNL A   1      37.324  29.316  29.693  1.00  0.00     0.010 A 
ATOM     39  C   UNL A   1      38.259  29.418  28.648  1.00  0.00    -0.014 A 
BRANCH  39  40
ATOM     40  C   UNL A   1      39.692  29.213  28.957  1.00  0.00     0.031 A 
ATOM     41  C   UNL A   1      40.328  27.892  28.634  1.00  0.00     0.074 A 
ATOM     42  C   UNL A   1      40.383  30.172  29.605  1.00  0.00     0.049 A 
ATOM     43  N   UNL A   1      41.523  27.459  28.932  1.00  0.00    -0.248 NA
ATOM     44  C   UNL A   1      39.492  26.916  27.913  1.00  0.00     0.031 C 
ATOM     45  C   UNL A   1      39.857  31.480  30.005  1.00  0.00     0.029 A 
ATOM     46  N   UNL A   1      41.681  30.189  30.048  1.00  0.00    -0.354 N 
ATOM     47  C   UNL A   1      41.572  26.153  28.461  1.00  0.00     0.074 A 
ATOM     48  C   UNL A   1      40.271  25.847  27.911  1.00  0.00     0.031 C 
ATOM     49  C   UNL A   1      40.833  32.184  30.603  1.00  0.00     0.029 A 
ATOM     50  C   UNL A   1      42.037  31.363  30.669  1.00  0.00     0.049 A 
ATOM     51  H   UNL A   1      42.299  29.432  29.933  1.00  0.00     0.167 HD
ATOM     52  C   UNL A   1      42.616  25.293  28.464  1.00  0.00     0.031 A 
ATOM     53  C   UNL A   1      43.203  31.730  31.234  1.00  0.00     0.031 A 
ATOM     54  C   UNL A   1      43.913  25.615  28.990  1.00  0.00     0.049 A 
ATOM     55  C   UNL A   1      44.347  30.755  31.236  1.00  0.00     0.074 A 
ATOM     56  C   UNL A   1      45.059  24.842  28.992  1.00  0.00     0.029 A 
ATOM     57  N   UNL A   1      44.235  26.815  29.607  1.00  0.00    -0.354 N 
ATOM     58  N   UNL A   1      44.393  29.541  30.741  1.00  0.00    -0.248 NA
ATOM     59  C   UNL A   1      45.595  31.197  31.874  1.00  0.00     0.031 C 
ATOM     60  C   UNL A   1      46.065  25.561  29.645  1.00  0.00     0.029 A 
ATOM     61  C   UNL A   1      45.556  26.799  30.011  1.00  0.00     0.049 A 
ATOM     62  H   UNL A   1      43.614  27.569  29.737  1.00  0.00     0.167 HD
ATOM     63  C   UNL A   1      45.680  29.079  30.992  1.00  0.00     0.074 A 
ATOM     64  C   UNL A   1      46.383  30.148  31.673  1.00  0.00     0.031 C 
ATOM     65  C   UNL A   1      46.230  27.878  30.689  1.00  0.00     0.031 A 
BRANCH  52  66
ATOM     66  C   UNL A   1      42.378  23.928  27.878  1.00  0.00    -0.014 A 
ATOM     67  C   UNL A   1      41.928  22.865  28.683  1.00  0.00     0.010 A 
ATOM     68  C   UNL A   1      42.626  23.697  26.515  1.00  0.00     0.010 A 
ATOM     69  C   UNL A   1      41.789  21.583  28.149  1.00  0.00     0.020 A 
ATOM     70  C   UNL A   1      42.460  22.421  25.969  1.00  0.00     0.020 A 
ATOM     71  C   UNL A   1      42.066  21.366  26.797  1.00  0.00     0.054 A 
BRANCH  71  72
ATOM     72  S   UNL A   1      41.892  19.690  26.129  1.00  0.00     0.124 S 
ATOM     73  O   UNL A   1      40.474  19.655  25.777  1.00  0.00    -0.237 OA
ATOM     74  O   UNL A   1      42.819  19.694  25.000  1.00  0.00    -0.237 OA
ATOM     75  O   UNL A   1      42.279  18.831  27.245  1.00  0.00    -0.744 OA
ENDBRANCH  71  72
ENDBRANCH  52  66
BRANCH  53  76
ATOM     76  C   UNL A   1      43.351  33.090  31.820  1.00  0.00    -0.014 A 
ATOM     77  C   UNL A   1      43.016  33.318  33.166  1.00  0.00     0.010 A 
ATOM     78  C   UNL A   1      43.852  34.155  31.050  1.00  0.00     0.010 A 
ATOM     79  C   UNL A   1      43.170  34.587  33.731  1.00  0.00     0.020 A 
ATOM     80  C   UNL A   1      44.028  35.422  31.618  1.00  0.00     0.020 A 
ATOM     81  C   UNL A   1      43.677  35.631  32.954  1.00  0.00     0.054 A 
BRANCH  81  82
ATOM     82  S   UNL A   1      43.930  37.254  33.726  1.00  0.00     0.124 S 
ATOM     83  O   UNL A   1      43.143  37.133  34.949  1.00  0.00    -0.237 OA
ATOM     84  O   UNL A   1      45.378  37.298  33.906  1.00  0.00    -0.237 OA
ATOM     85  O   UNL A   1      43.405  38.190  32.734  1.00  0.00    -0.744 OA
ENDBRANCH  81  82
ENDBRANCH  53  76
BRANCH  65  86
ATOM     86  C   UNL A   1      47.666  27.659  31.073  1.00  0.00    -0.014 A 
ATOM     87  C   UNL A   1      47.998  27.057  32.298  1.00  0.00     0.010 A 
ATOM     88  C   UNL A   1      48.686  27.981  30.162  1.00  0.00     0.010 A 
ATOM     89  C   UNL A   1      49.333  26.788  32.610  1.00  0.00     0.020 A 
ATOM     90  C   UNL A   1      50.020  27.695  30.460  1.00  0.00     0.020 A 
ATOM     91  C   UNL A   1      50.335  27.105  31.686  1.00  0.00     0.054 A 
BRANCH  91  92
ATOM     92  S   UNL A   1      52.052  26.676  32.081  1.00  0.00     0.124 S 
ATOM     93  O   UNL A   1      52.455  25.917  30.901  1.00  0.00    -0.237 OA
ATOM     94  O   UNL A   1      52.685  27.984  32.233  1.00  0.00    -0.237 OA
ATOM     95  O   UNL A   1      51.939  25.899  33.314  1.00  0.00    -0.744 OA
ENDBRANCH  91  92
ENDBRANCH  65  86
ENDBRANCH  39  40
ENDBRANCH  31  34
ENDBRANCH  29  30
ENDBRANCH  28  29
ENDBRANCH  27  28
ENDBRANCH   1  27
TORSDOF 20
ENDMDL
