MODEL 1
REMARK VINA RESULT:     -10.0      0.000      0.000
REMARK SMILES C=CC[C@@H](NC(=O)OCc1ccccc1)C(=O)NCCCCNC(=O)c1ccc(-c2c3nc(c(-c4ccc(S(=O)(=O)[O-])cc4)c4ccc([nH]4)c(-c4ccc(S(=O)(=O)[O-])cc4)c4nc(c(-c5ccc(S(=O)(=O)[O-])cc5)c5ccc2[nH]5)C=C4)C=C3)cc1
REMARK SMILES IDX 20 1 19 2 18 3 16 4 17 5 4 7 3 8 2 9 1 10 5 11 6 12 7 14
REMARK SMILES IDX 8 15 9 16 10 17 11 18 15 19 12 20 14 21 13 22 21 23 22 24
REMARK SMILES IDX 23 25 24 26 25 28 26 29 27 30 85 31 28 32 84 33 29 34 30 35
REMARK SMILES IDX 31 36 78 37 32 38 83 39 77 40 79 41 33 42 82 43 76 44 75 45
REMARK SMILES IDX 34 47 64 48 45 49 63 50 46 51 49 52 62 53 80 54 47 55 48 56
REMARK SMILES IDX 61 58 81 59 50 60 35 61 36 62 44 63 37 64 43 65 38 66 39 67
REMARK SMILES IDX 40 68 41 69 42 70 65 71 66 72 74 73 67 74 73 75 68 76 69 77
REMARK SMILES IDX 70 78 71 79 72 80 51 81 52 82 60 83 53 84 59 85 54 86 55 87
REMARK SMILES IDX 56 88 57 89 58 90
REMARK H PARENT 18 6 5 13 23 27 79 46 49 57
REMARK Flexibility Score: inf
ROOT
ATOM      1  C   UNL A   1      36.793  20.396  25.087  1.00  0.00     0.023 C 
ENDROOT
BRANCH   1   2
ATOM      2  C   UNL A   1      35.456  21.014  25.462  1.00  0.00     0.116 C 
BRANCH   2   3
ATOM      3  N   UNL A   1      34.386  20.035  25.400  1.00  0.00    -0.354 N 
ATOM      4  C   UNL A   1      33.041  20.234  25.250  1.00  0.00     0.243 C 
ATOM      5  O   UNL A   1      32.302  19.246  25.301  1.00  0.00    -0.273 OA
ATOM      6  H   UNL A   1      34.668  19.096  25.476  1.00  0.00     0.163 HD
BRANCH   4   7
ATOM      7  C   UNL A   1      32.451  21.663  25.204  1.00  0.00     0.178 C 
BRANCH   7   8
ATOM      8  C   UNL A   1      32.046  21.873  23.717  1.00  0.00     0.062 C 
BRANCH   8   9
ATOM      9  C   UNL A   1      32.708  23.000  22.971  1.00  0.00    -0.032 C 
ATOM     10  C   UNL A   1      34.030  23.058  22.769  1.00  0.00     0.004 C 
ENDBRANCH   8   9
ENDBRANCH   7   8
BRANCH   7  11
ATOM     11  N   UNL A   1      31.323  21.908  26.115  1.00  0.00    -0.309 N 
ATOM     12  C   UNL A   1      31.010  23.061  26.773  1.00  0.00     0.408 C 
ATOM     13  H   UNL A   1      30.719  21.147  26.269  1.00  0.00     0.167 HD
ATOM     14  O   UNL A   1      30.003  23.121  27.468  1.00  0.00    -0.225 OA
BRANCH  12  15
ATOM     15  O   UNL A   1      31.966  24.008  26.686  1.00  0.00    -0.445 OA
BRANCH  15  16
ATOM     16  C   UNL A   1      31.509  25.350  26.476  1.00  0.00     0.270 C 
BRANCH  16  17
ATOM     17  C   UNL A   1      31.977  25.851  25.144  1.00  0.00    -0.011 A 
ATOM     18  C   UNL A   1      33.314  26.228  24.968  1.00  0.00     0.007 A 
ATOM     19  C   UNL A   1      31.070  26.015  24.090  1.00  0.00     0.007 A 
ATOM     20  C   UNL A   1      33.735  26.782  23.763  1.00  0.00     0.000 A 
ATOM     21  C   UNL A   1      31.495  26.566  22.881  1.00  0.00     0.000 A 
ATOM     22  C   UNL A   1      32.825  26.956  22.722  1.00  0.00     0.000 A 
ENDBRANCH  16  17
ENDBRANCH  15  16
ENDBRANCH  12  15
ENDBRANCH   7  11
ENDBRANCH   4   7
ENDBRANCH   2   3
ENDBRANCH   1   2
BRANCH   1  23
ATOM     23  C   UNL A   1      37.913  21.419  24.922  1.00  0.00     0.023 C 
BRANCH  23  24
ATOM     24  C   UNL A   1      38.959  21.396  26.031  1.00  0.00     0.116 C 
BRANCH  24  25
ATOM     25  N   UNL A   1      39.749  20.174  26.027  1.00  0.00    -0.352 N 
ATOM     26  C   UNL A   1      41.115  20.041  26.102  1.00  0.00     0.251 C 
ATOM     27  H   UNL A   1      39.240  19.334  25.960  1.00  0.00     0.163 HD
ATOM     28  O   UNL A   1      41.646  18.954  25.895  1.00  0.00    -0.269 OA
BRANCH  26  29
ATOM     29  C   UNL A   1      41.931  21.232  26.412  1.00  0.00     0.039 A 
ATOM     30  C   UNL A   1      42.326  22.073  25.372  1.00  0.00     0.014 A 
ATOM     31  C   UNL A   1      42.251  21.539  27.737  1.00  0.00     0.014 A 
ATOM     32  C   UNL A   1      42.990  23.264  25.670  1.00  0.00     0.010 A 
ATOM     33  C   UNL A   1      42.833  22.765  28.037  1.00  0.00     0.010 A 
ATOM     34  C   UNL A   1      43.213  23.638  27.008  1.00  0.00    -0.014 A 
BRANCH  34  35
ATOM     35  C   UNL A   1      43.840  24.942  27.347  1.00  0.00     0.031 A 
ATOM     36  C   UNL A   1      42.991  26.078  27.849  1.00  0.00     0.074 A 
ATOM     37  C   UNL A   1      45.162  25.118  27.151  1.00  0.00     0.049 A 
ATOM     38  N   UNL A   1      43.347  27.300  28.152  1.00  0.00    -0.248 NA
ATOM     39  C   UNL A   1      41.550  25.817  28.007  1.00  0.00     0.031 C 
ATOM     40  C   UNL A   1      46.086  24.107  26.630  1.00  0.00     0.029 A 
ATOM     41  N   UNL A   1      45.960  26.215  27.362  1.00  0.00    -0.354 N 
ATOM     42  C   UNL A   1      42.177  27.953  28.525  1.00  0.00     0.074 A 
ATOM     43  C   UNL A   1      41.093  27.012  28.353  1.00  0.00     0.031 C 
ATOM     44  C   UNL A   1      47.325  24.619  26.594  1.00  0.00     0.029 A 
ATOM     45  C   UNL A   1      47.281  26.008  27.040  1.00  0.00     0.049 A 
ATOM     46  H   UNL A   1      45.618  27.070  27.711  1.00  0.00     0.167 HD
ATOM     47  C   UNL A   1      42.022  29.216  28.989  1.00  0.00     0.031 A 
ATOM     48  C   UNL A   1      48.338  26.844  27.089  1.00  0.00     0.031 A 
ATOM     49  C   UNL A   1      43.104  30.147  29.162  1.00  0.00     0.049 A 
ATOM     50  C   UNL A   1      48.135  28.250  27.585  1.00  0.00     0.074 A 
ATOM     51  C   UNL A   1      43.058  31.432  29.673  1.00  0.00     0.029 A 
ATOM     52  N   UNL A   1      44.426  29.899  28.826  1.00  0.00    -0.354 N 
ATOM     53  N   UNL A   1      47.031  28.827  27.999  1.00  0.00    -0.248 NA
ATOM     54  C   UNL A   1      49.321  29.115  27.632  1.00  0.00     0.031 C 
ATOM     55  C   UNL A   1      44.339  31.983  29.585  1.00  0.00     0.029 A 
ATOM     56  C   UNL A   1      45.200  31.017  29.090  1.00  0.00     0.049 A 
ATOM     57  H   UNL A   1      44.765  29.052  28.454  1.00  0.00     0.167 HD
ATOM     58  C   UNL A   1      47.398  30.112  28.384  1.00  0.00     0.074 A 
ATOM     59  C   UNL A   1      48.826  30.220  28.171  1.00  0.00     0.031 C 
ATOM     60  C   UNL A   1      46.621  31.111  28.874  1.00  0.00     0.031 A 
BRANCH  47  61
ATOM     61  C   UNL A   1      40.627  29.664  29.340  1.00  0.00    -0.014 A 
ATOM     62  C   UNL A   1      39.648  29.843  28.345  1.00  0.00     0.010 A 
ATOM     63  C   UNL A   1      40.274  29.864  30.688  1.00  0.00     0.010 A 
ATOM     64  C   UNL A   1      38.355  30.249  28.688  1.00  0.00     0.020 A 
ATOM     65  C   UNL A   1      38.974  30.238  31.037  1.00  0.00     0.020 A 
ATOM     66  C   UNL A   1      38.026  30.443  30.031  1.00  0.00     0.054 A 
BRANCH  66  67
ATOM     67  S   UNL A   1      36.331  30.937  30.447  1.00  0.00     0.124 S 
ATOM     68  O   UNL A   1      35.596  30.523  29.254  1.00  0.00    -0.237 OA
ATOM     69  O   UNL A   1      36.060  30.160  31.653  1.00  0.00    -0.237 OA
ATOM     70  O   UNL A   1      36.429  32.381  30.647  1.00  0.00    -0.744 OA
ENDBRANCH  66  67
ENDBRANCH  47  61
BRANCH  48  71
ATOM     71  C   UNL A   1      49.684  26.370  26.661  1.00  0.00    -0.014 A 
ATOM     72  C   UNL A   1      50.591  25.840  27.597  1.00  0.00     0.010 A 
ATOM     73  C   UNL A   1      50.068  26.447  25.308  1.00  0.00     0.010 A 
ATOM     74  C   UNL A   1      51.861  25.420  27.193  1.00  0.00     0.020 A 
ATOM     75  C   UNL A   1      51.324  25.997  24.896  1.00  0.00     0.020 A 
ATOM     76  C   UNL A   1      52.219  25.498  25.844  1.00  0.00     0.054 A 
BRANCH  76  77
ATOM     77  S   UNL A   1      53.858  24.906  25.339  1.00  0.00     0.124 S 
ATOM     78  O   UNL A   1      54.106  25.689  24.133  1.00  0.00    -0.237 OA
ATOM     79  O   UNL A   1      54.684  25.243  26.496  1.00  0.00    -0.237 OA
ATOM     80  O   UNL A   1      53.653  23.475  25.125  1.00  0.00    -0.744 OA
ENDBRANCH  76  77
ENDBRANCH  48  71
BRANCH  60  81
ATOM     81  C   UNL A   1      47.303  32.401  29.252  1.00  0.00    -0.014 A 
ATOM     82  C   UNL A   1      47.483  33.438  28.321  1.00  0.00     0.010 A 
ATOM     83  C   UNL A   1      47.720  32.597  30.583  1.00  0.00     0.010 A 
ATOM     84  C   UNL A   1      48.097  34.633  28.703  1.00  0.00     0.020 A 
ATOM     85  C   UNL A   1      48.302  33.802  30.978  1.00  0.00     0.020 A 
ATOM     86  C   UNL A   1      48.500  34.809  30.031  1.00  0.00     0.054 A 
BRANCH  86  87
ATOM     87  S   UNL A   1      49.252  36.387  30.511  1.00  0.00     0.124 S 
ATOM     88  O   UNL A   1      48.255  36.934  31.427  1.00  0.00    -0.237 OA
ATOM     89  O   UNL A   1      50.509  35.968  31.127  1.00  0.00    -0.237 OA
ATOM     90  O   UNL A   1      49.394  37.104  29.246  1.00  0.00    -0.744 OA
ENDBRANCH  86  87
ENDBRANCH  60  81
ENDBRANCH  34  35
ENDBRANCH  26  29
ENDBRANCH  24  25
ENDBRANCH  23  24
ENDBRANCH   1  23
TORSDOF 20
ENDMDL
MODEL 2
REMARK VINA RESULT:      -9.8      0.900      8.334
REMARK SMILES C=CC[C@@H](NC(=O)OCc1ccccc1)C(=O)NCCCCNC(=O)c1ccc(-c2c3nc(c(-c4ccc(S(=O)(=O)[O-])cc4)c4ccc([nH]4)c(-c4ccc(S(=O)(=O)[O-])cc4)c4nc(c(-c5ccc(S(=O)(=O)[O-])cc5)c5ccc2[nH]5)C=C4)C=C3)cc1
REMARK SMILES IDX 20 1 19 2 18 3 16 4 17 5 4 7 3 8 2 9 1 10 5 11 6 12 7 14
REMARK SMILES IDX 8 15 9 16 10 17 11 18 15 19 12 20 14 21 13 22 21 23 22 24
REMARK SMILES IDX 23 25 24 26 25 28 26 29 27 30 85 31 28 32 84 33 29 34 30 35
REMARK SMILES IDX 31 36 78 37 32 38 83 39 77 40 79 41 33 42 82 43 76 44 75 45
REMARK SMILES IDX 34 47 64 48 45 49 63 50 46 51 49 52 62 53 80 54 47 55 48 56
REMARK SMILES IDX 61 58 81 59 50 60 35 61 36 62 44 63 37 64 43 65 38 66 39 67
REMARK SMILES IDX 40 68 41 69 42 70 65 71 66 72 74 73 67 74 73 75 68 76 69 77
REMARK SMILES IDX 70 78 71 79 72 80 51 81 52 82 60 83 53 84 59 85 54 86 55 87
REMARK SMILES IDX 56 88 57 89 58 90
REMARK H PARENT 18 6 5 13 23 27 79 46 49 57
REMARK Flexibility Score: inf
ROOT
ATOM      1  C   UNL A   1      37.016  21.357  25.638  1.00  0.00     0.023 C 
ENDROOT
BRANCH   1   2
ATOM      2  C   UNL A   1      35.828  21.152  24.711  1.00  0.00     0.116 C 
BRANCH   2   3
ATOM      3  N   UNL A   1      34.915  20.153  25.236  1.00  0.00    -0.354 N 
ATOM      4  C   UNL A   1      33.559  20.224  25.402  1.00  0.00     0.243 C 
ATOM      5  O   UNL A   1      32.992  19.271  25.945  1.00  0.00    -0.273 OA
ATOM      6  H   UNL A   1      35.330  19.305  25.512  1.00  0.00     0.163 HD
BRANCH   4   7
ATOM      7  C   UNL A   1      32.789  21.529  25.090  1.00  0.00     0.178 C 
BRANCH   7   8
ATOM      8  C   UNL A   1      32.120  21.270  23.710  1.00  0.00     0.062 C 
BRANCH   8   9
ATOM      9  C   UNL A   1      32.379  22.270  22.616  1.00  0.00    -0.032 C 
ATOM     10  C   UNL A   1      33.416  23.117  22.638  1.00  0.00     0.004 C 
ENDBRANCH   8   9
ENDBRANCH   7   8
BRANCH   7  11
ATOM     11  N   UNL A   1      31.806  21.939  26.104  1.00  0.00    -0.309 N 
ATOM     12  C   UNL A   1      31.377  23.199  26.397  1.00  0.00     0.408 C 
ATOM     13  H   UNL A   1      31.408  21.213  26.636  1.00  0.00     0.167 HD
ATOM     14  O   UNL A   1      30.512  23.374  27.247  1.00  0.00    -0.225 OA
BRANCH  12  15
ATOM     15  O   UNL A   1      32.088  24.167  25.784  1.00  0.00    -0.445 OA
BRANCH  15  16
ATOM     16  C   UNL A   1      31.350  25.324  25.367  1.00  0.00     0.270 C 
BRANCH  16  17
ATOM     17  C   UNL A   1      31.940  26.558  25.978  1.00  0.00    -0.011 A 
ATOM     18  C   UNL A   1      33.268  26.909  25.707  1.00  0.00     0.007 A 
ATOM     19  C   UNL A   1      31.194  27.328  26.879  1.00  0.00     0.007 A 
ATOM     20  C   UNL A   1      33.850  28.001  26.343  1.00  0.00     0.000 A 
ATOM     21  C   UNL A   1      31.779  28.424  27.512  1.00  0.00     0.000 A 
ATOM     22  C   UNL A   1      33.108  28.754  27.249  1.00  0.00     0.000 A 
ENDBRANCH  16  17
ENDBRANCH  15  16
ENDBRANCH  12  15
ENDBRANCH   7  11
ENDBRANCH   4   7
ENDBRANCH   2   3
ENDBRANCH   1   2
BRANCH   1  23
ATOM     23  C   UNL A   1      38.236  20.523  25.259  1.00  0.00     0.023 C 
BRANCH  23  24
ATOM     24  C   UNL A   1      39.471  20.787  26.113  1.00  0.00     0.116 C 
BRANCH  24  25
ATOM     25  N   UNL A   1      40.395  19.661  26.121  1.00  0.00    -0.352 N 
ATOM     26  C   UNL A   1      41.768  19.684  26.152  1.00  0.00     0.251 C 
ATOM     27  H   UNL A   1      39.981  18.768  26.100  1.00  0.00     0.163 HD
ATOM     28  O   UNL A   1      42.412  18.657  25.962  1.00  0.00    -0.269 OA
BRANCH  26  29
ATOM     29  C   UNL A   1      42.453  20.969  26.394  1.00  0.00     0.039 A 
ATOM     30  C   UNL A   1      42.795  21.771  25.305  1.00  0.00     0.014 A 
ATOM     31  C   UNL A   1      42.703  21.399  27.700  1.00  0.00     0.014 A 
ATOM     32  C   UNL A   1      43.330  23.041  25.531  1.00  0.00     0.010 A 
ATOM     33  C   UNL A   1      43.153  22.694  27.924  1.00  0.00     0.010 A 
ATOM     34  C   UNL A   1      43.475  23.527  26.843  1.00  0.00    -0.014 A 
BRANCH  34  35
ATOM     35  C   UNL A   1      43.961  24.907  27.102  1.00  0.00     0.031 A 
ATOM     36  C   UNL A   1      45.419  25.238  26.929  1.00  0.00     0.074 A 
ATOM     37  C   UNL A   1      43.101  25.846  27.545  1.00  0.00     0.049 A 
ATOM     38  N   UNL A   1      46.039  26.368  27.150  1.00  0.00    -0.248 NA
ATOM     39  C   UNL A   1      46.301  24.150  26.472  1.00  0.00     0.031 C 
ATOM     40  C   UNL A   1      41.671  25.640  27.792  1.00  0.00     0.029 A 
ATOM     41  N   UNL A   1      43.304  27.164  27.872  1.00  0.00    -0.354 N 
ATOM     42  C   UNL A   1      47.379  26.125  26.872  1.00  0.00     0.074 A 
ATOM     43  C   UNL A   1      47.493  24.727  26.523  1.00  0.00     0.031 C 
ATOM     44  C   UNL A   1      41.123  26.795  28.199  1.00  0.00     0.029 A 
ATOM     45  C   UNL A   1      42.166  27.812  28.290  1.00  0.00     0.049 A 
ATOM     46  H   UNL A   1      44.183  27.604  27.812  1.00  0.00     0.167 HD
ATOM     47  C   UNL A   1      48.419  26.993  26.884  1.00  0.00     0.031 A 
ATOM     48  C   UNL A   1      41.981  29.080  28.709  1.00  0.00     0.031 A 
ATOM     49  C   UNL A   1      48.300  28.385  27.228  1.00  0.00     0.049 A 
ATOM     50  C   UNL A   1      43.157  30.019  28.737  1.00  0.00     0.074 A 
ATOM     51  C   UNL A   1      49.283  29.358  27.221  1.00  0.00     0.029 A 
ATOM     52  N   UNL A   1      47.130  29.002  27.645  1.00  0.00    -0.354 N 
ATOM     53  N   UNL A   1      44.405  29.787  28.402  1.00  0.00    -0.248 NA
ATOM     54  C   UNL A   1      42.899  31.392  29.188  1.00  0.00     0.031 C 
ATOM     55  C   UNL A   1      48.723  30.548  27.696  1.00  0.00     0.029 A 
ATOM     56  C   UNL A   1      47.373  30.336  27.926  1.00  0.00     0.049 A 
ATOM     57  H   UNL A   1      46.255  28.558  27.728  1.00  0.00     0.167 HD
ATOM     58  C   UNL A   1      45.073  30.995  28.573  1.00  0.00     0.074 A 
ATOM     59  C   UNL A   1      44.087  31.957  29.023  1.00  0.00     0.031 C 
ATOM     60  C   UNL A   1      46.383  31.283  28.373  1.00  0.00     0.031 A 
BRANCH  47  61
ATOM     61  C   UNL A   1      49.779  26.459  26.517  1.00  0.00    -0.014 A 
ATOM     62  C   UNL A   1      50.603  25.844  27.477  1.00  0.00     0.010 A 
ATOM     63  C   UNL A   1      50.221  26.529  25.182  1.00  0.00     0.010 A 
ATOM     64  C   UNL A   1      51.858  25.344  27.118  1.00  0.00     0.020 A 
ATOM     65  C   UNL A   1      51.461  26.001  24.813  1.00  0.00     0.020 A 
ATOM     66  C   UNL A   1      52.278  25.424  25.788  1.00  0.00     0.054 A 
BRANCH  66  67
ATOM     67  S   UNL A   1      53.898  24.736  25.348  1.00  0.00     0.124 S 
ATOM     68  O   UNL A   1      54.648  24.914  26.588  1.00  0.00    -0.237 OA
ATOM     69  O   UNL A   1      53.572  23.354  25.003  1.00  0.00    -0.237 OA
ATOM     70  O   UNL A   1      54.337  25.568  24.230  1.00  0.00    -0.744 OA
ENDBRANCH  66  67
ENDBRANCH  47  61
BRANCH  48  71
ATOM     71  C   UNL A   1      40.627  29.537  29.131  1.00  0.00    -0.014 A 
ATOM     72  C   UNL A   1      40.362  29.855  30.475  1.00  0.00     0.010 A 
ATOM     73  C   UNL A   1      39.591  29.657  28.185  1.00  0.00     0.010 A 
ATOM     74  C   UNL A   1      39.083  30.260  30.869  1.00  0.00     0.020 A 
ATOM     75  C   UNL A   1      38.321  30.094  28.569  1.00  0.00     0.020 A 
ATOM     76  C   UNL A   1      38.071  30.380  29.912  1.00  0.00     0.054 A 
BRANCH  76  77
ATOM     77  S   UNL A   1      36.431  30.948  30.441  1.00  0.00     0.124 S 
ATOM     78  O   UNL A   1      35.835  29.720  30.957  1.00  0.00    -0.237 OA
ATOM     79  O   UNL A   1      36.758  31.964  31.439  1.00  0.00    -0.237 OA
ATOM     80  O   UNL A   1      35.836  31.465  29.210  1.00  0.00    -0.744 OA
ENDBRANCH  76  77
ENDBRANCH  48  71
BRANCH  60  81
ATOM     81  C   UNL A   1      46.827  32.706  28.599  1.00  0.00    -0.014 A 
ATOM     82  C   UNL A   1      47.330  33.129  29.841  1.00  0.00     0.010 A 
ATOM     83  C   UNL A   1      46.789  33.619  27.528  1.00  0.00     0.010 A 
ATOM     84  C   UNL A   1      47.757  34.448  30.018  1.00  0.00     0.020 A 
ATOM     85  C   UNL A   1      47.247  34.928  27.690  1.00  0.00     0.020 A 
ATOM     86  C   UNL A   1      47.715  35.338  28.940  1.00  0.00     0.054 A 
BRANCH  86  87
ATOM     87  S   UNL A   1      48.318  37.031  29.184  1.00  0.00     0.124 S 
ATOM     88  O   UNL A   1      49.762  36.831  29.269  1.00  0.00    -0.237 OA
ATOM     89  O   UNL A   1      47.847  37.715  27.982  1.00  0.00    -0.237 OA
ATOM     90  O   UNL A   1      47.674  37.453  30.427  1.00  0.00    -0.744 OA
ENDBRANCH  86  87
ENDBRANCH  60  81
ENDBRANCH  34  35
ENDBRANCH  26  29
ENDBRANCH  24  25
ENDBRANCH  23  24
ENDBRANCH   1  23
TORSDOF 20
ENDMDL
MODEL 3
REMARK VINA RESULT:      -9.8      5.011      7.979
REMARK SMILES C=CC[C@@H](NC(=O)OCc1ccccc1)C(=O)NCCCCNC(=O)c1ccc(-c2c3nc(c(-c4ccc(S(=O)(=O)[O-])cc4)c4ccc([nH]4)c(-c4ccc(S(=O)(=O)[O-])cc4)c4nc(c(-c5ccc(S(=O)(=O)[O-])cc5)c5ccc2[nH]5)C=C4)C=C3)cc1
REMARK SMILES IDX 20 1 19 2 18 3 16 4 17 5 4 7 3 8 2 9 1 10 5 11 6 12 7 14
REMARK SMILES IDX 8 15 9 16 10 17 11 18 15 19 12 20 14 21 13 22 21 23 22 24
REMARK SMILES IDX 23 25 24 26 25 28 26 29 27 30 85 31 28 32 84 33 29 34 30 35
REMARK SMILES IDX 31 36 78 37 32 38 83 39 77 40 79 41 33 42 82 43 76 44 75 45
REMARK SMILES IDX 34 47 64 48 45 49 63 50 46 51 49 52 62 53 80 54 47 55 48 56
REMARK SMILES IDX 61 58 81 59 50 60 35 61 36 62 44 63 37 64 43 65 38 66 39 67
REMARK SMILES IDX 40 68 41 69 42 70 65 71 66 72 74 73 67 74 73 75 68 76 69 77
REMARK SMILES IDX 70 78 71 79 72 80 51 81 52 82 60 83 53 84 59 85 54 86 55 87
REMARK SMILES IDX 56 88 57 89 58 90
REMARK H PARENT 18 6 5 13 23 27 79 46 49 57
REMARK Flexibility Score: inf
ROOT
ATOM      1  C   UNL A   1      33.309  27.500  24.160  1.00  0.00     0.023 C 
ENDROOT
BRANCH   1   2
ATOM      2  C   UNL A   1      33.551  26.046  24.532  1.00  0.00     0.116 C 
BRANCH   2   3
ATOM      3  N   UNL A   1      33.745  25.224  23.351  1.00  0.00    -0.354 N 
ATOM      4  C   UNL A   1      33.500  23.889  23.177  1.00  0.00     0.243 C 
ATOM      5  O   UNL A   1      33.816  23.380  22.097  1.00  0.00    -0.273 OA
ATOM      6  H   UNL A   1      34.104  25.693  22.564  1.00  0.00     0.163 HD
BRANCH   4   7
ATOM      7  C   UNL A   1      33.015  23.012  24.355  1.00  0.00     0.178 C 
BRANCH   7   8
ATOM      8  C   UNL A   1      31.500  23.336  24.489  1.00  0.00     0.062 C 
BRANCH   8   9
ATOM      9  C   UNL A   1      30.991  23.718  25.853  1.00  0.00    -0.032 C 
ATOM     10  C   UNL A   1      30.283  22.882  26.622  1.00  0.00     0.004 C 
ENDBRANCH   8   9
ENDBRANCH   7   8
BRANCH   7  11
ATOM     11  N   UNL A   1      33.253  21.569  24.204  1.00  0.00    -0.309 N 
ATOM     12  C   UNL A   1      34.260  20.823  24.740  1.00  0.00     0.408 C 
ATOM     13  H   UNL A   1      32.603  21.080  23.650  1.00  0.00     0.167 HD
ATOM     14  O   UNL A   1      34.296  19.612  24.558  1.00  0.00    -0.225 OA
BRANCH  12  15
ATOM     15  O   UNL A   1      35.225  21.561  25.326  1.00  0.00    -0.445 OA
BRANCH  15  16
ATOM     16  C   UNL A   1      36.358  21.883  24.508  1.00  0.00     0.270 C 
BRANCH  16  17
ATOM     17  C   UNL A   1      37.478  22.399  25.359  1.00  0.00    -0.011 A 
ATOM     18  C   UNL A   1      37.486  23.738  25.769  1.00  0.00     0.007 A 
ATOM     19  C   UNL A   1      38.557  21.571  25.688  1.00  0.00     0.007 A 
ATOM     20  C   UNL A   1      38.568  24.248  26.480  1.00  0.00     0.000 A 
ATOM     21  C   UNL A   1      39.638  22.083  26.404  1.00  0.00     0.000 A 
ATOM     22  C   UNL A   1      39.646  23.422  26.792  1.00  0.00     0.000 A 
ENDBRANCH  16  17
ENDBRANCH  15  16
ENDBRANCH  12  15
ENDBRANCH   7  11
ENDBRANCH   4   7
ENDBRANCH   2   3
ENDBRANCH   1   2
BRANCH   1  23
ATOM     23  C   UNL A   1      32.931  28.379  25.349  1.00  0.00     0.023 C 
BRANCH  23  24
ATOM     24  C   UNL A   1      34.117  28.990  26.085  1.00  0.00     0.116 C 
BRANCH  24  25
ATOM     25  N   UNL A   1      33.823  30.313  26.616  1.00  0.00    -0.352 N 
ATOM     26  C   UNL A   1      34.456  30.985  27.634  1.00  0.00     0.251 C 
ATOM     27  H   UNL A   1      33.073  30.788  26.191  1.00  0.00     0.163 HD
ATOM     28  O   UNL A   1      33.973  32.014  28.095  1.00  0.00    -0.269 OA
BRANCH  26  29
ATOM     29  C   UNL A   1      35.713  30.432  28.178  1.00  0.00     0.039 A 
ATOM     30  C   UNL A   1      36.925  30.805  27.597  1.00  0.00     0.014 A 
ATOM     31  C   UNL A   1      35.687  29.593  29.294  1.00  0.00     0.014 A 
ATOM     32  C   UNL A   1      38.121  30.386  28.183  1.00  0.00     0.010 A 
ATOM     33  C   UNL A   1      36.876  29.249  29.924  1.00  0.00     0.010 A 
ATOM     34  C   UNL A   1      38.106  29.638  29.374  1.00  0.00    -0.014 A 
BRANCH  34  35
ATOM     35  C   UNL A   1      39.369  29.257  30.058  1.00  0.00     0.031 A 
ATOM     36  C   UNL A   1      39.825  30.015  31.275  1.00  0.00     0.074 A 
ATOM     37  C   UNL A   1      40.130  28.266  29.551  1.00  0.00     0.049 A 
ATOM     38  N   UNL A   1      40.917  29.861  31.979  1.00  0.00    -0.248 NA
ATOM     39  C   UNL A   1      38.955  31.105  31.749  1.00  0.00     0.031 C 
ATOM     40  C   UNL A   1      39.817  27.482  28.353  1.00  0.00     0.029 A 
ATOM     41  N   UNL A   1      41.328  27.749  29.978  1.00  0.00    -0.354 N 
ATOM     42  C   UNL A   1      40.870  30.838  32.968  1.00  0.00     0.074 A 
ATOM     43  C   UNL A   1      39.673  31.616  32.738  1.00  0.00     0.031 C 
ATOM     44  C   UNL A   1      40.780  26.567  28.161  1.00  0.00     0.029 A 
ATOM     45  C   UNL A   1      41.802  26.727  29.191  1.00  0.00     0.049 A 
ATOM     46  H   UNL A   1      41.803  28.080  30.775  1.00  0.00     0.167 HD
ATOM     47  C   UNL A   1      41.733  31.053  33.989  1.00  0.00     0.031 A 
ATOM     48  C   UNL A   1      42.937  26.004  29.279  1.00  0.00     0.031 A 
ATOM     49  C   UNL A   1      42.920  30.274  34.215  1.00  0.00     0.049 A 
ATOM     50  C   UNL A   1      43.893  26.280  30.407  1.00  0.00     0.074 A 
ATOM     51  C   UNL A   1      43.833  30.380  35.250  1.00  0.00     0.029 A 
ATOM     52  N   UNL A   1      43.364  29.247  33.395  1.00  0.00    -0.354 N 
ATOM     53  N   UNL A   1      43.794  27.163  31.374  1.00  0.00    -0.248 NA
ATOM     54  C   UNL A   1      45.106  25.455  30.466  1.00  0.00     0.031 C 
ATOM     55  C   UNL A   1      44.862  29.463  35.020  1.00  0.00     0.029 A 
ATOM     56  C   UNL A   1      44.553  28.732  33.884  1.00  0.00     0.049 A 
ATOM     57  H   UNL A   1      42.902  28.931  32.585  1.00  0.00     0.167 HD
ATOM     58  C   UNL A   1      44.918  26.977  32.172  1.00  0.00     0.074 A 
ATOM     59  C   UNL A   1      45.671  25.887  31.585  1.00  0.00     0.031 C 
ATOM     60  C   UNL A   1      45.292  27.647  33.290  1.00  0.00     0.031 A 
BRANCH  47  61
ATOM     61  C   UNL A   1      41.425  32.183  34.937  1.00  0.00    -0.014 A 
ATOM     62  C   UNL A   1      41.912  33.483  34.704  1.00  0.00     0.010 A 
ATOM     63  C   UNL A   1      40.597  31.955  36.052  1.00  0.00     0.010 A 
ATOM     64  C   UNL A   1      41.608  34.523  35.587  1.00  0.00     0.020 A 
ATOM     65  C   UNL A   1      40.265  32.999  36.919  1.00  0.00     0.020 A 
ATOM     66  C   UNL A   1      40.786  34.274  36.688  1.00  0.00     0.054 A 
BRANCH  66  67
ATOM     67  S   UNL A   1      40.382  35.651  37.798  1.00  0.00     0.124 S 
ATOM     68  O   UNL A   1      39.426  35.032  38.712  1.00  0.00    -0.237 OA
ATOM     69  O   UNL A   1      41.681  35.983  38.378  1.00  0.00    -0.237 OA
ATOM     70  O   UNL A   1      39.823  36.665  36.906  1.00  0.00    -0.744 OA
ENDBRANCH  66  67
ENDBRANCH  47  61
BRANCH  48  71
ATOM     71  C   UNL A   1      43.228  24.946  28.271  1.00  0.00    -0.014 A 
ATOM     72  C   UNL A   1      42.876  23.606  28.513  1.00  0.00     0.010 A 
ATOM     73  C   UNL A   1      43.862  25.276  27.057  1.00  0.00     0.010 A 
ATOM     74  C   UNL A   1      43.173  22.614  27.573  1.00  0.00     0.020 A 
ATOM     75  C   UNL A   1      44.130  24.293  26.103  1.00  0.00     0.020 A 
ATOM     76  C   UNL A   1      43.796  22.964  26.372  1.00  0.00     0.054 A 
BRANCH  76  77
ATOM     77  S   UNL A   1      44.133  21.665  25.151  1.00  0.00     0.124 S 
ATOM     78  O   UNL A   1      44.000  22.390  23.892  1.00  0.00    -0.237 OA
ATOM     79  O   UNL A   1      45.488  21.248  25.504  1.00  0.00    -0.237 OA
ATOM     80  O   UNL A   1      43.094  20.671  25.415  1.00  0.00    -0.744 OA
ENDBRANCH  76  77
ENDBRANCH  48  71
BRANCH  60  81
ATOM     81  C   UNL A   1      46.553  27.197  33.983  1.00  0.00    -0.014 A 
ATOM     82  C   UNL A   1      46.525  26.235  35.008  1.00  0.00     0.010 A 
ATOM     83  C   UNL A   1      47.794  27.709  33.559  1.00  0.00     0.010 A 
ATOM     84  C   UNL A   1      47.711  25.818  35.618  1.00  0.00     0.020 A 
ATOM     85  C   UNL A   1      48.984  27.269  34.141  1.00  0.00     0.020 A 
ATOM     86  C   UNL A   1      48.934  26.336  35.178  1.00  0.00     0.054 A 
BRANCH  86  87
ATOM     87  S   UNL A   1      50.461  25.743  35.955  1.00  0.00     0.124 S 
ATOM     88  O   UNL A   1      50.001  25.376  37.291  1.00  0.00    -0.237 OA
ATOM     89  O   UNL A   1      50.846  24.628  35.094  1.00  0.00    -0.237 OA
ATOM     90  O   UNL A   1      51.351  26.901  35.900  1.00  0.00    -0.744 OA
ENDBRANCH  86  87
ENDBRANCH  60  81
ENDBRANCH  34  35
ENDBRANCH  26  29
ENDBRANCH  24  25
ENDBRANCH  23  24
ENDBRANCH   1  23
TORSDOF 20
ENDMDL
