MODEL 1
REMARK VINA RESULT:     -13.4      0.000      0.000
REMARK SMILES Cc1c(NC(=O)c2ccc(Br)cc2N)cccc1C(=O)NCCCCNC(=O)c1ccc(-c2c3nc(c(-c4ccc(S(=O)(=O)[O-])cc4)c4ccc([nH]4)c(-c4ccc(S(=O)(=O)[O-])cc4)c4nc(c(-c5ccc(S(=O)(=O)[O-])cc5)c5ccc2[nH]5)C=C4)C=C3)cc1
REMARK SMILES IDX 23 1 22 2 21 3 19 4 20 5 18 7 1 8 2 9 3 10 15 11 17 12 16 13
REMARK SMILES IDX 4 14 5 15 6 17 7 18 8 19 13 20 9 21 12 22 10 23 11 24 14 25
REMARK SMILES IDX 24 28 25 29 26 30 27 31 28 33 29 34 30 35 88 36 31 37 87 38
REMARK SMILES IDX 32 39 33 40 34 41 81 42 35 43 86 44 80 45 82 46 36 47 85 48
REMARK SMILES IDX 79 49 78 50 37 52 67 53 48 54 66 55 49 56 52 57 65 58 83 59
REMARK SMILES IDX 50 60 51 61 64 63 84 64 53 65 38 66 39 67 47 68 40 69 46 70
REMARK SMILES IDX 41 71 42 72 43 73 44 74 45 75 68 76 69 77 77 78 70 79 76 80
REMARK SMILES IDX 71 81 72 82 73 83 74 84 75 85 54 86 55 87 63 88 56 89 62 90
REMARK SMILES IDX 57 91 58 92 59 93 60 94 61 95
REMARK H PARENT 21 6 4 16 14 26 14 27 26 32 82 51 52 62
REMARK Flexibility Score: inf
ROOT
ATOM      1  C   UNL A   1      36.061  22.107  24.886  1.00  0.00     0.023 C 
ENDROOT
BRANCH   1   2
ATOM      2  C   UNL A   1      35.125  21.789  26.071  1.00  0.00     0.116 C 
BRANCH   2   3
ATOM      3  N   UNL A   1      34.071  20.876  25.661  1.00  0.00    -0.352 N 
ATOM      4  C   UNL A   1      32.757  20.988  25.297  1.00  0.00     0.251 C 
ATOM      5  O   UNL A   1      32.201  19.912  25.037  1.00  0.00    -0.269 OA
ATOM      6  H   UNL A   1      34.380  19.942  25.640  1.00  0.00     0.163 HD
BRANCH   4   7
ATOM      7  C   UNL A   1      31.935  22.241  25.137  1.00  0.00     0.044 A 
ATOM      8  C   UNL A   1      32.767  23.033  22.849  1.00  0.00     0.047 C 
ATOM      9  C   UNL A   1      31.896  23.159  24.063  1.00  0.00    -0.015 A 
ATOM     10  C   UNL A   1      31.157  24.368  24.198  1.00  0.00     0.045 A 
ATOM     11  C   UNL A   1      30.533  24.707  25.397  1.00  0.00     0.026 A 
ATOM     12  C   UNL A   1      31.257  22.606  26.326  1.00  0.00     0.014 A 
ATOM     13  C   UNL A   1      30.584  23.822  26.464  1.00  0.00     0.003 A 
BRANCH  10  14
ATOM     14  N   UNL A   1      31.074  25.219  23.082  1.00  0.00    -0.322 N 
ATOM     15  C   UNL A   1      31.226  26.578  22.961  1.00  0.00     0.257 C 
ATOM     16  H   UNL A   1      30.872  24.758  22.236  1.00  0.00     0.170 HD
ATOM     17  O   UNL A   1      30.877  27.124  21.913  1.00  0.00    -0.269 OA
BRANCH  15  18
ATOM     18  C   UNL A   1      31.865  27.413  24.014  1.00  0.00     0.063 A 
ATOM     19  C   UNL A   1      31.088  28.501  24.454  1.00  0.00     0.017 A 
ATOM     20  C   UNL A   1      33.180  27.246  24.500  1.00  0.00     0.045 A 
ATOM     21  C   UNL A   1      31.586  29.401  25.395  1.00  0.00     0.016 A 
ATOM     22  C   UNL A   1      33.655  28.152  25.463  1.00  0.00     0.042 A 
ATOM     23  C   UNL A   1      32.864  29.212  25.905  1.00  0.00     0.020 A 
ATOM     24  Br  UNL A   1      33.559  30.434  27.170  1.00  0.00    -0.051 Br
BRANCH  20  25
ATOM     25  N   UNL A   1      34.107  26.360  23.961  1.00  0.00    -0.398 N 
ATOM     26  H   UNL A   1      35.047  26.633  23.858  1.00  0.00     0.156 HD
ATOM     27  H   UNL A   1      33.823  25.459  23.683  1.00  0.00     0.156 HD
ENDBRANCH  20  25
ENDBRANCH  15  18
ENDBRANCH  10  14
ENDBRANCH   4   7
ENDBRANCH   2   3
ENDBRANCH   1   2
BRANCH   1  28
ATOM     28  C   UNL A   1      37.553  22.065  25.201  1.00  0.00     0.023 C 
BRANCH  28  29
ATOM     29  C   UNL A   1      37.962  23.190  26.130  1.00  0.00     0.116 C 
BRANCH  29  30
ATOM     30  N   UNL A   1      39.139  22.912  26.940  1.00  0.00    -0.352 N 
ATOM     31  C   UNL A   1      39.993  23.844  27.510  1.00  0.00     0.251 C 
ATOM     32  H   UNL A   1      39.352  21.965  27.100  1.00  0.00     0.163 HD
ATOM     33  O   UNL A   1      41.098  23.543  27.943  1.00  0.00    -0.269 OA
BRANCH  31  34
ATOM     34  C   UNL A   1      39.456  25.209  27.693  1.00  0.00     0.039 A 
ATOM     35  C   UNL A   1      39.940  26.201  26.831  1.00  0.00     0.014 A 
ATOM     36  C   UNL A   1      38.825  25.543  28.886  1.00  0.00     0.014 A 
ATOM     37  C   UNL A   1      39.985  27.521  27.267  1.00  0.00     0.010 A 
ATOM     38  C   UNL A   1      39.000  26.821  29.371  1.00  0.00     0.010 A 
ATOM     39  C   UNL A   1      39.620  27.802  28.581  1.00  0.00    -0.014 A 
BRANCH  39  40
ATOM     40  C   UNL A   1      39.894  29.067  29.254  1.00  0.00     0.031 A 
ATOM     41  C   UNL A   1      38.905  30.168  29.151  1.00  0.00     0.074 A 
ATOM     42  C   UNL A   1      40.966  29.196  30.070  1.00  0.00     0.049 A 
ATOM     43  N   UNL A   1      39.146  31.407  29.420  1.00  0.00    -0.248 NA
ATOM     44  C   UNL A   1      37.547  29.951  28.657  1.00  0.00     0.031 C 
ATOM     45  C   UNL A   1      41.178  30.236  31.074  1.00  0.00     0.029 A 
ATOM     46  N   UNL A   1      42.195  28.532  30.016  1.00  0.00    -0.354 N 
ATOM     47  C   UNL A   1      37.935  32.061  29.465  1.00  0.00     0.074 A 
ATOM     48  C   UNL A   1      36.995  31.146  28.868  1.00  0.00     0.031 C 
ATOM     49  C   UNL A   1      42.495  30.348  31.305  1.00  0.00     0.029 A 
ATOM     50  C   UNL A   1      43.171  29.487  30.350  1.00  0.00     0.049 A 
ATOM     51  H   UNL A   1      42.346  27.586  29.791  1.00  0.00     0.167 HD
ATOM     52  C   UNL A   1      37.833  33.234  30.154  1.00  0.00     0.031 A 
ATOM     53  C   UNL A   1      44.175  29.885  29.511  1.00  0.00     0.031 A 
ATOM     54  C   UNL A   1      39.151  33.738  30.543  1.00  0.00     0.049 A 
ATOM     55  C   UNL A   1      44.148  31.371  29.219  1.00  0.00     0.074 A 
ATOM     56  C   UNL A   1      39.845  33.759  31.741  1.00  0.00     0.029 A 
ATOM     57  N   UNL A   1      40.070  34.062  29.549  1.00  0.00    -0.354 N 
ATOM     58  N   UNL A   1      43.136  32.147  29.499  1.00  0.00    -0.248 NA
ATOM     59  C   UNL A   1      45.227  32.094  28.549  1.00  0.00     0.031 C 
ATOM     60  C   UNL A   1      41.216  33.990  31.445  1.00  0.00     0.029 A 
ATOM     61  C   UNL A   1      41.345  34.147  30.076  1.00  0.00     0.049 A 
ATOM     62  H   UNL A   1      39.845  34.209  28.603  1.00  0.00     0.167 HD
ATOM     63  C   UNL A   1      43.390  33.419  29.063  1.00  0.00     0.074 A 
ATOM     64  C   UNL A   1      44.719  33.339  28.485  1.00  0.00     0.031 C 
ATOM     65  C   UNL A   1      42.480  34.427  29.206  1.00  0.00     0.031 A 
BRANCH  52  66
ATOM     66  C   UNL A   1      36.528  33.759  30.729  1.00  0.00    -0.014 A 
ATOM     67  C   UNL A   1      35.417  33.945  29.879  1.00  0.00     0.010 A 
ATOM     68  C   UNL A   1      36.349  34.185  32.061  1.00  0.00     0.010 A 
ATOM     69  C   UNL A   1      34.248  34.602  30.304  1.00  0.00     0.020 A 
ATOM     70  C   UNL A   1      35.199  34.859  32.496  1.00  0.00     0.020 A 
ATOM     71  C   UNL A   1      34.159  35.082  31.607  1.00  0.00     0.054 A 
BRANCH  71  72
ATOM     72  S   UNL A   1      32.690  36.006  32.127  1.00  0.00     0.124 S 
ATOM     73  O   UNL A   1      31.808  34.946  32.608  1.00  0.00    -0.237 OA
ATOM     74  O   UNL A   1      33.225  36.898  33.151  1.00  0.00    -0.237 OA
ATOM     75  O   UNL A   1      32.245  36.668  30.901  1.00  0.00    -0.744 OA
ENDBRANCH  71  72
ENDBRANCH  52  66
BRANCH  53  76
ATOM     76  C   UNL A   1      44.640  28.829  28.570  1.00  0.00    -0.014 A 
ATOM     77  C   UNL A   1      44.060  28.822  27.284  1.00  0.00     0.010 A 
ATOM     78  C   UNL A   1      45.887  28.209  28.761  1.00  0.00     0.010 A 
ATOM     79  C   UNL A   1      44.797  28.395  26.178  1.00  0.00     0.020 A 
ATOM     80  C   UNL A   1      46.626  27.773  27.651  1.00  0.00     0.020 A 
ATOM     81  C   UNL A   1      46.105  27.945  26.365  1.00  0.00     0.054 A 
BRANCH  81  82
ATOM     82  S   UNL A   1      47.175  27.820  24.901  1.00  0.00     0.124 S 
ATOM     83  O   UNL A   1      46.581  28.795  23.992  1.00  0.00    -0.237 OA
ATOM     84  O   UNL A   1      48.477  28.186  25.457  1.00  0.00    -0.237 OA
ATOM     85  O   UNL A   1      47.035  26.423  24.505  1.00  0.00    -0.744 OA
ENDBRANCH  81  82
ENDBRANCH  53  76
BRANCH  65  86
ATOM     86  C   UNL A   1      42.589  35.804  28.599  1.00  0.00    -0.014 A 
ATOM     87  C   UNL A   1      42.004  36.175  27.379  1.00  0.00     0.010 A 
ATOM     88  C   UNL A   1      43.203  36.830  29.359  1.00  0.00     0.010 A 
ATOM     89  C   UNL A   1      42.080  37.497  26.911  1.00  0.00     0.020 A 
ATOM     90  C   UNL A   1      43.245  38.156  28.922  1.00  0.00     0.020 A 
ATOM     91  C   UNL A   1      42.703  38.478  27.684  1.00  0.00     0.054 A 
BRANCH  91  92
ATOM     92  S   UNL A   1      42.740  40.193  27.106  1.00  0.00     0.124 S 
ATOM     93  O   UNL A   1      43.807  40.152  26.110  1.00  0.00    -0.237 OA
ATOM     94  O   UNL A   1      41.393  40.391  26.572  1.00  0.00    -0.237 OA
ATOM     95  O   UNL A   1      43.038  40.954  28.317  1.00  0.00    -0.744 OA
ENDBRANCH  91  92
ENDBRANCH  65  86
ENDBRANCH  39  40
ENDBRANCH  31  34
ENDBRANCH  29  30
ENDBRANCH  28  29
ENDBRANCH   1  28
TORSDOF 17
ENDMDL
MODEL 2
REMARK VINA RESULT:     -13.4      4.788     11.239
REMARK SMILES Cc1c(NC(=O)c2ccc(Br)cc2N)cccc1C(=O)NCCCCNC(=O)c1ccc(-c2c3nc(c(-c4ccc(S(=O)(=O)[O-])cc4)c4ccc([nH]4)c(-c4ccc(S(=O)(=O)[O-])cc4)c4nc(c(-c5ccc(S(=O)(=O)[O-])cc5)c5ccc2[nH]5)C=C4)C=C3)cc1
REMARK SMILES IDX 23 1 22 2 21 3 19 4 20 5 18 7 1 8 2 9 3 10 15 11 17 12 16 13
REMARK SMILES IDX 4 14 5 15 6 17 7 18 8 19 13 20 9 21 12 22 10 23 11 24 14 25
REMARK SMILES IDX 24 28 25 29 26 30 27 31 28 33 29 34 30 35 88 36 31 37 87 38
REMARK SMILES IDX 32 39 33 40 34 41 81 42 35 43 86 44 80 45 82 46 36 47 85 48
REMARK SMILES IDX 79 49 78 50 37 52 67 53 48 54 66 55 49 56 52 57 65 58 83 59
REMARK SMILES IDX 50 60 51 61 64 63 84 64 53 65 38 66 39 67 47 68 40 69 46 70
REMARK SMILES IDX 41 71 42 72 43 73 44 74 45 75 68 76 69 77 77 78 70 79 76 80
REMARK SMILES IDX 71 81 72 82 73 83 74 84 75 85 54 86 55 87 63 88 56 89 62 90
REMARK SMILES IDX 57 91 58 92 59 93 60 94 61 95
REMARK H PARENT 21 6 4 16 14 26 14 27 26 32 82 51 52 62
REMARK Flexibility Score: inf
ROOT
ATOM      1  C   UNL A   1      33.037  28.832  25.570  1.00  0.00     0.023 C 
ENDROOT
BRANCH   1   2
ATOM      2  C   UNL A   1      32.813  29.459  24.178  1.00  0.00     0.116 C 
BRANCH   2   3
ATOM      3  N   UNL A   1      31.403  29.438  23.826  1.00  0.00    -0.352 N 
ATOM      4  C   UNL A   1      30.504  28.493  23.413  1.00  0.00     0.251 C 
ATOM      5  O   UNL A   1      29.365  28.926  23.193  1.00  0.00    -0.269 OA
ATOM      6  H   UNL A   1      30.991  30.328  23.905  1.00  0.00     0.163 HD
BRANCH   4   7
ATOM      7  C   UNL A   1      30.721  27.012  23.236  1.00  0.00     0.044 A 
ATOM      8  C   UNL A   1      29.951  26.172  25.529  1.00  0.00     0.047 C 
ATOM      9  C   UNL A   1      30.470  25.954  24.139  1.00  0.00    -0.015 A 
ATOM     10  C   UNL A   1      30.904  24.637  23.817  1.00  0.00     0.045 A 
ATOM     11  C   UNL A   1      31.642  24.378  22.664  1.00  0.00     0.026 A 
ATOM     12  C   UNL A   1      31.443  26.701  22.058  1.00  0.00     0.014 A 
ATOM     13  C   UNL A   1      31.913  25.414  21.782  1.00  0.00     0.003 A 
BRANCH  10  14
ATOM     14  N   UNL A   1      30.566  23.597  24.700  1.00  0.00    -0.322 N 
ATOM     15  C   UNL A   1      31.337  22.648  25.326  1.00  0.00     0.257 C 
ATOM     16  H   UNL A   1      29.605  23.538  24.908  1.00  0.00     0.170 HD
ATOM     17  O   UNL A   1      30.779  21.696  25.874  1.00  0.00    -0.269 OA
BRANCH  15  18
ATOM     18  C   UNL A   1      32.817  22.759  25.436  1.00  0.00     0.063 A 
ATOM     19  C   UNL A   1      33.280  23.991  25.934  1.00  0.00     0.017 A 
ATOM     20  C   UNL A   1      33.741  21.787  24.995  1.00  0.00     0.045 A 
ATOM     21  C   UNL A   1      34.645  24.254  26.034  1.00  0.00     0.016 A 
ATOM     22  C   UNL A   1      35.112  22.064  25.124  1.00  0.00     0.042 A 
ATOM     23  C   UNL A   1      35.555  23.282  25.640  1.00  0.00     0.020 A 
ATOM     24  Br  UNL A   1      37.409  23.631  25.755  1.00  0.00    -0.051 Br
BRANCH  20  25
ATOM     25  N   UNL A   1      33.396  20.650  24.272  1.00  0.00    -0.398 N 
ATOM     26  H   UNL A   1      32.874  20.734  23.441  1.00  0.00     0.156 HD
ATOM     27  H   UNL A   1      33.675  19.761  24.590  1.00  0.00     0.156 HD
ENDBRANCH  20  25
ENDBRANCH  15  18
ENDBRANCH  10  14
ENDBRANCH   4   7
ENDBRANCH   2   3
ENDBRANCH   1   2
BRANCH   1  28
ATOM     28  C   UNL A   1      34.398  29.107  26.201  1.00  0.00     0.023 C 
BRANCH  28  29
ATOM     29  C   UNL A   1      34.268  29.859  27.510  1.00  0.00     0.116 C 
BRANCH  29  30
ATOM     30  N   UNL A   1      35.102  31.047  27.614  1.00  0.00    -0.352 N 
ATOM     31  C   UNL A   1      36.408  31.107  28.074  1.00  0.00     0.251 C 
ATOM     32  H   UNL A   1      34.696  31.897  27.328  1.00  0.00     0.163 HD
ATOM     33  O   UNL A   1      36.947  32.162  28.384  1.00  0.00    -0.269 OA
BRANCH  31  34
ATOM     34  C   UNL A   1      37.177  29.844  28.050  1.00  0.00     0.039 A 
ATOM     35  C   UNL A   1      37.218  29.106  29.239  1.00  0.00     0.014 A 
ATOM     36  C   UNL A   1      38.106  29.626  27.039  1.00  0.00     0.014 A 
ATOM     37  C   UNL A   1      38.321  28.301  29.503  1.00  0.00     0.010 A 
ATOM     38  C   UNL A   1      39.260  28.945  27.362  1.00  0.00     0.010 A 
ATOM     39  C   UNL A   1      39.389  28.318  28.611  1.00  0.00    -0.014 A 
BRANCH  39  40
ATOM     40  C   UNL A   1      40.708  27.766  28.900  1.00  0.00     0.031 A 
ATOM     41  C   UNL A   1      40.978  26.341  28.590  1.00  0.00     0.074 A 
ATOM     42  C   UNL A   1      41.713  28.568  29.322  1.00  0.00     0.049 A 
ATOM     43  N   UNL A   1      41.962  25.654  29.066  1.00  0.00    -0.248 NA
ATOM     44  C   UNL A   1      40.089  25.546  27.745  1.00  0.00     0.031 C 
ATOM     45  C   UNL A   1      43.141  28.258  29.307  1.00  0.00     0.029 A 
ATOM     46  N   UNL A   1      41.640  29.756  30.055  1.00  0.00    -0.354 N 
ATOM     47  C   UNL A   1      42.028  24.480  28.347  1.00  0.00     0.074 A 
ATOM     48  C   UNL A   1      40.779  24.410  27.631  1.00  0.00     0.031 C 
ATOM     49  C   UNL A   1      43.756  29.019  30.225  1.00  0.00     0.029 A 
ATOM     50  C   UNL A   1      42.719  29.728  30.955  1.00  0.00     0.049 A 
ATOM     51  H   UNL A   1      40.968  30.470  29.958  1.00  0.00     0.167 HD
ATOM     52  C   UNL A   1      43.200  23.783  28.310  1.00  0.00     0.031 A 
ATOM     53  C   UNL A   1      42.584  29.736  32.316  1.00  0.00     0.031 A 
ATOM     54  C   UNL A   1      44.161  24.307  29.283  1.00  0.00     0.049 A 
ATOM     55  C   UNL A   1      43.201  28.520  32.977  1.00  0.00     0.074 A 
ATOM     56  C   UNL A   1      45.291  25.098  29.170  1.00  0.00     0.029 A 
ATOM     57  N   UNL A   1      43.841  24.268  30.637  1.00  0.00    -0.354 N 
ATOM     58  N   UNL A   1      43.574  27.452  32.327  1.00  0.00    -0.248 NA
ATOM     59  C   UNL A   1      43.404  28.387  34.418  1.00  0.00     0.031 C 
ATOM     60  C   UNL A   1      45.584  25.625  30.458  1.00  0.00     0.029 A 
ATOM     61  C   UNL A   1      44.656  25.123  31.354  1.00  0.00     0.049 A 
ATOM     62  H   UNL A   1      43.133  23.709  31.029  1.00  0.00     0.167 HD
ATOM     63  C   UNL A   1      44.038  26.510  33.206  1.00  0.00     0.074 A 
ATOM     64  C   UNL A   1      43.923  27.148  34.505  1.00  0.00     0.031 C 
ATOM     65  C   UNL A   1      44.466  25.283  32.789  1.00  0.00     0.031 A 
BRANCH  52  66
ATOM     66  C   UNL A   1      43.575  22.829  27.188  1.00  0.00    -0.014 A 
ATOM     67  C   UNL A   1      42.815  21.657  26.988  1.00  0.00     0.010 A 
ATOM     68  C   UNL A   1      44.709  22.963  26.363  1.00  0.00     0.010 A 
ATOM     69  C   UNL A   1      43.217  20.644  26.100  1.00  0.00     0.020 A 
ATOM     70  C   UNL A   1      45.135  21.955  25.486  1.00  0.00     0.020 A 
ATOM     71  C   UNL A   1      44.395  20.789  25.373  1.00  0.00     0.054 A 
BRANCH  71  72
ATOM     72  S   UNL A   1      44.958  19.445  24.296  1.00  0.00     0.124 S 
ATOM     73  O   UNL A   1      44.500  19.886  22.981  1.00  0.00    -0.237 OA
ATOM     74  O   UNL A   1      46.403  19.461  24.501  1.00  0.00    -0.237 OA
ATOM     75  O   UNL A   1      44.271  18.267  24.823  1.00  0.00    -0.744 OA
ENDBRANCH  71  72
ENDBRANCH  52  66
BRANCH  53  76
ATOM     76  C   UNL A   1      41.388  30.472  32.808  1.00  0.00    -0.014 A 
ATOM     77  C   UNL A   1      40.213  29.716  33.009  1.00  0.00     0.010 A 
ATOM     78  C   UNL A   1      41.537  31.695  33.484  1.00  0.00     0.010 A 
ATOM     79  C   UNL A   1      39.309  30.066  34.014  1.00  0.00     0.020 A 
ATOM     80  C   UNL A   1      40.626  32.052  34.489  1.00  0.00     0.020 A 
ATOM     81  C   UNL A   1      39.566  31.192  34.796  1.00  0.00     0.054 A 
BRANCH  81  82
ATOM     82  S   UNL A   1      38.639  31.374  36.350  1.00  0.00     0.124 S 
ATOM     83  O   UNL A   1      38.311  29.992  36.684  1.00  0.00    -0.237 OA
ATOM     84  O   UNL A   1      39.633  32.013  37.211  1.00  0.00    -0.237 OA
ATOM     85  O   UNL A   1      37.510  32.215  35.967  1.00  0.00    -0.744 OA
ENDBRANCH  81  82
ENDBRANCH  53  76
BRANCH  65  86
ATOM     86  C   UNL A   1      44.817  24.122  33.688  1.00  0.00    -0.014 A 
ATOM     87  C   UNL A   1      43.871  23.279  34.291  1.00  0.00     0.010 A 
ATOM     88  C   UNL A   1      46.181  23.768  33.832  1.00  0.00     0.010 A 
ATOM     89  C   UNL A   1      44.270  22.169  35.052  1.00  0.00     0.020 A 
ATOM     90  C   UNL A   1      46.585  22.640  34.551  1.00  0.00     0.020 A 
ATOM     91  C   UNL A   1      45.625  21.859  35.180  1.00  0.00     0.054 A 
BRANCH  91  92
ATOM     92  S   UNL A   1      46.130  20.388  36.108  1.00  0.00     0.124 S 
ATOM     93  O   UNL A   1      47.577  20.393  35.914  1.00  0.00    -0.237 OA
ATOM     94  O   UNL A   1      45.680  20.685  37.467  1.00  0.00    -0.237 OA
ATOM     95  O   UNL A   1      45.409  19.304  35.446  1.00  0.00    -0.744 OA
ENDBRANCH  91  92
ENDBRANCH  65  86
ENDBRANCH  39  40
ENDBRANCH  31  34
ENDBRANCH  29  30
ENDBRANCH  28  29
ENDBRANCH   1  28
TORSDOF 17
ENDMDL
MODEL 3
REMARK VINA RESULT:     -12.9      4.142     10.701
REMARK SMILES Cc1c(NC(=O)c2ccc(Br)cc2N)cccc1C(=O)NCCCCNC(=O)c1ccc(-c2c3nc(c(-c4ccc(S(=O)(=O)[O-])cc4)c4ccc([nH]4)c(-c4ccc(S(=O)(=O)[O-])cc4)c4nc(c(-c5ccc(S(=O)(=O)[O-])cc5)c5ccc2[nH]5)C=C4)C=C3)cc1
REMARK SMILES IDX 23 1 22 2 21 3 19 4 20 5 18 7 1 8 2 9 3 10 15 11 17 12 16 13
REMARK SMILES IDX 4 14 5 15 6 17 7 18 8 19 13 20 9 21 12 22 10 23 11 24 14 25
REMARK SMILES IDX 24 28 25 29 26 30 27 31 28 33 29 34 30 35 88 36 31 37 87 38
REMARK SMILES IDX 32 39 33 40 34 41 81 42 35 43 86 44 80 45 82 46 36 47 85 48
REMARK SMILES IDX 79 49 78 50 37 52 67 53 48 54 66 55 49 56 52 57 65 58 83 59
REMARK SMILES IDX 50 60 51 61 64 63 84 64 53 65 38 66 39 67 47 68 40 69 46 70
REMARK SMILES IDX 41 71 42 72 43 73 44 74 45 75 68 76 69 77 77 78 70 79 76 80
REMARK SMILES IDX 71 81 72 82 73 83 74 84 75 85 54 86 55 87 63 88 56 89 62 90
REMARK SMILES IDX 57 91 58 92 59 93 60 94 61 95
REMARK H PARENT 21 6 4 16 14 26 14 27 26 32 82 51 52 62
REMARK Flexibility Score: inf
ROOT
ATOM      1  C   UNL A   1      31.373  29.609  25.225  1.00  0.00     0.023 C 
ENDROOT
BRANCH   1   2
ATOM      2  C   UNL A   1      31.180  29.125  23.772  1.00  0.00     0.116 C 
BRANCH   2   3
ATOM      3  N   UNL A   1      30.227  28.029  23.719  1.00  0.00    -0.352 N 
ATOM      4  C   UNL A   1      30.293  26.663  23.737  1.00  0.00     0.251 C 
ATOM      5  O   UNL A   1      29.197  26.092  23.643  1.00  0.00    -0.269 OA
ATOM      6  H   UNL A   1      29.299  28.351  23.654  1.00  0.00     0.163 HD
BRANCH   4   7
ATOM      7  C   UNL A   1      31.510  25.789  23.894  1.00  0.00     0.044 A 
ATOM      8  C   UNL A   1      31.765  25.832  26.442  1.00  0.00     0.047 C 
ATOM      9  C   UNL A   1      32.177  25.382  25.072  1.00  0.00    -0.015 A 
ATOM     10  C   UNL A   1      33.412  24.681  24.973  1.00  0.00     0.045 A 
ATOM     11  C   UNL A   1      34.021  24.453  23.741  1.00  0.00     0.026 A 
ATOM     12  C   UNL A   1      32.145  25.506  22.659  1.00  0.00     0.014 A 
ATOM     13  C   UNL A   1      33.385  24.868  22.580  1.00  0.00     0.003 A 
BRANCH  10  14
ATOM     14  N   UNL A   1      34.007  24.222  26.162  1.00  0.00    -0.322 N 
ATOM     15  C   UNL A   1      34.046  22.976  26.738  1.00  0.00     0.257 C 
ATOM     16  H   UNL A   1      34.481  24.918  26.672  1.00  0.00     0.170 HD
ATOM     17  O   UNL A   1      34.434  22.871  27.902  1.00  0.00    -0.269 OA
BRANCH  15  18
ATOM     18  C   UNL A   1      33.708  21.734  25.991  1.00  0.00     0.063 A 
ATOM     19  C   UNL A   1      34.816  21.046  25.461  1.00  0.00     0.017 A 
ATOM     20  C   UNL A   1      32.400  21.282  25.709  1.00  0.00     0.045 A 
ATOM     21  C   UNL A   1      34.643  19.899  24.689  1.00  0.00     0.016 A 
ATOM     22  C   UNL A   1      32.249  20.113  24.947  1.00  0.00     0.042 A 
ATOM     23  C   UNL A   1      33.358  19.430  24.448  1.00  0.00     0.020 A 
ATOM     24  Br  UNL A   1      33.107  17.884  23.388  1.00  0.00    -0.051 Br
BRANCH  20  25
ATOM     25  N   UNL A   1      31.246  22.012  25.975  1.00  0.00    -0.398 N 
ATOM     26  H   UNL A   1      31.020  22.255  26.902  1.00  0.00     0.156 HD
ATOM     27  H   UNL A   1      30.657  22.287  25.237  1.00  0.00     0.156 HD
ENDBRANCH  20  25
ENDBRANCH  15  18
ENDBRANCH  10  14
ENDBRANCH   4   7
ENDBRANCH   2   3
ENDBRANCH   1   2
BRANCH   1  28
ATOM     28  C   UNL A   1      32.753  29.352  25.822  1.00  0.00     0.023 C 
BRANCH  28  29
ATOM     29  C   UNL A   1      32.838  29.818  27.261  1.00  0.00     0.116 C 
BRANCH  29  30
ATOM     30  N   UNL A   1      33.403  31.148  27.437  1.00  0.00    -0.352 N 
ATOM     31  C   UNL A   1      34.558  31.473  28.130  1.00  0.00     0.251 C 
ATOM     32  H   UNL A   1      32.914  31.894  27.021  1.00  0.00     0.163 HD
ATOM     33  O   UNL A   1      34.823  32.622  28.462  1.00  0.00    -0.269 OA
BRANCH  31  34
ATOM     34  C   UNL A   1      35.533  30.382  28.341  1.00  0.00     0.039 A 
ATOM     35  C   UNL A   1      35.711  29.937  29.657  1.00  0.00     0.014 A 
ATOM     36  C   UNL A   1      36.478  30.107  27.358  1.00  0.00     0.014 A 
ATOM     37  C   UNL A   1      36.939  29.404  30.036  1.00  0.00     0.010 A 
ATOM     38  C   UNL A   1      37.735  29.714  27.766  1.00  0.00     0.010 A 
ATOM     39  C   UNL A   1      37.981  29.405  29.112  1.00  0.00    -0.014 A 
BRANCH  39  40
ATOM     40  C   UNL A   1      39.378  29.157  29.453  1.00  0.00     0.031 A 
ATOM     41  C   UNL A   1      39.982  27.846  29.111  1.00  0.00     0.074 A 
ATOM     42  C   UNL A   1      40.151  30.149  29.951  1.00  0.00     0.049 A 
ATOM     43  N   UNL A   1      41.076  27.383  29.616  1.00  0.00    -0.248 NA
ATOM     44  C   UNL A   1      39.337  26.906  28.197  1.00  0.00     0.031 C 
ATOM     45  C   UNL A   1      41.612  30.175  30.000  1.00  0.00     0.029 A 
ATOM     46  N   UNL A   1      39.775  31.257  30.716  1.00  0.00    -0.354 N 
ATOM     47  C   UNL A   1      41.442  26.287  28.865  1.00  0.00     0.074 A 
ATOM     48  C   UNL A   1      40.274  25.964  28.083  1.00  0.00     0.031 C 
ATOM     49  C   UNL A   1      41.994  31.016  30.973  1.00  0.00     0.029 A 
ATOM     50  C   UNL A   1      40.791  31.438  31.670  1.00  0.00     0.049 A 
ATOM     51  H   UNL A   1      38.962  31.801  30.608  1.00  0.00     0.167 HD
ATOM     52  C   UNL A   1      42.743  25.878  28.867  1.00  0.00     0.031 A 
ATOM     53  C   UNL A   1      40.600  31.356  33.021  1.00  0.00     0.031 A 
ATOM     54  C   UNL A   1      43.514  26.566  29.904  1.00  0.00     0.049 A 
ATOM     55  C   UNL A   1      41.451  30.286  33.676  1.00  0.00     0.074 A 
ATOM     56  C   UNL A   1      44.436  27.599  29.876  1.00  0.00     0.029 A 
ATOM     57  N   UNL A   1      43.154  26.397  31.237  1.00  0.00    -0.354 N 
ATOM     58  N   UNL A   1      42.088  29.360  33.012  1.00  0.00    -0.248 NA
ATOM     59  C   UNL A   1      41.616  30.141  35.120  1.00  0.00     0.031 C 
ATOM     60  C   UNL A   1      44.543  28.123  31.193  1.00  0.00     0.029 A 
ATOM     61  C   UNL A   1      43.718  27.384  32.022  1.00  0.00     0.049 A 
ATOM     62  H   UNL A   1      42.577  25.675  31.575  1.00  0.00     0.167 HD
ATOM     63  C   UNL A   1      42.717  28.513  33.883  1.00  0.00     0.074 A 
ATOM     64  C   UNL A   1      42.402  29.051  35.194  1.00  0.00     0.031 C 
ATOM     65  C   UNL A   1      43.435  27.435  33.451  1.00  0.00     0.031 A 
BRANCH  52  66
ATOM     66  C   UNL A   1      43.376  25.084  27.735  1.00  0.00    -0.014 A 
ATOM     67  C   UNL A   1      44.328  24.087  28.033  1.00  0.00     0.010 A 
ATOM     68  C   UNL A   1      43.164  25.330  26.364  1.00  0.00     0.010 A 
ATOM     69  C   UNL A   1      45.088  23.452  27.034  1.00  0.00     0.020 A 
ATOM     70  C   UNL A   1      43.925  24.720  25.356  1.00  0.00     0.020 A 
ATOM     71  C   UNL A   1      44.900  23.796  25.699  1.00  0.00     0.054 A 
BRANCH  71  72
ATOM     72  S   UNL A   1      45.940  23.043  24.421  1.00  0.00     0.124 S 
ATOM     73  O   UNL A   1      44.984  22.793  23.346  1.00  0.00    -0.237 OA
ATOM     74  O   UNL A   1      46.926  24.088  24.162  1.00  0.00    -0.237 OA
ATOM     75  O   UNL A   1      46.467  21.841  25.067  1.00  0.00    -0.744 OA
ENDBRANCH  71  72
ENDBRANCH  52  66
BRANCH  53  76
ATOM     76  C   UNL A   1      39.246  31.777  33.474  1.00  0.00    -0.014 A 
ATOM     77  C   UNL A   1      38.999  33.164  33.541  1.00  0.00     0.010 A 
ATOM     78  C   UNL A   1      38.157  30.894  33.368  1.00  0.00     0.010 A 
ATOM     79  C   UNL A   1      37.720  33.669  33.298  1.00  0.00     0.020 A 
ATOM     80  C   UNL A   1      36.870  31.399  33.131  1.00  0.00     0.020 A 
ATOM     81  C   UNL A   1      36.682  32.780  33.019  1.00  0.00     0.054 A 
BRANCH  81  82
ATOM     82  S   UNL A   1      35.163  33.458  32.282  1.00  0.00     0.124 S 
ATOM     83  O   UNL A   1      35.669  34.159  31.107  1.00  0.00    -0.237 OA
ATOM     84  O   UNL A   1      34.401  32.239  32.011  1.00  0.00    -0.237 OA
ATOM     85  O   UNL A   1      34.629  34.306  33.342  1.00  0.00    -0.744 OA
ENDBRANCH  81  82
ENDBRANCH  53  76
BRANCH  65  86
ATOM     86  C   UNL A   1      44.005  26.348  34.329  1.00  0.00    -0.014 A 
ATOM     87  C   UNL A   1      43.226  25.441  35.065  1.00  0.00     0.010 A 
ATOM     88  C   UNL A   1      45.405  26.132  34.314  1.00  0.00     0.010 A 
ATOM     89  C   UNL A   1      43.822  24.404  35.800  1.00  0.00     0.020 A 
ATOM     90  C   UNL A   1      46.002  25.076  35.007  1.00  0.00     0.020 A 
ATOM     91  C   UNL A   1      45.206  24.231  35.768  1.00  0.00     0.054 A 
BRANCH  91  92
ATOM     92  S   UNL A   1      45.963  22.851  36.665  1.00  0.00     0.124 S 
ATOM     93  O   UNL A   1      45.381  21.696  35.987  1.00  0.00    -0.237 OA
ATOM     94  O   UNL A   1      47.393  23.055  36.438  1.00  0.00    -0.237 OA
ATOM     95  O   UNL A   1      45.524  23.060  38.043  1.00  0.00    -0.744 OA
ENDBRANCH  91  92
ENDBRANCH  65  86
ENDBRANCH  39  40
ENDBRANCH  31  34
ENDBRANCH  29  30
ENDBRANCH  28  29
ENDBRANCH   1  28
TORSDOF 17
ENDMDL
