MODEL 1
REMARK VINA RESULT:     -11.3      0.000      0.000
REMARK SMILES O=C(CCCc1nc(-c2ccc(Cl)c(Cl)c2)c(-c2ccccc2)o1)NCCCCNC(=O)c1ccc(-c2c3nc(c(-c4ccc(S(=O)(=O)[O-])cc4)c4ccc([nH]4)c(-c4ccc(S(=O)(=O)[O-])cc4)c4nc(c(-c5ccc(S(=O)(=O)[O-])cc5)c5ccc2[nH]5)C=C4)C=C3)cc1
REMARK SMILES IDX 27 1 26 2 25 3 1 4 2 5 3 7 4 8 5 9 6 10 7 11 24 12 8 13
REMARK SMILES IDX 17 14 9 15 10 16 16 17 11 18 14 19 12 20 15 21 13 22 18 23
REMARK SMILES IDX 19 24 23 25 20 26 22 27 21 28 28 29 29 30 30 31 31 32 32 34
REMARK SMILES IDX 33 35 34 36 92 37 35 38 91 39 36 40 37 41 38 42 85 43 39 44
REMARK SMILES IDX 90 45 84 46 86 47 40 48 89 49 83 50 82 51 41 53 71 54 52 55
REMARK SMILES IDX 70 56 53 57 56 58 69 59 87 60 54 61 55 62 68 64 88 65 57 66
REMARK SMILES IDX 42 67 43 68 51 69 44 70 50 71 45 72 46 73 47 74 48 75 49 76
REMARK SMILES IDX 72 77 73 78 81 79 74 80 80 81 75 82 76 83 77 84 78 85 79 86
REMARK SMILES IDX 58 87 59 88 67 89 60 90 66 91 61 92 62 93 63 94 64 95 65 96
REMARK H PARENT 25 6 30 33 86 52 56 63
REMARK Flexibility Score: inf
ROOT
ATOM      1  C   UNL A   1      33.944  28.227  23.722  1.00  0.00     0.023 C 
ENDROOT
BRANCH   1   2
ATOM      2  C   UNL A   1      33.634  26.883  23.066  1.00  0.00     0.116 C 
BRANCH   2   3
ATOM      3  N   UNL A   1      32.420  26.292  23.587  1.00  0.00    -0.356 N 
ATOM      4  O   UNL A   1      31.124  26.751  21.746  1.00  0.00    -0.275 OA
ATOM      5  C   UNL A   1      31.249  26.268  22.866  1.00  0.00     0.220 C 
ATOM      6  H   UNL A   1      32.433  25.893  24.487  1.00  0.00     0.163 HD
BRANCH   5   7
ATOM      7  C   UNL A   1      30.101  25.593  23.581  1.00  0.00     0.100 C 
BRANCH   7   8
ATOM      8  C   UNL A   1      30.007  25.961  25.065  1.00  0.00     0.020 C 
BRANCH   8   9
ATOM      9  C   UNL A   1      30.128  24.816  26.080  1.00  0.00     0.098 C 
BRANCH   9  10
ATOM     10  C   UNL A   1      31.144  23.776  25.756  1.00  0.00     0.195 A 
ATOM     11  N   UNL A   1      30.940  22.502  25.476  1.00  0.00    -0.213 NA
ATOM     12  O   UNL A   1      32.455  24.168  25.695  1.00  0.00    -0.440 OA
ATOM     13  C   UNL A   1      32.205  22.016  25.271  1.00  0.00     0.117 A 
ATOM     14  C   UNL A   1      33.126  23.044  25.317  1.00  0.00     0.162 A 
BRANCH  13  15
ATOM     15  C   UNL A   1      32.570  20.636  25.066  1.00  0.00     0.006 A 
ATOM     16  C   UNL A   1      32.898  19.804  26.137  1.00  0.00     0.012 A 
ATOM     17  C   UNL A   1      32.434  20.100  23.776  1.00  0.00     0.032 A 
ATOM     18  C   UNL A   1      32.980  18.423  25.932  1.00  0.00     0.023 A 
ATOM     19  C   UNL A   1      32.512  18.727  23.571  1.00  0.00     0.060 A 
ATOM     20  C   UNL A   1      32.742  17.886  24.660  1.00  0.00     0.059 A 
ATOM     21  Cl  UNL A   1      32.247  18.142  21.967  1.00  0.00    -0.083 Cl
ATOM     22  Cl  UNL A   1      32.638  16.182  24.502  1.00  0.00    -0.083 Cl
ENDBRANCH  13  15
BRANCH  14  23
ATOM     23  C   UNL A   1      34.546  23.166  25.047  1.00  0.00     0.020 A 
ATOM     24  C   UNL A   1      35.063  22.937  23.768  1.00  0.00     0.012 A 
ATOM     25  C   UNL A   1      35.416  23.573  26.071  1.00  0.00     0.012 A 
ATOM     26  C   UNL A   1      36.423  23.131  23.514  1.00  0.00     0.001 A 
ATOM     27  C   UNL A   1      36.776  23.759  25.818  1.00  0.00     0.001 A 
ATOM     28  C   UNL A   1      37.278  23.542  24.538  1.00  0.00     0.000 A 
ENDBRANCH  14  23
ENDBRANCH   9  10
ENDBRANCH   8   9
ENDBRANCH   7   8
ENDBRANCH   5   7
ENDBRANCH   2   3
ENDBRANCH   1   2
BRANCH   1  29
ATOM     29  C   UNL A   1      33.095  28.560  24.953  1.00  0.00     0.023 C 
BRANCH  29  30
ATOM     30  C   UNL A   1      33.865  28.674  26.267  1.00  0.00     0.116 C 
BRANCH  30  31
ATOM     31  N   UNL A   1      33.670  29.959  26.918  1.00  0.00    -0.352 N 
ATOM     32  C   UNL A   1      34.464  30.612  27.829  1.00  0.00     0.251 C 
ATOM     33  H   UNL A   1      32.843  30.433  26.669  1.00  0.00     0.163 HD
ATOM     34  O   UNL A   1      34.038  31.618  28.393  1.00  0.00    -0.269 OA
BRANCH  32  35
ATOM     35  C   UNL A   1      35.813  30.096  28.157  1.00  0.00     0.039 A 
ATOM     36  C   UNL A   1      36.813  30.156  27.183  1.00  0.00     0.014 A 
ATOM     37  C   UNL A   1      36.095  29.546  29.410  1.00  0.00     0.014 A 
ATOM     38  C   UNL A   1      38.110  29.730  27.489  1.00  0.00     0.010 A 
ATOM     39  C   UNL A   1      37.404  29.196  29.739  1.00  0.00     0.010 A 
ATOM     40  C   UNL A   1      38.427  29.284  28.783  1.00  0.00    -0.014 A 
BRANCH  40  41
ATOM     41  C   UNL A   1      39.821  28.912  29.149  1.00  0.00     0.031 A 
ATOM     42  C   UNL A   1      40.703  29.891  29.882  1.00  0.00     0.074 A 
ATOM     43  C   UNL A   1      40.312  27.710  28.784  1.00  0.00     0.049 A 
ATOM     44  N   UNL A   1      41.956  29.765  30.237  1.00  0.00    -0.248 NA
ATOM     45  C   UNL A   1      40.104  31.186  30.249  1.00  0.00     0.031 C 
ATOM     46  C   UNL A   1      39.572  26.678  28.051  1.00  0.00     0.029 A 
ATOM     47  N   UNL A   1      41.549  27.147  28.982  1.00  0.00    -0.354 N 
ATOM     48  C   UNL A   1      42.301  30.966  30.850  1.00  0.00     0.074 A 
ATOM     49  C   UNL A   1      41.139  31.824  30.777  1.00  0.00     0.031 C 
ATOM     50  C   UNL A   1      40.354  25.595  27.904  1.00  0.00     0.029 A 
ATOM     51  C   UNL A   1      41.666  25.870  28.480  1.00  0.00     0.049 A 
ATOM     52  H   UNL A   1      42.284  27.614  29.441  1.00  0.00     0.167 HD
ATOM     53  C   UNL A   1      43.473  31.317  31.433  1.00  0.00     0.031 A 
ATOM     54  C   UNL A   1      42.714  25.022  28.470  1.00  0.00     0.031 A 
ATOM     55  C   UNL A   1      44.627  30.458  31.511  1.00  0.00     0.049 A 
ATOM     56  C   UNL A   1      44.021  25.465  29.065  1.00  0.00     0.074 A 
ATOM     57  C   UNL A   1      45.839  30.703  32.131  1.00  0.00     0.029 A 
ATOM     58  N   UNL A   1      44.715  29.195  30.945  1.00  0.00    -0.354 N 
ATOM     59  N   UNL A   1      44.311  26.588  29.676  1.00  0.00    -0.248 NA
ATOM     60  C   UNL A   1      45.146  24.524  28.959  1.00  0.00     0.031 C 
ATOM     61  C   UNL A   1      46.684  29.616  31.885  1.00  0.00     0.029 A 
ATOM     62  C   UNL A   1      45.974  28.663  31.174  1.00  0.00     0.049 A 
ATOM     63  H   UNL A   1      43.991  28.743  30.453  1.00  0.00     0.167 HD
ATOM     64  C   UNL A   1      45.643  26.473  30.061  1.00  0.00     0.074 A 
ATOM     65  C   UNL A   1      46.097  25.171  29.619  1.00  0.00     0.031 C 
ATOM     66  C   UNL A   1      46.416  27.365  30.730  1.00  0.00     0.031 A 
BRANCH  53  67
ATOM     67  C   UNL A   1      43.576  32.700  32.025  1.00  0.00    -0.014 A 
ATOM     68  C   UNL A   1      43.269  32.943  33.376  1.00  0.00     0.010 A 
ATOM     69  C   UNL A   1      44.037  33.766  31.229  1.00  0.00     0.010 A 
ATOM     70  C   UNL A   1      43.382  34.231  33.908  1.00  0.00     0.020 A 
ATOM     71  C   UNL A   1      44.182  35.049  31.766  1.00  0.00     0.020 A 
ATOM     72  C   UNL A   1      43.837  35.276  33.099  1.00  0.00     0.054 A 
BRANCH  72  73
ATOM     73  S   UNL A   1      43.996  36.931  33.825  1.00  0.00     0.124 S 
ATOM     74  O   UNL A   1      44.880  36.676  34.960  1.00  0.00    -0.237 OA
ATOM     75  O   UNL A   1      44.584  37.704  32.734  1.00  0.00    -0.237 OA
ATOM     76  O   UNL A   1      42.624  37.292  34.174  1.00  0.00    -0.744 OA
ENDBRANCH  72  73
ENDBRANCH  53  67
BRANCH  54  77
ATOM     77  C   UNL A   1      42.590  23.676  27.845  1.00  0.00    -0.014 A 
ATOM     78  C   UNL A   1      42.785  23.484  26.467  1.00  0.00     0.010 A 
ATOM     79  C   UNL A   1      42.249  22.571  28.639  1.00  0.00     0.010 A 
ATOM     80  C   UNL A   1      42.641  22.212  25.899  1.00  0.00     0.020 A 
ATOM     81  C   UNL A   1      42.133  21.295  28.083  1.00  0.00     0.020 A 
ATOM     82  C   UNL A   1      42.323  21.122  26.714  1.00  0.00     0.054 A 
BRANCH  82  83
ATOM     83  S   UNL A   1      42.204  19.466  25.982  1.00  0.00     0.124 S 
ATOM     84  O   UNL A   1      43.126  19.565  24.855  1.00  0.00    -0.237 OA
ATOM     85  O   UNL A   1      42.635  18.605  27.081  1.00  0.00    -0.237 OA
ATOM     86  O   UNL A   1      40.791  19.346  25.629  1.00  0.00    -0.744 OA
ENDBRANCH  82  83
ENDBRANCH  54  77
BRANCH  66  87
ATOM     87  C   UNL A   1      47.818  26.940  31.080  1.00  0.00    -0.014 A 
ATOM     88  C   UNL A   1      48.083  26.114  32.187  1.00  0.00     0.010 A 
ATOM     89  C   UNL A   1      48.884  27.341  30.254  1.00  0.00     0.010 A 
ATOM     90  C   UNL A   1      49.395  25.727  32.479  1.00  0.00     0.020 A 
ATOM     91  C   UNL A   1      50.190  26.929  30.522  1.00  0.00     0.020 A 
ATOM     92  C   UNL A   1      50.439  26.136  31.643  1.00  0.00     0.054 A 
BRANCH  92  93
ATOM     93  S   UNL A   1      52.125  25.582  32.018  1.00  0.00     0.124 S 
ATOM     94  O   UNL A   1      52.498  26.466  33.120  1.00  0.00    -0.237 OA
ATOM     95  O   UNL A   1      51.929  24.179  32.375  1.00  0.00    -0.237 OA
ATOM     96  O   UNL A   1      52.850  25.807  30.769  1.00  0.00    -0.744 OA
ENDBRANCH  92  93
ENDBRANCH  66  87
ENDBRANCH  40  41
ENDBRANCH  32  35
ENDBRANCH  30  31
ENDBRANCH  29  30
ENDBRANCH   1  29
TORSDOF 19
ENDMDL
MODEL 2
REMARK VINA RESULT:     -11.3      1.400      2.685
REMARK SMILES O=C(CCCc1nc(-c2ccc(Cl)c(Cl)c2)c(-c2ccccc2)o1)NCCCCNC(=O)c1ccc(-c2c3nc(c(-c4ccc(S(=O)(=O)[O-])cc4)c4ccc([nH]4)c(-c4ccc(S(=O)(=O)[O-])cc4)c4nc(c(-c5ccc(S(=O)(=O)[O-])cc5)c5ccc2[nH]5)C=C4)C=C3)cc1
REMARK SMILES IDX 27 1 26 2 25 3 1 4 2 5 3 7 4 8 5 9 6 10 7 11 24 12 8 13
REMARK SMILES IDX 17 14 9 15 10 16 16 17 11 18 14 19 12 20 15 21 13 22 18 23
REMARK SMILES IDX 19 24 23 25 20 26 22 27 21 28 28 29 29 30 30 31 31 32 32 34
REMARK SMILES IDX 33 35 34 36 92 37 35 38 91 39 36 40 37 41 38 42 85 43 39 44
REMARK SMILES IDX 90 45 84 46 86 47 40 48 89 49 83 50 82 51 41 53 71 54 52 55
REMARK SMILES IDX 70 56 53 57 56 58 69 59 87 60 54 61 55 62 68 64 88 65 57 66
REMARK SMILES IDX 42 67 43 68 51 69 44 70 50 71 45 72 46 73 47 74 48 75 49 76
REMARK SMILES IDX 72 77 73 78 81 79 74 80 80 81 75 82 76 83 77 84 78 85 79 86
REMARK SMILES IDX 58 87 59 88 67 89 60 90 66 91 61 92 62 93 63 94 64 95 65 96
REMARK H PARENT 25 6 30 33 86 52 56 63
REMARK Flexibility Score: inf
ROOT
ATOM      1  C   UNL A   1      33.694  28.790  24.087  1.00  0.00     0.023 C 
ENDROOT
BRANCH   1   2
ATOM      2  C   UNL A   1      32.447  29.012  23.236  1.00  0.00     0.116 C 
BRANCH   2   3
ATOM      3  N   UNL A   1      31.446  27.990  23.463  1.00  0.00    -0.356 N 
ATOM      4  O   UNL A   1      29.632  29.383  23.245  1.00  0.00    -0.275 OA
ATOM      5  C   UNL A   1      30.100  28.266  23.439  1.00  0.00     0.220 C 
ATOM      6  H   UNL A   1      31.740  27.067  23.639  1.00  0.00     0.163 HD
BRANCH   5   7
ATOM      7  C   UNL A   1      29.221  27.060  23.685  1.00  0.00     0.100 C 
BRANCH   7   8
ATOM      8  C   UNL A   1      29.976  25.866  24.278  1.00  0.00     0.020 C 
BRANCH   8   9
ATOM      9  C   UNL A   1      30.170  24.641  23.375  1.00  0.00     0.098 C 
BRANCH   9  10
ATOM     10  C   UNL A   1      31.367  23.806  23.672  1.00  0.00     0.195 A 
ATOM     11  N   UNL A   1      32.575  24.212  24.015  1.00  0.00    -0.213 NA
ATOM     12  O   UNL A   1      31.214  22.445  23.631  1.00  0.00    -0.440 OA
ATOM     13  C   UNL A   1      33.274  23.042  24.155  1.00  0.00     0.117 A 
ATOM     14  C   UNL A   1      32.430  21.959  24.008  1.00  0.00     0.162 A 
BRANCH  13  15
ATOM     15  C   UNL A   1      34.692  22.913  24.391  1.00  0.00     0.006 A 
ATOM     16  C   UNL A   1      35.463  24.003  24.794  1.00  0.00     0.012 A 
ATOM     17  C   UNL A   1      35.254  21.627  24.359  1.00  0.00     0.032 A 
ATOM     18  C   UNL A   1      36.760  23.786  25.270  1.00  0.00     0.023 A 
ATOM     19  C   UNL A   1      36.542  21.409  24.835  1.00  0.00     0.060 A 
ATOM     20  C   UNL A   1      37.278  22.486  25.332  1.00  0.00     0.059 A 
ATOM     21  Cl  UNL A   1      37.127  19.784  24.843  1.00  0.00    -0.083 Cl
ATOM     22  Cl  UNL A   1      38.781  22.244  26.121  1.00  0.00    -0.083 Cl
ENDBRANCH  13  15
BRANCH  14  23
ATOM     23  C   UNL A   1      32.557  20.524  24.179  1.00  0.00     0.020 A 
ATOM     24  C   UNL A   1      32.736  19.957  25.445  1.00  0.00     0.012 A 
ATOM     25  C   UNL A   1      32.448  19.678  23.064  1.00  0.00     0.012 A 
ATOM     26  C   UNL A   1      32.783  18.569  25.594  1.00  0.00     0.001 A 
ATOM     27  C   UNL A   1      32.504  18.291  23.213  1.00  0.00     0.001 A 
ATOM     28  C   UNL A   1      32.666  17.737  24.479  1.00  0.00     0.000 A 
ENDBRANCH  14  23
ENDBRANCH   9  10
ENDBRANCH   8   9
ENDBRANCH   7   8
ENDBRANCH   5   7
ENDBRANCH   2   3
ENDBRANCH   1   2
BRANCH   1  29
ATOM     29  C   UNL A   1      33.605  27.629  25.084  1.00  0.00     0.023 C 
BRANCH  29  30
ATOM     30  C   UNL A   1      34.045  27.956  26.508  1.00  0.00     0.116 C 
BRANCH  30  31
ATOM     31  N   UNL A   1      33.662  29.299  26.916  1.00  0.00    -0.352 N 
ATOM     32  C   UNL A   1      34.355  30.222  27.659  1.00  0.00     0.251 C 
ATOM     33  H   UNL A   1      32.770  29.589  26.614  1.00  0.00     0.163 HD
ATOM     34  O   UNL A   1      33.786  31.243  28.042  1.00  0.00    -0.269 OA
BRANCH  32  35
ATOM     35  C   UNL A   1      35.770  29.984  28.026  1.00  0.00     0.039 A 
ATOM     36  C   UNL A   1      36.071  29.589  29.332  1.00  0.00     0.014 A 
ATOM     37  C   UNL A   1      36.800  30.157  27.098  1.00  0.00     0.014 A 
ATOM     38  C   UNL A   1      37.393  29.301  29.686  1.00  0.00     0.010 A 
ATOM     39  C   UNL A   1      38.105  29.794  27.429  1.00  0.00     0.010 A 
ATOM     40  C   UNL A   1      38.417  29.361  28.726  1.00  0.00    -0.014 A 
BRANCH  40  41
ATOM     41  C   UNL A   1      39.814  28.972  29.064  1.00  0.00     0.031 A 
ATOM     42  C   UNL A   1      40.730  29.949  29.757  1.00  0.00     0.074 A 
ATOM     43  C   UNL A   1      40.275  27.755  28.710  1.00  0.00     0.049 A 
ATOM     44  N   UNL A   1      41.989  29.808  30.083  1.00  0.00    -0.248 NA
ATOM     45  C   UNL A   1      40.162  31.260  30.113  1.00  0.00     0.031 C 
ATOM     46  C   UNL A   1      39.500  26.721  28.017  1.00  0.00     0.029 A 
ATOM     47  N   UNL A   1      41.507  27.174  28.889  1.00  0.00    -0.354 N 
ATOM     48  C   UNL A   1      42.370  31.014  30.663  1.00  0.00     0.074 A 
ATOM     49  C   UNL A   1      41.220  31.891  30.603  1.00  0.00     0.031 C 
ATOM     50  C   UNL A   1      40.259  25.623  27.871  1.00  0.00     0.029 A 
ATOM     51  C   UNL A   1      41.590  25.886  28.409  1.00  0.00     0.049 A 
ATOM     52  H   UNL A   1      42.261  27.637  29.321  1.00  0.00     0.167 HD
ATOM     53  C   UNL A   1      43.561  31.356  31.211  1.00  0.00     0.031 A 
ATOM     54  C   UNL A   1      42.622  25.020  28.390  1.00  0.00     0.031 A 
ATOM     55  C   UNL A   1      44.702  30.479  31.276  1.00  0.00     0.049 A 
ATOM     56  C   UNL A   1      43.951  25.452  28.943  1.00  0.00     0.074 A 
ATOM     57  C   UNL A   1      45.933  30.714  31.862  1.00  0.00     0.029 A 
ATOM     58  N   UNL A   1      44.755  29.204  30.734  1.00  0.00    -0.354 N 
ATOM     59  N   UNL A   1      44.276  26.581  29.526  1.00  0.00    -0.248 NA
ATOM     60  C   UNL A   1      45.057  24.490  28.828  1.00  0.00     0.031 C 
ATOM     61  C   UNL A   1      46.753  29.609  31.616  1.00  0.00     0.029 A 
ATOM     62  C   UNL A   1      46.010  28.654  30.941  1.00  0.00     0.049 A 
ATOM     63  H   UNL A   1      44.011  28.756  30.269  1.00  0.00     0.167 HD
ATOM     64  C   UNL A   1      45.615  26.450  29.880  1.00  0.00     0.074 A 
ATOM     65  C   UNL A   1      46.035  25.132  29.452  1.00  0.00     0.031 C 
ATOM     66  C   UNL A   1      46.419  27.341  30.512  1.00  0.00     0.031 A 
BRANCH  53  67
ATOM     67  C   UNL A   1      43.702  32.748  31.773  1.00  0.00    -0.014 A 
ATOM     68  C   UNL A   1      44.186  33.809  30.986  1.00  0.00     0.010 A 
ATOM     69  C   UNL A   1      43.296  33.011  33.094  1.00  0.00     0.010 A 
ATOM     70  C   UNL A   1      44.299  35.095  31.522  1.00  0.00     0.020 A 
ATOM     71  C   UNL A   1      43.377  34.302  33.625  1.00  0.00     0.020 A 
ATOM     72  C   UNL A   1      43.895  35.333  32.839  1.00  0.00     0.054 A 
BRANCH  72  73
ATOM     73  S   UNL A   1      44.030  37.018  33.498  1.00  0.00     0.124 S 
ATOM     74  O   UNL A   1      43.762  37.827  32.312  1.00  0.00    -0.237 OA
ATOM     75  O   UNL A   1      42.990  37.044  34.523  1.00  0.00    -0.237 OA
ATOM     76  O   UNL A   1      45.400  37.086  34.000  1.00  0.00    -0.744 OA
ENDBRANCH  72  73
ENDBRANCH  53  67
BRANCH  54  77
ATOM     77  C   UNL A   1      42.460  23.665  27.794  1.00  0.00    -0.014 A 
ATOM     78  C   UNL A   1      42.682  23.431  26.426  1.00  0.00     0.010 A 
ATOM     79  C   UNL A   1      42.056  22.594  28.606  1.00  0.00     0.010 A 
ATOM     80  C   UNL A   1      42.501  22.151  25.886  1.00  0.00     0.020 A 
ATOM     81  C   UNL A   1      41.903  21.310  28.077  1.00  0.00     0.020 A 
ATOM     82  C   UNL A   1      42.120  21.096  26.718  1.00  0.00     0.054 A 
BRANCH  82  83
ATOM     83  S   UNL A   1      41.953  19.428  26.023  1.00  0.00     0.124 S 
ATOM     84  O   UNL A   1      40.518  19.347  25.771  1.00  0.00    -0.237 OA
ATOM     85  O   UNL A   1      42.802  19.496  24.837  1.00  0.00    -0.237 OA
ATOM     86  O   UNL A   1      42.454  18.559  27.086  1.00  0.00    -0.744 OA
ENDBRANCH  82  83
ENDBRANCH  54  77
BRANCH  66  87
ATOM     87  C   UNL A   1      47.822  26.898  30.836  1.00  0.00    -0.014 A 
ATOM     88  C   UNL A   1      48.906  27.217  30.000  1.00  0.00     0.010 A 
ATOM     89  C   UNL A   1      48.061  26.188  32.026  1.00  0.00     0.010 A 
ATOM     90  C   UNL A   1      50.199  26.803  30.333  1.00  0.00     0.020 A 
ATOM     91  C   UNL A   1      49.355  25.801  32.380  1.00  0.00     0.020 A 
ATOM     92  C   UNL A   1      50.415  26.099  31.523  1.00  0.00     0.054 A 
BRANCH  92  93
ATOM     93  S   UNL A   1      52.108  25.612  31.954  1.00  0.00     0.124 S 
ATOM     94  O   UNL A   1      52.398  26.489  33.085  1.00  0.00    -0.237 OA
ATOM     95  O   UNL A   1      51.960  24.195  32.279  1.00  0.00    -0.237 OA
ATOM     96  O   UNL A   1      52.869  25.891  30.739  1.00  0.00    -0.744 OA
ENDBRANCH  92  93
ENDBRANCH  66  87
ENDBRANCH  40  41
ENDBRANCH  32  35
ENDBRANCH  30  31
ENDBRANCH  29  30
ENDBRANCH   1  29
TORSDOF 19
ENDMDL
MODEL 3
REMARK VINA RESULT:     -11.0      4.680     10.357
REMARK SMILES O=C(CCCc1nc(-c2ccc(Cl)c(Cl)c2)c(-c2ccccc2)o1)NCCCCNC(=O)c1ccc(-c2c3nc(c(-c4ccc(S(=O)(=O)[O-])cc4)c4ccc([nH]4)c(-c4ccc(S(=O)(=O)[O-])cc4)c4nc(c(-c5ccc(S(=O)(=O)[O-])cc5)c5ccc2[nH]5)C=C4)C=C3)cc1
REMARK SMILES IDX 27 1 26 2 25 3 1 4 2 5 3 7 4 8 5 9 6 10 7 11 24 12 8 13
REMARK SMILES IDX 17 14 9 15 10 16 16 17 11 18 14 19 12 20 15 21 13 22 18 23
REMARK SMILES IDX 19 24 23 25 20 26 22 27 21 28 28 29 29 30 30 31 31 32 32 34
REMARK SMILES IDX 33 35 34 36 92 37 35 38 91 39 36 40 37 41 38 42 85 43 39 44
REMARK SMILES IDX 90 45 84 46 86 47 40 48 89 49 83 50 82 51 41 53 71 54 52 55
REMARK SMILES IDX 70 56 53 57 56 58 69 59 87 60 54 61 55 62 68 64 88 65 57 66
REMARK SMILES IDX 42 67 43 68 51 69 44 70 50 71 45 72 46 73 47 74 48 75 49 76
REMARK SMILES IDX 72 77 73 78 81 79 74 80 80 81 75 82 76 83 77 84 78 85 79 86
REMARK SMILES IDX 58 87 59 88 67 89 60 90 66 91 61 92 62 93 63 94 64 95 65 96
REMARK H PARENT 25 6 30 33 86 52 56 63
REMARK Flexibility Score: inf
ROOT
ATOM      1  C   UNL A   1      37.508  22.693  25.450  1.00  0.00     0.023 C 
ENDROOT
BRANCH   1   2
ATOM      2  C   UNL A   1      36.481  21.575  25.287  1.00  0.00     0.116 C 
BRANCH   2   3
ATOM      3  N   UNL A   1      35.159  22.089  24.998  1.00  0.00    -0.356 N 
ATOM      4  O   UNL A   1      34.173  20.040  24.673  1.00  0.00    -0.275 OA
ATOM      5  C   UNL A   1      34.097  21.262  24.719  1.00  0.00     0.220 C 
ATOM      6  H   UNL A   1      35.016  23.063  25.003  1.00  0.00     0.163 HD
BRANCH   5   7
ATOM      7  C   UNL A   1      32.800  21.995  24.459  1.00  0.00     0.100 C 
BRANCH   7   8
ATOM      8  C   UNL A   1      32.504  22.201  22.970  1.00  0.00     0.020 C 
BRANCH   8   9
ATOM      9  C   UNL A   1      33.092  23.453  22.305  1.00  0.00     0.098 C 
BRANCH   9  10
ATOM     10  C   UNL A   1      32.561  24.754  22.800  1.00  0.00     0.195 A 
ATOM     11  N   UNL A   1      31.555  25.457  22.315  1.00  0.00    -0.213 NA
ATOM     12  O   UNL A   1      33.142  25.289  23.919  1.00  0.00    -0.440 OA
ATOM     13  C   UNL A   1      31.509  26.553  23.137  1.00  0.00     0.117 A 
ATOM     14  C   UNL A   1      32.416  26.415  24.169  1.00  0.00     0.162 A 
BRANCH  13  15
ATOM     15  C   UNL A   1      30.674  27.717  22.968  1.00  0.00     0.006 A 
ATOM     16  C   UNL A   1      31.150  28.868  22.340  1.00  0.00     0.012 A 
ATOM     17  C   UNL A   1      29.316  27.612  23.308  1.00  0.00     0.032 A 
ATOM     18  C   UNL A   1      30.245  29.862  21.956  1.00  0.00     0.023 A 
ATOM     19  C   UNL A   1      28.415  28.598  22.923  1.00  0.00     0.060 A 
ATOM     20  C   UNL A   1      28.876  29.703  22.207  1.00  0.00     0.059 A 
ATOM     21  Cl  UNL A   1      26.748  28.350  23.305  1.00  0.00    -0.083 Cl
ATOM     22  Cl  UNL A   1      27.786  30.838  21.528  1.00  0.00    -0.083 Cl
ENDBRANCH  13  15
BRANCH  14  23
ATOM     23  C   UNL A   1      32.717  27.155  25.381  1.00  0.00     0.020 A 
ATOM     24  C   UNL A   1      33.941  27.812  25.544  1.00  0.00     0.012 A 
ATOM     25  C   UNL A   1      31.747  27.262  26.390  1.00  0.00     0.012 A 
ATOM     26  C   UNL A   1      34.181  28.577  26.688  1.00  0.00     0.001 A 
ATOM     27  C   UNL A   1      31.991  28.020  27.535  1.00  0.00     0.001 A 
ATOM     28  C   UNL A   1      33.206  28.682  27.682  1.00  0.00     0.000 A 
ENDBRANCH  14  23
ENDBRANCH   9  10
ENDBRANCH   8   9
ENDBRANCH   7   8
ENDBRANCH   5   7
ENDBRANCH   2   3
ENDBRANCH   1   2
BRANCH   1  29
ATOM     29  C   UNL A   1      38.740  22.329  26.285  1.00  0.00     0.023 C 
BRANCH  29  30
ATOM     30  C   UNL A   1      39.486  23.511  26.899  1.00  0.00     0.116 C 
BRANCH  30  31
ATOM     31  N   UNL A   1      40.501  24.053  26.009  1.00  0.00    -0.352 N 
ATOM     32  C   UNL A   1      41.209  25.226  26.096  1.00  0.00     0.251 C 
ATOM     33  H   UNL A   1      40.713  23.493  25.227  1.00  0.00     0.163 HD
ATOM     34  O   UNL A   1      41.905  25.586  25.148  1.00  0.00    -0.269 OA
BRANCH  32  35
ATOM     35  C   UNL A   1      41.117  26.073  27.308  1.00  0.00     0.039 A 
ATOM     36  C   UNL A   1      42.056  27.091  27.492  1.00  0.00     0.014 A 
ATOM     37  C   UNL A   1      40.123  25.863  28.267  1.00  0.00     0.014 A 
ATOM     38  C   UNL A   1      41.954  27.941  28.598  1.00  0.00     0.010 A 
ATOM     39  C   UNL A   1      39.975  26.758  29.325  1.00  0.00     0.010 A 
ATOM     40  C   UNL A   1      40.888  27.808  29.503  1.00  0.00    -0.014 A 
BRANCH  40  41
ATOM     41  C   UNL A   1      40.715  28.760  30.635  1.00  0.00     0.031 A 
ATOM     42  C   UNL A   1      41.588  28.652  31.860  1.00  0.00     0.074 A 
ATOM     43  C   UNL A   1      39.745  29.695  30.583  1.00  0.00     0.049 A 
ATOM     44  N   UNL A   1      41.550  29.356  32.963  1.00  0.00    -0.248 NA
ATOM     45  C   UNL A   1      42.626  27.608  31.851  1.00  0.00     0.031 C 
ATOM     46  C   UNL A   1      38.816  29.894  29.465  1.00  0.00     0.029 A 
ATOM     47  N   UNL A   1      39.377  30.661  31.488  1.00  0.00    -0.354 N 
ATOM     48  C   UNL A   1      42.541  28.829  33.785  1.00  0.00     0.074 A 
ATOM     49  C   UNL A   1      43.133  27.719  33.071  1.00  0.00     0.031 C 
ATOM     50  C   UNL A   1      38.020  30.942  29.733  1.00  0.00     0.029 A 
ATOM     51  C   UNL A   1      38.341  31.459  31.060  1.00  0.00     0.049 A 
ATOM     52  H   UNL A   1      39.816  30.771  32.363  1.00  0.00     0.167 HD
ATOM     53  C   UNL A   1      42.934  29.242  35.014  1.00  0.00     0.031 A 
ATOM     54  C   UNL A   1      37.709  32.481  31.670  1.00  0.00     0.031 A 
ATOM     55  C   UNL A   1      42.349  30.352  35.720  1.00  0.00     0.049 A 
ATOM     56  C   UNL A   1      38.122  32.873  33.062  1.00  0.00     0.074 A 
ATOM     57  C   UNL A   1      42.716  30.882  36.944  1.00  0.00     0.029 A 
ATOM     58  N   UNL A   1      41.270  31.099  35.270  1.00  0.00    -0.354 N 
ATOM     59  N   UNL A   1      39.090  32.389  33.802  1.00  0.00    -0.248 NA
ATOM     60  C   UNL A   1      37.348  33.946  33.702  1.00  0.00     0.031 C 
ATOM     61  C   UNL A   1      41.819  31.905  37.265  1.00  0.00     0.029 A 
ATOM     62  C   UNL A   1      40.938  32.063  36.208  1.00  0.00     0.049 A 
ATOM     63  H   UNL A   1      40.808  30.964  34.410  1.00  0.00     0.167 HD
ATOM     64  C   UNL A   1      39.065  33.125  34.982  1.00  0.00     0.074 A 
ATOM     65  C   UNL A   1      37.991  34.088  34.852  1.00  0.00     0.031 C 
ATOM     66  C   UNL A   1      39.867  33.018  36.070  1.00  0.00     0.031 A 
BRANCH  53  67
ATOM     67  C   UNL A   1      44.046  28.478  35.689  1.00  0.00    -0.014 A 
ATOM     68  C   UNL A   1      45.397  28.743  35.398  1.00  0.00     0.010 A 
ATOM     69  C   UNL A   1      43.736  27.517  36.668  1.00  0.00     0.010 A 
ATOM     70  C   UNL A   1      46.413  28.031  36.043  1.00  0.00     0.020 A 
ATOM     71  C   UNL A   1      44.750  26.825  37.339  1.00  0.00     0.020 A 
ATOM     72  C   UNL A   1      46.083  27.076  37.009  1.00  0.00     0.054 A 
BRANCH  72  73
ATOM     73  S   UNL A   1      47.424  26.187  37.846  1.00  0.00     0.124 S 
ATOM     74  O   UNL A   1      47.270  24.837  37.310  1.00  0.00    -0.237 OA
ATOM     75  O   UNL A   1      48.613  26.907  37.399  1.00  0.00    -0.237 OA
ATOM     76  O   UNL A   1      47.106  26.333  39.264  1.00  0.00    -0.744 OA
ENDBRANCH  72  73
ENDBRANCH  53  67
BRANCH  54  77
ATOM     77  C   UNL A   1      36.590  33.191  30.991  1.00  0.00    -0.014 A 
ATOM     78  C   UNL A   1      35.278  33.148  31.493  1.00  0.00     0.010 A 
ATOM     79  C   UNL A   1      36.837  33.905  29.809  1.00  0.00     0.010 A 
ATOM     80  C   UNL A   1      34.239  33.806  30.822  1.00  0.00     0.020 A 
ATOM     81  C   UNL A   1      35.810  34.588  29.153  1.00  0.00     0.020 A 
ATOM     82  C   UNL A   1      34.514  34.530  29.659  1.00  0.00     0.054 A 
BRANCH  82  83
ATOM     83  S   UNL A   1      33.174  35.434  28.834  1.00  0.00     0.124 S 
ATOM     84  O   UNL A   1      32.470  34.364  28.136  1.00  0.00    -0.237 OA
ATOM     85  O   UNL A   1      32.461  36.034  29.960  1.00  0.00    -0.237 OA
ATOM     86  O   UNL A   1      33.877  36.386  27.978  1.00  0.00    -0.744 OA
ENDBRANCH  82  83
ENDBRANCH  54  77
BRANCH  66  87
ATOM     87  C   UNL A   1      39.656  34.006  37.187  1.00  0.00    -0.014 A 
ATOM     88  C   UNL A   1      38.886  33.685  38.319  1.00  0.00     0.010 A 
ATOM     89  C   UNL A   1      40.280  35.264  37.118  1.00  0.00     0.010 A 
ATOM     90  C   UNL A   1      38.718  34.619  39.345  1.00  0.00     0.020 A 
ATOM     91  C   UNL A   1      40.142  36.188  38.155  1.00  0.00     0.020 A 
ATOM     92  C   UNL A   1      39.349  35.864  39.257  1.00  0.00     0.054 A 
BRANCH  92  93
ATOM     93  S   UNL A   1      39.152  37.042  40.622  1.00  0.00     0.124 S 
ATOM     94  O   UNL A   1      38.268  38.045  40.034  1.00  0.00    -0.237 OA
ATOM     95  O   UNL A   1      38.557  36.217  41.672  1.00  0.00    -0.237 OA
ATOM     96  O   UNL A   1      40.515  37.494  40.890  1.00  0.00    -0.744 OA
ENDBRANCH  92  93
ENDBRANCH  66  87
ENDBRANCH  40  41
ENDBRANCH  32  35
ENDBRANCH  30  31
ENDBRANCH  29  30
ENDBRANCH   1  29
TORSDOF 19
ENDMDL
