MODEL 1
REMARK VINA RESULT:     -10.7      0.000      0.000
REMARK SMILES CCCCCCNC(=O)Oc1cccc(-c2ccc(CC(=O)NCCCCNC(=O)c3ccc(-c4c5nc(c(-c6ccc(S(=O)(=O)[O-])cc6)c6ccc([nH]6)c(-c6ccc(S(=O)(=O)[O-])cc6)c6nc(c(-c7ccc(S(=O)(=O)[O-])cc7)c7ccc4[nH]7)C=C6)C=C5)cc3)cc2F)c1
REMARK SMILES IDX 21 1 22 2 23 3 20 5 19 6 16 7 17 8 92 9 18 10 91 11 93 12
REMARK SMILES IDX 15 13 11 14 12 15 94 16 13 17 14 18 10 19 8 20 7 21 9 23
REMARK SMILES IDX 6 24 5 25 4 26 3 27 2 28 1 29 24 30 25 31 26 32 27 33 28 34
REMARK SMILES IDX 29 35 30 37 31 38 32 39 90 40 33 41 89 42 34 43 35 44 36 45
REMARK SMILES IDX 83 46 37 47 88 48 82 49 84 50 38 51 87 52 81 53 80 54 39 56
REMARK SMILES IDX 69 57 50 58 68 59 51 60 54 61 67 62 85 63 52 64 53 65 66 67
REMARK SMILES IDX 86 68 55 69 40 70 41 71 49 72 42 73 48 74 43 75 44 76 45 77
REMARK SMILES IDX 46 78 47 79 70 80 71 81 79 82 72 83 78 84 73 85 74 86 75 87
REMARK SMILES IDX 76 88 77 89 56 90 57 91 65 92 58 93 64 94 59 95 60 96 61 97
REMARK SMILES IDX 62 98 63 99
REMARK H PARENT 23 4 7 22 28 36 84 55 54 66
REMARK Flexibility Score: inf
ROOT
ATOM      1  C   UNL A   1      34.303  20.274  25.355  1.00  0.00     0.224 C 
ATOM      2  O   UNL A   1      33.807  19.384  24.663  1.00  0.00    -0.275 OA
ATOM      3  N   UNL A   1      35.604  20.628  25.138  1.00  0.00    -0.356 N 
ATOM      4  H   UNL A   1      36.050  20.166  24.391  1.00  0.00     0.163 HD
ENDROOT
BRANCH   1   5
ATOM      5  C   UNL A   1      33.480  21.004  26.404  1.00  0.00     0.135 C 
BRANCH   5   6
ATOM      6  C   UNL A   1      32.731  22.201  25.874  1.00  0.00    -0.036 A 
ATOM      7  C   UNL A   1      31.422  24.498  24.848  1.00  0.00     0.018 A 
ATOM      8  C   UNL A   1      31.585  24.317  26.231  1.00  0.00     0.012 A 
ATOM      9  C   UNL A   1      31.909  23.494  24.000  1.00  0.00     0.131 A 
ATOM     10  C   UNL A   1      32.228  23.181  26.739  1.00  0.00     0.005 A 
ATOM     11  C   UNL A   1      32.539  22.357  24.497  1.00  0.00     0.044 A 
ATOM     12  F   UNL A   1      31.791  23.613  22.668  1.00  0.00    -0.206 F 
BRANCH   7  13
ATOM     13  C   UNL A   1      30.736  25.682  24.313  1.00  0.00    -0.012 A 
ATOM     14  C   UNL A   1      30.837  27.927  23.394  1.00  0.00     0.133 A 
ATOM     15  C   UNL A   1      29.450  27.972  23.281  1.00  0.00     0.047 A 
ATOM     16  C   UNL A   1      31.476  26.809  23.925  1.00  0.00     0.056 A 
ATOM     17  C   UNL A   1      28.699  26.865  23.670  1.00  0.00     0.004 A 
ATOM     18  C   UNL A   1      29.337  25.727  24.176  1.00  0.00     0.009 A 
BRANCH  14  19
ATOM     19  O   UNL A   1      31.554  29.085  23.056  1.00  0.00    -0.410 OA
BRANCH  19  20
ATOM     20  C   UNL A   1      32.886  29.147  23.434  1.00  0.00     0.412 C 
ATOM     21  N   UNL A   1      33.071  29.669  24.682  1.00  0.00    -0.321 N 
ATOM     22  H   UNL A   1      34.002  29.740  24.996  1.00  0.00     0.167 HD
ATOM     23  O   UNL A   1      33.852  28.796  22.761  1.00  0.00    -0.224 OA
BRANCH  21  24
ATOM     24  C   UNL A   1      32.045  30.127  25.595  1.00  0.00     0.119 C 
BRANCH  24  25
ATOM     25  C   UNL A   1      32.220  29.539  26.995  1.00  0.00     0.021 C 
BRANCH  25  26
ATOM     26  C   UNL A   1      33.462  28.656  27.174  1.00  0.00     0.002 C 
BRANCH  26  27
ATOM     27  C   UNL A   1      34.705  29.366  27.720  1.00  0.00    -0.000 C 
BRANCH  27  28
ATOM     28  C   UNL A   1      34.445  30.706  28.412  1.00  0.00    -0.003 C 
ATOM     29  C   UNL A   1      34.939  31.902  27.614  1.00  0.00     0.004 C 
ENDBRANCH  27  28
ENDBRANCH  26  27
ENDBRANCH  25  26
ENDBRANCH  24  25
ENDBRANCH  21  24
ENDBRANCH  19  20
ENDBRANCH  14  19
ENDBRANCH   7  13
ENDBRANCH   5   6
ENDBRANCH   1   5
BRANCH   3  30
ATOM     30  C   UNL A   1      36.422  21.588  25.854  1.00  0.00     0.116 C 
BRANCH  30  31
ATOM     31  C   UNL A   1      37.234  22.469  24.903  1.00  0.00     0.023 C 
BRANCH  31  32
ATOM     32  C   UNL A   1      37.450  23.903  25.390  1.00  0.00     0.023 C 
BRANCH  32  33
ATOM     33  C   UNL A   1      38.388  24.052  26.584  1.00  0.00     0.116 C 
BRANCH  33  34
ATOM     34  N   UNL A   1      39.790  23.885  26.235  1.00  0.00    -0.352 N 
ATOM     35  C   UNL A   1      40.865  24.664  26.598  1.00  0.00     0.251 C 
ATOM     36  H   UNL A   1      39.998  23.112  25.663  1.00  0.00     0.163 HD
ATOM     37  O   UNL A   1      41.973  24.446  26.118  1.00  0.00    -0.269 OA
BRANCH  35  38
ATOM     38  C   UNL A   1      40.666  25.789  27.536  1.00  0.00     0.039 A 
ATOM     39  C   UNL A   1      39.682  25.680  28.521  1.00  0.00     0.014 A 
ATOM     40  C   UNL A   1      41.472  26.929  27.468  1.00  0.00     0.014 A 
ATOM     41  C   UNL A   1      39.557  26.681  29.488  1.00  0.00     0.010 A 
ATOM     42  C   UNL A   1      41.391  27.892  28.471  1.00  0.00     0.010 A 
ATOM     43  C   UNL A   1      40.440  27.774  29.496  1.00  0.00    -0.014 A 
BRANCH  43  44
ATOM     44  C   UNL A   1      40.404  28.788  30.582  1.00  0.00     0.031 A 
ATOM     45  C   UNL A   1      41.322  28.666  31.767  1.00  0.00     0.074 A 
ATOM     46  C   UNL A   1      39.488  29.777  30.537  1.00  0.00     0.049 A 
ATOM     47  N   UNL A   1      41.386  29.412  32.840  1.00  0.00    -0.248 NA
ATOM     48  C   UNL A   1      42.278  27.545  31.757  1.00  0.00     0.031 C 
ATOM     49  C   UNL A   1      38.514  29.984  29.461  1.00  0.00     0.029 A 
ATOM     50  N   UNL A   1      39.219  30.791  31.423  1.00  0.00    -0.354 N 
ATOM     51  C   UNL A   1      42.369  28.842  33.640  1.00  0.00     0.074 A 
ATOM     52  C   UNL A   1      42.847  27.665  32.948  1.00  0.00     0.031 C 
ATOM     53  C   UNL A   1      37.777  31.072  29.737  1.00  0.00     0.029 A 
ATOM     54  C   UNL A   1      38.190  31.614  31.027  1.00  0.00     0.049 A 
ATOM     55  H   UNL A   1      39.716  30.918  32.263  1.00  0.00     0.167 HD
ATOM     56  C   UNL A   1      42.840  29.268  34.836  1.00  0.00     0.031 A 
ATOM     57  C   UNL A   1      37.633  32.679  31.637  1.00  0.00     0.031 A 
ATOM     58  C   UNL A   1      42.374  30.449  35.515  1.00  0.00     0.049 A 
ATOM     59  C   UNL A   1      38.164  33.120  32.974  1.00  0.00     0.074 A 
ATOM     60  C   UNL A   1      42.842  31.002  36.693  1.00  0.00     0.029 A 
ATOM     61  N   UNL A   1      41.331  31.253  35.080  1.00  0.00    -0.354 N 
ATOM     62  N   UNL A   1      39.148  32.613  33.677  1.00  0.00    -0.248 NA
ATOM     63  C   UNL A   1      37.513  34.281  33.597  1.00  0.00     0.031 C 
ATOM     64  C   UNL A   1      42.043  32.108  37.004  1.00  0.00     0.029 A 
ATOM     65  C   UNL A   1      41.119  32.279  35.986  1.00  0.00     0.049 A 
ATOM     66  H   UNL A   1      40.819  31.116  34.251  1.00  0.00     0.167 HD
ATOM     67  C   UNL A   1      39.252  33.410  34.812  1.00  0.00     0.074 A 
ATOM     68  C   UNL A   1      38.240  34.440  34.694  1.00  0.00     0.031 C 
ATOM     69  C   UNL A   1      40.109  33.299  35.857  1.00  0.00     0.031 A 
BRANCH  56  70
ATOM     70  C   UNL A   1      43.913  28.445  35.501  1.00  0.00    -0.014 A 
ATOM     71  C   UNL A   1      45.267  28.820  35.431  1.00  0.00     0.010 A 
ATOM     72  C   UNL A   1      43.555  27.311  36.254  1.00  0.00     0.010 A 
ATOM     73  C   UNL A   1      46.246  28.056  36.072  1.00  0.00     0.020 A 
ATOM     74  C   UNL A   1      44.528  26.561  36.919  1.00  0.00     0.020 A 
ATOM     75  C   UNL A   1      45.869  26.930  36.811  1.00  0.00     0.054 A 
BRANCH  75  76
ATOM     76  S   UNL A   1      47.159  25.975  37.658  1.00  0.00     0.124 S 
ATOM     77  O   UNL A   1      46.401  25.326  38.726  1.00  0.00    -0.237 OA
ATOM     78  O   UNL A   1      47.644  25.087  36.604  1.00  0.00    -0.237 OA
ATOM     79  O   UNL A   1      48.110  26.992  38.100  1.00  0.00    -0.744 OA
ENDBRANCH  75  76
ENDBRANCH  56  70
BRANCH  57  80
ATOM     80  C   UNL A   1      36.515  33.413  30.985  1.00  0.00    -0.014 A 
ATOM     81  C   UNL A   1      35.207  33.315  31.495  1.00  0.00     0.010 A 
ATOM     82  C   UNL A   1      36.746  34.212  29.851  1.00  0.00     0.010 A 
ATOM     83  C   UNL A   1      34.150  33.984  30.870  1.00  0.00     0.020 A 
ATOM     84  C   UNL A   1      35.696  34.905  29.240  1.00  0.00     0.020 A 
ATOM     85  C   UNL A   1      34.402  34.776  29.746  1.00  0.00     0.054 A 
BRANCH  85  86
ATOM     86  S   UNL A   1      33.022  35.667  28.978  1.00  0.00     0.124 S 
ATOM     87  O   UNL A   1      32.273  36.129  30.142  1.00  0.00    -0.237 OA
ATOM     88  O   UNL A   1      33.704  36.705  28.210  1.00  0.00    -0.237 OA
ATOM     89  O   UNL A   1      32.360  34.641  28.172  1.00  0.00    -0.744 OA
ENDBRANCH  85  86
ENDBRANCH  57  80
BRANCH  69  90
ATOM     90  C   UNL A   1      40.017  34.335  36.945  1.00  0.00    -0.014 A 
ATOM     91  C   UNL A   1      40.779  35.516  36.895  1.00  0.00     0.010 A 
ATOM     92  C   UNL A   1      39.105  34.152  38.001  1.00  0.00     0.010 A 
ATOM     93  C   UNL A   1      40.649  36.483  37.895  1.00  0.00     0.020 A 
ATOM     94  C   UNL A   1      38.951  35.129  38.987  1.00  0.00     0.020 A 
ATOM     95  C   UNL A   1      39.735  36.284  38.935  1.00  0.00     0.054 A 
BRANCH  95  96
ATOM     96  S   UNL A   1      39.546  37.579  40.190  1.00  0.00     0.124 S 
ATOM     97  O   UNL A   1      39.056  36.820  41.338  1.00  0.00    -0.237 OA
ATOM     98  O   UNL A   1      40.902  38.105  40.316  1.00  0.00    -0.237 OA
ATOM     99  O   UNL A   1      38.580  38.500  39.595  1.00  0.00    -0.744 OA
ENDBRANCH  95  96
ENDBRANCH  69  90
ENDBRANCH  43  44
ENDBRANCH  35  38
ENDBRANCH  33  34
ENDBRANCH  32  33
ENDBRANCH  31  32
ENDBRANCH  30  31
ENDBRANCH   3  30
TORSDOF 23
ENDMDL
MODEL 2
REMARK VINA RESULT:     -10.5      2.127      2.858
REMARK SMILES CCCCCCNC(=O)Oc1cccc(-c2ccc(CC(=O)NCCCCNC(=O)c3ccc(-c4c5nc(c(-c6ccc(S(=O)(=O)[O-])cc6)c6ccc([nH]6)c(-c6ccc(S(=O)(=O)[O-])cc6)c6nc(c(-c7ccc(S(=O)(=O)[O-])cc7)c7ccc4[nH]7)C=C6)C=C5)cc3)cc2F)c1
REMARK SMILES IDX 21 1 22 2 23 3 20 5 19 6 16 7 17 8 92 9 18 10 91 11 93 12
REMARK SMILES IDX 15 13 11 14 12 15 94 16 13 17 14 18 10 19 8 20 7 21 9 23
REMARK SMILES IDX 6 24 5 25 4 26 3 27 2 28 1 29 24 30 25 31 26 32 27 33 28 34
REMARK SMILES IDX 29 35 30 37 31 38 32 39 90 40 33 41 89 42 34 43 35 44 36 45
REMARK SMILES IDX 83 46 37 47 88 48 82 49 84 50 38 51 87 52 81 53 80 54 39 56
REMARK SMILES IDX 69 57 50 58 68 59 51 60 54 61 67 62 85 63 52 64 53 65 66 67
REMARK SMILES IDX 86 68 55 69 40 70 41 71 49 72 42 73 48 74 43 75 44 76 45 77
REMARK SMILES IDX 46 78 47 79 70 80 71 81 79 82 72 83 78 84 73 85 74 86 75 87
REMARK SMILES IDX 76 88 77 89 56 90 57 91 65 92 58 93 64 94 59 95 60 96 61 97
REMARK SMILES IDX 62 98 63 99
REMARK H PARENT 23 4 7 22 28 36 84 55 54 66
REMARK Flexibility Score: inf
ROOT
ATOM      1  C   UNL A   1      33.516  21.143  26.648  1.00  0.00     0.224 C 
ATOM      2  O   UNL A   1      33.544  21.298  27.869  1.00  0.00    -0.275 OA
ATOM      3  N   UNL A   1      34.698  21.065  25.969  1.00  0.00    -0.356 N 
ATOM      4  H   UNL A   1      35.510  21.090  26.526  1.00  0.00     0.163 HD
ENDROOT
BRANCH   1   5
ATOM      5  C   UNL A   1      32.199  20.996  25.903  1.00  0.00     0.135 C 
BRANCH   5   6
ATOM      6  C   UNL A   1      31.610  22.303  25.433  1.00  0.00    -0.036 A 
ATOM      7  C   UNL A   1      30.607  24.804  24.550  1.00  0.00     0.018 A 
ATOM      8  C   UNL A   1      30.479  24.406  25.890  1.00  0.00     0.012 A 
ATOM      9  C   UNL A   1      31.228  23.911  23.666  1.00  0.00     0.131 A 
ATOM     10  C   UNL A   1      30.969  23.169  26.327  1.00  0.00     0.005 A 
ATOM     11  C   UNL A   1      31.709  22.676  24.088  1.00  0.00     0.044 A 
ATOM     12  F   UNL A   1      31.390  24.236  22.373  1.00  0.00    -0.206 F 
BRANCH   7  13
ATOM     13  C   UNL A   1      30.081  26.094  24.086  1.00  0.00    -0.012 A 
ATOM     14  C   UNL A   1      30.472  28.362  23.311  1.00  0.00     0.133 A 
ATOM     15  C   UNL A   1      29.104  28.587  23.192  1.00  0.00     0.047 A 
ATOM     16  C   UNL A   1      30.961  27.142  23.774  1.00  0.00     0.056 A 
ATOM     17  C   UNL A   1      28.216  27.559  23.507  1.00  0.00     0.004 A 
ATOM     18  C   UNL A   1      28.701  26.322  23.944  1.00  0.00     0.009 A 
BRANCH  14  19
ATOM     19  O   UNL A   1      31.332  29.440  23.050  1.00  0.00    -0.410 OA
BRANCH  19  20
ATOM     20  C   UNL A   1      32.673  29.280  23.363  1.00  0.00     0.412 C 
ATOM     21  N   UNL A   1      32.991  29.709  24.620  1.00  0.00    -0.321 N 
ATOM     22  H   UNL A   1      33.935  29.622  24.889  1.00  0.00     0.167 HD
ATOM     23  O   UNL A   1      33.543  28.817  22.629  1.00  0.00    -0.224 OA
BRANCH  21  24
ATOM     24  C   UNL A   1      32.089  30.275  25.600  1.00  0.00     0.119 C 
BRANCH  24  25
ATOM     25  C   UNL A   1      31.778  29.290  26.727  1.00  0.00     0.021 C 
BRANCH  25  26
ATOM     26  C   UNL A   1      32.948  28.389  27.140  1.00  0.00     0.002 C 
BRANCH  26  27
ATOM     27  C   UNL A   1      32.810  26.911  26.760  1.00  0.00    -0.000 C 
BRANCH  27  28
ATOM     28  C   UNL A   1      33.838  26.394  25.752  1.00  0.00    -0.003 C 
ATOM     29  C   UNL A   1      34.119  24.906  25.887  1.00  0.00     0.004 C 
ENDBRANCH  27  28
ENDBRANCH  26  27
ENDBRANCH  25  26
ENDBRANCH  24  25
ENDBRANCH  21  24
ENDBRANCH  19  20
ENDBRANCH  14  19
ENDBRANCH   7  13
ENDBRANCH   5   6
ENDBRANCH   1   5
BRANCH   3  30
ATOM     30  C   UNL A   1      34.926  20.950  24.541  1.00  0.00     0.116 C 
BRANCH  30  31
ATOM     31  C   UNL A   1      36.259  21.574  24.123  1.00  0.00     0.023 C 
BRANCH  31  32
ATOM     32  C   UNL A   1      36.301  23.101  24.207  1.00  0.00     0.023 C 
BRANCH  32  33
ATOM     33  C   UNL A   1      37.363  23.674  25.141  1.00  0.00     0.116 C 
BRANCH  33  34
ATOM     34  N   UNL A   1      38.505  22.791  25.319  1.00  0.00    -0.352 N 
ATOM     35  C   UNL A   1      39.664  23.017  26.026  1.00  0.00     0.251 C 
ATOM     36  H   UNL A   1      38.441  21.915  24.876  1.00  0.00     0.163 HD
ATOM     37  O   UNL A   1      40.582  22.206  25.979  1.00  0.00    -0.269 OA
BRANCH  35  38
ATOM     38  C   UNL A   1      39.809  24.265  26.807  1.00  0.00     0.039 A 
ATOM     39  C   UNL A   1      39.279  24.319  28.097  1.00  0.00     0.014 A 
ATOM     40  C   UNL A   1      40.499  25.362  26.282  1.00  0.00     0.014 A 
ATOM     41  C   UNL A   1      39.507  25.445  28.892  1.00  0.00     0.010 A 
ATOM     42  C   UNL A   1      40.782  26.454  27.098  1.00  0.00     0.010 A 
ATOM     43  C   UNL A   1      40.298  26.504  28.414  1.00  0.00    -0.014 A 
BRANCH  43  44
ATOM     44  C   UNL A   1      40.653  27.656  29.282  1.00  0.00     0.031 A 
ATOM     45  C   UNL A   1      41.904  27.621  30.117  1.00  0.00     0.074 A 
ATOM     46  C   UNL A   1      39.807  28.702  29.378  1.00  0.00     0.049 A 
ATOM     47  N   UNL A   1      42.341  28.500  30.983  1.00  0.00    -0.248 NA
ATOM     48  C   UNL A   1      42.766  26.435  29.979  1.00  0.00     0.031 C 
ATOM     49  C   UNL A   1      38.542  28.839  28.650  1.00  0.00     0.029 A 
ATOM     50  N   UNL A   1      39.877  29.846  30.133  1.00  0.00    -0.354 N 
ATOM     51  C   UNL A   1      43.512  27.966  31.507  1.00  0.00     0.074 A 
ATOM     52  C   UNL A   1      43.697  26.670  30.892  1.00  0.00     0.031 C 
ATOM     53  C   UNL A   1      37.973  30.011  28.973  1.00  0.00     0.029 A 
ATOM     54  C   UNL A   1      38.803  30.689  29.962  1.00  0.00     0.049 A 
ATOM     55  H   UNL A   1      40.625  30.045  30.740  1.00  0.00     0.167 HD
ATOM     56  C   UNL A   1      44.362  28.511  32.409  1.00  0.00     0.031 A 
ATOM     57  C   UNL A   1      38.513  31.870  30.543  1.00  0.00     0.031 A 
ATOM     58  C   UNL A   1      44.183  29.808  33.007  1.00  0.00     0.049 A 
ATOM     59  C   UNL A   1      39.466  32.444  31.555  1.00  0.00     0.074 A 
ATOM     60  C   UNL A   1      45.030  30.477  33.874  1.00  0.00     0.029 A 
ATOM     61  N   UNL A   1      43.084  30.629  32.808  1.00  0.00    -0.354 N 
ATOM     62  N   UNL A   1      40.608  31.959  31.978  1.00  0.00    -0.248 NA
ATOM     63  C   UNL A   1      39.094  33.730  32.164  1.00  0.00     0.031 C 
ATOM     64  C   UNL A   1      44.414  31.676  34.246  1.00  0.00     0.029 A 
ATOM     65  C   UNL A   1      43.214  31.783  33.562  1.00  0.00     0.049 A 
ATOM     66  H   UNL A   1      42.324  30.422  32.217  1.00  0.00     0.167 HD
ATOM     67  C   UNL A   1      41.105  32.892  32.882  1.00  0.00     0.074 A 
ATOM     68  C   UNL A   1      40.145  33.976  32.933  1.00  0.00     0.031 C 
ATOM     69  C   UNL A   1      42.252  32.855  33.603  1.00  0.00     0.031 A 
BRANCH  56  70
ATOM     70  C   UNL A   1      45.566  27.701  32.818  1.00  0.00    -0.014 A 
ATOM     71  C   UNL A   1      45.498  26.779  33.876  1.00  0.00     0.010 A 
ATOM     72  C   UNL A   1      46.766  27.825  32.094  1.00  0.00     0.010 A 
ATOM     73  C   UNL A   1      46.618  26.021  34.228  1.00  0.00     0.020 A 
ATOM     74  C   UNL A   1      47.881  27.050  32.424  1.00  0.00     0.020 A 
ATOM     75  C   UNL A   1      47.804  26.163  33.499  1.00  0.00     0.054 A 
BRANCH  75  76
ATOM     76  S   UNL A   1      49.233  25.143  33.957  1.00  0.00     0.124 S 
ATOM     77  O   UNL A   1      48.762  23.800  33.628  1.00  0.00    -0.237 OA
ATOM     78  O   UNL A   1      50.289  25.667  33.094  1.00  0.00    -0.237 OA
ATOM     79  O   UNL A   1      49.407  25.410  35.382  1.00  0.00    -0.744 OA
ENDBRANCH  75  76
ENDBRANCH  56  70
BRANCH  57  80
ATOM     80  C   UNL A   1      37.267  32.598  30.175  1.00  0.00    -0.014 A 
ATOM     81  C   UNL A   1      36.069  32.353  30.871  1.00  0.00     0.010 A 
ATOM     82  C   UNL A   1      37.269  33.537  29.128  1.00  0.00     0.010 A 
ATOM     83  C   UNL A   1      34.892  33.016  30.511  1.00  0.00     0.020 A 
ATOM     84  C   UNL A   1      36.101  34.224  28.785  1.00  0.00     0.020 A 
ATOM     85  C   UNL A   1      34.916  33.949  29.470  1.00  0.00     0.054 A 
BRANCH  85  86
ATOM     86  S   UNL A   1      33.386  34.828  29.049  1.00  0.00     0.124 S 
ATOM     87  O   UNL A   1      33.894  35.999  28.342  1.00  0.00    -0.237 OA
ATOM     88  O   UNL A   1      32.675  33.851  28.229  1.00  0.00    -0.237 OA
ATOM     89  O   UNL A   1      32.778  35.096  30.352  1.00  0.00    -0.744 OA
ENDBRANCH  85  86
ENDBRANCH  57  80
BRANCH  69  90
ATOM     90  C   UNL A   1      42.556  34.034  34.489  1.00  0.00    -0.014 A 
ATOM     91  C   UNL A   1      42.293  33.995  35.870  1.00  0.00     0.010 A 
ATOM     92  C   UNL A   1      43.172  35.173  33.940  1.00  0.00     0.010 A 
ATOM     93  C   UNL A   1      42.619  35.086  36.681  1.00  0.00     0.020 A 
ATOM     94  C   UNL A   1      43.525  36.254  34.751  1.00  0.00     0.020 A 
ATOM     95  C   UNL A   1      43.234  36.208  36.116  1.00  0.00     0.054 A 
BRANCH  95  96
ATOM     96  S   UNL A   1      43.697  37.587  37.200  1.00  0.00     0.124 S 
ATOM     97  O   UNL A   1      44.944  37.105  37.789  1.00  0.00    -0.237 OA
ATOM     98  O   UNL A   1      43.833  38.700  36.264  1.00  0.00    -0.237 OA
ATOM     99  O   UNL A   1      42.572  37.694  38.126  1.00  0.00    -0.744 OA
ENDBRANCH  95  96
ENDBRANCH  69  90
ENDBRANCH  43  44
ENDBRANCH  35  38
ENDBRANCH  33  34
ENDBRANCH  32  33
ENDBRANCH  31  32
ENDBRANCH  30  31
ENDBRANCH   3  30
TORSDOF 23
ENDMDL
MODEL 3
REMARK VINA RESULT:     -10.3      5.989     10.137
REMARK SMILES CCCCCCNC(=O)Oc1cccc(-c2ccc(CC(=O)NCCCCNC(=O)c3ccc(-c4c5nc(c(-c6ccc(S(=O)(=O)[O-])cc6)c6ccc([nH]6)c(-c6ccc(S(=O)(=O)[O-])cc6)c6nc(c(-c7ccc(S(=O)(=O)[O-])cc7)c7ccc4[nH]7)C=C6)C=C5)cc3)cc2F)c1
REMARK SMILES IDX 21 1 22 2 23 3 20 5 19 6 16 7 17 8 92 9 18 10 91 11 93 12
REMARK SMILES IDX 15 13 11 14 12 15 94 16 13 17 14 18 10 19 8 20 7 21 9 23
REMARK SMILES IDX 6 24 5 25 4 26 3 27 2 28 1 29 24 30 25 31 26 32 27 33 28 34
REMARK SMILES IDX 29 35 30 37 31 38 32 39 90 40 33 41 89 42 34 43 35 44 36 45
REMARK SMILES IDX 83 46 37 47 88 48 82 49 84 50 38 51 87 52 81 53 80 54 39 56
REMARK SMILES IDX 69 57 50 58 68 59 51 60 54 61 67 62 85 63 52 64 53 65 66 67
REMARK SMILES IDX 86 68 55 69 40 70 41 71 49 72 42 73 48 74 43 75 44 76 45 77
REMARK SMILES IDX 46 78 47 79 70 80 71 81 79 82 72 83 78 84 73 85 74 86 75 87
REMARK SMILES IDX 76 88 77 89 56 90 57 91 65 92 58 93 64 94 59 95 60 96 61 97
REMARK SMILES IDX 62 98 63 99
REMARK H PARENT 23 4 7 22 28 36 84 55 54 66
REMARK Flexibility Score: inf
ROOT
ATOM      1  C   UNL A   1      34.081  21.870  27.004  1.00  0.00     0.224 C 
ATOM      2  O   UNL A   1      34.100  22.493  28.067  1.00  0.00    -0.275 OA
ATOM      3  N   UNL A   1      35.268  21.526  26.424  1.00  0.00    -0.356 N 
ATOM      4  H   UNL A   1      36.076  21.766  26.935  1.00  0.00     0.163 HD
ENDROOT
BRANCH   1   5
ATOM      5  C   UNL A   1      32.769  21.447  26.364  1.00  0.00     0.135 C 
BRANCH   5   6
ATOM      6  C   UNL A   1      31.917  22.599  25.891  1.00  0.00    -0.036 A 
ATOM      7  C   UNL A   1      30.410  24.812  24.958  1.00  0.00     0.018 A 
ATOM      8  C   UNL A   1      30.767  24.700  26.311  1.00  0.00     0.012 A 
ATOM      9  C   UNL A   1      30.807  23.781  24.095  1.00  0.00     0.131 A 
ATOM     10  C   UNL A   1      31.508  23.606  26.774  1.00  0.00     0.005 A 
ATOM     11  C   UNL A   1      31.533  22.685  24.548  1.00  0.00     0.044 A 
ATOM     12  F   UNL A   1      30.503  23.834  22.788  1.00  0.00    -0.206 F 
BRANCH   7  13
ATOM     13  C   UNL A   1      29.621  25.952  24.472  1.00  0.00    -0.012 A 
ATOM     14  C   UNL A   1      29.519  28.240  23.665  1.00  0.00     0.133 A 
ATOM     15  C   UNL A   1      28.135  28.162  23.536  1.00  0.00     0.047 A 
ATOM     16  C   UNL A   1      30.256  27.161  24.148  1.00  0.00     0.056 A 
ATOM     17  C   UNL A   1      27.488  26.971  23.861  1.00  0.00     0.004 A 
ATOM     18  C   UNL A   1      28.226  25.874  24.318  1.00  0.00     0.009 A 
BRANCH  14  19
ATOM     19  O   UNL A   1      30.128  29.475  23.392  1.00  0.00    -0.410 OA
BRANCH  19  20
ATOM     20  C   UNL A   1      30.528  29.718  22.088  1.00  0.00     0.412 C 
ATOM     21  N   UNL A   1      31.878  29.621  21.908  1.00  0.00    -0.321 N 
ATOM     22  H   UNL A   1      32.214  29.791  20.998  1.00  0.00     0.167 HD
ATOM     23  O   UNL A   1      29.798  30.007  21.142  1.00  0.00    -0.224 OA
BRANCH  21  24
ATOM     24  C   UNL A   1      32.868  29.293  22.912  1.00  0.00     0.119 C 
BRANCH  24  25
ATOM     25  C   UNL A   1      33.842  28.220  22.425  1.00  0.00     0.021 C 
BRANCH  25  26
ATOM     26  C   UNL A   1      33.182  26.947  21.880  1.00  0.00     0.002 C 
BRANCH  26  27
ATOM     27  C   UNL A   1      33.440  25.671  22.689  1.00  0.00    -0.000 C 
BRANCH  27  28
ATOM     28  C   UNL A   1      34.181  25.872  24.013  1.00  0.00    -0.003 C 
ATOM     29  C   UNL A   1      34.639  24.570  24.650  1.00  0.00     0.004 C 
ENDBRANCH  27  28
ENDBRANCH  26  27
ENDBRANCH  25  26
ENDBRANCH  24  25
ENDBRANCH  21  24
ENDBRANCH  19  20
ENDBRANCH  14  19
ENDBRANCH   7  13
ENDBRANCH   5   6
ENDBRANCH   1   5
BRANCH   3  30
ATOM     30  C   UNL A   1      35.507  20.858  25.158  1.00  0.00     0.116 C 
BRANCH  30  31
ATOM     31  C   UNL A   1      36.975  20.462  24.989  1.00  0.00     0.023 C 
BRANCH  31  32
ATOM     32  C   UNL A   1      37.962  21.629  25.064  1.00  0.00     0.023 C 
BRANCH  32  33
ATOM     33  C   UNL A   1      39.045  21.500  26.131  1.00  0.00     0.116 C 
BRANCH  33  34
ATOM     34  N   UNL A   1      39.832  20.283  26.003  1.00  0.00    -0.352 N 
ATOM     35  C   UNL A   1      41.196  20.129  26.096  1.00  0.00     0.251 C 
ATOM     36  H   UNL A   1      39.321  19.461  25.827  1.00  0.00     0.163 HD
ATOM     37  O   UNL A   1      41.712  19.044  25.846  1.00  0.00    -0.269 OA
BRANCH  35  38
ATOM     38  C   UNL A   1      42.038  21.290  26.456  1.00  0.00     0.039 A 
ATOM     39  C   UNL A   1      42.406  22.193  25.457  1.00  0.00     0.014 A 
ATOM     40  C   UNL A   1      42.431  21.506  27.780  1.00  0.00     0.014 A 
ATOM     41  C   UNL A   1      43.103  23.356  25.797  1.00  0.00     0.010 A 
ATOM     42  C   UNL A   1      43.065  22.697  28.126  1.00  0.00     0.010 A 
ATOM     43  C   UNL A   1      43.399  23.638  27.141  1.00  0.00    -0.014 A 
BRANCH  43  44
ATOM     44  C   UNL A   1      44.032  24.922  27.539  1.00  0.00     0.031 A 
ATOM     45  C   UNL A   1      43.215  26.000  28.198  1.00  0.00     0.074 A 
ATOM     46  C   UNL A   1      45.326  25.148  27.235  1.00  0.00     0.049 A 
ATOM     47  N   UNL A   1      43.576  27.207  28.552  1.00  0.00    -0.248 NA
ATOM     48  C   UNL A   1      41.802  25.690  28.475  1.00  0.00     0.031 C 
ATOM     49  C   UNL A   1      46.217  24.198  26.562  1.00  0.00     0.029 A 
ATOM     50  N   UNL A   1      46.118  26.250  27.445  1.00  0.00    -0.354 N 
ATOM     51  C   UNL A   1      42.435  27.807  29.072  1.00  0.00     0.074 A 
ATOM     52  C   UNL A   1      41.360  26.846  28.950  1.00  0.00     0.031 C 
ATOM     53  C   UNL A   1      47.437  24.748  26.441  1.00  0.00     0.029 A 
ATOM     54  C   UNL A   1      47.405  26.102  26.984  1.00  0.00     0.049 A 
ATOM     55  H   UNL A   1      45.795  27.069  27.884  1.00  0.00     0.167 HD
ATOM     56  C   UNL A   1      42.298  29.040  29.613  1.00  0.00     0.031 A 
ATOM     57  C   UNL A   1      48.443  26.963  26.986  1.00  0.00     0.031 A 
ATOM     58  C   UNL A   1      43.373  29.988  29.746  1.00  0.00     0.049 A 
ATOM     59  C   UNL A   1      48.259  28.333  27.577  1.00  0.00     0.074 A 
ATOM     60  C   UNL A   1      43.349  31.234  30.348  1.00  0.00     0.029 A 
ATOM     61  N   UNL A   1      44.660  29.800  29.267  1.00  0.00    -0.354 N 
ATOM     62  N   UNL A   1      47.191  28.853  28.135  1.00  0.00    -0.248 NA
ATOM     63  C   UNL A   1      49.421  29.233  27.544  1.00  0.00     0.031 C 
ATOM     64  C   UNL A   1      44.605  31.824  30.181  1.00  0.00     0.029 A 
ATOM     65  C   UNL A   1      45.430  30.921  29.530  1.00  0.00     0.049 A 
ATOM     66  H   UNL A   1      44.980  28.990  28.809  1.00  0.00     0.167 HD
ATOM     67  C   UNL A   1      47.561  30.129  28.545  1.00  0.00     0.074 A 
ATOM     68  C   UNL A   1      48.954  30.297  28.183  1.00  0.00     0.031 C 
ATOM     69  C   UNL A   1      46.815  31.076  29.165  1.00  0.00     0.031 A 
BRANCH  56  70
ATOM     70  C   UNL A   1      40.929  29.448  30.094  1.00  0.00    -0.014 A 
ATOM     71  C   UNL A   1      40.032  30.127  29.252  1.00  0.00     0.010 A 
ATOM     72  C   UNL A   1      40.515  29.095  31.392  1.00  0.00     0.010 A 
ATOM     73  C   UNL A   1      38.759  30.478  29.709  1.00  0.00     0.020 A 
ATOM     74  C   UNL A   1      39.233  29.419  31.844  1.00  0.00     0.020 A 
ATOM     75  C   UNL A   1      38.369  30.122  31.004  1.00  0.00     0.054 A 
BRANCH  75  76
ATOM     76  S   UNL A   1      36.699  30.564  31.560  1.00  0.00     0.124 S 
ATOM     77  O   UNL A   1      36.849  30.538  33.013  1.00  0.00    -0.237 OA
ATOM     78  O   UNL A   1      36.505  31.887  30.972  1.00  0.00    -0.237 OA
ATOM     79  O   UNL A   1      35.857  29.508  31.003  1.00  0.00    -0.744 OA
ENDBRANCH  75  76
ENDBRANCH  56  70
BRANCH  57  80
ATOM     80  C   UNL A   1      49.757  26.551  26.420  1.00  0.00    -0.014 A 
ATOM     81  C   UNL A   1      50.129  26.950  25.123  1.00  0.00     0.010 A 
ATOM     82  C   UNL A   1      50.643  25.757  27.170  1.00  0.00     0.010 A 
ATOM     83  C   UNL A   1      51.351  26.544  24.580  1.00  0.00     0.020 A 
ATOM     84  C   UNL A   1      51.879  25.373  26.641  1.00  0.00     0.020 A 
ATOM     85  C   UNL A   1      52.219  25.758  25.343  1.00  0.00     0.054 A 
BRANCH  85  86
ATOM     86  S   UNL A   1      53.818  25.279  24.632  1.00  0.00     0.124 S 
ATOM     87  O   UNL A   1      53.833  23.838  24.864  1.00  0.00    -0.237 OA
ATOM     88  O   UNL A   1      53.681  25.695  23.238  1.00  0.00    -0.237 OA
ATOM     89  O   UNL A   1      54.784  26.051  25.412  1.00  0.00    -0.744 OA
ENDBRANCH  85  86
ENDBRANCH  57  80
BRANCH  69  90
ATOM     90  C   UNL A   1      47.493  32.371  29.525  1.00  0.00    -0.014 A 
ATOM     91  C   UNL A   1      48.444  32.433  30.560  1.00  0.00     0.010 A 
ATOM     92  C   UNL A   1      47.222  33.528  28.774  1.00  0.00     0.010 A 
ATOM     93  C   UNL A   1      49.092  33.636  30.852  1.00  0.00     0.020 A 
ATOM     94  C   UNL A   1      47.887  34.726  29.044  1.00  0.00     0.020 A 
ATOM     95  C   UNL A   1      48.810  34.776  30.091  1.00  0.00     0.054 A 
BRANCH  95  96
ATOM     96  S   UNL A   1      49.704  36.311  30.454  1.00  0.00     0.124 S 
ATOM     97  O   UNL A   1      51.054  35.991  29.998  1.00  0.00    -0.237 OA
ATOM     98  O   UNL A   1      48.987  37.299  29.652  1.00  0.00    -0.237 OA
ATOM     99  O   UNL A   1      49.555  36.466  31.899  1.00  0.00    -0.744 OA
ENDBRANCH  95  96
ENDBRANCH  69  90
ENDBRANCH  43  44
ENDBRANCH  35  38
ENDBRANCH  33  34
ENDBRANCH  32  33
ENDBRANCH  31  32
ENDBRANCH  30  31
ENDBRANCH   3  30
TORSDOF 23
ENDMDL
