MODEL 1
REMARK VINA RESULT:     -11.0      0.000      0.000
REMARK SMILES CC[C@@](C)([NH3+])C(=O)Nc1cc(C(=O)NCCCCNC(=O)c2ccc(-c3c4nc(c(-c5ccc(S(=O)(=O)[O-])cc5)c5ccc([nH]5)c(-c5ccc(S(=O)(=O)[O-])cc5)c5nc(c(-c6ccc(S(=O)(=O)[O-])cc6)c6ccc3[nH]6)C=C5)C=C4)cc2)cc(C(F)(F)F)c1
REMARK SMILES IDX 16 1 15 2 14 3 12 4 13 5 11 7 9 8 10 9 88 10 83 11 82 12
REMARK SMILES IDX 8 13 6 14 7 15 3 17 4 18 2 19 1 20 5 21 84 25 85 26 86 27
REMARK SMILES IDX 87 28 17 29 18 30 19 31 20 32 21 34 22 35 23 36 81 37 24 38
REMARK SMILES IDX 80 39 25 40 26 41 27 42 74 43 28 44 79 45 73 46 75 47 29 48
REMARK SMILES IDX 78 49 72 50 71 51 30 53 60 54 41 55 59 56 42 57 45 58 58 59
REMARK SMILES IDX 76 60 43 61 44 62 57 64 77 65 46 66 31 67 32 68 40 69 33 70
REMARK SMILES IDX 39 71 34 72 35 73 36 74 37 75 38 76 61 77 62 78 70 79 63 80
REMARK SMILES IDX 69 81 64 82 65 83 66 84 67 85 68 86 47 87 48 88 56 89 49 90
REMARK SMILES IDX 55 91 50 92 51 93 52 94 53 95 54 96
REMARK H PARENT 14 6 8 16 5 22 5 23 5 24 19 33 75 52 45 63
REMARK Flexibility Score: inf
ROOT
ATOM      1  C   UNL A   1      34.661  22.684  24.676  1.00  0.00     0.023 C 
ENDROOT
BRANCH   1   2
ATOM      2  C   UNL A   1      33.772  23.868  24.332  1.00  0.00     0.116 C 
BRANCH   2   3
ATOM      3  N   UNL A   1      33.943  24.437  23.003  1.00  0.00    -0.352 N 
ATOM      4  C   UNL A   1      33.476  25.627  22.476  1.00  0.00     0.251 C 
ATOM      5  O   UNL A   1      33.760  25.938  21.321  1.00  0.00    -0.269 OA
ATOM      6  H   UNL A   1      34.475  23.888  22.382  1.00  0.00     0.163 HD
BRANCH   4   7
ATOM      7  C   UNL A   1      32.575  26.513  23.262  1.00  0.00     0.042 A 
ATOM      8  C   UNL A   1      30.348  27.279  23.781  1.00  0.00     0.042 A 
ATOM      9  C   UNL A   1      31.206  26.555  22.954  1.00  0.00     0.040 A 
ATOM     10  C   UNL A   1      30.815  27.713  25.015  1.00  0.00     0.039 A 
ATOM     11  C   UNL A   1      32.180  27.783  25.278  1.00  0.00     0.058 A 
ATOM     12  C   UNL A   1      33.058  27.286  24.318  1.00  0.00     0.027 A 
BRANCH   8  13
ATOM     13  N   UNL A   1      29.033  27.540  23.381  1.00  0.00    -0.321 N 
ATOM     14  C   UNL A   1      28.425  28.743  23.082  1.00  0.00     0.285 C 
ATOM     15  O   UNL A   1      27.189  28.727  22.993  1.00  0.00    -0.267 OA
ATOM     16  H   UNL A   1      28.455  26.746  23.301  1.00  0.00     0.170 HD
BRANCH  14  17
ATOM     17  C   UNL A   1      29.251  30.053  22.715  1.00  0.00     0.171 C 
ATOM     18  C   UNL A   1      30.436  29.720  21.790  1.00  0.00     0.090 C 
BRANCH  17  19
ATOM     19  C   UNL A   1      28.328  31.105  22.028  1.00  0.00     0.075 C 
ATOM     20  C   UNL A   1      28.206  32.448  22.734  1.00  0.00     0.011 C 
ENDBRANCH  17  19
BRANCH  17  21
ATOM     21  N   UNL A   1      29.738  30.726  23.945  1.00  0.00    -0.345 N 
ATOM     22  H   UNL A   1      29.241  31.608  24.070  1.00  0.00     0.345 HD
ATOM     23  H   UNL A   1      30.738  30.908  23.861  1.00  0.00     0.345 HD
ATOM     24  H   UNL A   1      29.569  30.124  24.751  1.00  0.00     0.345 HD
ENDBRANCH  17  21
ENDBRANCH  14  17
ENDBRANCH   8  13
BRANCH  11  25
ATOM     25  C   UNL A   1      32.706  28.315  26.582  1.00  0.00     0.416 C 
ATOM     26  F   UNL A   1      34.049  28.134  26.701  1.00  0.00    -0.166 F 
ATOM     27  F   UNL A   1      32.494  29.652  26.717  1.00  0.00    -0.166 F 
ATOM     28  F   UNL A   1      32.145  27.737  27.678  1.00  0.00    -0.166 F 
ENDBRANCH  11  25
ENDBRANCH   4   7
ENDBRANCH   2   3
ENDBRANCH   1   2
BRANCH   1  29
ATOM     29  C   UNL A   1      35.822  22.954  25.619  1.00  0.00     0.023 C 
BRANCH  29  30
ATOM     30  C   UNL A   1      37.175  23.199  24.961  1.00  0.00     0.116 C 
BRANCH  30  31
ATOM     31  N   UNL A   1      38.257  22.382  25.498  1.00  0.00    -0.352 N 
ATOM     32  C   UNL A   1      39.294  22.727  26.337  1.00  0.00     0.251 C 
ATOM     33  H   UNL A   1      38.244  21.438  25.219  1.00  0.00     0.163 HD
ATOM     34  O   UNL A   1      40.147  21.895  26.633  1.00  0.00    -0.269 OA
BRANCH  32  35
ATOM     35  C   UNL A   1      39.409  24.115  26.830  1.00  0.00     0.039 A 
ATOM     36  C   UNL A   1      38.905  24.421  28.097  1.00  0.00     0.014 A 
ATOM     37  C   UNL A   1      40.081  25.085  26.085  1.00  0.00     0.014 A 
ATOM     38  C   UNL A   1      39.194  25.661  28.670  1.00  0.00     0.010 A 
ATOM     39  C   UNL A   1      40.438  26.286  26.689  1.00  0.00     0.010 A 
ATOM     40  C   UNL A   1      40.026  26.573  27.999  1.00  0.00    -0.014 A 
BRANCH  40  41
ATOM     41  C   UNL A   1      40.539  27.795  28.670  1.00  0.00     0.031 A 
ATOM     42  C   UNL A   1      41.917  27.813  29.268  1.00  0.00     0.074 A 
ATOM     43  C   UNL A   1      39.717  28.853  28.832  1.00  0.00     0.049 A 
ATOM     44  N   UNL A   1      42.487  28.743  29.991  1.00  0.00    -0.248 NA
ATOM     45  C   UNL A   1      42.753  26.622  29.048  1.00  0.00     0.031 C 
ATOM     46  C   UNL A   1      38.339  28.945  28.340  1.00  0.00     0.029 A 
ATOM     47  N   UNL A   1      39.916  30.051  29.474  1.00  0.00    -0.354 N 
ATOM     48  C   UNL A   1      43.738  28.243  30.328  1.00  0.00     0.074 A 
ATOM     49  C   UNL A   1      43.828  26.912  29.766  1.00  0.00     0.031 C 
ATOM     50  C   UNL A   1      37.828  30.138  28.679  1.00  0.00     0.029 A 
ATOM     51  C   UNL A   1      38.818  30.880  29.450  1.00  0.00     0.049 A 
ATOM     52  H   UNL A   1      40.766  30.295  29.909  1.00  0.00     0.167 HD
ATOM     53  C   UNL A   1      44.729  28.843  31.030  1.00  0.00     0.031 A 
ATOM     54  C   UNL A   1      38.620  32.092  30.003  1.00  0.00     0.031 A 
ATOM     55  C   UNL A   1      44.643  30.170  31.580  1.00  0.00     0.049 A 
ATOM     56  C   UNL A   1      39.727  32.729  30.795  1.00  0.00     0.074 A 
ATOM     57  C   UNL A   1      45.619  30.888  32.247  1.00  0.00     0.029 A 
ATOM     58  N   UNL A   1      43.516  30.976  31.528  1.00  0.00    -0.354 N 
ATOM     59  N   UNL A   1      40.929  32.266  31.046  1.00  0.00    -0.248 NA
ATOM     60  C   UNL A   1      39.453  34.049  31.377  1.00  0.00     0.031 C 
ATOM     61  C   UNL A   1      45.067  32.112  32.642  1.00  0.00     0.029 A 
ATOM     62  C   UNL A   1      43.762  32.173  32.179  1.00  0.00     0.049 A 
ATOM     63  H   UNL A   1      42.666  30.734  31.096  1.00  0.00     0.167 HD
ATOM     64  C   UNL A   1      41.557  33.245  31.806  1.00  0.00     0.074 A 
ATOM     65  C   UNL A   1      40.612  34.332  31.958  1.00  0.00     0.031 C 
ATOM     66  C   UNL A   1      42.807  33.241  32.330  1.00  0.00     0.031 A 
BRANCH  53  67
ATOM     67  C   UNL A   1      45.995  28.060  31.248  1.00  0.00    -0.014 A 
ATOM     68  C   UNL A   1      47.081  28.181  30.362  1.00  0.00     0.010 A 
ATOM     69  C   UNL A   1      46.115  27.217  32.368  1.00  0.00     0.010 A 
ATOM     70  C   UNL A   1      48.248  27.442  30.568  1.00  0.00     0.020 A 
ATOM     71  C   UNL A   1      47.290  26.494  32.591  1.00  0.00     0.020 A 
ATOM     72  C   UNL A   1      48.343  26.598  31.679  1.00  0.00     0.054 A 
BRANCH  72  73
ATOM     73  S   UNL A   1      49.874  25.659  31.930  1.00  0.00     0.124 S 
ATOM     74  O   UNL A   1      50.062  25.038  30.621  1.00  0.00    -0.237 OA
ATOM     75  O   UNL A   1      50.837  26.702  32.275  1.00  0.00    -0.237 OA
ATOM     76  O   UNL A   1      49.542  24.739  33.015  1.00  0.00    -0.744 OA
ENDBRANCH  72  73
ENDBRANCH  53  67
BRANCH  54  77
ATOM     77  C   UNL A   1      37.315  32.785  29.824  1.00  0.00    -0.014 A 
ATOM     78  C   UNL A   1      36.334  32.720  30.828  1.00  0.00     0.010 A 
ATOM     79  C   UNL A   1      37.056  33.528  28.657  1.00  0.00     0.010 A 
ATOM     80  C   UNL A   1      35.112  33.379  30.666  1.00  0.00     0.020 A 
ATOM     81  C   UNL A   1      35.844  34.206  28.503  1.00  0.00     0.020 A 
ATOM     82  C   UNL A   1      34.875  34.120  29.505  1.00  0.00     0.054 A 
BRANCH  82  83
ATOM     83  S   UNL A   1      33.307  35.019  29.342  1.00  0.00     0.124 S 
ATOM     84  O   UNL A   1      33.758  36.338  28.911  1.00  0.00    -0.237 OA
ATOM     85  O   UNL A   1      32.593  34.233  28.338  1.00  0.00    -0.237 OA
ATOM     86  O   UNL A   1      32.739  34.958  30.687  1.00  0.00    -0.744 OA
ENDBRANCH  82  83
ENDBRANCH  54  77
BRANCH  66  87
ATOM     87  C   UNL A   1      43.233  34.454  33.112  1.00  0.00    -0.014 A 
ATOM     88  C   UNL A   1      43.848  35.544  32.473  1.00  0.00     0.010 A 
ATOM     89  C   UNL A   1      42.955  34.530  34.489  1.00  0.00     0.010 A 
ATOM     90  C   UNL A   1      44.194  36.685  33.203  1.00  0.00     0.020 A 
ATOM     91  C   UNL A   1      43.279  35.677  35.216  1.00  0.00     0.020 A 
ATOM     92  C   UNL A   1      43.906  36.745  34.569  1.00  0.00     0.054 A 
BRANCH  92  93
ATOM     93  S   UNL A   1      44.309  38.259  35.482  1.00  0.00     0.124 S 
ATOM     94  O   UNL A   1      43.651  39.284  34.678  1.00  0.00    -0.237 OA
ATOM     95  O   UNL A   1      43.715  38.012  36.794  1.00  0.00    -0.237 OA
ATOM     96  O   UNL A   1      45.770  38.295  35.464  1.00  0.00    -0.744 OA
ENDBRANCH  92  93
ENDBRANCH  66  87
ENDBRANCH  40  41
ENDBRANCH  32  35
ENDBRANCH  30  31
ENDBRANCH  29  30
ENDBRANCH   1  29
TORSDOF 19
ENDMDL
MODEL 2
REMARK VINA RESULT:     -10.5      0.516      8.092
REMARK SMILES CC[C@@](C)([NH3+])C(=O)Nc1cc(C(=O)NCCCCNC(=O)c2ccc(-c3c4nc(c(-c5ccc(S(=O)(=O)[O-])cc5)c5ccc([nH]5)c(-c5ccc(S(=O)(=O)[O-])cc5)c5nc(c(-c6ccc(S(=O)(=O)[O-])cc6)c6ccc3[nH]6)C=C5)C=C4)cc2)cc(C(F)(F)F)c1
REMARK SMILES IDX 16 1 15 2 14 3 12 4 13 5 11 7 9 8 10 9 88 10 83 11 82 12
REMARK SMILES IDX 8 13 6 14 7 15 3 17 4 18 2 19 1 20 5 21 84 25 85 26 86 27
REMARK SMILES IDX 87 28 17 29 18 30 19 31 20 32 21 34 22 35 23 36 81 37 24 38
REMARK SMILES IDX 80 39 25 40 26 41 27 42 74 43 28 44 79 45 73 46 75 47 29 48
REMARK SMILES IDX 78 49 72 50 71 51 30 53 60 54 41 55 59 56 42 57 45 58 58 59
REMARK SMILES IDX 76 60 43 61 44 62 57 64 77 65 46 66 31 67 32 68 40 69 33 70
REMARK SMILES IDX 39 71 34 72 35 73 36 74 37 75 38 76 61 77 62 78 70 79 63 80
REMARK SMILES IDX 69 81 64 82 65 83 66 84 67 85 68 86 47 87 48 88 56 89 49 90
REMARK SMILES IDX 55 91 50 92 51 93 52 94 53 95 54 96
REMARK H PARENT 14 6 8 16 5 22 5 23 5 24 19 33 75 52 45 63
REMARK Flexibility Score: inf
ROOT
ATOM      1  C   UNL A   1      34.557  23.057  24.542  1.00  0.00     0.023 C 
ENDROOT
BRANCH   1   2
ATOM      2  C   UNL A   1      34.068  24.451  24.188  1.00  0.00     0.116 C 
BRANCH   2   3
ATOM      3  N   UNL A   1      33.909  24.737  22.769  1.00  0.00    -0.352 N 
ATOM      4  C   UNL A   1      33.236  25.766  22.136  1.00  0.00     0.251 C 
ATOM      5  O   UNL A   1      33.248  25.842  20.910  1.00  0.00    -0.269 OA
ATOM      6  H   UNL A   1      34.351  24.097  22.165  1.00  0.00     0.163 HD
BRANCH   4   7
ATOM      7  C   UNL A   1      32.437  26.752  22.914  1.00  0.00     0.042 A 
ATOM      8  C   UNL A   1      30.290  27.599  23.612  1.00  0.00     0.042 A 
ATOM      9  C   UNL A   1      31.040  26.768  22.780  1.00  0.00     0.040 A 
ATOM     10  C   UNL A   1      30.908  28.179  24.713  1.00  0.00     0.039 A 
ATOM     11  C   UNL A   1      32.295  28.267  24.790  1.00  0.00     0.058 A 
ATOM     12  C   UNL A   1      33.046  27.646  23.795  1.00  0.00     0.027 A 
BRANCH   8  13
ATOM     13  N   UNL A   1      28.933  27.820  23.354  1.00  0.00    -0.321 N 
ATOM     14  C   UNL A   1      28.272  28.998  23.066  1.00  0.00     0.285 C 
ATOM     15  O   UNL A   1      27.034  28.961  23.121  1.00  0.00    -0.267 OA
ATOM     16  H   UNL A   1      28.365  27.016  23.381  1.00  0.00     0.170 HD
BRANCH  14  17
ATOM     17  C   UNL A   1      29.024  30.298  22.541  1.00  0.00     0.171 C 
ATOM     18  C   UNL A   1      30.186  29.924  21.602  1.00  0.00     0.090 C 
BRANCH  17  19
ATOM     19  C   UNL A   1      28.031  31.241  21.797  1.00  0.00     0.075 C 
ATOM     20  C   UNL A   1      28.229  32.734  22.026  1.00  0.00     0.011 C 
ENDBRANCH  17  19
BRANCH  17  21
ATOM     21  N   UNL A   1      29.529  31.106  23.680  1.00  0.00    -0.345 N 
ATOM     22  H   UNL A   1      29.721  30.493  24.473  1.00  0.00     0.345 HD
ATOM     23  H   UNL A   1      28.827  31.796  23.946  1.00  0.00     0.345 HD
ATOM     24  H   UNL A   1      30.387  31.583  23.405  1.00  0.00     0.345 HD
ENDBRANCH  17  21
ENDBRANCH  14  17
ENDBRANCH   8  13
BRANCH  11  25
ATOM     25  C   UNL A   1      32.979  28.952  25.939  1.00  0.00     0.416 C 
ATOM     26  F   UNL A   1      32.464  28.570  27.139  1.00  0.00    -0.166 F 
ATOM     27  F   UNL A   1      34.308  28.667  25.994  1.00  0.00    -0.166 F 
ATOM     28  F   UNL A   1      32.891  30.309  25.902  1.00  0.00    -0.166 F 
ENDBRANCH  11  25
ENDBRANCH   4   7
ENDBRANCH   2   3
ENDBRANCH   1   2
BRANCH   1  29
ATOM     29  C   UNL A   1      35.716  22.969  25.521  1.00  0.00     0.023 C 
BRANCH  29  30
ATOM     30  C   UNL A   1      37.040  23.557  25.046  1.00  0.00     0.116 C 
BRANCH  30  31
ATOM     31  N   UNL A   1      38.204  22.735  25.354  1.00  0.00    -0.352 N 
ATOM     32  C   UNL A   1      39.313  23.021  26.120  1.00  0.00     0.251 C 
ATOM     33  H   UNL A   1      38.196  21.835  24.954  1.00  0.00     0.163 HD
ATOM     34  O   UNL A   1      40.224  22.203  26.212  1.00  0.00    -0.269 OA
BRANCH  32  35
ATOM     35  C   UNL A   1      39.428  24.338  26.780  1.00  0.00     0.039 A 
ATOM     36  C   UNL A   1      38.903  24.494  28.065  1.00  0.00     0.014 A 
ATOM     37  C   UNL A   1      40.121  25.385  26.169  1.00  0.00     0.014 A 
ATOM     38  C   UNL A   1      39.189  25.652  28.789  1.00  0.00     0.010 A 
ATOM     39  C   UNL A   1      40.476  26.500  26.922  1.00  0.00     0.010 A 
ATOM     40  C   UNL A   1      40.040  26.630  28.249  1.00  0.00    -0.014 A 
BRANCH  40  41
ATOM     41  C   UNL A   1      40.550  27.757  29.072  1.00  0.00     0.031 A 
ATOM     42  C   UNL A   1      39.710  28.985  29.285  1.00  0.00     0.074 A 
ATOM     43  C   UNL A   1      41.815  27.715  29.538  1.00  0.00     0.049 A 
ATOM     44  N   UNL A   1      40.032  30.110  29.871  1.00  0.00    -0.248 NA
ATOM     45  C   UNL A   1      38.340  28.955  28.747  1.00  0.00     0.031 C 
ATOM     46  C   UNL A   1      42.752  26.601  29.360  1.00  0.00     0.029 A 
ATOM     47  N   UNL A   1      42.541  28.643  30.244  1.00  0.00    -0.354 N 
ATOM     48  C   UNL A   1      38.915  30.927  29.755  1.00  0.00     0.074 A 
ATOM     49  C   UNL A   1      37.922  30.185  29.008  1.00  0.00     0.031 C 
ATOM     50  C   UNL A   1      43.915  26.902  29.957  1.00  0.00     0.029 A 
ATOM     51  C   UNL A   1      43.829  28.244  30.520  1.00  0.00     0.049 A 
ATOM     52  H   UNL A   1      42.174  29.512  30.527  1.00  0.00     0.167 HD
ATOM     53  C   UNL A   1      38.727  32.178  30.240  1.00  0.00     0.031 A 
ATOM     54  C   UNL A   1      44.835  28.890  31.139  1.00  0.00     0.031 A 
ATOM     55  C   UNL A   1      39.710  32.911  30.992  1.00  0.00     0.049 A 
ATOM     56  C   UNL A   1      44.609  30.285  31.651  1.00  0.00     0.074 A 
ATOM     57  C   UNL A   1      39.587  34.156  31.582  1.00  0.00     0.029 A 
ATOM     58  N   UNL A   1      40.997  32.468  31.254  1.00  0.00    -0.354 N 
ATOM     59  N   UNL A   1      43.521  31.016  31.589  1.00  0.00    -0.248 NA
ATOM     60  C   UNL A   1      45.743  30.942  32.314  1.00  0.00     0.031 C 
ATOM     61  C   UNL A   1      40.817  34.488  32.162  1.00  0.00     0.029 A 
ATOM     62  C   UNL A   1      41.690  33.429  31.972  1.00  0.00     0.049 A 
ATOM     63  H   UNL A   1      41.366  31.601  30.971  1.00  0.00     0.167 HD
ATOM     64  C   UNL A   1      43.838  32.215  32.217  1.00  0.00     0.074 A 
ATOM     65  C   UNL A   1      45.211  32.105  32.667  1.00  0.00     0.031 C 
ATOM     66  C   UNL A   1      43.059  33.308  32.403  1.00  0.00     0.031 A 
BRANCH  53  67
ATOM     67  C   UNL A   1      37.401  32.835  29.965  1.00  0.00    -0.014 A 
ATOM     68  C   UNL A   1      37.182  33.549  28.773  1.00  0.00     0.010 A 
ATOM     69  C   UNL A   1      36.351  32.710  30.892  1.00  0.00     0.010 A 
ATOM     70  C   UNL A   1      35.952  34.163  28.533  1.00  0.00     0.020 A 
ATOM     71  C   UNL A   1      35.110  33.303  30.644  1.00  0.00     0.020 A 
ATOM     72  C   UNL A   1      34.924  34.041  29.473  1.00  0.00     0.054 A 
BRANCH  72  73
ATOM     73  S   UNL A   1      33.331  34.837  29.130  1.00  0.00     0.124 S 
ATOM     74  O   UNL A   1      32.749  33.930  28.144  1.00  0.00    -0.237 OA
ATOM     75  O   UNL A   1      32.684  34.838  30.440  1.00  0.00    -0.237 OA
ATOM     76  O   UNL A   1      33.703  36.155  28.623  1.00  0.00    -0.744 OA
ENDBRANCH  72  73
ENDBRANCH  53  67
BRANCH  54  77
ATOM     77  C   UNL A   1      46.153  28.220  31.311  1.00  0.00    -0.014 A 
ATOM     78  C   UNL A   1      46.347  27.290  32.346  1.00  0.00     0.010 A 
ATOM     79  C   UNL A   1      47.213  28.495  30.427  1.00  0.00     0.010 A 
ATOM     80  C   UNL A   1      47.581  26.653  32.502  1.00  0.00     0.020 A 
ATOM     81  C   UNL A   1      48.441  27.842  30.566  1.00  0.00     0.020 A 
ATOM     82  C   UNL A   1      48.620  26.931  31.609  1.00  0.00     0.054 A 
BRANCH  82  83
ATOM     83  S   UNL A   1      50.194  26.046  31.791  1.00  0.00     0.124 S 
ATOM     84  O   UNL A   1      50.248  25.816  33.231  1.00  0.00    -0.237 OA
ATOM     85  O   UNL A   1      49.987  24.859  30.966  1.00  0.00    -0.237 OA
ATOM     86  O   UNL A   1      51.178  26.993  31.269  1.00  0.00    -0.744 OA
ENDBRANCH  82  83
ENDBRANCH  54  77
BRANCH  66  87
ATOM     87  C   UNL A   1      43.668  34.475  33.133  1.00  0.00    -0.014 A 
ATOM     88  C   UNL A   1      44.245  35.545  32.427  1.00  0.00     0.010 A 
ATOM     89  C   UNL A   1      43.604  34.530  34.537  1.00  0.00     0.010 A 
ATOM     90  C   UNL A   1      44.764  36.644  33.116  1.00  0.00     0.020 A 
ATOM     91  C   UNL A   1      44.101  35.638  35.226  1.00  0.00     0.020 A 
ATOM     92  C   UNL A   1      44.687  36.685  34.511  1.00  0.00     0.054 A 
BRANCH  92  93
ATOM     93  S   UNL A   1      45.312  38.150  35.378  1.00  0.00     0.124 S 
ATOM     94  O   UNL A   1      44.538  38.124  36.616  1.00  0.00    -0.237 OA
ATOM     95  O   UNL A   1      46.736  37.856  35.522  1.00  0.00    -0.237 OA
ATOM     96  O   UNL A   1      44.998  39.251  34.469  1.00  0.00    -0.744 OA
ENDBRANCH  92  93
ENDBRANCH  66  87
ENDBRANCH  40  41
ENDBRANCH  32  35
ENDBRANCH  30  31
ENDBRANCH  29  30
ENDBRANCH   1  29
TORSDOF 19
ENDMDL
MODEL 3
REMARK VINA RESULT:     -10.4      4.450     10.235
REMARK SMILES CC[C@@](C)([NH3+])C(=O)Nc1cc(C(=O)NCCCCNC(=O)c2ccc(-c3c4nc(c(-c5ccc(S(=O)(=O)[O-])cc5)c5ccc([nH]5)c(-c5ccc(S(=O)(=O)[O-])cc5)c5nc(c(-c6ccc(S(=O)(=O)[O-])cc6)c6ccc3[nH]6)C=C5)C=C4)cc2)cc(C(F)(F)F)c1
REMARK SMILES IDX 16 1 15 2 14 3 12 4 13 5 11 7 9 8 10 9 88 10 83 11 82 12
REMARK SMILES IDX 8 13 6 14 7 15 3 17 4 18 2 19 1 20 5 21 84 25 85 26 86 27
REMARK SMILES IDX 87 28 17 29 18 30 19 31 20 32 21 34 22 35 23 36 81 37 24 38
REMARK SMILES IDX 80 39 25 40 26 41 27 42 74 43 28 44 79 45 73 46 75 47 29 48
REMARK SMILES IDX 78 49 72 50 71 51 30 53 60 54 41 55 59 56 42 57 45 58 58 59
REMARK SMILES IDX 76 60 43 61 44 62 57 64 77 65 46 66 31 67 32 68 40 69 33 70
REMARK SMILES IDX 39 71 34 72 35 73 36 74 37 75 38 76 61 77 62 78 70 79 63 80
REMARK SMILES IDX 69 81 64 82 65 83 66 84 67 85 68 86 47 87 48 88 56 89 49 90
REMARK SMILES IDX 55 91 50 92 51 93 52 94 53 95 54 96
REMARK H PARENT 14 6 8 16 5 22 5 23 5 24 19 33 75 52 45 63
REMARK Flexibility Score: inf
ROOT
ATOM      1  C   UNL A   1      35.322  29.397  27.057  1.00  0.00     0.023 C 
ENDROOT
BRANCH   1   2
ATOM      2  C   UNL A   1      34.130  28.587  26.575  1.00  0.00     0.116 C 
BRANCH   2   3
ATOM      3  N   UNL A   1      33.011  28.476  27.500  1.00  0.00    -0.352 N 
ATOM      4  C   UNL A   1      31.737  27.975  27.301  1.00  0.00     0.251 C 
ATOM      5  O   UNL A   1      30.939  27.947  28.235  1.00  0.00    -0.269 OA
ATOM      6  H   UNL A   1      33.189  28.810  28.409  1.00  0.00     0.163 HD
BRANCH   4   7
ATOM      7  C   UNL A   1      31.289  27.529  25.954  1.00  0.00     0.042 A 
ATOM      8  C   UNL A   1      30.510  25.772  24.499  1.00  0.00     0.042 A 
ATOM      9  C   UNL A   1      31.059  26.166  25.719  1.00  0.00     0.040 A 
ATOM     10  C   UNL A   1      29.965  26.741  23.666  1.00  0.00     0.039 A 
ATOM     11  C   UNL A   1      30.287  28.086  23.828  1.00  0.00     0.058 A 
ATOM     12  C   UNL A   1      31.069  28.444  24.923  1.00  0.00     0.027 A 
BRANCH   8  13
ATOM     13  N   UNL A   1      30.486  24.421  24.137  1.00  0.00    -0.321 N 
ATOM     14  C   UNL A   1      31.422  23.679  23.442  1.00  0.00     0.285 C 
ATOM     15  O   UNL A   1      31.051  22.567  23.039  1.00  0.00    -0.267 OA
ATOM     16  H   UNL A   1      29.683  23.925  24.418  1.00  0.00     0.170 HD
BRANCH  14  17
ATOM     17  C   UNL A   1      32.938  24.136  23.290  1.00  0.00     0.171 C 
ATOM     18  C   UNL A   1      33.034  25.539  22.666  1.00  0.00     0.090 C 
BRANCH  17  19
ATOM     19  C   UNL A   1      33.651  24.128  24.676  1.00  0.00     0.075 C 
ATOM     20  C   UNL A   1      34.502  25.350  24.996  1.00  0.00     0.011 C 
ENDBRANCH  17  19
BRANCH  17  21
ATOM     21  N   UNL A   1      33.699  23.159  22.470  1.00  0.00    -0.345 N 
ATOM     22  H   UNL A   1      34.576  23.581  22.165  1.00  0.00     0.345 HD
ATOM     23  H   UNL A   1      33.146  22.897  21.653  1.00  0.00     0.345 HD
ATOM     24  H   UNL A   1      33.897  22.329  23.026  1.00  0.00     0.345 HD
ENDBRANCH  17  21
ENDBRANCH  14  17
ENDBRANCH   8  13
BRANCH  11  25
ATOM     25  C   UNL A   1      29.763  29.140  22.893  1.00  0.00     0.416 C 
ATOM     26  F   UNL A   1      30.517  29.239  21.764  1.00  0.00    -0.166 F 
ATOM     27  F   UNL A   1      28.496  28.876  22.476  1.00  0.00    -0.166 F 
ATOM     28  F   UNL A   1      29.725  30.386  23.436  1.00  0.00    -0.166 F 
ENDBRANCH  11  25
ENDBRANCH   4   7
ENDBRANCH   2   3
ENDBRANCH   1   2
BRANCH   1  29
ATOM     29  C   UNL A   1      35.014  30.658  27.847  1.00  0.00     0.023 C 
BRANCH  29  30
ATOM     30  C   UNL A   1      36.108  31.138  28.795  1.00  0.00     0.116 C 
BRANCH  30  31
ATOM     31  N   UNL A   1      35.902  30.756  30.187  1.00  0.00    -0.352 N 
ATOM     32  C   UNL A   1      36.630  29.903  30.987  1.00  0.00     0.251 C 
ATOM     33  H   UNL A   1      35.125  31.173  30.623  1.00  0.00     0.163 HD
ATOM     34  O   UNL A   1      36.256  29.667  32.133  1.00  0.00    -0.269 OA
BRANCH  32  35
ATOM     35  C   UNL A   1      37.826  29.229  30.444  1.00  0.00     0.039 A 
ATOM     36  C   UNL A   1      38.080  29.312  29.073  1.00  0.00     0.014 A 
ATOM     37  C   UNL A   1      38.733  28.590  31.291  1.00  0.00     0.014 A 
ATOM     38  C   UNL A   1      39.307  28.873  28.572  1.00  0.00     0.010 A 
ATOM     39  C   UNL A   1      39.987  28.231  30.805  1.00  0.00     0.010 A 
ATOM     40  C   UNL A   1      40.298  28.398  29.448  1.00  0.00    -0.014 A 
BRANCH  40  41
ATOM     41  C   UNL A   1      41.686  28.142  28.985  1.00  0.00     0.031 A 
ATOM     42  C   UNL A   1      42.675  29.268  28.882  1.00  0.00     0.074 A 
ATOM     43  C   UNL A   1      42.021  26.907  28.554  1.00  0.00     0.049 A 
ATOM     44  N   UNL A   1      43.887  29.256  28.390  1.00  0.00    -0.248 NA
ATOM     45  C   UNL A   1      42.235  30.585  29.372  1.00  0.00     0.031 C 
ATOM     46  C   UNL A   1      41.138  25.737  28.556  1.00  0.00     0.029 A 
ATOM     47  N   UNL A   1      43.191  26.434  28.013  1.00  0.00    -0.354 N 
ATOM     48  C   UNL A   1      44.348  30.562  28.492  1.00  0.00     0.074 A 
ATOM     49  C   UNL A   1      43.271  31.348  29.055  1.00  0.00     0.031 C 
ATOM     50  C   UNL A   1      41.803  24.681  28.063  1.00  0.00     0.029 A 
ATOM     51  C   UNL A   1      43.141  25.104  27.666  1.00  0.00     0.049 A 
ATOM     52  H   UNL A   1      43.991  26.994  27.887  1.00  0.00     0.167 HD
ATOM     53  C   UNL A   1      45.564  31.059  28.161  1.00  0.00     0.031 A 
ATOM     54  C   UNL A   1      44.059  24.315  27.077  1.00  0.00     0.031 A 
ATOM     55  C   UNL A   1      46.637  30.275  27.611  1.00  0.00     0.049 A 
ATOM     56  C   UNL A   1      45.394  24.894  26.699  1.00  0.00     0.074 A 
ATOM     57  C   UNL A   1      47.926  30.676  27.307  1.00  0.00     0.029 A 
ATOM     58  N   UNL A   1      46.546  28.932  27.280  1.00  0.00    -0.354 N 
ATOM     59  N   UNL A   1      45.834  26.119  26.865  1.00  0.00    -0.248 NA
ATOM     60  C   UNL A   1      46.354  23.988  26.055  1.00  0.00     0.031 C 
ATOM     61  C   UNL A   1      48.602  29.586  26.747  1.00  0.00     0.029 A 
ATOM     62  C   UNL A   1      47.747  28.495  26.747  1.00  0.00     0.049 A 
ATOM     63  H   UNL A   1      45.747  28.371  27.404  1.00  0.00     0.167 HD
ATOM     64  C   UNL A   1      47.127  26.126  26.358  1.00  0.00     0.074 A 
ATOM     65  C   UNL A   1      47.406  24.781  25.896  1.00  0.00     0.031 C 
ATOM     66  C   UNL A   1      48.005  27.156  26.282  1.00  0.00     0.031 A 
BRANCH  53  67
ATOM     67  C   UNL A   1      45.793  32.530  28.382  1.00  0.00    -0.014 A 
ATOM     68  C   UNL A   1      46.324  33.004  29.595  1.00  0.00     0.010 A 
ATOM     69  C   UNL A   1      45.505  33.446  27.354  1.00  0.00     0.010 A 
ATOM     70  C   UNL A   1      46.523  34.372  29.793  1.00  0.00     0.020 A 
ATOM     71  C   UNL A   1      45.726  34.814  27.539  1.00  0.00     0.020 A 
ATOM     72  C   UNL A   1      46.217  35.270  28.765  1.00  0.00     0.054 A 
BRANCH  72  73
ATOM     73  S   UNL A   1      46.498  37.040  29.043  1.00  0.00     0.124 S 
ATOM     74  O   UNL A   1      45.656  37.642  28.011  1.00  0.00    -0.237 OA
ATOM     75  O   UNL A   1      46.037  37.226  30.416  1.00  0.00    -0.237 OA
ATOM     76  O   UNL A   1      47.936  37.198  28.845  1.00  0.00    -0.744 OA
ENDBRANCH  72  73
ENDBRANCH  53  67
BRANCH  54  77
ATOM     77  C   UNL A   1      43.746  22.885  26.806  1.00  0.00    -0.014 A 
ATOM     78  C   UNL A   1      42.841  22.190  27.626  1.00  0.00     0.010 A 
ATOM     79  C   UNL A   1      44.336  22.219  25.716  1.00  0.00     0.010 A 
ATOM     80  C   UNL A   1      42.538  20.850  27.368  1.00  0.00     0.020 A 
ATOM     81  C   UNL A   1      44.018  20.886  25.442  1.00  0.00     0.020 A 
ATOM     82  C   UNL A   1      43.127  20.207  26.276  1.00  0.00     0.054 A 
BRANCH  82  83
ATOM     83  S   UNL A   1      42.672  18.486  25.920  1.00  0.00     0.124 S 
ATOM     84  O   UNL A   1      41.227  18.587  25.738  1.00  0.00    -0.237 OA
ATOM     85  O   UNL A   1      43.444  18.196  24.715  1.00  0.00    -0.237 OA
ATOM     86  O   UNL A   1      43.106  17.766  27.116  1.00  0.00    -0.744 OA
ENDBRANCH  82  83
ENDBRANCH  54  77
BRANCH  66  87
ATOM     87  C   UNL A   1      49.356  26.871  25.685  1.00  0.00    -0.014 A 
ATOM     88  C   UNL A   1      49.657  27.254  24.366  1.00  0.00     0.010 A 
ATOM     89  C   UNL A   1      50.355  26.271  26.473  1.00  0.00     0.010 A 
ATOM     90  C   UNL A   1      50.931  27.026  23.840  1.00  0.00     0.020 A 
ATOM     91  C   UNL A   1      51.636  26.062  25.957  1.00  0.00     0.020 A 
ATOM     92  C   UNL A   1      51.913  26.434  24.639  1.00  0.00     0.054 A 
BRANCH  92  93
ATOM     93  S   UNL A   1      53.576  26.204  23.954  1.00  0.00     0.124 S 
ATOM     94  O   UNL A   1      54.233  27.454  24.323  1.00  0.00    -0.237 OA
ATOM     95  O   UNL A   1      54.052  25.014  24.655  1.00  0.00    -0.237 OA
ATOM     96  O   UNL A   1      53.339  26.023  22.523  1.00  0.00    -0.744 OA
ENDBRANCH  92  93
ENDBRANCH  66  87
ENDBRANCH  40  41
ENDBRANCH  32  35
ENDBRANCH  30  31
ENDBRANCH  29  30
ENDBRANCH   1  29
TORSDOF 19
ENDMDL
