MODEL 1
REMARK VINA RESULT:     -14.5      0.000      0.000
REMARK SMILES Cc1ccc(C(=O)NC2CC2)cc1NC(=O)[C@@H]1[C@@H](C(=O)NCCCCNC(=O)c2ccc(-c3c4nc(c(-c5ccc(S(=O)(=O)[O-])cc5)c5ccc([nH]5)c(-c5ccc(S(=O)(=O)[O-])cc5)c5nc(c(-c6ccc(S(=O)(=O)[O-])cc6)c6ccc3[nH]6)C=C5)C=C4)cc2)[C@H]2C=C[C@@H]1C2
REMARK SMILES IDX 23 1 22 2 21 3 19 4 20 5 18 7 17 8 92 9 89 10 91 11 93 12
REMARK SMILES IDX 90 13 15 14 14 15 16 17 13 18 1 19 2 20 3 21 4 22 12 23 5 24
REMARK SMILES IDX 6 25 7 26 8 27 9 29 10 30 11 31 24 32 25 33 26 34 27 35
REMARK SMILES IDX 28 37 29 38 30 39 88 40 31 41 87 42 32 43 33 44 34 45 81 46
REMARK SMILES IDX 35 47 86 48 80 49 82 50 36 51 85 52 79 53 78 54 37 56 67 57
REMARK SMILES IDX 48 58 66 59 49 60 52 61 65 62 83 63 50 64 51 65 64 67 84 68
REMARK SMILES IDX 53 69 38 70 39 71 47 72 40 73 46 74 41 75 42 76 43 77 44 78
REMARK SMILES IDX 45 79 68 80 69 81 77 82 70 83 76 84 71 85 72 86 73 87 74 88
REMARK SMILES IDX 75 89 54 90 55 91 63 92 56 93 62 94 57 95 58 96 59 97 60 98
REMARK SMILES IDX 61 99
REMARK H PARENT 21 6 14 16 8 28 26 36 82 55 52 66
REMARK Flexibility Score: inf
ROOT
ATOM      1  C   UNL A   1      32.138  29.757  27.289  1.00  0.00     0.023 C 
ENDROOT
BRANCH   1   2
ATOM      2  C   UNL A   1      32.181  28.256  27.593  1.00  0.00     0.116 C 
BRANCH   2   3
ATOM      3  N   UNL A   1      33.051  27.529  26.682  1.00  0.00    -0.356 N 
ATOM      4  C   UNL A   1      32.849  26.596  25.725  1.00  0.00     0.224 C 
ATOM      5  O   UNL A   1      33.876  26.149  25.196  1.00  0.00    -0.275 OA
ATOM      6  H   UNL A   1      34.000  27.772  26.784  1.00  0.00     0.163 HD
BRANCH   4   7
ATOM      7  C   UNL A   1      31.493  26.000  25.349  1.00  0.00     0.098 C 
ATOM      8  C   UNL A   1      31.670  24.434  25.146  1.00  0.00     0.099 C 
ATOM      9  C   UNL A   1      30.930  24.171  23.808  1.00  0.00     0.025 C 
ATOM     10  C   UNL A   1      30.800  26.395  24.027  1.00  0.00     0.025 C 
ATOM     11  C   UNL A   1      31.753  24.781  22.695  1.00  0.00    -0.027 C 
ATOM     12  C   UNL A   1      29.824  25.221  23.854  1.00  0.00     0.017 C 
ATOM     13  C   UNL A   1      31.700  26.112  22.847  1.00  0.00    -0.027 C 
BRANCH   8  14
ATOM     14  C   UNL A   1      31.125  23.568  26.271  1.00  0.00     0.228 C 
ATOM     15  N   UNL A   1      31.516  22.261  26.438  1.00  0.00    -0.326 N 
ATOM     16  H   UNL A   1      31.045  21.804  27.172  1.00  0.00     0.169 HD
ATOM     17  O   UNL A   1      30.241  23.980  27.029  1.00  0.00    -0.274 OA
BRANCH  15  18
ATOM     18  C   UNL A   1      32.452  21.432  25.776  1.00  0.00     0.044 A 
ATOM     19  C   UNL A   1      34.415  22.779  26.782  1.00  0.00     0.046 C 
ATOM     20  C   UNL A   1      33.829  21.633  25.999  1.00  0.00    -0.027 A 
ATOM     21  C   UNL A   1      34.746  20.729  25.439  1.00  0.00     0.006 A 
ATOM     22  C   UNL A   1      34.314  19.651  24.666  1.00  0.00     0.014 A 
ATOM     23  C   UNL A   1      32.059  20.420  24.884  1.00  0.00     0.040 A 
ATOM     24  C   UNL A   1      32.958  19.483  24.361  1.00  0.00     0.041 A 
BRANCH  24  25
ATOM     25  C   UNL A   1      32.606  18.313  23.488  1.00  0.00     0.251 C 
ATOM     26  O   UNL A   1      32.327  18.532  22.305  1.00  0.00    -0.269 OA
ATOM     27  N   UNL A   1      32.601  16.998  23.900  1.00  0.00    -0.349 N 
ATOM     28  H   UNL A   1      32.370  16.352  23.193  1.00  0.00     0.164 HD
BRANCH  27  29
ATOM     29  C   UNL A   1      32.869  16.409  25.161  1.00  0.00     0.082 C 
ATOM     30  C   UNL A   1      32.561  14.954  25.386  1.00  0.00     0.027 C 
ATOM     31  C   UNL A   1      33.984  15.425  25.374  1.00  0.00     0.027 C 
ENDBRANCH  27  29
ENDBRANCH  24  25
ENDBRANCH  15  18
ENDBRANCH   8  14
ENDBRANCH   4   7
ENDBRANCH   2   3
ENDBRANCH   1   2
BRANCH   1  32
ATOM     32  C   UNL A   1      33.334  30.290  26.497  1.00  0.00     0.023 C 
BRANCH  32  33
ATOM     33  C   UNL A   1      34.688  29.971  27.121  1.00  0.00     0.116 C 
BRANCH  33  34
ATOM     34  N   UNL A   1      35.436  31.145  27.535  1.00  0.00    -0.352 N 
ATOM     35  C   UNL A   1      36.575  31.178  28.333  1.00  0.00     0.251 C 
ATOM     36  H   UNL A   1      35.099  32.014  27.217  1.00  0.00     0.163 HD
ATOM     37  O   UNL A   1      36.937  32.160  28.934  1.00  0.00    -0.269 OA
BRANCH  35  38
ATOM     38  C   UNL A   1      37.434  29.972  28.278  1.00  0.00     0.039 A 
ATOM     39  C   UNL A   1      37.485  29.178  29.432  1.00  0.00     0.014 A 
ATOM     40  C   UNL A   1      38.354  29.808  27.249  1.00  0.00     0.014 A 
ATOM     41  C   UNL A   1      38.576  28.339  29.636  1.00  0.00     0.010 A 
ATOM     42  C   UNL A   1      39.481  29.051  27.493  1.00  0.00     0.010 A 
ATOM     43  C   UNL A   1      39.612  28.356  28.704  1.00  0.00    -0.014 A 
BRANCH  43  44
ATOM     44  C   UNL A   1      40.907  27.725  28.926  1.00  0.00     0.031 A 
ATOM     45  C   UNL A   1      41.088  26.298  28.583  1.00  0.00     0.074 A 
ATOM     46  C   UNL A   1      41.955  28.473  29.335  1.00  0.00     0.049 A 
ATOM     47  N   UNL A   1      42.011  25.535  29.064  1.00  0.00    -0.248 NA
ATOM     48  C   UNL A   1      40.172  25.598  27.688  1.00  0.00     0.031 C 
ATOM     49  C   UNL A   1      43.365  28.098  29.305  1.00  0.00     0.029 A 
ATOM     50  N   UNL A   1      41.935  29.658  30.075  1.00  0.00    -0.354 N 
ATOM     51  C   UNL A   1      42.012  24.376  28.316  1.00  0.00     0.074 A 
ATOM     52  C   UNL A   1      40.788  24.420  27.554  1.00  0.00     0.031 C 
ATOM     53  C   UNL A   1      44.020  28.829  30.222  1.00  0.00     0.029 A 
ATOM     54  C   UNL A   1      43.018  29.577  30.965  1.00  0.00     0.049 A 
ATOM     55  H   UNL A   1      41.292  30.399  29.989  1.00  0.00     0.167 HD
ATOM     56  C   UNL A   1      43.126  23.588  28.296  1.00  0.00     0.031 A 
ATOM     57  C   UNL A   1      42.882  29.570  32.324  1.00  0.00     0.031 A 
ATOM     58  C   UNL A   1      44.128  24.056  29.253  1.00  0.00     0.049 A 
ATOM     59  C   UNL A   1      43.458  28.321  32.962  1.00  0.00     0.074 A 
ATOM     60  C   UNL A   1      45.283  24.807  29.111  1.00  0.00     0.029 A 
ATOM     61  N   UNL A   1      43.843  24.022  30.614  1.00  0.00    -0.354 N 
ATOM     62  N   UNL A   1      43.725  27.228  32.302  1.00  0.00    -0.248 NA
ATOM     63  C   UNL A   1      43.735  28.192  34.389  1.00  0.00     0.031 C 
ATOM     64  C   UNL A   1      45.627  25.322  30.388  1.00  0.00     0.029 A 
ATOM     65  C   UNL A   1      44.705  24.851  31.306  1.00  0.00     0.049 A 
ATOM     66  H   UNL A   1      43.129  23.483  31.025  1.00  0.00     0.167 HD
ATOM     67  C   UNL A   1      44.201  26.276  33.164  1.00  0.00     0.074 A 
ATOM     68  C   UNL A   1      44.192  26.929  34.461  1.00  0.00     0.031 C 
ATOM     69  C   UNL A   1      44.564  25.029  32.745  1.00  0.00     0.031 A 
BRANCH  56  70
ATOM     70  C   UNL A   1      43.428  22.606  27.178  1.00  0.00    -0.014 A 
ATOM     71  C   UNL A   1      42.627  21.452  27.036  1.00  0.00     0.010 A 
ATOM     72  C   UNL A   1      44.520  22.705  26.295  1.00  0.00     0.010 A 
ATOM     73  C   UNL A   1      42.960  20.414  26.149  1.00  0.00     0.020 A 
ATOM     74  C   UNL A   1      44.887  21.664  25.429  1.00  0.00     0.020 A 
ATOM     75  C   UNL A   1      44.110  20.514  25.372  1.00  0.00     0.054 A 
BRANCH  75  76
ATOM     76  S   UNL A   1      44.580  19.132  24.298  1.00  0.00     0.124 S 
ATOM     77  O   UNL A   1      45.971  18.898  24.675  1.00  0.00    -0.237 OA
ATOM     78  O   UNL A   1      43.635  18.093  24.694  1.00  0.00    -0.237 OA
ATOM     79  O   UNL A   1      44.390  19.662  22.948  1.00  0.00    -0.744 OA
ENDBRANCH  75  76
ENDBRANCH  56  70
BRANCH  57  80
ATOM     80  C   UNL A   1      41.692  30.309  32.829  1.00  0.00    -0.014 A 
ATOM     81  C   UNL A   1      40.484  29.589  32.952  1.00  0.00     0.010 A 
ATOM     82  C   UNL A   1      41.850  31.502  33.557  1.00  0.00     0.010 A 
ATOM     83  C   UNL A   1      39.535  29.951  33.910  1.00  0.00     0.020 A 
ATOM     84  C   UNL A   1      40.893  31.870  34.515  1.00  0.00     0.020 A 
ATOM     85  C   UNL A   1      39.779  31.053  34.729  1.00  0.00     0.054 A 
BRANCH  85  86
ATOM     86  S   UNL A   1      38.724  31.272  36.195  1.00  0.00     0.124 S 
ATOM     87  O   UNL A   1      38.506  29.896  36.631  1.00  0.00    -0.237 OA
ATOM     88  O   UNL A   1      39.580  32.080  37.066  1.00  0.00    -0.237 OA
ATOM     89  O   UNL A   1      37.552  31.960  35.664  1.00  0.00    -0.744 OA
ENDBRANCH  85  86
ENDBRANCH  57  80
BRANCH  69  90
ATOM     90  C   UNL A   1      44.913  23.877  33.649  1.00  0.00    -0.014 A 
ATOM     91  C   UNL A   1      44.027  22.836  33.964  1.00  0.00     0.010 A 
ATOM     92  C   UNL A   1      46.245  23.754  34.113  1.00  0.00     0.010 A 
ATOM     93  C   UNL A   1      44.429  21.756  34.764  1.00  0.00     0.020 A 
ATOM     94  C   UNL A   1      46.668  22.663  34.875  1.00  0.00     0.020 A 
ATOM     95  C   UNL A   1      45.746  21.682  35.221  1.00  0.00     0.054 A 
BRANCH  95  96
ATOM     96  S   UNL A   1      46.269  20.262  36.215  1.00  0.00     0.124 S 
ATOM     97  O   UNL A   1      45.813  20.646  37.548  1.00  0.00    -0.237 OA
ATOM     98  O   UNL A   1      45.546  19.149  35.603  1.00  0.00    -0.237 OA
ATOM     99  O   UNL A   1      47.717  20.230  36.032  1.00  0.00    -0.744 OA
ENDBRANCH  95  96
ENDBRANCH  69  90
ENDBRANCH  43  44
ENDBRANCH  35  38
ENDBRANCH  33  34
ENDBRANCH  32  33
ENDBRANCH   1  32
TORSDOF 18
ENDMDL
MODEL 2
REMARK VINA RESULT:     -14.2      4.851     10.970
REMARK SMILES Cc1ccc(C(=O)NC2CC2)cc1NC(=O)[C@@H]1[C@@H](C(=O)NCCCCNC(=O)c2ccc(-c3c4nc(c(-c5ccc(S(=O)(=O)[O-])cc5)c5ccc([nH]5)c(-c5ccc(S(=O)(=O)[O-])cc5)c5nc(c(-c6ccc(S(=O)(=O)[O-])cc6)c6ccc3[nH]6)C=C5)C=C4)cc2)[C@H]2C=C[C@@H]1C2
REMARK SMILES IDX 23 1 22 2 21 3 19 4 20 5 18 7 17 8 92 9 89 10 91 11 93 12
REMARK SMILES IDX 90 13 15 14 14 15 16 17 13 18 1 19 2 20 3 21 4 22 12 23 5 24
REMARK SMILES IDX 6 25 7 26 8 27 9 29 10 30 11 31 24 32 25 33 26 34 27 35
REMARK SMILES IDX 28 37 29 38 30 39 88 40 31 41 87 42 32 43 33 44 34 45 81 46
REMARK SMILES IDX 35 47 86 48 80 49 82 50 36 51 85 52 79 53 78 54 37 56 67 57
REMARK SMILES IDX 48 58 66 59 49 60 52 61 65 62 83 63 50 64 51 65 64 67 84 68
REMARK SMILES IDX 53 69 38 70 39 71 47 72 40 73 46 74 41 75 42 76 43 77 44 78
REMARK SMILES IDX 45 79 68 80 69 81 77 82 70 83 76 84 71 85 72 86 73 87 74 88
REMARK SMILES IDX 75 89 54 90 55 91 63 92 56 93 62 94 57 95 58 96 59 97 60 98
REMARK SMILES IDX 61 99
REMARK H PARENT 21 6 14 16 8 28 26 36 82 55 52 66
REMARK Flexibility Score: inf
ROOT
ATOM      1  C   UNL A   1      35.652  23.808  24.866  1.00  0.00     0.023 C 
ENDROOT
BRANCH   1   2
ATOM      2  C   UNL A   1      34.670  24.875  25.362  1.00  0.00     0.116 C 
BRANCH   2   3
ATOM      3  N   UNL A   1      34.565  26.001  24.447  1.00  0.00    -0.356 N 
ATOM      4  C   UNL A   1      33.791  27.109  24.398  1.00  0.00     0.224 C 
ATOM      5  O   UNL A   1      33.949  27.820  23.396  1.00  0.00    -0.275 OA
ATOM      6  H   UNL A   1      35.200  25.945  23.697  1.00  0.00     0.163 HD
BRANCH   4   7
ATOM      7  C   UNL A   1      32.698  27.465  25.405  1.00  0.00     0.098 C 
ATOM      8  C   UNL A   1      32.101  28.886  25.018  1.00  0.00     0.099 C 
ATOM      9  C   UNL A   1      32.075  29.633  26.377  1.00  0.00     0.025 C 
ATOM     10  C   UNL A   1      33.042  27.681  26.894  1.00  0.00     0.025 C 
ATOM     11  C   UNL A   1      33.505  29.930  26.771  1.00  0.00    -0.027 C 
ATOM     12  C   UNL A   1      31.819  28.490  27.355  1.00  0.00     0.017 C 
ATOM     13  C   UNL A   1      34.091  28.757  27.050  1.00  0.00    -0.027 C 
BRANCH   8  14
ATOM     14  C   UNL A   1      30.729  28.858  24.364  1.00  0.00     0.228 C 
ATOM     15  N   UNL A   1      30.131  27.683  23.977  1.00  0.00    -0.326 N 
ATOM     16  H   UNL A   1      29.269  27.817  23.520  1.00  0.00     0.169 HD
ATOM     17  O   UNL A   1      30.133  29.901  24.076  1.00  0.00    -0.274 OA
BRANCH  15  18
ATOM     18  C   UNL A   1      30.493  26.321  24.094  1.00  0.00     0.044 A 
ATOM     19  C   UNL A   1      31.277  26.277  21.631  1.00  0.00     0.046 C 
ATOM     20  C   UNL A   1      31.105  25.674  23.001  1.00  0.00    -0.027 A 
ATOM     21  C   UNL A   1      31.575  24.361  23.166  1.00  0.00     0.006 A 
ATOM     22  C   UNL A   1      31.437  23.695  24.384  1.00  0.00     0.014 A 
ATOM     23  C   UNL A   1      30.247  25.576  25.260  1.00  0.00     0.040 A 
ATOM     24  C   UNL A   1      30.755  24.286  25.454  1.00  0.00     0.041 A 
BRANCH  24  25
ATOM     25  C   UNL A   1      30.628  23.466  26.705  1.00  0.00     0.251 C 
ATOM     26  O   UNL A   1      29.555  23.498  27.317  1.00  0.00    -0.269 OA
ATOM     27  N   UNL A   1      31.614  22.646  27.212  1.00  0.00    -0.349 N 
ATOM     28  H   UNL A   1      31.356  22.159  28.028  1.00  0.00     0.164 HD
BRANCH  27  29
ATOM     29  C   UNL A   1      32.932  22.380  26.766  1.00  0.00     0.082 C 
ATOM     30  C   UNL A   1      33.872  21.598  27.642  1.00  0.00     0.027 C 
ATOM     31  C   UNL A   1      33.384  21.008  26.353  1.00  0.00     0.027 C 
ENDBRANCH  27  29
ENDBRANCH  24  25
ENDBRANCH  15  18
ENDBRANCH   8  14
ENDBRANCH   4   7
ENDBRANCH   2   3
ENDBRANCH   1   2
BRANCH   1  32
ATOM     32  C   UNL A   1      36.638  23.299  25.919  1.00  0.00     0.023 C 
BRANCH  32  33
ATOM     33  C   UNL A   1      38.092  23.660  25.638  1.00  0.00     0.116 C 
BRANCH  33  34
ATOM     34  N   UNL A   1      39.026  23.162  26.634  1.00  0.00    -0.352 N 
ATOM     35  C   UNL A   1      39.904  23.909  27.411  1.00  0.00     0.251 C 
ATOM     36  H   UNL A   1      39.039  22.187  26.772  1.00  0.00     0.163 HD
ATOM     37  O   UNL A   1      40.884  23.442  27.940  1.00  0.00    -0.269 OA
BRANCH  35  38
ATOM     38  C   UNL A   1      39.482  25.299  27.703  1.00  0.00     0.039 A 
ATOM     39  C   UNL A   1      40.047  26.311  26.915  1.00  0.00     0.014 A 
ATOM     40  C   UNL A   1      38.798  25.596  28.877  1.00  0.00     0.014 A 
ATOM     41  C   UNL A   1      40.083  27.614  27.400  1.00  0.00     0.010 A 
ATOM     42  C   UNL A   1      38.919  26.866  29.401  1.00  0.00     0.010 A 
ATOM     43  C   UNL A   1      39.601  27.860  28.685  1.00  0.00    -0.014 A 
BRANCH  43  44
ATOM     44  C   UNL A   1      39.812  29.113  29.399  1.00  0.00     0.031 A 
ATOM     45  C   UNL A   1      38.804  30.189  29.291  1.00  0.00     0.074 A 
ATOM     46  C   UNL A   1      40.863  29.236  30.238  1.00  0.00     0.049 A 
ATOM     47  N   UNL A   1      39.028  31.437  29.534  1.00  0.00    -0.248 NA
ATOM     48  C   UNL A   1      37.444  29.929  28.829  1.00  0.00     0.031 C 
ATOM     49  C   UNL A   1      41.058  30.264  31.256  1.00  0.00     0.029 A 
ATOM     50  N   UNL A   1      42.091  28.571  30.190  1.00  0.00    -0.354 N 
ATOM     51  C   UNL A   1      37.803  32.070  29.579  1.00  0.00     0.074 A 
ATOM     52  C   UNL A   1      36.869  31.117  29.029  1.00  0.00     0.031 C 
ATOM     53  C   UNL A   1      42.373  30.370  31.509  1.00  0.00     0.029 A 
ATOM     54  C   UNL A   1      43.061  29.521  30.549  1.00  0.00     0.049 A 
ATOM     55  H   UNL A   1      42.245  27.627  29.952  1.00  0.00     0.167 HD
ATOM     56  C   UNL A   1      37.684  33.262  30.232  1.00  0.00     0.031 A 
ATOM     57  C   UNL A   1      44.064  29.930  29.718  1.00  0.00     0.031 A 
ATOM     58  C   UNL A   1      38.988  33.769  30.658  1.00  0.00     0.049 A 
ATOM     59  C   UNL A   1      44.032  31.422  29.455  1.00  0.00     0.074 A 
ATOM     60  C   UNL A   1      39.649  33.754  31.875  1.00  0.00     0.029 A 
ATOM     61  N   UNL A   1      39.933  34.120  29.700  1.00  0.00    -0.354 N 
ATOM     62  N   UNL A   1      42.993  32.177  29.685  1.00  0.00    -0.248 NA
ATOM     63  C   UNL A   1      45.146  32.170  28.877  1.00  0.00     0.031 C 
ATOM     64  C   UNL A   1      41.026  33.987  31.626  1.00  0.00     0.029 A 
ATOM     65  C   UNL A   1      41.192  34.182  30.266  1.00  0.00     0.049 A 
ATOM     66  H   UNL A   1      39.733  34.300  28.753  1.00  0.00     0.167 HD
ATOM     67  C   UNL A   1      43.270  33.466  29.314  1.00  0.00     0.074 A 
ATOM     68  C   UNL A   1      44.633  33.412  28.816  1.00  0.00     0.031 C 
ATOM     69  C   UNL A   1      42.358  34.473  29.444  1.00  0.00     0.031 A 
BRANCH  56  70
ATOM     70  C   UNL A   1      36.364  33.789  30.765  1.00  0.00    -0.014 A 
ATOM     71  C   UNL A   1      35.353  34.170  29.856  1.00  0.00     0.010 A 
ATOM     72  C   UNL A   1      36.081  34.014  32.125  1.00  0.00     0.010 A 
ATOM     73  C   UNL A   1      34.187  34.835  30.271  1.00  0.00     0.020 A 
ATOM     74  C   UNL A   1      34.938  34.708  32.553  1.00  0.00     0.020 A 
ATOM     75  C   UNL A   1      34.002  35.129  31.618  1.00  0.00     0.054 A 
BRANCH  75  76
ATOM     76  S   UNL A   1      32.539  36.066  32.131  1.00  0.00     0.124 S 
ATOM     77  O   UNL A   1      33.054  36.882  33.227  1.00  0.00    -0.237 OA
ATOM     78  O   UNL A   1      32.189  36.792  30.914  1.00  0.00    -0.237 OA
ATOM     79  O   UNL A   1      31.586  35.032  32.531  1.00  0.00    -0.744 OA
ENDBRANCH  75  76
ENDBRANCH  56  70
BRANCH  57  80
ATOM     80  C   UNL A   1      44.506  28.904  28.733  1.00  0.00    -0.014 A 
ATOM     81  C   UNL A   1      43.933  28.952  27.443  1.00  0.00     0.010 A 
ATOM     82  C   UNL A   1      45.724  28.224  28.912  1.00  0.00     0.010 A 
ATOM     83  C   UNL A   1      44.643  28.490  26.334  1.00  0.00     0.020 A 
ATOM     84  C   UNL A   1      46.434  27.753  27.797  1.00  0.00     0.020 A 
ATOM     85  C   UNL A   1      45.917  27.953  26.513  1.00  0.00     0.054 A 
BRANCH  85  86
ATOM     86  S   UNL A   1      46.955  27.713  25.037  1.00  0.00     0.124 S 
ATOM     87  O   UNL A   1      48.303  27.752  25.596  1.00  0.00    -0.237 OA
ATOM     88  O   UNL A   1      46.507  26.402  24.562  1.00  0.00    -0.237 OA
ATOM     89  O   UNL A   1      46.591  28.841  24.187  1.00  0.00    -0.744 OA
ENDBRANCH  85  86
ENDBRANCH  57  80
BRANCH  69  90
ATOM     90  C   UNL A   1      42.518  35.864  28.890  1.00  0.00    -0.014 A 
ATOM     91  C   UNL A   1      43.342  36.844  29.466  1.00  0.00     0.010 A 
ATOM     92  C   UNL A   1      41.913  36.177  27.650  1.00  0.00     0.010 A 
ATOM     93  C   UNL A   1      43.499  38.103  28.870  1.00  0.00     0.020 A 
ATOM     94  C   UNL A   1      42.096  37.414  27.025  1.00  0.00     0.020 A 
ATOM     95  C   UNL A   1      42.867  38.382  27.656  1.00  0.00     0.054 A 
BRANCH  95  96
ATOM     96  S   UNL A   1      43.112  39.995  26.871  1.00  0.00     0.124 S 
ATOM     97  O   UNL A   1      44.367  39.791  26.154  1.00  0.00    -0.237 OA
ATOM     98  O   UNL A   1      41.925  40.134  26.029  1.00  0.00    -0.237 OA
ATOM     99  O   UNL A   1      43.177  40.919  28.001  1.00  0.00    -0.744 OA
ENDBRANCH  95  96
ENDBRANCH  69  90
ENDBRANCH  43  44
ENDBRANCH  35  38
ENDBRANCH  33  34
ENDBRANCH  32  33
ENDBRANCH   1  32
TORSDOF 18
ENDMDL
MODEL 3
REMARK VINA RESULT:     -14.2      1.858      2.918
REMARK SMILES Cc1ccc(C(=O)NC2CC2)cc1NC(=O)[C@@H]1[C@@H](C(=O)NCCCCNC(=O)c2ccc(-c3c4nc(c(-c5ccc(S(=O)(=O)[O-])cc5)c5ccc([nH]5)c(-c5ccc(S(=O)(=O)[O-])cc5)c5nc(c(-c6ccc(S(=O)(=O)[O-])cc6)c6ccc3[nH]6)C=C5)C=C4)cc2)[C@H]2C=C[C@@H]1C2
REMARK SMILES IDX 23 1 22 2 21 3 19 4 20 5 18 7 17 8 92 9 89 10 91 11 93 12
REMARK SMILES IDX 90 13 15 14 14 15 16 17 13 18 1 19 2 20 3 21 4 22 12 23 5 24
REMARK SMILES IDX 6 25 7 26 8 27 9 29 10 30 11 31 24 32 25 33 26 34 27 35
REMARK SMILES IDX 28 37 29 38 30 39 88 40 31 41 87 42 32 43 33 44 34 45 81 46
REMARK SMILES IDX 35 47 86 48 80 49 82 50 36 51 85 52 79 53 78 54 37 56 67 57
REMARK SMILES IDX 48 58 66 59 49 60 52 61 65 62 83 63 50 64 51 65 64 67 84 68
REMARK SMILES IDX 53 69 38 70 39 71 47 72 40 73 46 74 41 75 42 76 43 77 44 78
REMARK SMILES IDX 45 79 68 80 69 81 77 82 70 83 76 84 71 85 72 86 73 87 74 88
REMARK SMILES IDX 75 89 54 90 55 91 63 92 56 93 62 94 57 95 58 96 59 97 60 98
REMARK SMILES IDX 61 99
REMARK H PARENT 21 6 14 16 8 28 26 36 82 55 52 66
REMARK Flexibility Score: inf
ROOT
ATOM      1  C   UNL A   1      34.150  29.385  25.489  1.00  0.00     0.023 C 
ENDROOT
BRANCH   1   2
ATOM      2  C   UNL A   1      32.715  29.701  25.052  1.00  0.00     0.116 C 
BRANCH   2   3
ATOM      3  N   UNL A   1      32.362  29.057  23.797  1.00  0.00    -0.356 N 
ATOM      4  C   UNL A   1      31.199  28.832  23.145  1.00  0.00     0.224 C 
ATOM      5  O   UNL A   1      31.296  28.168  22.104  1.00  0.00    -0.275 OA
ATOM      6  H   UNL A   1      33.145  28.706  23.313  1.00  0.00     0.163 HD
BRANCH   4   7
ATOM      7  C   UNL A   1      29.815  29.235  23.650  1.00  0.00     0.098 C 
ATOM      8  C   UNL A   1      28.735  28.285  22.973  1.00  0.00     0.099 C 
ATOM      9  C   UNL A   1      27.649  29.281  22.491  1.00  0.00     0.025 C 
ATOM     10  C   UNL A   1      29.233  30.627  23.323  1.00  0.00     0.025 C 
ATOM     11  C   UNL A   1      28.222  30.070  21.335  1.00  0.00    -0.027 C 
ATOM     12  C   UNL A   1      27.735  30.373  23.555  1.00  0.00     0.017 C 
ATOM     13  C   UNL A   1      29.192  30.852  21.830  1.00  0.00    -0.027 C 
BRANCH   8  14
ATOM     14  C   UNL A   1      28.154  27.212  23.880  1.00  0.00     0.228 C 
ATOM     15  N   UNL A   1      28.919  26.181  24.372  1.00  0.00    -0.326 N 
ATOM     16  H   UNL A   1      28.402  25.532  24.901  1.00  0.00     0.169 HD
ATOM     17  O   UNL A   1      26.947  27.176  24.141  1.00  0.00    -0.274 OA
BRANCH  15  18
ATOM     18  C   UNL A   1      30.291  25.856  24.276  1.00  0.00     0.044 A 
ATOM     19  C   UNL A   1      30.780  27.099  26.489  1.00  0.00     0.046 C 
ATOM     20  C   UNL A   1      31.162  26.229  25.320  1.00  0.00    -0.027 A 
ATOM     21  C   UNL A   1      32.497  25.794  25.278  1.00  0.00     0.006 A 
ATOM     22  C   UNL A   1      32.967  25.012  24.222  1.00  0.00     0.014 A 
ATOM     23  C   UNL A   1      30.828  25.186  23.163  1.00  0.00     0.040 A 
ATOM     24  C   UNL A   1      32.142  24.704  23.133  1.00  0.00     0.041 A 
BRANCH  24  25
ATOM     25  C   UNL A   1      32.760  23.891  22.032  1.00  0.00     0.251 C 
ATOM     26  O   UNL A   1      33.439  24.479  21.185  1.00  0.00    -0.269 OA
ATOM     27  N   UNL A   1      32.652  22.522  21.910  1.00  0.00    -0.349 N 
ATOM     28  H   UNL A   1      33.140  22.144  21.141  1.00  0.00     0.164 HD
BRANCH  27  29
ATOM     29  C   UNL A   1      31.965  21.562  22.693  1.00  0.00     0.082 C 
ATOM     30  C   UNL A   1      32.232  20.097  22.480  1.00  0.00     0.027 C 
ATOM     31  C   UNL A   1      32.645  20.754  23.762  1.00  0.00     0.027 C 
ENDBRANCH  27  29
ENDBRANCH  24  25
ENDBRANCH  15  18
ENDBRANCH   8  14
ENDBRANCH   4   7
ENDBRANCH   2   3
ENDBRANCH   1   2
BRANCH   1  32
ATOM     32  C   UNL A   1      34.273  28.683  26.843  1.00  0.00     0.023 C 
BRANCH  32  33
ATOM     33  C   UNL A   1      34.224  29.625  28.041  1.00  0.00     0.116 C 
BRANCH  33  34
ATOM     34  N   UNL A   1      34.987  30.849  27.858  1.00  0.00    -0.352 N 
ATOM     35  C   UNL A   1      36.313  31.073  28.211  1.00  0.00     0.251 C 
ATOM     36  H   UNL A   1      34.511  31.602  27.440  1.00  0.00     0.163 HD
ATOM     37  O   UNL A   1      36.779  32.175  28.374  1.00  0.00    -0.269 OA
BRANCH  35  38
ATOM     38  C   UNL A   1      37.189  29.877  28.217  1.00  0.00     0.039 A 
ATOM     39  C   UNL A   1      37.298  29.179  29.426  1.00  0.00     0.014 A 
ATOM     40  C   UNL A   1      38.071  29.645  27.167  1.00  0.00     0.014 A 
ATOM     41  C   UNL A   1      38.409  28.372  29.651  1.00  0.00     0.010 A 
ATOM     42  C   UNL A   1      39.218  28.925  27.424  1.00  0.00     0.010 A 
ATOM     43  C   UNL A   1      39.408  28.329  28.679  1.00  0.00    -0.014 A 
BRANCH  43  44
ATOM     44  C   UNL A   1      40.720  27.735  28.898  1.00  0.00     0.031 A 
ATOM     45  C   UNL A   1      40.942  26.315  28.550  1.00  0.00     0.074 A 
ATOM     46  C   UNL A   1      41.747  28.512  29.308  1.00  0.00     0.049 A 
ATOM     47  N   UNL A   1      41.887  25.577  29.028  1.00  0.00    -0.248 NA
ATOM     48  C   UNL A   1      40.045  25.592  27.654  1.00  0.00     0.031 C 
ATOM     49  C   UNL A   1      43.167  28.177  29.275  1.00  0.00     0.029 A 
ATOM     50  N   UNL A   1      41.695  29.693  30.051  1.00  0.00    -0.354 N 
ATOM     51  C   UNL A   1      41.920  24.421  28.277  1.00  0.00     0.074 A 
ATOM     52  C   UNL A   1      40.694  24.432  27.517  1.00  0.00     0.031 C 
ATOM     53  C   UNL A   1      43.802  28.924  30.193  1.00  0.00     0.029 A 
ATOM     54  C   UNL A   1      42.781  29.641  30.940  1.00  0.00     0.049 A 
ATOM     55  H   UNL A   1      41.031  30.416  29.969  1.00  0.00     0.167 HD
ATOM     56  C   UNL A   1      43.056  23.665  28.252  1.00  0.00     0.031 A 
ATOM     57  C   UNL A   1      42.647  29.625  32.299  1.00  0.00     0.031 A 
ATOM     58  C   UNL A   1      44.046  24.158  29.210  1.00  0.00     0.049 A 
ATOM     59  C   UNL A   1      43.258  28.392  32.932  1.00  0.00     0.074 A 
ATOM     60  C   UNL A   1      45.179  24.943  29.069  1.00  0.00     0.029 A 
ATOM     61  N   UNL A   1      43.764  24.113  30.571  1.00  0.00    -0.354 N 
ATOM     62  N   UNL A   1      43.557  27.309  32.269  1.00  0.00    -0.248 NA
ATOM     63  C   UNL A   1      43.542  28.267  34.359  1.00  0.00     0.031 C 
ATOM     64  C   UNL A   1      45.509  25.463  30.347  1.00  0.00     0.029 A 
ATOM     65  C   UNL A   1      44.603  24.964  31.265  1.00  0.00     0.049 A 
ATOM     66  H   UNL A   1      43.066  23.552  30.982  1.00  0.00     0.167 HD
ATOM     67  C   UNL A   1      44.061  26.368  33.128  1.00  0.00     0.074 A 
ATOM     68  C   UNL A   1      44.035  27.017  34.427  1.00  0.00     0.031 C 
ATOM     69  C   UNL A   1      44.458  25.133  32.704  1.00  0.00     0.031 A 
BRANCH  56  70
ATOM     70  C   UNL A   1      43.384  22.695  27.132  1.00  0.00    -0.014 A 
ATOM     71  C   UNL A   1      42.688  21.469  27.051  1.00  0.00     0.010 A 
ATOM     72  C   UNL A   1      44.410  22.879  26.186  1.00  0.00     0.010 A 
ATOM     73  C   UNL A   1      43.066  20.452  26.159  1.00  0.00     0.020 A 
ATOM     74  C   UNL A   1      44.823  21.861  25.312  1.00  0.00     0.020 A 
ATOM     75  C   UNL A   1      44.155  20.643  25.315  1.00  0.00     0.054 A 
BRANCH  75  76
ATOM     76  S   UNL A   1      44.690  19.292  24.233  1.00  0.00     0.124 S 
ATOM     77  O   UNL A   1      46.097  19.137  24.593  1.00  0.00    -0.237 OA
ATOM     78  O   UNL A   1      43.810  18.200  24.637  1.00  0.00    -0.237 OA
ATOM     79  O   UNL A   1      44.454  19.812  22.887  1.00  0.00    -0.744 OA
ENDBRANCH  75  76
ENDBRANCH  56  70
BRANCH  57  80
ATOM     80  C   UNL A   1      41.436  30.329  32.808  1.00  0.00    -0.014 A 
ATOM     81  C   UNL A   1      40.289  29.546  33.061  1.00  0.00     0.010 A 
ATOM     82  C   UNL A   1      41.550  31.589  33.422  1.00  0.00     0.010 A 
ATOM     83  C   UNL A   1      39.369  29.931  34.038  1.00  0.00     0.020 A 
ATOM     84  C   UNL A   1      40.621  31.979  34.399  1.00  0.00     0.020 A 
ATOM     85  C   UNL A   1      39.579  31.114  34.746  1.00  0.00     0.054 A 
BRANCH  85  86
ATOM     86  S   UNL A   1      38.589  31.395  36.247  1.00  0.00     0.124 S 
ATOM     87  O   UNL A   1      37.477  32.193  35.741  1.00  0.00    -0.237 OA
ATOM     88  O   UNL A   1      38.251  30.028  36.647  1.00  0.00    -0.237 OA
ATOM     89  O   UNL A   1      39.516  32.092  37.132  1.00  0.00    -0.744 OA
ENDBRANCH  85  86
ENDBRANCH  57  80
BRANCH  69  90
ATOM     90  C   UNL A   1      44.841  23.989  33.605  1.00  0.00    -0.014 A 
ATOM     91  C   UNL A   1      43.981  22.928  33.928  1.00  0.00     0.010 A 
ATOM     92  C   UNL A   1      46.180  23.895  34.055  1.00  0.00     0.010 A 
ATOM     93  C   UNL A   1      44.415  21.858  34.723  1.00  0.00     0.020 A 
ATOM     94  C   UNL A   1      46.634  22.813  34.813  1.00  0.00     0.020 A 
ATOM     95  C   UNL A   1      45.738  21.812  35.168  1.00  0.00     0.054 A 
BRANCH  95  96
ATOM     96  S   UNL A   1      46.300  20.404  36.156  1.00  0.00     0.124 S 
ATOM     97  O   UNL A   1      46.019  20.860  37.514  1.00  0.00    -0.237 OA
ATOM     98  O   UNL A   1      45.459  19.309  35.677  1.00  0.00    -0.237 OA
ATOM     99  O   UNL A   1      47.715  20.288  35.813  1.00  0.00    -0.744 OA
ENDBRANCH  95  96
ENDBRANCH  69  90
ENDBRANCH  43  44
ENDBRANCH  35  38
ENDBRANCH  33  34
ENDBRANCH  32  33
ENDBRANCH   1  32
TORSDOF 18
ENDMDL
