MODEL 1
REMARK VINA RESULT:     -11.2      0.000      0.000
REMARK SMILES O=C(NCCCCNC(=O)c1ccc(NC(=O)c2ccc([N+](=O)[O-])cc2Cl)cc1Cl)c1ccc(-c2c3nc(c(-c4ccc(S(=O)(=O)[O-])cc4)c4ccc([nH]4)c(-c4ccc(S(=O)(=O)[O-])cc4)c4nc(c(-c5ccc(S(=O)(=O)[O-])cc5)c5ccc2[nH]5)C=C4)C=C3)cc1
REMARK SMILES IDX 5 1 4 2 3 3 1 4 2 5 31 7 32 8 90 9 33 10 89 11 34 12 35 13
REMARK SMILES IDX 36 14 83 15 37 16 88 17 82 18 84 19 38 20 87 21 81 22 80 23
REMARK SMILES IDX 39 25 69 26 50 27 68 28 51 29 54 30 67 31 85 32 52 33 53 34
REMARK SMILES IDX 66 36 86 37 55 38 40 39 41 40 49 41 42 42 48 43 43 44 44 45
REMARK SMILES IDX 45 46 46 47 47 48 70 49 71 50 79 51 72 52 78 53 73 54 74 55
REMARK SMILES IDX 75 56 76 57 77 58 56 59 57 60 65 61 58 62 64 63 59 64 60 65
REMARK SMILES IDX 61 66 62 67 63 68 6 69 7 70 8 71 9 72 10 74 11 75 12 76
REMARK SMILES IDX 29 77 13 78 28 79 30 80 14 81 15 82 16 83 17 85 18 86 19 87
REMARK SMILES IDX 26 88 20 89 25 90 27 91 21 92 22 93 23 94 24 95
REMARK H PARENT 3 6 84 24 54 35 8 73 15 84
REMARK Flexibility Score: inf
ROOT
ATOM      1  C   UNL A   1      35.555  23.862  26.051  1.00  0.00     0.023 C 
ENDROOT
BRANCH   1   2
ATOM      2  C   UNL A   1      36.700  23.866  25.050  1.00  0.00     0.116 C 
BRANCH   2   3
ATOM      3  N   UNL A   1      37.696  22.833  25.289  1.00  0.00    -0.352 N 
ATOM      4  O   UNL A   1      39.640  21.956  26.034  1.00  0.00    -0.269 OA
ATOM      5  C   UNL A   1      38.870  22.912  26.009  1.00  0.00     0.251 C 
ATOM      6  H   UNL A   1      37.507  21.958  24.881  1.00  0.00     0.163 HD
BRANCH   5   7
ATOM      7  C   UNL A   1      39.215  24.169  26.714  1.00  0.00     0.039 A 
ATOM      8  C   UNL A   1      39.984  25.147  26.085  1.00  0.00     0.014 A 
ATOM      9  C   UNL A   1      38.793  24.353  28.035  1.00  0.00     0.014 A 
ATOM     10  C   UNL A   1      40.482  26.211  26.826  1.00  0.00     0.010 A 
ATOM     11  C   UNL A   1      39.214  25.481  28.750  1.00  0.00     0.010 A 
ATOM     12  C   UNL A   1      40.098  26.399  28.165  1.00  0.00    -0.014 A 
BRANCH  12  13
ATOM     13  C   UNL A   1      40.604  27.595  28.888  1.00  0.00     0.031 A 
ATOM     14  C   UNL A   1      42.036  27.700  29.343  1.00  0.00     0.074 A 
ATOM     15  C   UNL A   1      39.765  28.637  29.061  1.00  0.00     0.049 A 
ATOM     16  N   UNL A   1      42.648  28.720  29.892  1.00  0.00    -0.248 NA
ATOM     17  C   UNL A   1      42.892  26.516  29.167  1.00  0.00     0.031 C 
ATOM     18  C   UNL A   1      38.348  28.646  28.683  1.00  0.00     0.029 A 
ATOM     19  N   UNL A   1      39.984  29.897  29.551  1.00  0.00    -0.354 N 
ATOM     20  C   UNL A   1      43.951  28.300  30.140  1.00  0.00     0.074 A 
ATOM     21  C   UNL A   1      44.036  26.923  29.703  1.00  0.00     0.031 C 
ATOM     22  C   UNL A   1      37.846  29.872  28.886  1.00  0.00     0.029 A 
ATOM     23  C   UNL A   1      38.884  30.717  29.463  1.00  0.00     0.049 A 
ATOM     24  H   UNL A   1      40.845  30.188  29.930  1.00  0.00     0.167 HD
ATOM     25  C   UNL A   1      44.981  29.000  30.675  1.00  0.00     0.031 A 
ATOM     26  C   UNL A   1      38.719  32.007  29.808  1.00  0.00     0.031 A 
ATOM     27  C   UNL A   1      44.894  30.371  31.109  1.00  0.00     0.049 A 
ATOM     28  C   UNL A   1      39.881  32.762  30.382  1.00  0.00     0.074 A 
ATOM     29  C   UNL A   1      45.885  31.165  31.664  1.00  0.00     0.029 A 
ATOM     30  N   UNL A   1      43.754  31.157  31.028  1.00  0.00    -0.354 N 
ATOM     31  N   UNL A   1      41.105  32.343  30.599  1.00  0.00    -0.248 NA
ATOM     32  C   UNL A   1      39.641  34.161  30.756  1.00  0.00     0.031 C 
ATOM     33  C   UNL A   1      45.334  32.420  31.951  1.00  0.00     0.029 A 
ATOM     34  C   UNL A   1      44.013  32.422  31.533  1.00  0.00     0.049 A 
ATOM     35  H   UNL A   1      42.888  30.861  30.667  1.00  0.00     0.167 HD
ATOM     36  C   UNL A   1      41.781  33.427  31.144  1.00  0.00     0.074 A 
ATOM     37  C   UNL A   1      40.840  34.530  31.183  1.00  0.00     0.031 C 
ATOM     38  C   UNL A   1      43.060  33.500  31.586  1.00  0.00     0.031 A 
BRANCH  25  39
ATOM     39  C   UNL A   1      46.300  28.290  30.839  1.00  0.00    -0.014 A 
ATOM     40  C   UNL A   1      46.593  27.570  32.012  1.00  0.00     0.010 A 
ATOM     41  C   UNL A   1      47.229  28.284  29.782  1.00  0.00     0.010 A 
ATOM     42  C   UNL A   1      47.802  26.879  32.134  1.00  0.00     0.020 A 
ATOM     43  C   UNL A   1      48.430  27.576  29.893  1.00  0.00     0.020 A 
ATOM     44  C   UNL A   1      48.715  26.889  31.074  1.00  0.00     0.054 A 
BRANCH  44  45
ATOM     45  S   UNL A   1      50.261  25.953  31.246  1.00  0.00     0.124 S 
ATOM     46  O   UNL A   1      49.819  24.780  31.997  1.00  0.00    -0.237 OA
ATOM     47  O   UNL A   1      50.641  25.702  29.858  1.00  0.00    -0.237 OA
ATOM     48  O   UNL A   1      51.139  26.865  31.975  1.00  0.00    -0.744 OA
ENDBRANCH  44  45
ENDBRANCH  25  39
BRANCH  26  49
ATOM     49  C   UNL A   1      37.391  32.651  29.635  1.00  0.00    -0.014 A 
ATOM     50  C   UNL A   1      36.487  32.741  30.706  1.00  0.00     0.010 A 
ATOM     51  C   UNL A   1      37.039  33.208  28.391  1.00  0.00     0.010 A 
ATOM     52  C   UNL A   1      35.247  33.363  30.534  1.00  0.00     0.020 A 
ATOM     53  C   UNL A   1      35.814  33.855  28.222  1.00  0.00     0.020 A 
ATOM     54  C   UNL A   1      34.920  33.917  29.291  1.00  0.00     0.054 A 
BRANCH  54  55
ATOM     55  S   UNL A   1      33.332  34.773  29.095  1.00  0.00     0.124 S 
ATOM     56  O   UNL A   1      32.797  34.732  30.451  1.00  0.00    -0.237 OA
ATOM     57  O   UNL A   1      33.736  36.091  28.612  1.00  0.00    -0.237 OA
ATOM     58  O   UNL A   1      32.625  33.952  28.115  1.00  0.00    -0.744 OA
ENDBRANCH  54  55
ENDBRANCH  26  49
BRANCH  38  59
ATOM     59  C   UNL A   1      43.504  34.820  32.150  1.00  0.00    -0.014 A 
ATOM     60  C   UNL A   1      44.058  35.809  31.317  1.00  0.00     0.010 A 
ATOM     61  C   UNL A   1      43.370  35.074  33.526  1.00  0.00     0.010 A 
ATOM     62  C   UNL A   1      44.514  37.013  31.858  1.00  0.00     0.020 A 
ATOM     63  C   UNL A   1      43.804  36.288  34.068  1.00  0.00     0.020 A 
ATOM     64  C   UNL A   1      44.394  37.240  33.233  1.00  0.00     0.054 A 
BRANCH  64  65
ATOM     65  S   UNL A   1      44.989  38.810  33.917  1.00  0.00     0.124 S 
ATOM     66  O   UNL A   1      46.355  38.471  34.306  1.00  0.00    -0.237 OA
ATOM     67  O   UNL A   1      44.867  39.725  32.784  1.00  0.00    -0.237 OA
ATOM     68  O   UNL A   1      44.072  39.074  35.023  1.00  0.00    -0.744 OA
ENDBRANCH  64  65
ENDBRANCH  38  59
ENDBRANCH  12  13
ENDBRANCH   5   7
ENDBRANCH   2   3
ENDBRANCH   1   2
BRANCH   1  69
ATOM     69  C   UNL A   1      35.289  22.537  26.756  1.00  0.00     0.023 C 
BRANCH  69  70
ATOM     70  C   UNL A   1      33.875  22.333  27.288  1.00  0.00     0.116 C 
BRANCH  70  71
ATOM     71  N   UNL A   1      33.107  21.315  26.585  1.00  0.00    -0.352 N 
ATOM     72  C   UNL A   1      32.318  21.442  25.467  1.00  0.00     0.252 C 
ATOM     73  H   UNL A   1      33.161  20.408  26.964  1.00  0.00     0.163 HD
ATOM     74  O   UNL A   1      31.762  20.468  24.971  1.00  0.00    -0.269 OA
BRANCH  72  75
ATOM     75  C   UNL A   1      32.022  22.783  24.939  1.00  0.00     0.058 A 
ATOM     76  C   UNL A   1      32.801  23.204  23.861  1.00  0.00     0.017 A 
ATOM     77  C   UNL A   1      30.993  23.598  25.407  1.00  0.00     0.055 A 
ATOM     78  C   UNL A   1      32.454  24.360  23.163  1.00  0.00     0.027 A 
ATOM     79  C   UNL A   1      30.616  24.722  24.662  1.00  0.00     0.047 A 
ATOM     80  Cl  UNL A   1      30.134  23.267  26.867  1.00  0.00    -0.083 Cl
ATOM     81  C   UNL A   1      31.294  25.063  23.483  1.00  0.00     0.043 A 
BRANCH  81  82
ATOM     82  N   UNL A   1      30.717  26.076  22.690  1.00  0.00    -0.322 N 
ATOM     83  C   UNL A   1      30.833  27.450  22.695  1.00  0.00     0.257 C 
ATOM     84  H   UNL A   1      30.110  25.734  21.995  1.00  0.00     0.170 HD
ATOM     85  O   UNL A   1      30.184  28.130  21.902  1.00  0.00    -0.269 OA
BRANCH  83  86
ATOM     86  C   UNL A   1      31.695  28.153  23.653  1.00  0.00     0.059 A 
ATOM     87  C   UNL A   1      31.064  28.669  24.795  1.00  0.00     0.022 A 
ATOM     88  C   UNL A   1      33.083  28.266  23.492  1.00  0.00     0.060 A 
ATOM     89  C   UNL A   1      31.831  29.212  25.826  1.00  0.00     0.086 A 
ATOM     90  C   UNL A   1      33.857  28.798  24.529  1.00  0.00     0.107 A 
ATOM     91  Cl  UNL A   1      33.895  27.716  22.072  1.00  0.00    -0.083 Cl
ATOM     92  C   UNL A   1      33.227  29.246  25.701  1.00  0.00     0.270 A 
BRANCH  92  93
ATOM     93  N   UNL A   1      34.040  29.721  26.828  1.00  0.00     0.062 N 
ATOM     94  O   UNL A   1      33.742  30.816  27.326  1.00  0.00    -0.258 OA
ATOM     95  O   UNL A   1      34.959  28.991  27.218  1.00  0.00    -0.258 OA
ENDBRANCH  92  93
ENDBRANCH  83  86
ENDBRANCH  81  82
ENDBRANCH  72  75
ENDBRANCH  70  71
ENDBRANCH  69  70
ENDBRANCH   1  69
TORSDOF 17
ENDMDL
MODEL 2
REMARK VINA RESULT:     -11.0      2.561      8.277
REMARK SMILES O=C(NCCCCNC(=O)c1ccc(NC(=O)c2ccc([N+](=O)[O-])cc2Cl)cc1Cl)c1ccc(-c2c3nc(c(-c4ccc(S(=O)(=O)[O-])cc4)c4ccc([nH]4)c(-c4ccc(S(=O)(=O)[O-])cc4)c4nc(c(-c5ccc(S(=O)(=O)[O-])cc5)c5ccc2[nH]5)C=C4)C=C3)cc1
REMARK SMILES IDX 5 1 4 2 3 3 1 4 2 5 31 7 32 8 90 9 33 10 89 11 34 12 35 13
REMARK SMILES IDX 36 14 83 15 37 16 88 17 82 18 84 19 38 20 87 21 81 22 80 23
REMARK SMILES IDX 39 25 69 26 50 27 68 28 51 29 54 30 67 31 85 32 52 33 53 34
REMARK SMILES IDX 66 36 86 37 55 38 40 39 41 40 49 41 42 42 48 43 43 44 44 45
REMARK SMILES IDX 45 46 46 47 47 48 70 49 71 50 79 51 72 52 78 53 73 54 74 55
REMARK SMILES IDX 75 56 76 57 77 58 56 59 57 60 65 61 58 62 64 63 59 64 60 65
REMARK SMILES IDX 61 66 62 67 63 68 6 69 7 70 8 71 9 72 10 74 11 75 12 76
REMARK SMILES IDX 29 77 13 78 28 79 30 80 14 81 15 82 16 83 17 85 18 86 19 87
REMARK SMILES IDX 26 88 20 89 25 90 27 91 21 92 22 93 23 94 24 95
REMARK H PARENT 3 6 84 24 54 35 8 73 15 84
REMARK Flexibility Score: inf
ROOT
ATOM      1  C   UNL A   1      32.728  27.898  26.562  1.00  0.00     0.023 C 
ENDROOT
BRANCH   1   2
ATOM      2  C   UNL A   1      34.040  28.549  26.973  1.00  0.00     0.116 C 
BRANCH   2   3
ATOM      3  N   UNL A   1      33.878  29.834  27.638  1.00  0.00    -0.352 N 
ATOM      4  O   UNL A   1      34.455  31.579  28.950  1.00  0.00    -0.269 OA
ATOM      5  C   UNL A   1      34.793  30.542  28.387  1.00  0.00     0.251 C 
ATOM      6  H   UNL A   1      32.994  30.255  27.539  1.00  0.00     0.163 HD
BRANCH   5   7
ATOM      7  C   UNL A   1      36.173  30.024  28.542  1.00  0.00     0.039 A 
ATOM      8  C   UNL A   1      36.601  29.501  29.762  1.00  0.00     0.014 A 
ATOM      9  C   UNL A   1      37.059  30.097  27.462  1.00  0.00     0.014 A 
ATOM     10  C   UNL A   1      37.949  29.226  29.956  1.00  0.00     0.010 A 
ATOM     11  C   UNL A   1      38.398  29.721  27.633  1.00  0.00     0.010 A 
ATOM     12  C   UNL A   1      38.865  29.324  28.894  1.00  0.00    -0.014 A 
BRANCH  12  13
ATOM     13  C   UNL A   1      40.282  28.947  29.141  1.00  0.00     0.031 A 
ATOM     14  C   UNL A   1      40.826  27.602  28.738  1.00  0.00     0.074 A 
ATOM     15  C   UNL A   1      41.105  29.877  29.667  1.00  0.00     0.049 A 
ATOM     16  N   UNL A   1      42.061  27.169  28.793  1.00  0.00    -0.248 NA
ATOM     17  C   UNL A   1      39.871  26.614  28.211  1.00  0.00     0.031 C 
ATOM     18  C   UNL A   1      40.689  31.209  30.117  1.00  0.00     0.029 A 
ATOM     19  N   UNL A   1      42.460  29.867  29.869  1.00  0.00    -0.354 N 
ATOM     20  C   UNL A   1      42.032  25.860  28.325  1.00  0.00     0.074 A 
ATOM     21  C   UNL A   1      40.651  25.559  28.011  1.00  0.00     0.031 C 
ATOM     22  C   UNL A   1      41.774  31.912  30.473  1.00  0.00     0.029 A 
ATOM     23  C   UNL A   1      42.952  31.065  30.334  1.00  0.00     0.049 A 
ATOM     24  H   UNL A   1      43.027  29.081  29.699  1.00  0.00     0.167 HD
ATOM     25  C   UNL A   1      43.061  24.992  28.166  1.00  0.00     0.031 A 
ATOM     26  C   UNL A   1      44.210  31.446  30.620  1.00  0.00     0.031 A 
ATOM     27  C   UNL A   1      44.435  25.294  28.478  1.00  0.00     0.049 A 
ATOM     28  C   UNL A   1      45.331  30.471  30.418  1.00  0.00     0.074 A 
ATOM     29  C   UNL A   1      45.548  24.478  28.350  1.00  0.00     0.029 A 
ATOM     30  N   UNL A   1      44.887  26.508  28.973  1.00  0.00    -0.354 N 
ATOM     31  N   UNL A   1      45.277  29.241  29.966  1.00  0.00    -0.248 NA
ATOM     32  C   UNL A   1      46.680  30.934  30.762  1.00  0.00     0.031 C 
ATOM     33  C   UNL A   1      46.667  25.188  28.800  1.00  0.00     0.029 A 
ATOM     34  C   UNL A   1      46.259  26.460  29.166  1.00  0.00     0.049 A 
ATOM     35  H   UNL A   1      44.318  27.288  29.161  1.00  0.00     0.167 HD
ATOM     36  C   UNL A   1      46.586  28.779  29.979  1.00  0.00     0.074 A 
ATOM     37  C   UNL A   1      47.413  29.877  30.444  1.00  0.00     0.031 C 
ATOM     38  C   UNL A   1      47.062  27.553  29.651  1.00  0.00     0.031 A 
BRANCH  25  39
ATOM     39  C   UNL A   1      42.743  23.617  27.638  1.00  0.00    -0.014 A 
ATOM     40  C   UNL A   1      42.859  23.323  26.267  1.00  0.00     0.010 A 
ATOM     41  C   UNL A   1      42.393  22.586  28.531  1.00  0.00     0.010 A 
ATOM     42  C   UNL A   1      42.604  22.032  25.796  1.00  0.00     0.020 A 
ATOM     43  C   UNL A   1      42.158  21.289  28.065  1.00  0.00     0.020 A 
ATOM     44  C   UNL A   1      42.252  21.023  26.698  1.00  0.00     0.054 A 
BRANCH  44  45
ATOM     45  S   UNL A   1      41.963  19.347  26.063  1.00  0.00     0.124 S 
ATOM     46  O   UNL A   1      42.884  19.292  24.930  1.00  0.00    -0.237 OA
ATOM     47  O   UNL A   1      42.320  18.505  27.202  1.00  0.00    -0.237 OA
ATOM     48  O   UNL A   1      40.544  19.349  25.714  1.00  0.00    -0.744 OA
ENDBRANCH  44  45
ENDBRANCH  25  39
BRANCH  26  49
ATOM     49  C   UNL A   1      44.462  32.812  31.149  1.00  0.00    -0.014 A 
ATOM     50  C   UNL A   1      44.451  33.064  32.531  1.00  0.00     0.010 A 
ATOM     51  C   UNL A   1      44.745  33.866  30.262  1.00  0.00     0.010 A 
ATOM     52  C   UNL A   1      44.705  34.351  33.017  1.00  0.00     0.020 A 
ATOM     53  C   UNL A   1      45.027  35.146  30.742  1.00  0.00     0.020 A 
ATOM     54  C   UNL A   1      44.992  35.383  32.117  1.00  0.00     0.054 A 
BRANCH  54  55
ATOM     55  S   UNL A   1      45.377  37.035  32.761  1.00  0.00     0.124 S 
ATOM     56  O   UNL A   1      46.413  36.742  33.745  1.00  0.00    -0.237 OA
ATOM     57  O   UNL A   1      45.822  37.749  31.567  1.00  0.00    -0.237 OA
ATOM     58  O   UNL A   1      44.101  37.490  33.308  1.00  0.00    -0.744 OA
ENDBRANCH  54  55
ENDBRANCH  26  49
BRANCH  38  59
ATOM     59  C   UNL A   1      48.543  27.345  29.789  1.00  0.00    -0.014 A 
ATOM     60  C   UNL A   1      49.085  26.783  30.961  1.00  0.00     0.010 A 
ATOM     61  C   UNL A   1      49.404  27.716  28.741  1.00  0.00     0.010 A 
ATOM     62  C   UNL A   1      50.467  26.640  31.100  1.00  0.00     0.020 A 
ATOM     63  C   UNL A   1      50.786  27.552  28.869  1.00  0.00     0.020 A 
ATOM     64  C   UNL A   1      51.310  27.035  30.056  1.00  0.00     0.054 A 
BRANCH  64  65
ATOM     65  S   UNL A   1      53.101  26.839  30.255  1.00  0.00     0.124 S 
ATOM     66  O   UNL A   1      53.496  26.326  28.947  1.00  0.00    -0.237 OA
ATOM     67  O   UNL A   1      53.545  28.198  30.558  1.00  0.00    -0.237 OA
ATOM     68  O   UNL A   1      53.223  25.892  31.360  1.00  0.00    -0.744 OA
ENDBRANCH  64  65
ENDBRANCH  38  59
ENDBRANCH  12  13
ENDBRANCH   5   7
ENDBRANCH   2   3
ENDBRANCH   1   2
BRANCH   1  69
ATOM     69  C   UNL A   1      32.842  26.558  25.846  1.00  0.00     0.023 C 
BRANCH  69  70
ATOM     70  C   UNL A   1      33.847  26.493  24.702  1.00  0.00     0.116 C 
BRANCH  70  71
ATOM     71  N   UNL A   1      33.322  26.922  23.413  1.00  0.00    -0.352 N 
ATOM     72  C   UNL A   1      32.482  26.256  22.555  1.00  0.00     0.252 C 
ATOM     73  H   UNL A   1      33.610  27.815  23.115  1.00  0.00     0.163 HD
ATOM     74  O   UNL A   1      32.098  26.777  21.513  1.00  0.00    -0.269 OA
BRANCH  72  75
ATOM     75  C   UNL A   1      32.147  24.847  22.817  1.00  0.00     0.058 A 
ATOM     76  C   UNL A   1      33.018  23.898  22.280  1.00  0.00     0.017 A 
ATOM     77  C   UNL A   1      31.074  24.432  23.603  1.00  0.00     0.055 A 
ATOM     78  C   UNL A   1      32.903  22.560  22.654  1.00  0.00     0.027 A 
ATOM     79  C   UNL A   1      31.006  23.097  24.021  1.00  0.00     0.047 A 
ATOM     80  Cl  UNL A   1      29.823  25.506  24.114  1.00  0.00    -0.083 Cl
ATOM     81  C   UNL A   1      31.974  22.167  23.616  1.00  0.00     0.043 A 
BRANCH  81  82
ATOM     82  N   UNL A   1      31.949  20.909  24.250  1.00  0.00    -0.322 N 
ATOM     83  C   UNL A   1      32.843  20.254  25.071  1.00  0.00     0.257 C 
ATOM     84  H   UNL A   1      31.129  20.393  24.071  1.00  0.00     0.170 HD
ATOM     85  O   UNL A   1      32.597  19.120  25.478  1.00  0.00    -0.269 OA
BRANCH  83  86
ATOM     86  C   UNL A   1      34.124  20.857  25.461  1.00  0.00     0.059 A 
ATOM     87  C   UNL A   1      35.275  20.306  24.878  1.00  0.00     0.022 A 
ATOM     88  C   UNL A   1      34.218  21.962  26.318  1.00  0.00     0.060 A 
ATOM     89  C   UNL A   1      36.513  20.918  25.072  1.00  0.00     0.086 A 
ATOM     90  C   UNL A   1      35.456  22.586  26.506  1.00  0.00     0.107 A 
ATOM     91  Cl  UNL A   1      32.843  22.629  27.120  1.00  0.00    -0.083 Cl
ATOM     92  C   UNL A   1      36.593  22.074  25.861  1.00  0.00     0.270 A 
BRANCH  92  93
ATOM     93  N   UNL A   1      37.876  22.777  25.981  1.00  0.00     0.062 N 
ATOM     94  O   UNL A   1      37.845  24.011  26.081  1.00  0.00    -0.258 OA
ATOM     95  O   UNL A   1      38.906  22.091  25.990  1.00  0.00    -0.258 OA
ENDBRANCH  92  93
ENDBRANCH  83  86
ENDBRANCH  81  82
ENDBRANCH  72  75
ENDBRANCH  70  71
ENDBRANCH  69  70
ENDBRANCH   1  69
TORSDOF 17
ENDMDL
MODEL 3
REMARK VINA RESULT:     -10.9      2.581      8.136
REMARK SMILES O=C(NCCCCNC(=O)c1ccc(NC(=O)c2ccc([N+](=O)[O-])cc2Cl)cc1Cl)c1ccc(-c2c3nc(c(-c4ccc(S(=O)(=O)[O-])cc4)c4ccc([nH]4)c(-c4ccc(S(=O)(=O)[O-])cc4)c4nc(c(-c5ccc(S(=O)(=O)[O-])cc5)c5ccc2[nH]5)C=C4)C=C3)cc1
REMARK SMILES IDX 5 1 4 2 3 3 1 4 2 5 31 7 32 8 90 9 33 10 89 11 34 12 35 13
REMARK SMILES IDX 36 14 83 15 37 16 88 17 82 18 84 19 38 20 87 21 81 22 80 23
REMARK SMILES IDX 39 25 69 26 50 27 68 28 51 29 54 30 67 31 85 32 52 33 53 34
REMARK SMILES IDX 66 36 86 37 55 38 40 39 41 40 49 41 42 42 48 43 43 44 44 45
REMARK SMILES IDX 45 46 46 47 47 48 70 49 71 50 79 51 72 52 78 53 73 54 74 55
REMARK SMILES IDX 75 56 76 57 77 58 56 59 57 60 65 61 58 62 64 63 59 64 60 65
REMARK SMILES IDX 61 66 62 67 63 68 6 69 7 70 8 71 9 72 10 74 11 75 12 76
REMARK SMILES IDX 29 77 13 78 28 79 30 80 14 81 15 82 16 83 17 85 18 86 19 87
REMARK SMILES IDX 26 88 20 89 25 90 27 91 21 92 22 93 23 94 24 95
REMARK H PARENT 3 6 84 24 54 35 8 73 15 84
REMARK Flexibility Score: inf
ROOT
ATOM      1  C   UNL A   1      33.907  27.643  24.948  1.00  0.00     0.023 C 
ENDROOT
BRANCH   1   2
ATOM      2  C   UNL A   1      34.813  28.257  26.004  1.00  0.00     0.116 C 
BRANCH   2   3
ATOM      3  N   UNL A   1      34.228  29.399  26.691  1.00  0.00    -0.352 N 
ATOM      4  O   UNL A   1      34.103  31.071  28.205  1.00  0.00    -0.269 OA
ATOM      5  C   UNL A   1      34.779  30.195  27.672  1.00  0.00     0.251 C 
ATOM      6  H   UNL A   1      33.312  29.635  26.418  1.00  0.00     0.163 HD
BRANCH   5   7
ATOM      7  C   UNL A   1      36.176  29.961  28.108  1.00  0.00     0.039 A 
ATOM      8  C   UNL A   1      37.241  30.219  27.246  1.00  0.00     0.014 A 
ATOM      9  C   UNL A   1      36.419  29.440  29.384  1.00  0.00     0.014 A 
ATOM     10  C   UNL A   1      38.518  29.789  27.583  1.00  0.00     0.010 A 
ATOM     11  C   UNL A   1      37.725  29.102  29.761  1.00  0.00     0.010 A 
ATOM     12  C   UNL A   1      38.781  29.233  28.848  1.00  0.00    -0.014 A 
BRANCH  12  13
ATOM     13  C   UNL A   1      40.180  28.858  29.182  1.00  0.00     0.031 A 
ATOM     14  C   UNL A   1      40.760  27.526  28.786  1.00  0.00     0.074 A 
ATOM     15  C   UNL A   1      40.958  29.779  29.786  1.00  0.00     0.049 A 
ATOM     16  N   UNL A   1      41.991  27.099  28.916  1.00  0.00    -0.248 NA
ATOM     17  C   UNL A   1      39.851  26.547  28.171  1.00  0.00     0.031 C 
ATOM     18  C   UNL A   1      40.503  31.098  30.239  1.00  0.00     0.029 A 
ATOM     19  N   UNL A   1      42.297  29.772  30.081  1.00  0.00    -0.354 N 
ATOM     20  C   UNL A   1      42.004  25.801  28.415  1.00  0.00     0.074 A 
ATOM     21  C   UNL A   1      40.650  25.501  28.000  1.00  0.00     0.031 C 
ATOM     22  C   UNL A   1      41.556  31.798  30.685  1.00  0.00     0.029 A 
ATOM     23  C   UNL A   1      42.747  30.960  30.607  1.00  0.00     0.049 A 
ATOM     24  H   UNL A   1      42.879  28.993  29.932  1.00  0.00     0.167 HD
ATOM     25  C   UNL A   1      43.047  24.943  28.307  1.00  0.00     0.031 A 
ATOM     26  C   UNL A   1      43.979  31.342  30.988  1.00  0.00     0.031 A 
ATOM     27  C   UNL A   1      44.394  25.244  28.721  1.00  0.00     0.049 A 
ATOM     28  C   UNL A   1      45.118  30.377  30.841  1.00  0.00     0.074 A 
ATOM     29  C   UNL A   1      45.519  24.438  28.650  1.00  0.00     0.029 A 
ATOM     30  N   UNL A   1      44.803  26.448  29.274  1.00  0.00    -0.354 N 
ATOM     31  N   UNL A   1      45.104  29.158  30.357  1.00  0.00    -0.248 NA
ATOM     32  C   UNL A   1      46.438  30.840  31.288  1.00  0.00     0.031 C 
ATOM     33  C   UNL A   1      46.600  25.143  29.193  1.00  0.00     0.029 A 
ATOM     34  C   UNL A   1      46.158  26.403  29.560  1.00  0.00     0.049 A 
ATOM     35  H   UNL A   1      44.217  27.221  29.442  1.00  0.00     0.167 HD
ATOM     36  C   UNL A   1      46.413  28.703  30.449  1.00  0.00     0.074 A 
ATOM     37  C   UNL A   1      47.198  29.794  30.996  1.00  0.00     0.031 C 
ATOM     38  C   UNL A   1      46.918  27.488  30.125  1.00  0.00     0.031 A 
BRANCH  25  39
ATOM     39  C   UNL A   1      42.776  23.580  27.726  1.00  0.00    -0.014 A 
ATOM     40  C   UNL A   1      42.999  23.317  26.362  1.00  0.00     0.010 A 
ATOM     41  C   UNL A   1      42.360  22.529  28.566  1.00  0.00     0.010 A 
ATOM     42  C   UNL A   1      42.786  22.036  25.844  1.00  0.00     0.020 A 
ATOM     43  C   UNL A   1      42.166  21.242  28.054  1.00  0.00     0.020 A 
ATOM     44  C   UNL A   1      42.368  21.006  26.693  1.00  0.00     0.054 A 
BRANCH  44  45
ATOM     45  S   UNL A   1      42.135  19.344  26.001  1.00  0.00     0.124 S 
ATOM     46  O   UNL A   1      42.587  18.496  27.102  1.00  0.00    -0.237 OA
ATOM     47  O   UNL A   1      40.700  19.307  25.729  1.00  0.00    -0.237 OA
ATOM     48  O   UNL A   1      42.991  19.338  24.818  1.00  0.00    -0.744 OA
ENDBRANCH  44  45
ENDBRANCH  25  39
BRANCH  26  49
ATOM     49  C   UNL A   1      44.185  32.695  31.566  1.00  0.00    -0.014 A 
ATOM     50  C   UNL A   1      44.131  32.904  32.955  1.00  0.00     0.010 A 
ATOM     51  C   UNL A   1      44.467  33.783  30.720  1.00  0.00     0.010 A 
ATOM     52  C   UNL A   1      44.341  34.180  33.486  1.00  0.00     0.020 A 
ATOM     53  C   UNL A   1      44.706  35.053  31.247  1.00  0.00     0.020 A 
ATOM     54  C   UNL A   1      44.628  35.246  32.627  1.00  0.00     0.054 A 
BRANCH  54  55
ATOM     55  S   UNL A   1      44.957  36.885  33.332  1.00  0.00     0.124 S 
ATOM     56  O   UNL A   1      45.222  37.680  32.138  1.00  0.00    -0.237 OA
ATOM     57  O   UNL A   1      43.711  37.190  34.032  1.00  0.00    -0.237 OA
ATOM     58  O   UNL A   1      46.108  36.654  34.202  1.00  0.00    -0.744 OA
ENDBRANCH  54  55
ENDBRANCH  26  49
BRANCH  38  59
ATOM     59  C   UNL A   1      48.388  27.285  30.360  1.00  0.00    -0.014 A 
ATOM     60  C   UNL A   1      48.852  26.703  31.555  1.00  0.00     0.010 A 
ATOM     61  C   UNL A   1      49.316  27.681  29.381  1.00  0.00     0.010 A 
ATOM     62  C   UNL A   1      50.222  26.564  31.785  1.00  0.00     0.020 A 
ATOM     63  C   UNL A   1      50.687  27.521  29.599  1.00  0.00     0.020 A 
ATOM     64  C   UNL A   1      51.132  26.984  30.810  1.00  0.00     0.054 A 
BRANCH  64  65
ATOM     65  S   UNL A   1      52.907  26.792  31.127  1.00  0.00     0.124 S 
ATOM     66  O   UNL A   1      52.916  25.824  32.219  1.00  0.00    -0.237 OA
ATOM     67  O   UNL A   1      53.414  26.302  29.847  1.00  0.00    -0.237 OA
ATOM     68  O   UNL A   1      53.340  28.141  31.484  1.00  0.00    -0.744 OA
ENDBRANCH  64  65
ENDBRANCH  38  59
ENDBRANCH  12  13
ENDBRANCH   5   7
ENDBRANCH   2   3
ENDBRANCH   1   2
BRANCH   1  69
ATOM     69  C   UNL A   1      34.019  28.233  23.547  1.00  0.00     0.023 C 
BRANCH  69  70
ATOM     70  C   UNL A   1      33.375  27.425  22.426  1.00  0.00     0.116 C 
BRANCH  70  71
ATOM     71  N   UNL A   1      32.101  27.953  21.958  1.00  0.00    -0.352 N 
ATOM     72  C   UNL A   1      30.862  27.878  22.546  1.00  0.00     0.252 C 
ATOM     73  H   UNL A   1      32.133  28.432  21.098  1.00  0.00     0.163 HD
ATOM     74  O   UNL A   1      29.885  28.415  22.035  1.00  0.00    -0.269 OA
BRANCH  72  75
ATOM     75  C   UNL A   1      30.674  27.026  23.731  1.00  0.00     0.058 A 
ATOM     76  C   UNL A   1      30.376  25.686  23.484  1.00  0.00     0.017 A 
ATOM     77  C   UNL A   1      30.837  27.466  25.043  1.00  0.00     0.055 A 
ATOM     78  C   UNL A   1      30.393  24.766  24.531  1.00  0.00     0.027 A 
ATOM     79  C   UNL A   1      30.913  26.525  26.078  1.00  0.00     0.047 A 
ATOM     80  Cl  UNL A   1      30.978  29.137  25.455  1.00  0.00    -0.083 Cl
ATOM     81  C   UNL A   1      30.776  25.155  25.813  1.00  0.00     0.043 A 
BRANCH  81  82
ATOM     82  N   UNL A   1      31.077  24.273  26.871  1.00  0.00    -0.322 N 
ATOM     83  C   UNL A   1      32.095  23.364  27.073  1.00  0.00     0.257 C 
ATOM     84  H   UNL A   1      30.431  24.312  27.613  1.00  0.00     0.170 HD
ATOM     85  O   UNL A   1      32.117  22.672  28.090  1.00  0.00    -0.269 OA
BRANCH  83  86
ATOM     86  C   UNL A   1      33.161  23.160  26.084  1.00  0.00     0.059 A 
ATOM     87  C   UNL A   1      34.189  24.114  26.071  1.00  0.00     0.022 A 
ATOM     88  C   UNL A   1      33.207  22.050  25.229  1.00  0.00     0.060 A 
ATOM     89  C   UNL A   1      35.315  23.911  25.273  1.00  0.00     0.086 A 
ATOM     90  C   UNL A   1      34.339  21.836  24.436  1.00  0.00     0.107 A 
ATOM     91  Cl  UNL A   1      31.931  20.890  25.153  1.00  0.00    -0.083 Cl
ATOM     92  C   UNL A   1      35.399  22.757  24.481  1.00  0.00     0.270 A 
BRANCH  92  93
ATOM     93  N   UNL A   1      36.627  22.491  23.723  1.00  0.00     0.062 N 
ATOM     94  O   UNL A   1      36.788  23.110  22.662  1.00  0.00    -0.258 OA
ATOM     95  O   UNL A   1      37.430  21.679  24.199  1.00  0.00    -0.258 OA
ENDBRANCH  92  93
ENDBRANCH  83  86
ENDBRANCH  81  82
ENDBRANCH  72  75
ENDBRANCH  70  71
ENDBRANCH  69  70
ENDBRANCH   1  69
TORSDOF 17
ENDMDL
