MODEL 1
REMARK VINA RESULT:     -11.2      0.000      0.000
REMARK SMILES O=C(CCC(=O)Nc1ccc2nc(-c3ccccc3)oc2c1)NCCCCNC(=O)c1ccc(-c2c3nc(c(-c4ccc(S(=O)(=O)[O-])cc4)c4ccc([nH]4)c(-c4ccc(S(=O)(=O)[O-])cc4)c4nc(c(-c5ccc(S(=O)(=O)[O-])cc5)c5ccc2[nH]5)C=C4)C=C3)cc1
REMARK SMILES IDX 25 1 24 2 23 3 1 4 2 5 3 7 4 8 5 9 6 10 7 11 8 13 9 14 22 15
REMARK SMILES IDX 10 16 21 17 11 18 20 19 12 20 13 21 14 22 15 23 19 24 16 25
REMARK SMILES IDX 18 26 17 27 26 28 27 29 28 30 29 31 30 33 31 34 32 35 90 36
REMARK SMILES IDX 33 37 89 38 34 39 35 40 36 41 83 42 37 43 88 44 82 45 84 46
REMARK SMILES IDX 38 47 87 48 81 49 80 50 39 52 69 53 50 54 68 55 51 56 54 57
REMARK SMILES IDX 67 58 85 59 52 60 53 61 66 63 86 64 55 65 40 66 41 67 49 68
REMARK SMILES IDX 42 69 48 70 43 71 44 72 45 73 46 74 47 75 70 76 71 77 79 78
REMARK SMILES IDX 72 79 78 80 73 81 74 82 75 83 76 84 77 85 56 86 57 87 65 88
REMARK SMILES IDX 58 89 64 90 59 91 60 92 61 93 62 94 63 95
REMARK H PARENT 23 6 7 12 28 32 84 51 54 62
REMARK Flexibility Score: inf
ROOT
ATOM      1  C   UNL A   1      31.784  27.824  26.488  1.00  0.00     0.023 C 
ENDROOT
BRANCH   1   2
ATOM      2  C   UNL A   1      31.439  26.339  26.512  1.00  0.00     0.116 C 
BRANCH   2   3
ATOM      3  N   UNL A   1      32.549  25.457  26.196  1.00  0.00    -0.356 N 
ATOM      4  O   UNL A   1      31.711  23.603  27.269  1.00  0.00    -0.275 OA
ATOM      5  C   UNL A   1      32.529  24.117  26.512  1.00  0.00     0.220 C 
ATOM      6  H   UNL A   1      33.340  25.829  25.740  1.00  0.00     0.163 HD
BRANCH   5   7
ATOM      7  C   UNL A   1      33.560  23.279  25.782  1.00  0.00     0.110 C 
BRANCH   7   8
ATOM      8  C   UNL A   1      34.484  24.067  24.852  1.00  0.00     0.110 C 
BRANCH   8   9
ATOM      9  C   UNL A   1      34.403  23.657  23.401  1.00  0.00     0.224 C 
ATOM     10  O   UNL A   1      35.387  23.116  22.880  1.00  0.00    -0.275 OA
ATOM     11  N   UNL A   1      33.324  23.867  22.595  1.00  0.00    -0.326 N 
ATOM     12  H   UNL A   1      33.334  23.302  21.789  1.00  0.00     0.169 HD
BRANCH  11  13
ATOM     13  C   UNL A   1      32.197  24.714  22.656  1.00  0.00     0.045 A 
ATOM     14  C   UNL A   1      30.949  24.323  23.148  1.00  0.00     0.028 A 
ATOM     15  C   UNL A   1      32.418  26.070  22.327  1.00  0.00     0.075 A 
ATOM     16  C   UNL A   1      29.960  25.246  23.503  1.00  0.00     0.034 A 
ATOM     17  C   UNL A   1      31.390  26.959  22.643  1.00  0.00     0.157 A 
ATOM     18  C   UNL A   1      30.210  26.588  23.267  1.00  0.00     0.110 A 
ATOM     19  O   UNL A   1      31.324  28.310  22.418  1.00  0.00    -0.436 OA
ATOM     20  N   UNL A   1      29.444  27.677  23.530  1.00  0.00    -0.209 NA
ATOM     21  C   UNL A   1      30.108  28.658  22.955  1.00  0.00     0.227 A 
BRANCH  21  22
ATOM     22  C   UNL A   1      29.575  29.975  22.670  1.00  0.00     0.037 A 
ATOM     23  C   UNL A   1      29.209  30.821  23.724  1.00  0.00     0.014 A 
ATOM     24  C   UNL A   1      29.184  30.292  21.363  1.00  0.00     0.014 A 
ATOM     25  C   UNL A   1      28.431  31.952  23.480  1.00  0.00     0.001 A 
ATOM     26  C   UNL A   1      28.390  31.413  21.122  1.00  0.00     0.001 A 
ATOM     27  C   UNL A   1      28.006  32.236  22.182  1.00  0.00     0.000 A 
ENDBRANCH  21  22
ENDBRANCH  11  13
ENDBRANCH   8   9
ENDBRANCH   7   8
ENDBRANCH   5   7
ENDBRANCH   2   3
ENDBRANCH   1   2
BRANCH   1  28
ATOM     28  C   UNL A   1      33.215  28.173  26.902  1.00  0.00     0.023 C 
BRANCH  28  29
ATOM     29  C   UNL A   1      33.885  29.280  26.092  1.00  0.00     0.116 C 
BRANCH  29  30
ATOM     30  N   UNL A   1      33.674  30.607  26.655  1.00  0.00    -0.352 N 
ATOM     31  C   UNL A   1      34.353  31.257  27.660  1.00  0.00     0.251 C 
ATOM     32  H   UNL A   1      32.933  31.116  26.254  1.00  0.00     0.163 HD
ATOM     33  O   UNL A   1      33.912  32.317  28.105  1.00  0.00    -0.269 OA
BRANCH  31  34
ATOM     34  C   UNL A   1      35.589  30.679  28.235  1.00  0.00     0.039 A 
ATOM     35  C   UNL A   1      36.828  31.098  27.743  1.00  0.00     0.014 A 
ATOM     36  C   UNL A   1      35.535  29.725  29.255  1.00  0.00     0.014 A 
ATOM     37  C   UNL A   1      38.007  30.630  28.335  1.00  0.00     0.010 A 
ATOM     38  C   UNL A   1      36.706  29.326  29.898  1.00  0.00     0.010 A 
ATOM     39  C   UNL A   1      37.957  29.778  29.450  1.00  0.00    -0.014 A 
BRANCH  39  40
ATOM     40  C   UNL A   1      39.194  29.371  30.174  1.00  0.00     0.031 A 
ATOM     41  C   UNL A   1      39.630  30.102  31.417  1.00  0.00     0.074 A 
ATOM     42  C   UNL A   1      39.966  28.384  29.675  1.00  0.00     0.049 A 
ATOM     43  N   UNL A   1      40.708  29.928  32.141  1.00  0.00    -0.248 NA
ATOM     44  C   UNL A   1      38.755  31.183  31.898  1.00  0.00     0.031 C 
ATOM     45  C   UNL A   1      39.684  27.622  28.455  1.00  0.00     0.029 A 
ATOM     46  N   UNL A   1      41.153  27.857  30.124  1.00  0.00    -0.354 N 
ATOM     47  C   UNL A   1      40.646  30.882  33.151  1.00  0.00     0.074 A 
ATOM     48  C   UNL A   1      39.453  31.667  32.913  1.00  0.00     0.031 C 
ATOM     49  C   UNL A   1      40.653  26.712  28.269  1.00  0.00     0.029 A 
ATOM     50  C   UNL A   1      41.651  26.853  29.325  1.00  0.00     0.049 A 
ATOM     51  H   UNL A   1      41.604  28.168  30.942  1.00  0.00     0.167 HD
ATOM     52  C   UNL A   1      41.490  31.076  34.192  1.00  0.00     0.031 A 
ATOM     53  C   UNL A   1      42.787  26.132  29.419  1.00  0.00     0.031 A 
ATOM     54  C   UNL A   1      42.677  30.296  34.428  1.00  0.00     0.049 A 
ATOM     55  C   UNL A   1      43.722  26.382  30.571  1.00  0.00     0.074 A 
ATOM     56  C   UNL A   1      43.570  30.387  35.481  1.00  0.00     0.029 A 
ATOM     57  N   UNL A   1      43.140  29.285  33.598  1.00  0.00    -0.354 N 
ATOM     58  N   UNL A   1      43.610  27.246  31.552  1.00  0.00    -0.248 NA
ATOM     59  C   UNL A   1      44.932  25.551  30.636  1.00  0.00     0.031 C 
ATOM     60  C   UNL A   1      44.606  29.474  35.258  1.00  0.00     0.029 A 
ATOM     61  C   UNL A   1      44.322  28.764  34.102  1.00  0.00     0.049 A 
ATOM     62  H   UNL A   1      42.696  28.984  32.773  1.00  0.00     0.167 HD
ATOM     63  C   UNL A   1      44.720  27.042  32.365  1.00  0.00     0.074 A 
ATOM     64  C   UNL A   1      45.481  25.963  31.771  1.00  0.00     0.031 C 
ATOM     65  C   UNL A   1      45.074  27.690  33.503  1.00  0.00     0.031 A 
BRANCH  52  66
ATOM     66  C   UNL A   1      41.162  32.188  35.158  1.00  0.00    -0.014 A 
ATOM     67  C   UNL A   1      41.650  33.493  34.958  1.00  0.00     0.010 A 
ATOM     68  C   UNL A   1      40.320  31.936  36.257  1.00  0.00     0.010 A 
ATOM     69  C   UNL A   1      41.343  34.512  35.864  1.00  0.00     0.020 A 
ATOM     70  C   UNL A   1      39.983  32.961  37.148  1.00  0.00     0.020 A 
ATOM     71  C   UNL A   1      40.513  34.238  36.955  1.00  0.00     0.054 A 
BRANCH  71  72
ATOM     72  S   UNL A   1      40.119  35.585  38.103  1.00  0.00     0.124 S 
ATOM     73  O   UNL A   1      38.911  35.084  38.752  1.00  0.00    -0.237 OA
ATOM     74  O   UNL A   1      41.308  35.643  38.949  1.00  0.00    -0.237 OA
ATOM     75  O   UNL A   1      39.922  36.739  37.230  1.00  0.00    -0.744 OA
ENDBRANCH  71  72
ENDBRANCH  52  66
BRANCH  53  76
ATOM     76  C   UNL A   1      43.098  25.099  28.392  1.00  0.00    -0.014 A 
ATOM     77  C   UNL A   1      42.642  23.778  28.542  1.00  0.00     0.010 A 
ATOM     78  C   UNL A   1      43.846  25.437  27.248  1.00  0.00     0.010 A 
ATOM     79  C   UNL A   1      42.942  22.810  27.578  1.00  0.00     0.020 A 
ATOM     80  C   UNL A   1      44.122  24.481  26.267  1.00  0.00     0.020 A 
ATOM     81  C   UNL A   1      43.676  23.170  26.444  1.00  0.00     0.054 A 
BRANCH  81  82
ATOM     82  S   UNL A   1      44.008  21.909  25.181  1.00  0.00     0.124 S 
ATOM     83  O   UNL A   1      42.973  20.920  25.459  1.00  0.00    -0.237 OA
ATOM     84  O   UNL A   1      43.849  22.661  23.938  1.00  0.00    -0.237 OA
ATOM     85  O   UNL A   1      45.376  21.485  25.473  1.00  0.00    -0.744 OA
ENDBRANCH  81  82
ENDBRANCH  53  76
BRANCH  65  86
ATOM     86  C   UNL A   1      46.324  27.228  34.208  1.00  0.00    -0.014 A 
ATOM     87  C   UNL A   1      46.288  26.201  35.168  1.00  0.00     0.010 A 
ATOM     88  C   UNL A   1      47.564  27.798  33.863  1.00  0.00     0.010 A 
ATOM     89  C   UNL A   1      47.464  25.773  35.790  1.00  0.00     0.020 A 
ATOM     90  C   UNL A   1      48.745  27.352  34.460  1.00  0.00     0.020 A 
ATOM     91  C   UNL A   1      48.686  26.351  35.431  1.00  0.00     0.054 A 
BRANCH  91  92
ATOM     92  S   UNL A   1      50.203  25.747  36.221  1.00  0.00     0.124 S 
ATOM     93  O   UNL A   1      49.686  24.742  37.144  1.00  0.00    -0.237 OA
ATOM     94  O   UNL A   1      50.968  25.228  35.090  1.00  0.00    -0.237 OA
ATOM     95  O   UNL A   1      50.766  26.939  36.851  1.00  0.00    -0.744 OA
ENDBRANCH  91  92
ENDBRANCH  65  86
ENDBRANCH  39  40
ENDBRANCH  31  34
ENDBRANCH  29  30
ENDBRANCH  28  29
ENDBRANCH   1  28
TORSDOF 18
ENDMDL
MODEL 2
REMARK VINA RESULT:     -11.2      3.288      9.536
REMARK SMILES O=C(CCC(=O)Nc1ccc2nc(-c3ccccc3)oc2c1)NCCCCNC(=O)c1ccc(-c2c3nc(c(-c4ccc(S(=O)(=O)[O-])cc4)c4ccc([nH]4)c(-c4ccc(S(=O)(=O)[O-])cc4)c4nc(c(-c5ccc(S(=O)(=O)[O-])cc5)c5ccc2[nH]5)C=C4)C=C3)cc1
REMARK SMILES IDX 25 1 24 2 23 3 1 4 2 5 3 7 4 8 5 9 6 10 7 11 8 13 9 14 22 15
REMARK SMILES IDX 10 16 21 17 11 18 20 19 12 20 13 21 14 22 15 23 19 24 16 25
REMARK SMILES IDX 18 26 17 27 26 28 27 29 28 30 29 31 30 33 31 34 32 35 90 36
REMARK SMILES IDX 33 37 89 38 34 39 35 40 36 41 83 42 37 43 88 44 82 45 84 46
REMARK SMILES IDX 38 47 87 48 81 49 80 50 39 52 69 53 50 54 68 55 51 56 54 57
REMARK SMILES IDX 67 58 85 59 52 60 53 61 66 63 86 64 55 65 40 66 41 67 49 68
REMARK SMILES IDX 42 69 48 70 43 71 44 72 45 73 46 74 47 75 70 76 71 77 79 78
REMARK SMILES IDX 72 79 78 80 73 81 74 82 75 83 76 84 77 85 56 86 57 87 65 88
REMARK SMILES IDX 58 89 64 90 59 91 60 92 61 93 62 94 63 95
REMARK H PARENT 23 6 7 12 28 32 84 51 54 62
REMARK Flexibility Score: inf
ROOT
ATOM      1  C   UNL A   1      34.670  23.820  23.792  1.00  0.00     0.023 C 
ENDROOT
BRANCH   1   2
ATOM      2  C   UNL A   1      34.484  25.187  24.442  1.00  0.00     0.116 C 
BRANCH   2   3
ATOM      3  N   UNL A   1      33.448  26.006  23.838  1.00  0.00    -0.356 N 
ATOM      4  O   UNL A   1      33.142  27.396  25.646  1.00  0.00    -0.275 OA
ATOM      5  C   UNL A   1      32.944  27.124  24.465  1.00  0.00     0.220 C 
ATOM      6  H   UNL A   1      33.095  25.755  22.953  1.00  0.00     0.163 HD
BRANCH   5   7
ATOM      7  C   UNL A   1      32.176  28.067  23.559  1.00  0.00     0.110 C 
BRANCH   7   8
ATOM      8  C   UNL A   1      31.145  27.388  22.656  1.00  0.00     0.110 C 
BRANCH   8   9
ATOM      9  C   UNL A   1      29.841  27.056  23.344  1.00  0.00     0.224 C 
ATOM     10  O   UNL A   1      28.958  27.921  23.394  1.00  0.00    -0.275 OA
ATOM     11  N   UNL A   1      29.567  25.868  23.953  1.00  0.00    -0.326 N 
ATOM     12  H   UNL A   1      28.603  25.725  24.095  1.00  0.00     0.169 HD
BRANCH  11  13
ATOM     13  C   UNL A   1      30.354  24.796  24.426  1.00  0.00     0.045 A 
ATOM     14  C   UNL A   1      30.613  24.550  25.777  1.00  0.00     0.028 A 
ATOM     15  C   UNL A   1      30.771  23.855  23.458  1.00  0.00     0.075 A 
ATOM     16  C   UNL A   1      31.106  23.324  26.235  1.00  0.00     0.034 A 
ATOM     17  C   UNL A   1      31.309  22.664  23.945  1.00  0.00     0.157 A 
ATOM     18  C   UNL A   1      31.429  22.361  25.291  1.00  0.00     0.110 A 
ATOM     19  O   UNL A   1      31.810  21.598  23.243  1.00  0.00    -0.436 OA
ATOM     20  N   UNL A   1      31.900  21.100  25.460  1.00  0.00    -0.209 NA
ATOM     21  C   UNL A   1      32.171  20.713  24.231  1.00  0.00     0.227 A 
BRANCH  21  22
ATOM     22  C   UNL A   1      32.984  19.568  23.873  1.00  0.00     0.037 A 
ATOM     23  C   UNL A   1      32.489  18.617  22.972  1.00  0.00     0.014 A 
ATOM     24  C   UNL A   1      34.134  19.279  24.619  1.00  0.00     0.014 A 
ATOM     25  C   UNL A   1      33.115  17.377  22.844  1.00  0.00     0.001 A 
ATOM     26  C   UNL A   1      34.748  18.033  24.504  1.00  0.00     0.001 A 
ATOM     27  C   UNL A   1      34.232  17.080  23.625  1.00  0.00     0.000 A 
ENDBRANCH  21  22
ENDBRANCH  11  13
ENDBRANCH   8   9
ENDBRANCH   7   8
ENDBRANCH   5   7
ENDBRANCH   2   3
ENDBRANCH   1   2
BRANCH   1  28
ATOM     28  C   UNL A   1      36.086  23.244  23.868  1.00  0.00     0.023 C 
BRANCH  28  29
ATOM     29  C   UNL A   1      36.909  23.673  25.080  1.00  0.00     0.116 C 
BRANCH  29  30
ATOM     30  N   UNL A   1      37.961  22.725  25.420  1.00  0.00    -0.352 N 
ATOM     31  C   UNL A   1      39.140  22.922  26.102  1.00  0.00     0.251 C 
ATOM     32  H   UNL A   1      37.804  21.802  25.115  1.00  0.00     0.163 HD
ATOM     33  O   UNL A   1      39.977  22.021  26.143  1.00  0.00    -0.269 OA
BRANCH  31  34
ATOM     34  C   UNL A   1      39.425  24.218  26.760  1.00  0.00     0.039 A 
ATOM     35  C   UNL A   1      38.967  24.435  28.062  1.00  0.00     0.014 A 
ATOM     36  C   UNL A   1      40.141  25.221  26.101  1.00  0.00     0.014 A 
ATOM     37  C   UNL A   1      39.304  25.616  28.732  1.00  0.00     0.010 A 
ATOM     38  C   UNL A   1      40.547  26.359  26.798  1.00  0.00     0.010 A 
ATOM     39  C   UNL A   1      40.139  26.568  28.124  1.00  0.00    -0.014 A 
BRANCH  39  40
ATOM     40  C   UNL A   1      40.614  27.771  28.864  1.00  0.00     0.031 A 
ATOM     41  C   UNL A   1      41.969  27.779  29.523  1.00  0.00     0.074 A 
ATOM     42  C   UNL A   1      39.799  28.836  29.002  1.00  0.00     0.049 A 
ATOM     43  N   UNL A   1      42.522  28.710  30.260  1.00  0.00    -0.248 NA
ATOM     44  C   UNL A   1      42.801  26.577  29.354  1.00  0.00     0.031 C 
ATOM     45  C   UNL A   1      38.445  28.944  28.451  1.00  0.00     0.029 A 
ATOM     46  N   UNL A   1      39.983  30.030  29.657  1.00  0.00    -0.354 N 
ATOM     47  C   UNL A   1      43.757  28.203  30.650  1.00  0.00     0.074 A 
ATOM     48  C   UNL A   1      43.847  26.862  30.115  1.00  0.00     0.031 C 
ATOM     49  C   UNL A   1      37.934  30.144  28.767  1.00  0.00     0.029 A 
ATOM     50  C   UNL A   1      38.899  30.875  29.583  1.00  0.00     0.049 A 
ATOM     51  H   UNL A   1      40.813  30.260  30.134  1.00  0.00     0.167 HD
ATOM     52  C   UNL A   1      44.735  28.803  31.369  1.00  0.00     0.031 A 
ATOM     53  C   UNL A   1      38.694  32.095  30.120  1.00  0.00     0.031 A 
ATOM     54  C   UNL A   1      44.645  30.137  31.903  1.00  0.00     0.049 A 
ATOM     55  C   UNL A   1      39.786  32.733  30.936  1.00  0.00     0.074 A 
ATOM     56  C   UNL A   1      45.603  30.849  32.605  1.00  0.00     0.029 A 
ATOM     57  N   UNL A   1      43.533  30.960  31.800  1.00  0.00    -0.354 N 
ATOM     58  N   UNL A   1      40.972  32.261  31.237  1.00  0.00    -0.248 NA
ATOM     59  C   UNL A   1      39.516  34.072  31.475  1.00  0.00     0.031 C 
ATOM     60  C   UNL A   1      45.050  32.078  32.979  1.00  0.00     0.029 A 
ATOM     61  C   UNL A   1      43.772  32.161  32.449  1.00  0.00     0.049 A 
ATOM     62  H   UNL A   1      42.698  30.725  31.335  1.00  0.00     0.167 HD
ATOM     63  C   UNL A   1      41.600  33.258  31.976  1.00  0.00     0.074 A 
ATOM     64  C   UNL A   1      40.669  34.363  32.061  1.00  0.00     0.031 C 
ATOM     65  C   UNL A   1      42.838  33.257  32.531  1.00  0.00     0.031 A 
BRANCH  52  66
ATOM     66  C   UNL A   1      45.994  28.013  31.629  1.00  0.00    -0.014 A 
ATOM     67  C   UNL A   1      46.114  27.187  32.763  1.00  0.00     0.010 A 
ATOM     68  C   UNL A   1      47.056  28.061  30.707  1.00  0.00     0.010 A 
ATOM     69  C   UNL A   1      47.288  26.466  32.995  1.00  0.00     0.020 A 
ATOM     70  C   UNL A   1      48.220  27.315  30.918  1.00  0.00     0.020 A 
ATOM     71  C   UNL A   1      48.335  26.536  32.070  1.00  0.00     0.054 A 
BRANCH  71  72
ATOM     72  S   UNL A   1      49.839  25.575  32.390  1.00  0.00     0.124 S 
ATOM     73  O   UNL A   1      50.770  26.611  32.829  1.00  0.00    -0.237 OA
ATOM     74  O   UNL A   1      49.407  24.639  33.425  1.00  0.00    -0.237 OA
ATOM     75  O   UNL A   1      50.147  24.970  31.097  1.00  0.00    -0.744 OA
ENDBRANCH  71  72
ENDBRANCH  52  66
BRANCH  53  76
ATOM     76  C   UNL A   1      37.399  32.797  29.895  1.00  0.00    -0.014 A 
ATOM     77  C   UNL A   1      37.098  33.364  28.643  1.00  0.00     0.010 A 
ATOM     78  C   UNL A   1      36.453  32.894  30.932  1.00  0.00     0.010 A 
ATOM     79  C   UNL A   1      35.884  34.027  28.439  1.00  0.00     0.020 A 
ATOM     80  C   UNL A   1      35.226  33.528  30.723  1.00  0.00     0.020 A 
ATOM     81  C   UNL A   1      34.953  34.100  29.479  1.00  0.00     0.054 A 
BRANCH  81  82
ATOM     82  S   UNL A   1      33.363  34.920  29.174  1.00  0.00     0.124 S 
ATOM     83  O   UNL A   1      33.784  36.236  28.707  1.00  0.00    -0.237 OA
ATOM     84  O   UNL A   1      32.752  34.055  28.167  1.00  0.00    -0.237 OA
ATOM     85  O   UNL A   1      32.711  34.897  30.482  1.00  0.00    -0.744 OA
ENDBRANCH  81  82
ENDBRANCH  53  76
BRANCH  65  86
ATOM     86  C   UNL A   1      43.280  34.504  33.252  1.00  0.00    -0.014 A 
ATOM     87  C   UNL A   1      43.802  35.609  32.556  1.00  0.00     0.010 A 
ATOM     88  C   UNL A   1      43.117  34.590  34.648  1.00  0.00     0.010 A 
ATOM     89  C   UNL A   1      44.182  36.764  33.246  1.00  0.00     0.020 A 
ATOM     90  C   UNL A   1      43.466  35.755  35.337  1.00  0.00     0.020 A 
ATOM     91  C   UNL A   1      44.010  36.830  34.632  1.00  0.00     0.054 A 
BRANCH  91  92
ATOM     92  S   UNL A   1      44.469  38.357  35.497  1.00  0.00     0.124 S 
ATOM     93  O   UNL A   1      45.927  38.308  35.448  1.00  0.00    -0.237 OA
ATOM     94  O   UNL A   1      43.846  39.390  34.673  1.00  0.00    -0.237 OA
ATOM     95  O   UNL A   1      43.885  38.193  36.826  1.00  0.00    -0.744 OA
ENDBRANCH  91  92
ENDBRANCH  65  86
ENDBRANCH  39  40
ENDBRANCH  31  34
ENDBRANCH  29  30
ENDBRANCH  28  29
ENDBRANCH   1  28
TORSDOF 18
ENDMDL
MODEL 3
REMARK VINA RESULT:     -11.1      2.793      5.161
REMARK SMILES O=C(CCC(=O)Nc1ccc2nc(-c3ccccc3)oc2c1)NCCCCNC(=O)c1ccc(-c2c3nc(c(-c4ccc(S(=O)(=O)[O-])cc4)c4ccc([nH]4)c(-c4ccc(S(=O)(=O)[O-])cc4)c4nc(c(-c5ccc(S(=O)(=O)[O-])cc5)c5ccc2[nH]5)C=C4)C=C3)cc1
REMARK SMILES IDX 25 1 24 2 23 3 1 4 2 5 3 7 4 8 5 9 6 10 7 11 8 13 9 14 22 15
REMARK SMILES IDX 10 16 21 17 11 18 20 19 12 20 13 21 14 22 15 23 19 24 16 25
REMARK SMILES IDX 18 26 17 27 26 28 27 29 28 30 29 31 30 33 31 34 32 35 90 36
REMARK SMILES IDX 33 37 89 38 34 39 35 40 36 41 83 42 37 43 88 44 82 45 84 46
REMARK SMILES IDX 38 47 87 48 81 49 80 50 39 52 69 53 50 54 68 55 51 56 54 57
REMARK SMILES IDX 67 58 85 59 52 60 53 61 66 63 86 64 55 65 40 66 41 67 49 68
REMARK SMILES IDX 42 69 48 70 43 71 44 72 45 73 46 74 47 75 70 76 71 77 79 78
REMARK SMILES IDX 72 79 78 80 73 81 74 82 75 83 76 84 77 85 56 86 57 87 65 88
REMARK SMILES IDX 58 89 64 90 59 91 60 92 61 93 62 94 63 95
REMARK H PARENT 23 6 7 12 28 32 84 51 54 62
REMARK Flexibility Score: inf
ROOT
ATOM      1  C   UNL A   1      32.077  27.959  27.327  1.00  0.00     0.023 C 
ENDROOT
BRANCH   1   2
ATOM      2  C   UNL A   1      31.007  27.278  26.482  1.00  0.00     0.116 C 
BRANCH   2   3
ATOM      3  N   UNL A   1      31.328  27.175  25.069  1.00  0.00    -0.356 N 
ATOM      4  O   UNL A   1      29.385  26.112  24.446  1.00  0.00    -0.275 OA
ATOM      5  C   UNL A   1      30.424  26.696  24.148  1.00  0.00     0.220 C 
ATOM      6  H   UNL A   1      32.220  27.458  24.761  1.00  0.00     0.163 HD
BRANCH   5   7
ATOM      7  C   UNL A   1      30.760  27.014  22.704  1.00  0.00     0.110 C 
BRANCH   7   8
ATOM      8  C   UNL A   1      31.679  25.999  22.022  1.00  0.00     0.110 C 
BRANCH   8   9
ATOM      9  C   UNL A   1      33.154  26.269  22.215  1.00  0.00     0.224 C 
ATOM     10  O   UNL A   1      33.709  27.089  21.473  1.00  0.00    -0.275 OA
ATOM     11  N   UNL A   1      33.942  25.646  23.136  1.00  0.00    -0.326 N 
ATOM     12  H   UNL A   1      34.781  26.129  23.309  1.00  0.00     0.169 HD
BRANCH  11  13
ATOM     13  C   UNL A   1      33.825  24.462  23.896  1.00  0.00     0.045 A 
ATOM     14  C   UNL A   1      33.640  24.435  25.281  1.00  0.00     0.028 A 
ATOM     15  C   UNL A   1      33.750  23.257  23.163  1.00  0.00     0.075 A 
ATOM     16  C   UNL A   1      33.203  23.292  25.957  1.00  0.00     0.034 A 
ATOM     17  C   UNL A   1      33.364  22.121  23.877  1.00  0.00     0.157 A 
ATOM     18  C   UNL A   1      33.039  22.127  25.223  1.00  0.00     0.110 A 
ATOM     19  O   UNL A   1      33.234  20.831  23.432  1.00  0.00    -0.436 OA
ATOM     20  N   UNL A   1      32.613  20.901  25.619  1.00  0.00    -0.209 NA
ATOM     21  C   UNL A   1      32.807  20.156  24.550  1.00  0.00     0.227 A 
BRANCH  21  22
ATOM     22  C   UNL A   1      32.810  18.707  24.530  1.00  0.00     0.037 A 
ATOM     23  C   UNL A   1      32.576  17.993  25.712  1.00  0.00     0.014 A 
ATOM     24  C   UNL A   1      33.303  18.035  23.404  1.00  0.00     0.014 A 
ATOM     25  C   UNL A   1      32.864  16.631  25.779  1.00  0.00     0.001 A 
ATOM     26  C   UNL A   1      33.608  16.676  23.478  1.00  0.00     0.001 A 
ATOM     27  C   UNL A   1      33.399  15.978  24.668  1.00  0.00     0.000 A 
ENDBRANCH  21  22
ENDBRANCH  11  13
ENDBRANCH   8   9
ENDBRANCH   7   8
ENDBRANCH   5   7
ENDBRANCH   2   3
ENDBRANCH   1   2
BRANCH   1  28
ATOM     28  C   UNL A   1      33.508  27.834  26.799  1.00  0.00     0.023 C 
BRANCH  28  29
ATOM     29  C   UNL A   1      34.055  29.062  26.075  1.00  0.00     0.116 C 
BRANCH  29  30
ATOM     30  N   UNL A   1      33.888  30.293  26.836  1.00  0.00    -0.352 N 
ATOM     31  C   UNL A   1      34.668  30.823  27.838  1.00  0.00     0.251 C 
ATOM     32  H   UNL A   1      33.097  30.828  26.595  1.00  0.00     0.163 HD
ATOM     33  O   UNL A   1      34.265  31.799  28.472  1.00  0.00    -0.269 OA
BRANCH  31  34
ATOM     34  C   UNL A   1      35.972  30.213  28.185  1.00  0.00     0.039 A 
ATOM     35  C   UNL A   1      37.021  30.281  27.263  1.00  0.00     0.014 A 
ATOM     36  C   UNL A   1      36.168  29.574  29.411  1.00  0.00     0.014 A 
ATOM     37  C   UNL A   1      38.285  29.790  27.608  1.00  0.00     0.010 A 
ATOM     38  C   UNL A   1      37.447  29.162  29.786  1.00  0.00     0.010 A 
ATOM     39  C   UNL A   1      38.523  29.271  28.892  1.00  0.00    -0.014 A 
BRANCH  39  40
ATOM     40  C   UNL A   1      39.889  28.862  29.323  1.00  0.00     0.031 A 
ATOM     41  C   UNL A   1      40.775  29.822  30.073  1.00  0.00     0.074 A 
ATOM     42  C   UNL A   1      40.361  27.645  28.982  1.00  0.00     0.049 A 
ATOM     43  N   UNL A   1      42.013  29.662  30.473  1.00  0.00    -0.248 NA
ATOM     44  C   UNL A   1      40.209  31.141  30.395  1.00  0.00     0.031 C 
ATOM     45  C   UNL A   1      39.624  26.633  28.220  1.00  0.00     0.029 A 
ATOM     46  N   UNL A   1      41.578  27.054  29.222  1.00  0.00    -0.354 N 
ATOM     47  C   UNL A   1      42.374  30.859  31.080  1.00  0.00     0.074 A 
ATOM     48  C   UNL A   1      41.245  31.754  30.947  1.00  0.00     0.031 C 
ATOM     49  C   UNL A   1      40.392  25.541  28.079  1.00  0.00     0.029 A 
ATOM     50  C   UNL A   1      41.692  25.787  28.695  1.00  0.00     0.049 A 
ATOM     51  H   UNL A   1      42.301  27.495  29.724  1.00  0.00     0.167 HD
ATOM     52  C   UNL A   1      43.530  31.180  31.710  1.00  0.00     0.031 A 
ATOM     53  C   UNL A   1      42.727  24.922  28.694  1.00  0.00     0.031 A 
ATOM     54  C   UNL A   1      44.653  30.290  31.842  1.00  0.00     0.049 A 
ATOM     55  C   UNL A   1      44.009  25.309  29.379  1.00  0.00     0.074 A 
ATOM     56  C   UNL A   1      45.850  30.508  32.502  1.00  0.00     0.029 A 
ATOM     57  N   UNL A   1      44.724  29.015  31.300  1.00  0.00    -0.354 N 
ATOM     58  N   UNL A   1      44.306  26.424  30.005  1.00  0.00    -0.248 NA
ATOM     59  C   UNL A   1      45.094  24.318  29.367  1.00  0.00     0.031 C 
ATOM     60  C   UNL A   1      46.668  29.390  32.310  1.00  0.00     0.029 A 
ATOM     61  C   UNL A   1      45.955  28.446  31.588  1.00  0.00     0.049 A 
ATOM     62  H   UNL A   1      44.007  28.579  30.785  1.00  0.00     0.167 HD
ATOM     63  C   UNL A   1      45.600  26.255  30.485  1.00  0.00     0.074 A 
ATOM     64  C   UNL A   1      46.022  24.927  30.093  1.00  0.00     0.031 C 
ATOM     65  C   UNL A   1      46.368  27.123  31.191  1.00  0.00     0.031 A 
BRANCH  52  66
ATOM     66  C   UNL A   1      43.640  32.563  32.302  1.00  0.00    -0.014 A 
ATOM     67  C   UNL A   1      44.043  33.660  31.517  1.00  0.00     0.010 A 
ATOM     68  C   UNL A   1      43.296  32.779  33.649  1.00  0.00     0.010 A 
ATOM     69  C   UNL A   1      44.147  34.935  32.080  1.00  0.00     0.020 A 
ATOM     70  C   UNL A   1      43.367  34.060  34.208  1.00  0.00     0.020 A 
ATOM     71  C   UNL A   1      43.810  35.126  33.423  1.00  0.00     0.054 A 
BRANCH  71  72
ATOM     72  S   UNL A   1      43.939  36.795  34.120  1.00  0.00     0.124 S 
ATOM     73  O   UNL A   1      44.688  37.497  33.081  1.00  0.00    -0.237 OA
ATOM     74  O   UNL A   1      42.541  37.192  34.263  1.00  0.00    -0.237 OA
ATOM     75  O   UNL A   1      44.658  36.593  35.375  1.00  0.00    -0.744 OA
ENDBRANCH  71  72
ENDBRANCH  52  66
BRANCH  53  76
ATOM     76  C   UNL A   1      42.587  23.598  28.025  1.00  0.00    -0.014 A 
ATOM     77  C   UNL A   1      43.097  23.391  26.732  1.00  0.00     0.010 A 
ATOM     78  C   UNL A   1      41.950  22.531  28.686  1.00  0.00     0.010 A 
ATOM     79  C   UNL A   1      42.958  22.148  26.105  1.00  0.00     0.020 A 
ATOM     80  C   UNL A   1      41.836  21.279  28.077  1.00  0.00     0.020 A 
ATOM     81  C   UNL A   1      42.333  21.098  26.785  1.00  0.00     0.054 A 
BRANCH  81  82
ATOM     82  S   UNL A   1      42.211  19.480  25.972  1.00  0.00     0.124 S 
ATOM     83  O   UNL A   1      40.778  19.369  25.727  1.00  0.00    -0.237 OA
ATOM     84  O   UNL A   1      43.046  19.661  24.787  1.00  0.00    -0.237 OA
ATOM     85  O   UNL A   1      42.751  18.557  26.969  1.00  0.00    -0.744 OA
ENDBRANCH  81  82
ENDBRANCH  53  76
BRANCH  65  86
ATOM     86  C   UNL A   1      47.734  26.654  31.621  1.00  0.00    -0.014 A 
ATOM     87  C   UNL A   1      48.872  26.881  30.827  1.00  0.00     0.010 A 
ATOM     88  C   UNL A   1      47.887  26.024  32.871  1.00  0.00     0.010 A 
ATOM     89  C   UNL A   1      50.132  26.459  31.259  1.00  0.00     0.020 A 
ATOM     90  C   UNL A   1      49.150  25.629  33.321  1.00  0.00     0.020 A 
ATOM     91  C   UNL A   1      50.263  25.836  32.505  1.00  0.00     0.054 A 
BRANCH  91  92
ATOM     92  S   UNL A   1      51.916  25.338  33.062  1.00  0.00     0.124 S 
ATOM     93  O   UNL A   1      52.682  26.568  32.882  1.00  0.00    -0.237 OA
ATOM     94  O   UNL A   1      51.680  24.941  34.448  1.00  0.00    -0.237 OA
ATOM     95  O   UNL A   1      52.273  24.245  32.160  1.00  0.00    -0.744 OA
ENDBRANCH  91  92
ENDBRANCH  65  86
ENDBRANCH  39  40
ENDBRANCH  31  34
ENDBRANCH  29  30
ENDBRANCH  28  29
ENDBRANCH   1  28
TORSDOF 18
ENDMDL
