MODEL 1
REMARK VINA RESULT:     -10.2      0.000      0.000
REMARK SMILES O=C(NCCCCNC(=O)[C@H]1Cc2ccc(Cl)cc2C[N@@H+]1Cc1ccc(Cl)cc1)c1ccc(-c2c3nc(c(-c4ccc(S(=O)(=O)[O-])cc4)c4ccc([nH]4)c(-c4ccc(S(=O)(=O)[O-])cc4)c4nc(c(-c5ccc(S(=O)(=O)[O-])cc5)c5ccc2[nH]5)C=C4)C=C3)cc1
REMARK SMILES IDX 5 1 4 2 3 3 1 4 2 5 30 7 31 8 89 9 32 10 88 11 33 12 34 13
REMARK SMILES IDX 35 14 82 15 36 16 87 17 81 18 83 19 37 20 86 21 80 22 79 23
REMARK SMILES IDX 38 25 68 26 49 27 67 28 50 29 53 30 66 31 84 32 51 33 52 34
REMARK SMILES IDX 65 36 85 37 54 38 39 39 40 40 48 41 41 42 47 43 42 44 43 45
REMARK SMILES IDX 44 46 45 47 46 48 69 49 70 50 78 51 71 52 77 53 72 54 73 55
REMARK SMILES IDX 74 56 75 57 76 58 55 59 56 60 64 61 57 62 63 63 58 64 59 65
REMARK SMILES IDX 60 66 61 67 62 68 6 69 7 70 8 71 9 72 10 74 11 75 12 76
REMARK SMILES IDX 21 77 13 78 20 79 14 81 19 82 15 83 18 84 16 85 17 86 22 87
REMARK SMILES IDX 23 88 24 89 29 90 25 91 28 92 26 93 27 94
REMARK H PARENT 3 6 83 24 53 35 8 73 21 80
REMARK Flexibility Score: inf
ROOT
ATOM      1  C   UNL A   1      35.046  33.073  29.481  1.00  0.00     0.023 C 
ENDROOT
BRANCH   1   2
ATOM      2  C   UNL A   1      34.770  32.919  28.000  1.00  0.00     0.116 C 
BRANCH   2   3
ATOM      3  N   UNL A   1      34.023  31.706  27.705  1.00  0.00    -0.352 N 
ATOM      4  O   UNL A   1      33.718  29.561  27.102  1.00  0.00    -0.269 OA
ATOM      5  C   UNL A   1      34.466  30.412  27.570  1.00  0.00     0.251 C 
ATOM      6  H   UNL A   1      33.054  31.830  27.583  1.00  0.00     0.163 HD
BRANCH   5   7
ATOM      7  C   UNL A   1      35.839  30.053  27.988  1.00  0.00     0.039 A 
ATOM      8  C   UNL A   1      36.873  30.095  27.050  1.00  0.00     0.014 A 
ATOM      9  C   UNL A   1      36.097  29.635  29.294  1.00  0.00     0.014 A 
ATOM     10  C   UNL A   1      38.168  29.738  27.435  1.00  0.00     0.010 A 
ATOM     11  C   UNL A   1      37.399  29.405  29.707  1.00  0.00     0.010 A 
ATOM     12  C   UNL A   1      38.439  29.398  28.768  1.00  0.00    -0.014 A 
BRANCH  12  13
ATOM     13  C   UNL A   1      39.766  28.900  29.203  1.00  0.00     0.031 A 
ATOM     14  C   UNL A   1      40.655  29.823  29.996  1.00  0.00     0.074 A 
ATOM     15  C   UNL A   1      40.191  27.675  28.844  1.00  0.00     0.049 A 
ATOM     16  N   UNL A   1      41.903  29.660  30.347  1.00  0.00    -0.248 NA
ATOM     17  C   UNL A   1      40.082  31.116  30.415  1.00  0.00     0.031 C 
ATOM     18  C   UNL A   1      39.419  26.706  28.063  1.00  0.00     0.029 A 
ATOM     19  N   UNL A   1      41.383  27.037  29.083  1.00  0.00    -0.354 N 
ATOM     20  C   UNL A   1      42.266  30.836  30.995  1.00  0.00     0.074 A 
ATOM     21  C   UNL A   1      41.134  31.730  30.934  1.00  0.00     0.031 C 
ATOM     22  C   UNL A   1      40.147  25.589  27.911  1.00  0.00     0.029 A 
ATOM     23  C   UNL A   1      41.455  25.778  28.535  1.00  0.00     0.049 A 
ATOM     24  H   UNL A   1      42.117  27.444  29.597  1.00  0.00     0.167 HD
ATOM     25  C   UNL A   1      43.426  31.128  31.621  1.00  0.00     0.031 A 
ATOM     26  C   UNL A   1      42.462  24.882  28.528  1.00  0.00     0.031 A 
ATOM     27  C   UNL A   1      44.518  30.201  31.735  1.00  0.00     0.049 A 
ATOM     28  C   UNL A   1      43.744  25.223  29.239  1.00  0.00     0.074 A 
ATOM     29  C   UNL A   1      45.713  30.373  32.409  1.00  0.00     0.029 A 
ATOM     30  N   UNL A   1      44.540  28.927  31.189  1.00  0.00    -0.354 N 
ATOM     31  N   UNL A   1      44.056  26.325  29.881  1.00  0.00    -0.248 NA
ATOM     32  C   UNL A   1      44.806  24.208  29.239  1.00  0.00     0.031 C 
ATOM     33  C   UNL A   1      46.484  29.229  32.214  1.00  0.00     0.029 A 
ATOM     34  C   UNL A   1      45.740  28.311  31.488  1.00  0.00     0.049 A 
ATOM     35  H   UNL A   1      43.810  28.524  30.665  1.00  0.00     0.167 HD
ATOM     36  C   UNL A   1      45.339  26.127  30.378  1.00  0.00     0.074 A 
ATOM     37  C   UNL A   1      45.741  24.794  29.977  1.00  0.00     0.031 C 
ATOM     38  C   UNL A   1      46.115  26.976  31.093  1.00  0.00     0.031 A 
BRANCH  25  39
ATOM     39  C   UNL A   1      43.579  32.476  32.274  1.00  0.00    -0.014 A 
ATOM     40  C   UNL A   1      43.158  32.658  33.605  1.00  0.00     0.010 A 
ATOM     41  C   UNL A   1      44.001  33.594  31.531  1.00  0.00     0.010 A 
ATOM     42  C   UNL A   1      43.105  33.938  34.163  1.00  0.00     0.020 A 
ATOM     43  C   UNL A   1      43.981  34.870  32.096  1.00  0.00     0.020 A 
ATOM     44  C   UNL A   1      43.502  35.038  33.396  1.00  0.00     0.054 A 
BRANCH  44  45
ATOM     45  S   UNL A   1      43.353  36.698  34.111  1.00  0.00     0.124 S 
ATOM     46  O   UNL A   1      43.530  37.553  32.942  1.00  0.00    -0.237 OA
ATOM     47  O   UNL A   1      42.009  36.678  34.684  1.00  0.00    -0.237 OA
ATOM     48  O   UNL A   1      44.436  36.747  35.091  1.00  0.00    -0.744 OA
ENDBRANCH  44  45
ENDBRANCH  25  39
BRANCH  26  49
ATOM     49  C   UNL A   1      42.263  23.570  27.848  1.00  0.00    -0.014 A 
ATOM     50  C   UNL A   1      41.619  22.511  28.519  1.00  0.00     0.010 A 
ATOM     51  C   UNL A   1      42.799  23.340  26.570  1.00  0.00     0.010 A 
ATOM     52  C   UNL A   1      41.573  21.234  27.952  1.00  0.00     0.020 A 
ATOM     53  C   UNL A   1      42.726  22.070  25.985  1.00  0.00     0.020 A 
ATOM     54  C   UNL A   1      42.143  21.018  26.695  1.00  0.00     0.054 A 
BRANCH  54  55
ATOM     55  S   UNL A   1      42.135  19.337  26.012  1.00  0.00     0.124 S 
ATOM     56  O   UNL A   1      40.720  19.149  25.702  1.00  0.00    -0.237 OA
ATOM     57  O   UNL A   1      43.021  19.458  24.857  1.00  0.00    -0.237 OA
ATOM     58  O   UNL A   1      42.650  18.520  27.107  1.00  0.00    -0.744 OA
ENDBRANCH  54  55
ENDBRANCH  26  49
BRANCH  38  59
ATOM     59  C   UNL A   1      47.488  26.520  31.513  1.00  0.00    -0.014 A 
ATOM     60  C   UNL A   1      48.483  26.323  30.535  1.00  0.00     0.010 A 
ATOM     61  C   UNL A   1      47.730  26.102  32.832  1.00  0.00     0.010 A 
ATOM     62  C   UNL A   1      49.671  25.664  30.856  1.00  0.00     0.020 A 
ATOM     63  C   UNL A   1      48.932  25.471  33.164  1.00  0.00     0.020 A 
ATOM     64  C   UNL A   1      49.879  25.227  32.166  1.00  0.00     0.054 A 
BRANCH  64  65
ATOM     65  S   UNL A   1      51.393  24.303  32.546  1.00  0.00     0.124 S 
ATOM     66  O   UNL A   1      51.356  24.238  34.004  1.00  0.00    -0.237 OA
ATOM     67  O   UNL A   1      51.176  23.035  31.852  1.00  0.00    -0.237 OA
ATOM     68  O   UNL A   1      52.454  25.136  31.985  1.00  0.00    -0.744 OA
ENDBRANCH  64  65
ENDBRANCH  38  59
ENDBRANCH  12  13
ENDBRANCH   5   7
ENDBRANCH   2   3
ENDBRANCH   1   2
BRANCH   1  69
ATOM     69  C   UNL A   1      36.447  33.572  29.795  1.00  0.00     0.023 C 
BRANCH  69  70
ATOM     70  C   UNL A   1      37.021  33.155  31.143  1.00  0.00     0.116 C 
BRANCH  70  71
ATOM     71  N   UNL A   1      36.049  33.410  32.189  1.00  0.00    -0.351 N 
ATOM     72  C   UNL A   1      35.898  32.820  33.411  1.00  0.00     0.278 C 
ATOM     73  H   UNL A   1      35.397  34.119  31.987  1.00  0.00     0.163 HD
ATOM     74  O   UNL A   1      34.841  33.037  34.007  1.00  0.00    -0.268 OA
BRANCH  72  75
ATOM     75  C   UNL A   1      37.056  32.014  34.042  1.00  0.00     0.279 C 
ATOM     76  C   UNL A   1      37.258  30.828  33.053  1.00  0.00     0.111 C 
ATOM     77  N   UNL A   1      38.295  32.820  34.187  1.00  0.00    -0.317 N 
ATOM     78  C   UNL A   1      38.525  30.048  33.277  1.00  0.00    -0.033 A 
ATOM     79  C   UNL A   1      39.431  31.999  34.602  1.00  0.00     0.300 C 
ATOM     80  H   UNL A   1      38.465  33.165  33.243  1.00  0.00     0.349 HD
ATOM     81  C   UNL A   1      38.667  28.735  32.806  1.00  0.00     0.006 A 
ATOM     82  C   UNL A   1      39.595  30.663  33.934  1.00  0.00     0.011 A 
ATOM     83  C   UNL A   1      39.848  28.025  33.039  1.00  0.00     0.021 A 
ATOM     84  C   UNL A   1      40.782  29.945  34.158  1.00  0.00     0.030 A 
ATOM     85  C   UNL A   1      40.899  28.632  33.718  1.00  0.00     0.041 A 
ATOM     86  Cl  UNL A   1      42.338  27.750  34.055  1.00  0.00    -0.084 Cl
BRANCH  77  87
ATOM     87  C   UNL A   1      38.186  34.066  34.988  1.00  0.00     0.299 C 
BRANCH  87  88
ATOM     88  C   UNL A   1      38.234  33.993  36.514  1.00  0.00     0.006 A 
ATOM     89  C   UNL A   1      39.192  34.640  37.308  1.00  0.00     0.011 A 
ATOM     90  C   UNL A   1      37.227  33.304  37.203  1.00  0.00     0.011 A 
ATOM     91  C   UNL A   1      39.316  34.373  38.675  1.00  0.00     0.021 A 
ATOM     92  C   UNL A   1      37.321  33.051  38.581  1.00  0.00     0.021 A 
ATOM     93  C   UNL A   1      38.404  33.537  39.299  1.00  0.00     0.041 A 
ATOM     94  Cl  UNL A   1      38.611  33.125  40.953  1.00  0.00    -0.084 Cl
ENDBRANCH  87  88
ENDBRANCH  77  87
ENDBRANCH  72  75
ENDBRANCH  70  71
ENDBRANCH  69  70
ENDBRANCH   1  69
TORSDOF 16
ENDMDL
MODEL 2
REMARK VINA RESULT:     -10.1      4.574      8.369
REMARK SMILES O=C(NCCCCNC(=O)[C@H]1Cc2ccc(Cl)cc2C[N@@H+]1Cc1ccc(Cl)cc1)c1ccc(-c2c3nc(c(-c4ccc(S(=O)(=O)[O-])cc4)c4ccc([nH]4)c(-c4ccc(S(=O)(=O)[O-])cc4)c4nc(c(-c5ccc(S(=O)(=O)[O-])cc5)c5ccc2[nH]5)C=C4)C=C3)cc1
REMARK SMILES IDX 5 1 4 2 3 3 1 4 2 5 30 7 31 8 89 9 32 10 88 11 33 12 34 13
REMARK SMILES IDX 35 14 82 15 36 16 87 17 81 18 83 19 37 20 86 21 80 22 79 23
REMARK SMILES IDX 38 25 68 26 49 27 67 28 50 29 53 30 66 31 84 32 51 33 52 34
REMARK SMILES IDX 65 36 85 37 54 38 39 39 40 40 48 41 41 42 47 43 42 44 43 45
REMARK SMILES IDX 44 46 45 47 46 48 69 49 70 50 78 51 71 52 77 53 72 54 73 55
REMARK SMILES IDX 74 56 75 57 76 58 55 59 56 60 64 61 57 62 63 63 58 64 59 65
REMARK SMILES IDX 60 66 61 67 62 68 6 69 7 70 8 71 9 72 10 74 11 75 12 76
REMARK SMILES IDX 21 77 13 78 20 79 14 81 19 82 15 83 18 84 16 85 17 86 22 87
REMARK SMILES IDX 23 88 24 89 29 90 25 91 28 92 26 93 27 94
REMARK H PARENT 3 6 83 24 53 35 8 73 21 80
REMARK Flexibility Score: inf
ROOT
ATOM      1  C   UNL A   1      32.941  27.902  25.500  1.00  0.00     0.023 C 
ENDROOT
BRANCH   1   2
ATOM      2  C   UNL A   1      34.147  28.510  26.183  1.00  0.00     0.116 C 
BRANCH   2   3
ATOM      3  N   UNL A   1      33.917  29.892  26.574  1.00  0.00    -0.352 N 
ATOM      4  O   UNL A   1      34.096  31.740  27.843  1.00  0.00    -0.269 OA
ATOM      5  C   UNL A   1      34.577  30.667  27.496  1.00  0.00     0.251 C 
ATOM      6  H   UNL A   1      33.175  30.341  26.106  1.00  0.00     0.163 HD
BRANCH   5   7
ATOM      7  C   UNL A   1      35.862  30.206  28.065  1.00  0.00     0.039 A 
ATOM      8  C   UNL A   1      35.883  29.645  29.344  1.00  0.00     0.014 A 
ATOM      9  C   UNL A   1      37.052  30.364  27.352  1.00  0.00     0.014 A 
ATOM     10  C   UNL A   1      37.097  29.225  29.893  1.00  0.00     0.010 A 
ATOM     11  C   UNL A   1      38.233  29.832  27.843  1.00  0.00     0.010 A 
ATOM     12  C   UNL A   1      38.279  29.310  29.142  1.00  0.00    -0.014 A 
BRANCH  12  13
ATOM     13  C   UNL A   1      39.606  28.989  29.717  1.00  0.00     0.031 A 
ATOM     14  C   UNL A   1      40.114  29.825  30.864  1.00  0.00     0.074 A 
ATOM     15  C   UNL A   1      40.368  28.015  29.185  1.00  0.00     0.049 A 
ATOM     16  N   UNL A   1      41.297  29.828  31.418  1.00  0.00    -0.248 NA
ATOM     17  C   UNL A   1      39.185  30.818  31.436  1.00  0.00     0.031 C 
ATOM     18  C   UNL A   1      39.983  27.157  28.064  1.00  0.00     0.029 A 
ATOM     19  N   UNL A   1      41.630  27.588  29.514  1.00  0.00    -0.354 N 
ATOM     20  C   UNL A   1      41.259  30.835  32.376  1.00  0.00     0.074 A 
ATOM     21  C   UNL A   1      39.965  31.468  32.287  1.00  0.00     0.031 C 
ATOM     22  C   UNL A   1      40.977  26.290  27.816  1.00  0.00     0.029 A 
ATOM     23  C   UNL A   1      42.090  26.563  28.723  1.00  0.00     0.049 A 
ATOM     24  H   UNL A   1      42.157  27.981  30.248  1.00  0.00     0.167 HD
ATOM     25  C   UNL A   1      42.206  31.175  33.277  1.00  0.00     0.031 A 
ATOM     26  C   UNL A   1      43.276  25.920  28.721  1.00  0.00     0.031 A 
ATOM     27  C   UNL A   1      43.461  30.489  33.402  1.00  0.00     0.049 A 
ATOM     28  C   UNL A   1      44.314  26.308  29.740  1.00  0.00     0.074 A 
ATOM     29  C   UNL A   1      44.464  30.709  34.328  1.00  0.00     0.029 A 
ATOM     30  N   UNL A   1      43.876  29.438  32.598  1.00  0.00    -0.354 N 
ATOM     31  N   UNL A   1      44.246  27.237  30.665  1.00  0.00    -0.248 NA
ATOM     32  C   UNL A   1      45.580  25.563  29.729  1.00  0.00     0.031 C 
ATOM     33  C   UNL A   1      45.512  29.837  34.043  1.00  0.00     0.029 A 
ATOM     34  C   UNL A   1      45.133  29.017  32.991  1.00  0.00     0.049 A 
ATOM     35  H   UNL A   1      43.355  29.052  31.857  1.00  0.00     0.167 HD
ATOM     36  C   UNL A   1      45.450  27.175  31.357  1.00  0.00     0.074 A 
ATOM     37  C   UNL A   1      46.222  26.105  30.758  1.00  0.00     0.031 C 
ATOM     38  C   UNL A   1      45.879  27.938  32.391  1.00  0.00     0.031 A 
BRANCH  25  39
ATOM     39  C   UNL A   1      41.924  32.301  34.236  1.00  0.00    -0.014 A 
ATOM     40  C   UNL A   1      41.224  32.044  35.429  1.00  0.00     0.010 A 
ATOM     41  C   UNL A   1      42.221  33.633  33.890  1.00  0.00     0.010 A 
ATOM     42  C   UNL A   1      40.779  33.098  36.232  1.00  0.00     0.020 A 
ATOM     43  C   UNL A   1      41.807  34.687  34.707  1.00  0.00     0.020 A 
ATOM     44  C   UNL A   1      41.060  34.414  35.855  1.00  0.00     0.054 A 
BRANCH  44  45
ATOM     45  S   UNL A   1      40.409  35.769  36.868  1.00  0.00     0.124 S 
ATOM     46  O   UNL A   1      41.625  36.337  37.442  1.00  0.00    -0.237 OA
ATOM     47  O   UNL A   1      39.725  36.603  35.882  1.00  0.00    -0.237 OA
ATOM     48  O   UNL A   1      39.526  35.093  37.817  1.00  0.00    -0.744 OA
ENDBRANCH  44  45
ENDBRANCH  25  39
BRANCH  26  49
ATOM     49  C   UNL A   1      43.508  24.826  27.737  1.00  0.00    -0.014 A 
ATOM     50  C   UNL A   1      43.338  23.479  28.115  1.00  0.00     0.010 A 
ATOM     51  C   UNL A   1      43.994  25.114  26.450  1.00  0.00     0.010 A 
ATOM     52  C   UNL A   1      43.709  22.445  27.251  1.00  0.00     0.020 A 
ATOM     53  C   UNL A   1      44.336  24.081  25.569  1.00  0.00     0.020 A 
ATOM     54  C   UNL A   1      44.222  22.754  25.988  1.00  0.00     0.054 A 
BRANCH  54  55
ATOM     55  S   UNL A   1      44.764  21.397  24.913  1.00  0.00     0.124 S 
ATOM     56  O   UNL A   1      44.679  22.013  23.591  1.00  0.00    -0.237 OA
ATOM     57  O   UNL A   1      46.117  21.128  25.396  1.00  0.00    -0.237 OA
ATOM     58  O   UNL A   1      43.791  20.342  25.176  1.00  0.00    -0.744 OA
ENDBRANCH  54  55
ENDBRANCH  26  49
BRANCH  38  59
ATOM     59  C   UNL A   1      47.243  27.671  32.970  1.00  0.00    -0.014 A 
ATOM     60  C   UNL A   1      48.376  28.264  32.380  1.00  0.00     0.010 A 
ATOM     61  C   UNL A   1      47.419  26.689  33.960  1.00  0.00     0.010 A 
ATOM     62  C   UNL A   1      49.660  27.839  32.727  1.00  0.00     0.020 A 
ATOM     63  C   UNL A   1      48.703  26.285  34.333  1.00  0.00     0.020 A 
ATOM     64  C   UNL A   1      49.813  26.839  33.690  1.00  0.00     0.054 A 
BRANCH  64  65
ATOM     65  S   UNL A   1      51.484  26.244  34.070  1.00  0.00     0.124 S 
ATOM     66  O   UNL A   1      51.857  25.562  32.834  1.00  0.00    -0.237 OA
ATOM     67  O   UNL A   1      52.208  27.482  34.351  1.00  0.00    -0.237 OA
ATOM     68  O   UNL A   1      51.283  25.374  35.227  1.00  0.00    -0.744 OA
ENDBRANCH  64  65
ENDBRANCH  38  59
ENDBRANCH  12  13
ENDBRANCH   5   7
ENDBRANCH   2   3
ENDBRANCH   1   2
BRANCH   1  69
ATOM     69  C   UNL A   1      33.164  27.583  24.030  1.00  0.00     0.023 C 
BRANCH  69  70
ATOM     70  C   UNL A   1      33.338  26.111  23.682  1.00  0.00     0.116 C 
BRANCH  70  71
ATOM     71  N   UNL A   1      32.678  25.290  24.679  1.00  0.00    -0.351 N 
ATOM     72  C   UNL A   1      32.930  24.006  25.066  1.00  0.00     0.278 C 
ATOM     73  H   UNL A   1      31.932  25.728  25.150  1.00  0.00     0.163 HD
ATOM     74  O   UNL A   1      32.066  23.450  25.749  1.00  0.00    -0.268 OA
BRANCH  72  75
ATOM     75  C   UNL A   1      34.288  23.341  24.746  1.00  0.00     0.279 C 
ATOM     76  C   UNL A   1      35.270  24.013  25.752  1.00  0.00     0.111 C 
ATOM     77  N   UNL A   1      34.253  21.866  24.921  1.00  0.00    -0.317 N 
ATOM     78  C   UNL A   1      36.608  23.333  25.854  1.00  0.00    -0.033 A 
ATOM     79  C   UNL A   1      35.584  21.275  24.805  1.00  0.00     0.300 C 
ATOM     80  H   UNL A   1      33.922  21.749  25.878  1.00  0.00     0.349 HD
ATOM     81  C   UNL A   1      37.734  24.008  26.342  1.00  0.00     0.006 A 
ATOM     82  C   UNL A   1      36.717  21.987  25.491  1.00  0.00     0.011 A 
ATOM     83  C   UNL A   1      38.971  23.361  26.414  1.00  0.00     0.021 A 
ATOM     84  C   UNL A   1      37.961  21.340  25.573  1.00  0.00     0.030 A 
ATOM     85  C   UNL A   1      39.080  22.030  26.025  1.00  0.00     0.041 A 
ATOM     86  Cl  UNL A   1      40.607  21.238  26.060  1.00  0.00    -0.084 Cl
BRANCH  77  87
ATOM     87  C   UNL A   1      33.242  21.127  24.122  1.00  0.00     0.299 C 
BRANCH  87  88
ATOM     88  C   UNL A   1      32.986  19.647  24.407  1.00  0.00     0.006 A 
ATOM     89  C   UNL A   1      32.678  19.127  25.673  1.00  0.00     0.011 A 
ATOM     90  C   UNL A   1      32.975  18.732  23.345  1.00  0.00     0.011 A 
ATOM     91  C   UNL A   1      32.658  17.749  25.916  1.00  0.00     0.021 A 
ATOM     92  C   UNL A   1      32.928  17.348  23.570  1.00  0.00     0.021 A 
ATOM     93  C   UNL A   1      32.832  16.862  24.866  1.00  0.00     0.041 A 
ATOM     94  Cl  UNL A   1      32.911  15.175  25.174  1.00  0.00    -0.084 Cl
ENDBRANCH  87  88
ENDBRANCH  77  87
ENDBRANCH  72  75
ENDBRANCH  70  71
ENDBRANCH  69  70
ENDBRANCH   1  69
TORSDOF 16
ENDMDL
MODEL 3
REMARK VINA RESULT:     -10.0      4.641     10.807
REMARK SMILES O=C(NCCCCNC(=O)[C@H]1Cc2ccc(Cl)cc2C[N@@H+]1Cc1ccc(Cl)cc1)c1ccc(-c2c3nc(c(-c4ccc(S(=O)(=O)[O-])cc4)c4ccc([nH]4)c(-c4ccc(S(=O)(=O)[O-])cc4)c4nc(c(-c5ccc(S(=O)(=O)[O-])cc5)c5ccc2[nH]5)C=C4)C=C3)cc1
REMARK SMILES IDX 5 1 4 2 3 3 1 4 2 5 30 7 31 8 89 9 32 10 88 11 33 12 34 13
REMARK SMILES IDX 35 14 82 15 36 16 87 17 81 18 83 19 37 20 86 21 80 22 79 23
REMARK SMILES IDX 38 25 68 26 49 27 67 28 50 29 53 30 66 31 84 32 51 33 52 34
REMARK SMILES IDX 65 36 85 37 54 38 39 39 40 40 48 41 41 42 47 43 42 44 43 45
REMARK SMILES IDX 44 46 45 47 46 48 69 49 70 50 78 51 71 52 77 53 72 54 73 55
REMARK SMILES IDX 74 56 75 57 76 58 55 59 56 60 64 61 57 62 63 63 58 64 59 65
REMARK SMILES IDX 60 66 61 67 62 68 6 69 7 70 8 71 9 72 10 74 11 75 12 76
REMARK SMILES IDX 21 77 13 78 20 79 14 81 19 82 15 83 18 84 16 85 17 86 22 87
REMARK SMILES IDX 23 88 24 89 29 90 25 91 28 92 26 93 27 94
REMARK H PARENT 3 6 83 24 53 35 8 73 21 80
REMARK Flexibility Score: inf
ROOT
ATOM      1  C   UNL A   1      36.070  23.522  23.702  1.00  0.00     0.023 C 
ENDROOT
BRANCH   1   2
ATOM      2  C   UNL A   1      36.636  23.767  25.084  1.00  0.00     0.116 C 
BRANCH   2   3
ATOM      3  N   UNL A   1      37.539  22.707  25.503  1.00  0.00    -0.352 N 
ATOM      4  O   UNL A   1      39.465  21.795  26.221  1.00  0.00    -0.269 OA
ATOM      5  C   UNL A   1      38.748  22.786  26.151  1.00  0.00     0.251 C 
ATOM      6  H   UNL A   1      37.239  21.793  25.290  1.00  0.00     0.163 HD
BRANCH   5   7
ATOM      7  C   UNL A   1      39.179  24.065  26.758  1.00  0.00     0.039 A 
ATOM      8  C   UNL A   1      39.904  24.978  25.989  1.00  0.00     0.014 A 
ATOM      9  C   UNL A   1      38.903  24.343  28.097  1.00  0.00     0.014 A 
ATOM     10  C   UNL A   1      40.331  26.178  26.564  1.00  0.00     0.010 A 
ATOM     11  C   UNL A   1      39.213  25.585  28.628  1.00  0.00     0.010 A 
ATOM     12  C   UNL A   1      39.980  26.491  27.886  1.00  0.00    -0.014 A 
BRANCH  12  13
ATOM     13  C   UNL A   1      40.503  27.692  28.579  1.00  0.00     0.031 A 
ATOM     14  C   UNL A   1      39.578  28.865  28.781  1.00  0.00     0.074 A 
ATOM     15  C   UNL A   1      41.792  27.758  28.961  1.00  0.00     0.049 A 
ATOM     16  N   UNL A   1      39.855  30.064  29.218  1.00  0.00    -0.248 NA
ATOM     17  C   UNL A   1      38.163  28.680  28.405  1.00  0.00     0.031 C 
ATOM     18  C   UNL A   1      42.778  26.689  28.799  1.00  0.00     0.029 A 
ATOM     19  N   UNL A   1      42.495  28.774  29.560  1.00  0.00    -0.354 N 
ATOM     20  C   UNL A   1      38.663  30.776  29.139  1.00  0.00     0.074 A 
ATOM     21  C   UNL A   1      37.675  29.902  28.552  1.00  0.00     0.031 C 
ATOM     22  C   UNL A   1      43.951  27.096  29.309  1.00  0.00     0.029 A 
ATOM     23  C   UNL A   1      43.816  28.471  29.787  1.00  0.00     0.049 A 
ATOM     24  H   UNL A   1      42.090  29.638  29.803  1.00  0.00     0.167 HD
ATOM     25  C   UNL A   1      38.405  32.034  29.556  1.00  0.00     0.031 A 
ATOM     26  C   UNL A   1      44.809  29.218  30.312  1.00  0.00     0.031 A 
ATOM     27  C   UNL A   1      39.380  32.868  30.203  1.00  0.00     0.049 A 
ATOM     28  C   UNL A   1      44.499  30.615  30.779  1.00  0.00     0.074 A 
ATOM     29  C   UNL A   1      39.203  34.136  30.726  1.00  0.00     0.029 A 
ATOM     30  N   UNL A   1      40.700  32.513  30.437  1.00  0.00    -0.354 N 
ATOM     31  N   UNL A   1      43.356  31.258  30.733  1.00  0.00    -0.248 NA
ATOM     32  C   UNL A   1      45.598  31.385  31.377  1.00  0.00     0.031 C 
ATOM     33  C   UNL A   1      40.431  34.573  31.218  1.00  0.00     0.029 A 
ATOM     34  C   UNL A   1      41.355  33.549  31.075  1.00  0.00     0.049 A 
ATOM     35  H   UNL A   1      41.108  31.653  30.185  1.00  0.00     0.167 HD
ATOM     36  C   UNL A   1      43.593  32.500  31.313  1.00  0.00     0.074 A 
ATOM     37  C   UNL A   1      44.983  32.512  31.718  1.00  0.00     0.031 C 
ATOM     38  C   UNL A   1      42.738  33.536  31.486  1.00  0.00     0.031 A 
BRANCH  25  39
ATOM     39  C   UNL A   1      37.016  32.587  29.378  1.00  0.00    -0.014 A 
ATOM     40  C   UNL A   1      36.663  33.213  28.168  1.00  0.00     0.010 A 
ATOM     41  C   UNL A   1      36.110  32.619  30.454  1.00  0.00     0.010 A 
ATOM     42  C   UNL A   1      35.455  33.905  28.053  1.00  0.00     0.020 A 
ATOM     43  C   UNL A   1      34.887  33.281  30.333  1.00  0.00     0.020 A 
ATOM     44  C   UNL A   1      34.582  33.948  29.144  1.00  0.00     0.054 A 
BRANCH  44  45
ATOM     45  S   UNL A   1      33.055  34.916  29.002  1.00  0.00     0.124 S 
ATOM     46  O   UNL A   1      32.533  34.867  30.364  1.00  0.00    -0.237 OA
ATOM     47  O   UNL A   1      33.545  36.218  28.558  1.00  0.00    -0.237 OA
ATOM     48  O   UNL A   1      32.276  34.181  28.006  1.00  0.00    -0.744 OA
ENDBRANCH  44  45
ENDBRANCH  25  39
BRANCH  26  49
ATOM     49  C   UNL A   1      46.170  28.625  30.446  1.00  0.00    -0.014 A 
ATOM     50  C   UNL A   1      47.096  28.722  29.389  1.00  0.00     0.010 A 
ATOM     51  C   UNL A   1      46.515  27.879  31.585  1.00  0.00     0.010 A 
ATOM     52  C   UNL A   1      48.310  28.032  29.441  1.00  0.00     0.020 A 
ATOM     53  C   UNL A   1      47.744  27.213  31.656  1.00  0.00     0.020 A 
ATOM     54  C   UNL A   1      48.619  27.267  30.569  1.00  0.00     0.054 A 
BRANCH  54  55
ATOM     55  S   UNL A   1      50.168  26.323  30.583  1.00  0.00     0.124 S 
ATOM     56  O   UNL A   1      51.074  27.227  29.879  1.00  0.00    -0.237 OA
ATOM     57  O   UNL A   1      50.428  26.159  32.012  1.00  0.00    -0.237 OA
ATOM     58  O   UNL A   1      49.829  25.096  29.870  1.00  0.00    -0.744 OA
ENDBRANCH  54  55
ENDBRANCH  26  49
BRANCH  38  59
ATOM     59  C   UNL A   1      43.248  34.791  32.145  1.00  0.00    -0.014 A 
ATOM     60  C   UNL A   1      42.995  35.007  33.513  1.00  0.00     0.010 A 
ATOM     61  C   UNL A   1      43.796  35.830  31.374  1.00  0.00     0.010 A 
ATOM     62  C   UNL A   1      43.225  36.259  34.086  1.00  0.00     0.020 A 
ATOM     63  C   UNL A   1      44.058  37.075  31.953  1.00  0.00     0.020 A 
ATOM     64  C   UNL A   1      43.740  37.290  33.297  1.00  0.00     0.054 A 
BRANCH  64  65
ATOM     65  S   UNL A   1      43.958  38.931  34.038  1.00  0.00     0.124 S 
ATOM     66  O   UNL A   1      42.712  39.600  33.677  1.00  0.00    -0.237 OA
ATOM     67  O   UNL A   1      44.120  38.621  35.457  1.00  0.00    -0.237 OA
ATOM     68  O   UNL A   1      45.157  39.447  33.381  1.00  0.00    -0.744 OA
ENDBRANCH  64  65
ENDBRANCH  38  59
ENDBRANCH  12  13
ENDBRANCH   5   7
ENDBRANCH   2   3
ENDBRANCH   1   2
BRANCH   1  69
ATOM     69  C   UNL A   1      34.582  23.808  23.587  1.00  0.00     0.023 C 
BRANCH  69  70
ATOM     70  C   UNL A   1      33.815  22.978  22.567  1.00  0.00     0.116 C 
BRANCH  70  71
ATOM     71  N   UNL A   1      32.464  23.490  22.436  1.00  0.00    -0.351 N 
ATOM     72  C   UNL A   1      31.718  24.234  23.304  1.00  0.00     0.278 C 
ATOM     73  H   UNL A   1      32.015  23.266  21.589  1.00  0.00     0.163 HD
ATOM     74  O   UNL A   1      30.511  24.322  23.067  1.00  0.00    -0.268 OA
BRANCH  72  75
ATOM     75  C   UNL A   1      32.396  25.009  24.456  1.00  0.00     0.279 C 
ATOM     76  C   UNL A   1      32.581  26.442  23.874  1.00  0.00     0.111 C 
ATOM     77  N   UNL A   1      31.571  25.026  25.692  1.00  0.00    -0.317 N 
ATOM     78  C   UNL A   1      32.954  27.480  24.898  1.00  0.00    -0.033 A 
ATOM     79  C   UNL A   1      32.129  25.919  26.705  1.00  0.00     0.300 C 
ATOM     80  H   UNL A   1      30.678  25.402  25.375  1.00  0.00     0.349 HD
ATOM     81  C   UNL A   1      33.574  28.680  24.527  1.00  0.00     0.006 A 
ATOM     82  C   UNL A   1      32.636  27.256  26.240  1.00  0.00     0.011 A 
ATOM     83  C   UNL A   1      33.924  29.624  25.497  1.00  0.00     0.021 A 
ATOM     84  C   UNL A   1      32.984  28.211  27.209  1.00  0.00     0.030 A 
ATOM     85  C   UNL A   1      33.631  29.383  26.835  1.00  0.00     0.041 A 
ATOM     86  Cl  UNL A   1      34.104  30.514  28.043  1.00  0.00    -0.084 Cl
BRANCH  77  87
ATOM     87  C   UNL A   1      31.198  23.704  26.257  1.00  0.00     0.299 C 
BRANCH  87  88
ATOM     88  C   UNL A   1      32.124  22.504  26.054  1.00  0.00     0.006 A 
ATOM     89  C   UNL A   1      33.360  22.341  26.695  1.00  0.00     0.011 A 
ATOM     90  C   UNL A   1      31.708  21.443  25.238  1.00  0.00     0.011 A 
ATOM     91  C   UNL A   1      34.257  21.336  26.319  1.00  0.00     0.021 A 
ATOM     92  C   UNL A   1      32.586  20.411  24.872  1.00  0.00     0.021 A 
ATOM     93  C   UNL A   1      33.881  20.399  25.369  1.00  0.00     0.041 A 
ATOM     94  Cl  UNL A   1      35.012  19.225  24.828  1.00  0.00    -0.084 Cl
ENDBRANCH  87  88
ENDBRANCH  77  87
ENDBRANCH  72  75
ENDBRANCH  70  71
ENDBRANCH  69  70
ENDBRANCH   1  69
TORSDOF 16
ENDMDL
