MODEL 1
REMARK VINA RESULT:      -9.8      0.000      0.000
REMARK SMILES C[C@H](NC(=O)N(CC(=O)NCCCCNC(=O)c1ccc(-c2c3nc(c(-c4ccc(S(=O)(=O)[O-])cc4)c4ccc([nH]4)c(-c4ccc(S(=O)(=O)[O-])cc4)c4nc(c(-c5ccc(S(=O)(=O)[O-])cc5)c5ccc2[nH]5)C=C4)C=C3)cc1)CC(F)(F)F)[C@@H]1CCCO1
REMARK SMILES IDX 12 1 11 2 10 3 8 4 9 5 7 7 6 8 4 9 3 10 5 12 2 13 1 14 83 15
REMARK SMILES IDX 84 16 87 17 85 18 86 19 78 20 79 21 80 22 81 23 82 24 13 25
REMARK SMILES IDX 14 26 15 27 16 28 17 30 18 31 19 32 77 33 20 34 76 35 21 36
REMARK SMILES IDX 22 37 23 38 70 39 24 40 75 41 69 42 71 43 25 44 74 45 68 46
REMARK SMILES IDX 67 47 26 49 56 50 37 51 55 52 38 53 41 54 54 55 72 56 39 57
REMARK SMILES IDX 40 58 53 60 73 61 42 62 27 63 28 64 36 65 29 66 35 67 30 68
REMARK SMILES IDX 31 69 32 70 33 71 34 72 57 73 58 74 66 75 59 76 65 77 60 78
REMARK SMILES IDX 61 79 62 80 63 81 64 82 43 83 44 84 52 85 45 86 51 87 46 88
REMARK SMILES IDX 47 89 48 90 49 91 50 92
REMARK H PARENT 10 6 3 11 15 29 71 48 41 59
REMARK Flexibility Score: inf
ROOT
ATOM      1  C   UNL A   1      35.295  23.908  23.269  1.00  0.00     0.023 C 
ENDROOT
BRANCH   1   2
ATOM      2  C   UNL A   1      33.911  23.525  22.764  1.00  0.00     0.116 C 
BRANCH   2   3
ATOM      3  N   UNL A   1      33.108  24.663  22.375  1.00  0.00    -0.355 N 
ATOM      4  C   UNL A   1      31.944  25.180  22.838  1.00  0.00     0.239 C 
ATOM      5  O   UNL A   1      31.622  26.279  22.364  1.00  0.00    -0.273 OA
ATOM      6  H   UNL A   1      33.484  25.166  21.616  1.00  0.00     0.163 HD
BRANCH   4   7
ATOM      7  C   UNL A   1      31.113  24.626  24.014  1.00  0.00     0.221 C 
BRANCH   7   8
ATOM      8  N   UNL A   1      31.488  24.764  25.427  1.00  0.00    -0.306 N 
BRANCH   8   9
ATOM      9  C   UNL A   1      32.669  25.176  25.982  1.00  0.00     0.318 C 
ATOM     10  N   UNL A   1      32.963  26.465  26.244  1.00  0.00    -0.333 N 
ATOM     11  H   UNL A   1      33.894  26.583  26.539  1.00  0.00     0.165 HD
ATOM     12  O   UNL A   1      33.544  24.357  26.278  1.00  0.00    -0.249 OA
BRANCH  10  13
ATOM     13  C   UNL A   1      32.231  27.729  26.194  1.00  0.00     0.109 C 
ATOM     14  C   UNL A   1      31.262  27.806  27.372  1.00  0.00     0.034 C 
BRANCH  13  15
ATOM     15  C   UNL A   1      33.148  28.975  26.166  1.00  0.00     0.140 C 
ATOM     16  C   UNL A   1      34.302  28.849  27.155  1.00  0.00     0.036 C 
ATOM     17  O   UNL A   1      32.463  30.170  26.582  1.00  0.00    -0.376 OA
ATOM     18  C   UNL A   1      34.730  30.283  27.322  1.00  0.00     0.031 C 
ATOM     19  C   UNL A   1      33.425  31.047  27.196  1.00  0.00     0.160 C 
ENDBRANCH  13  15
ENDBRANCH  10  13
ENDBRANCH   8   9
BRANCH   8  20
ATOM     20  C   UNL A   1      30.408  24.416  26.390  1.00  0.00     0.237 C 
BRANCH  20  21
ATOM     21  C   UNL A   1      30.321  22.964  26.853  1.00  0.00     0.406 C 
ATOM     22  F   UNL A   1      30.292  22.088  25.830  1.00  0.00    -0.169 F 
ATOM     23  F   UNL A   1      31.403  22.658  27.613  1.00  0.00    -0.169 F 
ATOM     24  F   UNL A   1      29.229  22.760  27.624  1.00  0.00    -0.169 F 
ENDBRANCH  20  21
ENDBRANCH   8  20
ENDBRANCH   7   8
ENDBRANCH   4   7
ENDBRANCH   2   3
ENDBRANCH   1   2
BRANCH   1  25
ATOM     25  C   UNL A   1      35.859  22.985  24.346  1.00  0.00     0.023 C 
BRANCH  25  26
ATOM     26  C   UNL A   1      37.010  23.579  25.147  1.00  0.00     0.116 C 
BRANCH  26  27
ATOM     27  N   UNL A   1      38.017  22.591  25.508  1.00  0.00    -0.352 N 
ATOM     28  C   UNL A   1      39.188  22.789  26.205  1.00  0.00     0.251 C 
ATOM     29  H   UNL A   1      37.839  21.667  25.219  1.00  0.00     0.163 HD
ATOM     30  O   UNL A   1      40.008  21.892  26.328  1.00  0.00    -0.269 OA
BRANCH  28  31
ATOM     31  C   UNL A   1      39.444  24.126  26.780  1.00  0.00     0.039 A 
ATOM     32  C   UNL A   1      39.015  24.403  28.080  1.00  0.00     0.014 A 
ATOM     33  C   UNL A   1      40.172  25.070  26.051  1.00  0.00     0.014 A 
ATOM     34  C   UNL A   1      39.380  25.612  28.679  1.00  0.00     0.010 A 
ATOM     35  C   UNL A   1      40.591  26.239  26.674  1.00  0.00     0.010 A 
ATOM     36  C   UNL A   1      40.202  26.522  27.993  1.00  0.00    -0.014 A 
BRANCH  36  37
ATOM     37  C   UNL A   1      40.666  27.785  28.619  1.00  0.00     0.031 A 
ATOM     38  C   UNL A   1      42.042  27.849  29.221  1.00  0.00     0.074 A 
ATOM     39  C   UNL A   1      39.823  28.831  28.737  1.00  0.00     0.049 A 
ATOM     40  N   UNL A   1      42.582  28.791  29.950  1.00  0.00    -0.248 NA
ATOM     41  C   UNL A   1      42.916  26.681  29.008  1.00  0.00     0.031 C 
ATOM     42  C   UNL A   1      38.447  28.879  28.231  1.00  0.00     0.029 A 
ATOM     43  N   UNL A   1      39.991  30.051  29.345  1.00  0.00    -0.354 N 
ATOM     44  C   UNL A   1      43.837  28.316  30.312  1.00  0.00     0.074 A 
ATOM     45  C   UNL A   1      43.967  26.989  29.753  1.00  0.00     0.031 C 
ATOM     46  C   UNL A   1      37.904  30.066  28.543  1.00  0.00     0.029 A 
ATOM     47  C   UNL A   1      38.872  30.849  29.305  1.00  0.00     0.049 A 
ATOM     48  H   UNL A   1      40.835  30.329  29.770  1.00  0.00     0.167 HD
ATOM     49  C   UNL A   1      44.799  28.934  31.034  1.00  0.00     0.031 A 
ATOM     50  C   UNL A   1      38.643  32.065  29.839  1.00  0.00     0.031 A 
ATOM     51  C   UNL A   1      44.681  30.271  31.551  1.00  0.00     0.049 A 
ATOM     52  C   UNL A   1      39.742  32.744  30.614  1.00  0.00     0.074 A 
ATOM     53  C   UNL A   1      45.631  31.015  32.230  1.00  0.00     0.029 A 
ATOM     54  N   UNL A   1      43.552  31.066  31.438  1.00  0.00    -0.354 N 
ATOM     55  N   UNL A   1      40.946  32.302  30.892  1.00  0.00    -0.248 NA
ATOM     56  C   UNL A   1      39.456  34.086  31.141  1.00  0.00     0.031 C 
ATOM     57  C   UNL A   1      45.060  32.247  32.563  1.00  0.00     0.029 A 
ATOM     58  C   UNL A   1      43.776  32.288  32.047  1.00  0.00     0.049 A 
ATOM     59  H   UNL A   1      42.716  30.801  30.992  1.00  0.00     0.167 HD
ATOM     60  C   UNL A   1      41.570  33.326  31.596  1.00  0.00     0.074 A 
ATOM     61  C   UNL A   1      40.617  34.411  31.695  1.00  0.00     0.031 C 
ATOM     62  C   UNL A   1      42.821  33.364  32.114  1.00  0.00     0.031 A 
BRANCH  49  63
ATOM     63  C   UNL A   1      46.069  28.177  31.309  1.00  0.00    -0.014 A 
ATOM     64  C   UNL A   1      47.225  28.393  30.537  1.00  0.00     0.010 A 
ATOM     65  C   UNL A   1      46.127  27.284  32.394  1.00  0.00     0.010 A 
ATOM     66  C   UNL A   1      48.407  27.709  30.828  1.00  0.00     0.020 A 
ATOM     67  C   UNL A   1      47.315  26.616  32.705  1.00  0.00     0.020 A 
ATOM     68  C   UNL A   1      48.445  26.825  31.911  1.00  0.00     0.054 A 
BRANCH  68  69
ATOM     69  S   UNL A   1      50.007  25.986  32.295  1.00  0.00     0.124 S 
ATOM     70  O   UNL A   1      50.705  26.998  33.083  1.00  0.00    -0.237 OA
ATOM     71  O   UNL A   1      49.564  24.808  33.036  1.00  0.00    -0.237 OA
ATOM     72  O   UNL A   1      50.584  25.711  30.981  1.00  0.00    -0.744 OA
ENDBRANCH  68  69
ENDBRANCH  49  63
BRANCH  50  73
ATOM     73  C   UNL A   1      37.320  32.727  29.665  1.00  0.00    -0.014 A 
ATOM     74  C   UNL A   1      37.025  33.434  28.486  1.00  0.00     0.010 A 
ATOM     75  C   UNL A   1      36.355  32.668  30.686  1.00  0.00     0.010 A 
ATOM     76  C   UNL A   1      35.804  34.100  28.345  1.00  0.00     0.020 A 
ATOM     77  C   UNL A   1      35.122  33.311  30.538  1.00  0.00     0.020 A 
ATOM     78  C   UNL A   1      34.861  34.038  29.375  1.00  0.00     0.054 A 
BRANCH  78  79
ATOM     79  S   UNL A   1      33.274  34.891  29.165  1.00  0.00     0.124 S 
ATOM     80  O   UNL A   1      32.615  34.061  28.162  1.00  0.00    -0.237 OA
ATOM     81  O   UNL A   1      32.703  34.835  30.508  1.00  0.00    -0.237 OA
ATOM     82  O   UNL A   1      33.662  36.227  28.716  1.00  0.00    -0.744 OA
ENDBRANCH  78  79
ENDBRANCH  50  73
BRANCH  62  83
ATOM     83  C   UNL A   1      43.260  34.634  32.789  1.00  0.00    -0.014 A 
ATOM     84  C   UNL A   1      43.741  35.726  32.048  1.00  0.00     0.010 A 
ATOM     85  C   UNL A   1      43.100  34.763  34.181  1.00  0.00     0.010 A 
ATOM     86  C   UNL A   1      44.072  36.921  32.689  1.00  0.00     0.020 A 
ATOM     87  C   UNL A   1      43.406  35.965  34.823  1.00  0.00     0.020 A 
ATOM     88  C   UNL A   1      43.898  37.035  34.073  1.00  0.00     0.054 A 
BRANCH  88  89
ATOM     89  S   UNL A   1      44.265  38.622  34.873  1.00  0.00     0.124 S 
ATOM     90  O   UNL A   1      43.384  39.535  34.153  1.00  0.00    -0.237 OA
ATOM     91  O   UNL A   1      43.905  38.369  36.267  1.00  0.00    -0.237 OA
ATOM     92  O   UNL A   1      45.694  38.810  34.630  1.00  0.00    -0.744 OA
ENDBRANCH  88  89
ENDBRANCH  62  83
ENDBRANCH  36  37
ENDBRANCH  28  31
ENDBRANCH  26  27
ENDBRANCH  25  26
ENDBRANCH   1  25
TORSDOF 20
ENDMDL
MODEL 2
REMARK VINA RESULT:      -9.8      2.456      3.051
REMARK SMILES C[C@H](NC(=O)N(CC(=O)NCCCCNC(=O)c1ccc(-c2c3nc(c(-c4ccc(S(=O)(=O)[O-])cc4)c4ccc([nH]4)c(-c4ccc(S(=O)(=O)[O-])cc4)c4nc(c(-c5ccc(S(=O)(=O)[O-])cc5)c5ccc2[nH]5)C=C4)C=C3)cc1)CC(F)(F)F)[C@@H]1CCCO1
REMARK SMILES IDX 12 1 11 2 10 3 8 4 9 5 7 7 6 8 4 9 3 10 5 12 2 13 1 14 83 15
REMARK SMILES IDX 84 16 87 17 85 18 86 19 78 20 79 21 80 22 81 23 82 24 13 25
REMARK SMILES IDX 14 26 15 27 16 28 17 30 18 31 19 32 77 33 20 34 76 35 21 36
REMARK SMILES IDX 22 37 23 38 70 39 24 40 75 41 69 42 71 43 25 44 74 45 68 46
REMARK SMILES IDX 67 47 26 49 56 50 37 51 55 52 38 53 41 54 54 55 72 56 39 57
REMARK SMILES IDX 40 58 53 60 73 61 42 62 27 63 28 64 36 65 29 66 35 67 30 68
REMARK SMILES IDX 31 69 32 70 33 71 34 72 57 73 58 74 66 75 59 76 65 77 60 78
REMARK SMILES IDX 61 79 62 80 63 81 64 82 43 83 44 84 52 85 45 86 51 87 46 88
REMARK SMILES IDX 47 89 48 90 49 91 50 92
REMARK H PARENT 10 6 3 11 15 29 71 48 41 59
REMARK Flexibility Score: inf
ROOT
ATOM      1  C   UNL A   1      34.698  22.971  24.208  1.00  0.00     0.023 C 
ENDROOT
BRANCH   1   2
ATOM      2  C   UNL A   1      33.621  23.961  24.629  1.00  0.00     0.116 C 
BRANCH   2   3
ATOM      3  N   UNL A   1      32.337  23.708  24.012  1.00  0.00    -0.355 N 
ATOM      4  C   UNL A   1      31.180  24.409  23.955  1.00  0.00     0.239 C 
ATOM      5  O   UNL A   1      30.318  23.957  23.187  1.00  0.00    -0.273 OA
ATOM      6  H   UNL A   1      32.296  22.847  23.534  1.00  0.00     0.163 HD
BRANCH   4   7
ATOM      7  C   UNL A   1      30.927  25.789  24.596  1.00  0.00     0.221 C 
BRANCH   7   8
ATOM      8  N   UNL A   1      31.254  27.070  23.957  1.00  0.00    -0.306 N 
BRANCH   8   9
ATOM      9  C   UNL A   1      31.035  28.348  24.397  1.00  0.00     0.318 C 
ATOM     10  N   UNL A   1      30.253  29.237  23.754  1.00  0.00    -0.333 N 
ATOM     11  H   UNL A   1      30.300  30.134  24.156  1.00  0.00     0.165 HD
ATOM     12  O   UNL A   1      31.561  28.752  25.438  1.00  0.00    -0.249 OA
BRANCH  10  13
ATOM     13  C   UNL A   1      29.354  29.189  22.603  1.00  0.00     0.109 C 
ATOM     14  C   UNL A   1      27.964  28.746  23.059  1.00  0.00     0.034 C 
BRANCH  13  15
ATOM     15  C   UNL A   1      29.267  30.526  21.829  1.00  0.00     0.140 C 
ATOM     16  C   UNL A   1      28.663  31.636  22.683  1.00  0.00     0.036 C 
ATOM     17  O   UNL A   1      28.389  30.446  20.692  1.00  0.00    -0.376 OA
ATOM     18  C   UNL A   1      28.225  32.631  21.641  1.00  0.00     0.031 C 
ATOM     19  C   UNL A   1      27.816  31.749  20.476  1.00  0.00     0.160 C 
ENDBRANCH  13  15
ENDBRANCH  10  13
ENDBRANCH   8   9
BRANCH   8  20
ATOM     20  C   UNL A   1      31.940  26.948  22.643  1.00  0.00     0.237 C 
BRANCH  20  21
ATOM     21  C   UNL A   1      33.462  27.063  22.632  1.00  0.00     0.406 C 
ATOM     22  F   UNL A   1      33.901  28.149  21.967  1.00  0.00    -0.169 F 
ATOM     23  F   UNL A   1      33.925  27.157  23.903  1.00  0.00    -0.169 F 
ATOM     24  F   UNL A   1      34.033  25.966  22.085  1.00  0.00    -0.169 F 
ENDBRANCH  20  21
ENDBRANCH   8  20
ENDBRANCH   7   8
ENDBRANCH   4   7
ENDBRANCH   2   3
ENDBRANCH   1   2
BRANCH   1  25
ATOM     25  C   UNL A   1      36.106  23.555  24.127  1.00  0.00     0.023 C 
BRANCH  25  26
ATOM     26  C   UNL A   1      36.817  23.678  25.467  1.00  0.00     0.116 C 
BRANCH  26  27
ATOM     27  N   UNL A   1      37.929  22.747  25.604  1.00  0.00    -0.352 N 
ATOM     28  C   UNL A   1      39.166  22.980  26.163  1.00  0.00     0.251 C 
ATOM     29  H   UNL A   1      37.778  21.839  25.255  1.00  0.00     0.163 HD
ATOM     30  O   UNL A   1      40.055  22.145  26.097  1.00  0.00    -0.269 OA
BRANCH  28  31
ATOM     31  C   UNL A   1      39.404  24.281  26.822  1.00  0.00     0.039 A 
ATOM     32  C   UNL A   1      38.926  24.486  28.119  1.00  0.00     0.014 A 
ATOM     33  C   UNL A   1      40.161  25.261  26.177  1.00  0.00     0.014 A 
ATOM     34  C   UNL A   1      39.272  25.656  28.799  1.00  0.00     0.010 A 
ATOM     35  C   UNL A   1      40.560  26.390  26.881  1.00  0.00     0.010 A 
ATOM     36  C   UNL A   1      40.122  26.600  28.198  1.00  0.00    -0.014 A 
BRANCH  36  37
ATOM     37  C   UNL A   1      40.565  27.823  28.912  1.00  0.00     0.031 A 
ATOM     38  C   UNL A   1      41.889  27.823  29.626  1.00  0.00     0.074 A 
ATOM     39  C   UNL A   1      39.742  28.887  29.006  1.00  0.00     0.049 A 
ATOM     40  N   UNL A   1      42.390  28.719  30.435  1.00  0.00    -0.248 NA
ATOM     41  C   UNL A   1      42.747  26.640  29.435  1.00  0.00     0.031 C 
ATOM     42  C   UNL A   1      38.414  28.995  28.393  1.00  0.00     0.029 A 
ATOM     43  N   UNL A   1      39.891  30.076  29.677  1.00  0.00    -0.354 N 
ATOM     44  C   UNL A   1      43.599  28.194  30.877  1.00  0.00     0.074 A 
ATOM     45  C   UNL A   1      43.740  26.887  30.274  1.00  0.00     0.031 C 
ATOM     46  C   UNL A   1      37.877  30.184  28.710  1.00  0.00     0.029 A 
ATOM     47  C   UNL A   1      38.799  30.907  29.580  1.00  0.00     0.049 A 
ATOM     48  H   UNL A   1      40.704  30.312  30.179  1.00  0.00     0.167 HD
ATOM     49  C   UNL A   1      44.514  28.755  31.700  1.00  0.00     0.031 A 
ATOM     50  C   UNL A   1      38.559  32.107  30.145  1.00  0.00     0.031 A 
ATOM     51  C   UNL A   1      44.389  30.073  32.262  1.00  0.00     0.049 A 
ATOM     52  C   UNL A   1      39.607  32.722  31.034  1.00  0.00     0.074 A 
ATOM     53  C   UNL A   1      45.298  30.761  33.046  1.00  0.00     0.029 A 
ATOM     54  N   UNL A   1      43.293  30.904  32.092  1.00  0.00    -0.354 N 
ATOM     55  N   UNL A   1      40.773  32.235  31.390  1.00  0.00    -0.248 NA
ATOM     56  C   UNL A   1      39.313  34.050  31.592  1.00  0.00     0.031 C 
ATOM     57  C   UNL A   1      44.734  31.994  33.384  1.00  0.00     0.029 A 
ATOM     58  C   UNL A   1      43.497  32.093  32.768  1.00  0.00     0.049 A 
ATOM     59  H   UNL A   1      42.490  30.681  31.568  1.00  0.00     0.167 HD
ATOM     60  C   UNL A   1      41.363  33.212  32.184  1.00  0.00     0.074 A 
ATOM     61  C   UNL A   1      40.433  34.318  32.252  1.00  0.00     0.031 C 
ATOM     62  C   UNL A   1      42.568  33.193  32.803  1.00  0.00     0.031 A 
BRANCH  49  63
ATOM     63  C   UNL A   1      45.737  27.950  32.044  1.00  0.00    -0.014 A 
ATOM     64  C   UNL A   1      46.906  28.038  31.266  1.00  0.00     0.010 A 
ATOM     65  C   UNL A   1      45.741  27.146  33.198  1.00  0.00     0.010 A 
ATOM     66  C   UNL A   1      48.046  27.313  31.620  1.00  0.00     0.020 A 
ATOM     67  C   UNL A   1      46.888  26.440  33.571  1.00  0.00     0.020 A 
ATOM     68  C   UNL A   1      48.030  26.518  32.770  1.00  0.00     0.054 A 
BRANCH  68  69
ATOM     69  S   UNL A   1      49.540  25.625  33.232  1.00  0.00     0.124 S 
ATOM     70  O   UNL A   1      50.364  25.790  32.037  1.00  0.00    -0.237 OA
ATOM     71  O   UNL A   1      49.995  26.354  34.413  1.00  0.00    -0.237 OA
ATOM     72  O   UNL A   1      49.074  24.264  33.484  1.00  0.00    -0.744 OA
ENDBRANCH  68  69
ENDBRANCH  49  63
BRANCH  50  73
ATOM     73  C   UNL A   1      37.272  32.813  29.893  1.00  0.00    -0.014 A 
ATOM     74  C   UNL A   1      36.158  32.584  30.721  1.00  0.00     0.010 A 
ATOM     75  C   UNL A   1      37.148  33.705  28.812  1.00  0.00     0.010 A 
ATOM     76  C   UNL A   1      34.935  33.207  30.452  1.00  0.00     0.020 A 
ATOM     77  C   UNL A   1      35.934  34.350  28.557  1.00  0.00     0.020 A 
ATOM     78  C   UNL A   1      34.830  34.082  29.368  1.00  0.00     0.054 A 
BRANCH  78  79
ATOM     79  S   UNL A   1      33.240  34.896  29.048  1.00  0.00     0.124 S 
ATOM     80  O   UNL A   1      33.663  36.198  28.545  1.00  0.00    -0.237 OA
ATOM     81  O   UNL A   1      32.621  34.008  28.066  1.00  0.00    -0.237 OA
ATOM     82  O   UNL A   1      32.594  34.909  30.359  1.00  0.00    -0.744 OA
ENDBRANCH  78  79
ENDBRANCH  50  73
BRANCH  62  83
ATOM     83  C   UNL A   1      42.983  34.422  33.565  1.00  0.00    -0.014 A 
ATOM     84  C   UNL A   1      42.712  34.554  34.937  1.00  0.00     0.010 A 
ATOM     85  C   UNL A   1      43.734  35.415  32.911  1.00  0.00     0.010 A 
ATOM     86  C   UNL A   1      43.173  35.670  35.640  1.00  0.00     0.020 A 
ATOM     87  C   UNL A   1      44.217  36.520  33.616  1.00  0.00     0.020 A 
ATOM     88  C   UNL A   1      43.926  36.644  34.976  1.00  0.00     0.054 A 
BRANCH  88  89
ATOM     89  S   UNL A   1      44.575  38.046  35.927  1.00  0.00     0.124 S 
ATOM     90  O   UNL A   1      43.974  37.828  37.238  1.00  0.00    -0.237 OA
ATOM     91  O   UNL A   1      46.020  37.841  35.855  1.00  0.00    -0.237 OA
ATOM     92  O   UNL A   1      44.082  39.214  35.201  1.00  0.00    -0.744 OA
ENDBRANCH  88  89
ENDBRANCH  62  83
ENDBRANCH  36  37
ENDBRANCH  28  31
ENDBRANCH  26  27
ENDBRANCH  25  26
ENDBRANCH   1  25
TORSDOF 20
ENDMDL
MODEL 3
REMARK VINA RESULT:      -9.6      4.218      7.583
REMARK SMILES C[C@H](NC(=O)N(CC(=O)NCCCCNC(=O)c1ccc(-c2c3nc(c(-c4ccc(S(=O)(=O)[O-])cc4)c4ccc([nH]4)c(-c4ccc(S(=O)(=O)[O-])cc4)c4nc(c(-c5ccc(S(=O)(=O)[O-])cc5)c5ccc2[nH]5)C=C4)C=C3)cc1)CC(F)(F)F)[C@@H]1CCCO1
REMARK SMILES IDX 12 1 11 2 10 3 8 4 9 5 7 7 6 8 4 9 3 10 5 12 2 13 1 14 83 15
REMARK SMILES IDX 84 16 87 17 85 18 86 19 78 20 79 21 80 22 81 23 82 24 13 25
REMARK SMILES IDX 14 26 15 27 16 28 17 30 18 31 19 32 77 33 20 34 76 35 21 36
REMARK SMILES IDX 22 37 23 38 70 39 24 40 75 41 69 42 71 43 25 44 74 45 68 46
REMARK SMILES IDX 67 47 26 49 56 50 37 51 55 52 38 53 41 54 54 55 72 56 39 57
REMARK SMILES IDX 40 58 53 60 73 61 42 62 27 63 28 64 36 65 29 66 35 67 30 68
REMARK SMILES IDX 31 69 32 70 33 71 34 72 57 73 58 74 66 75 59 76 65 77 60 78
REMARK SMILES IDX 61 79 62 80 63 81 64 82 43 83 44 84 52 85 45 86 51 87 46 88
REMARK SMILES IDX 47 89 48 90 49 91 50 92
REMARK H PARENT 10 6 3 11 15 29 71 48 41 59
REMARK Flexibility Score: inf
ROOT
ATOM      1  C   UNL A   1      42.784  22.481  27.615  1.00  0.00     0.023 C 
ENDROOT
BRANCH   1   2
ATOM      2  C   UNL A   1      43.204  23.935  27.460  1.00  0.00     0.116 C 
BRANCH   2   3
ATOM      3  N   UNL A   1      44.183  24.357  28.438  1.00  0.00    -0.355 N 
ATOM      4  C   UNL A   1      45.537  24.407  28.434  1.00  0.00     0.239 C 
ATOM      5  O   UNL A   1      46.052  24.987  29.401  1.00  0.00    -0.273 OA
ATOM      6  H   UNL A   1      43.783  24.672  29.281  1.00  0.00     0.163 HD
BRANCH   4   7
ATOM      7  C   UNL A   1      46.454  23.989  27.267  1.00  0.00     0.221 C 
BRANCH   7   8
ATOM      8  N   UNL A   1      46.571  24.726  26.003  1.00  0.00    -0.306 N 
BRANCH   8   9
ATOM      9  C   UNL A   1      46.806  24.260  24.737  1.00  0.00     0.318 C 
ATOM     10  N   UNL A   1      46.189  23.184  24.210  1.00  0.00    -0.333 N 
ATOM     11  H   UNL A   1      46.561  22.933  23.334  1.00  0.00     0.165 HD
ATOM     12  O   UNL A   1      47.617  24.827  23.999  1.00  0.00    -0.249 OA
BRANCH  10  13
ATOM     13  C   UNL A   1      45.103  22.300  24.628  1.00  0.00     0.109 C 
ATOM     14  C   UNL A   1      43.825  22.672  23.879  1.00  0.00     0.034 C 
BRANCH  13  15
ATOM     15  C   UNL A   1      45.421  20.797  24.439  1.00  0.00     0.140 C 
ATOM     16  C   UNL A   1      44.378  19.910  25.110  1.00  0.00     0.036 C 
ATOM     17  O   UNL A   1      46.658  20.415  25.068  1.00  0.00    -0.376 OA
ATOM     18  C   UNL A   1      45.113  18.602  25.239  1.00  0.00     0.031 C 
ATOM     19  C   UNL A   1      46.548  19.038  25.471  1.00  0.00     0.160 C 
ENDBRANCH  13  15
ENDBRANCH  10  13
ENDBRANCH   8   9
BRANCH   8  20
ATOM     20  C   UNL A   1      46.388  26.198  26.126  1.00  0.00     0.237 C 
BRANCH  20  21
ATOM     21  C   UNL A   1      45.046  26.778  25.689  1.00  0.00     0.406 C 
ATOM     22  F   UNL A   1      45.174  27.783  24.801  1.00  0.00    -0.169 F 
ATOM     23  F   UNL A   1      44.298  25.813  25.098  1.00  0.00    -0.169 F 
ATOM     24  F   UNL A   1      44.339  27.230  26.748  1.00  0.00    -0.169 F 
ENDBRANCH  20  21
ENDBRANCH   8  20
ENDBRANCH   7   8
ENDBRANCH   4   7
ENDBRANCH   2   3
ENDBRANCH   1   2
BRANCH   1  25
ATOM     25  C   UNL A   1      41.718  22.015  26.627  1.00  0.00     0.023 C 
BRANCH  25  26
ATOM     26  C   UNL A   1      40.313  21.930  27.207  1.00  0.00     0.116 C 
BRANCH  26  27
ATOM     27  N   UNL A   1      39.290  22.393  26.280  1.00  0.00    -0.352 N 
ATOM     28  C   UNL A   1      38.769  23.662  26.156  1.00  0.00     0.251 C 
ATOM     29  H   UNL A   1      38.926  21.716  25.665  1.00  0.00     0.163 HD
ATOM     30  O   UNL A   1      37.819  23.884  25.421  1.00  0.00    -0.269 OA
BRANCH  28  31
ATOM     31  C   UNL A   1      39.370  24.747  26.959  1.00  0.00     0.039 A 
ATOM     32  C   UNL A   1      40.235  25.653  26.342  1.00  0.00     0.014 A 
ATOM     33  C   UNL A   1      39.012  24.901  28.300  1.00  0.00     0.014 A 
ATOM     34  C   UNL A   1      40.691  26.762  27.059  1.00  0.00     0.010 A 
ATOM     35  C   UNL A   1      39.410  26.041  28.987  1.00  0.00     0.010 A 
ATOM     36  C   UNL A   1      40.252  26.984  28.374  1.00  0.00    -0.014 A 
BRANCH  36  37
ATOM     37  C   UNL A   1      40.660  28.184  29.146  1.00  0.00     0.031 A 
ATOM     38  C   UNL A   1      41.968  28.174  29.890  1.00  0.00     0.074 A 
ATOM     39  C   UNL A   1      39.820  29.232  29.263  1.00  0.00     0.049 A 
ATOM     40  N   UNL A   1      42.438  29.044  30.745  1.00  0.00    -0.248 NA
ATOM     41  C   UNL A   1      42.847  27.012  29.672  1.00  0.00     0.031 C 
ATOM     42  C   UNL A   1      38.505  29.345  28.625  1.00  0.00     0.029 A 
ATOM     43  N   UNL A   1      39.936  30.395  29.984  1.00  0.00    -0.354 N 
ATOM     44  C   UNL A   1      43.644  28.518  31.194  1.00  0.00     0.074 A 
ATOM     45  C   UNL A   1      43.818  27.239  30.543  1.00  0.00     0.031 C 
ATOM     46  C   UNL A   1      37.943  30.513  28.975  1.00  0.00     0.029 A 
ATOM     47  C   UNL A   1      38.834  31.214  29.895  1.00  0.00     0.049 A 
ATOM     48  H   UNL A   1      40.734  30.622  30.514  1.00  0.00     0.167 HD
ATOM     49  C   UNL A   1      44.531  29.059  32.059  1.00  0.00     0.031 A 
ATOM     50  C   UNL A   1      38.563  32.387  30.500  1.00  0.00     0.031 A 
ATOM     51  C   UNL A   1      44.374  30.351  32.670  1.00  0.00     0.049 A 
ATOM     52  C   UNL A   1      39.582  32.980  31.438  1.00  0.00     0.074 A 
ATOM     53  C   UNL A   1      45.255  31.020  33.502  1.00  0.00     0.029 A 
ATOM     54  N   UNL A   1      43.270  31.173  32.507  1.00  0.00    -0.354 N 
ATOM     55  N   UNL A   1      40.746  32.496  31.801  1.00  0.00    -0.248 NA
ATOM     56  C   UNL A   1      39.256  34.281  32.041  1.00  0.00     0.031 C 
ATOM     57  C   UNL A   1      44.665  32.232  33.874  1.00  0.00     0.029 A 
ATOM     58  C   UNL A   1      43.441  32.337  33.235  1.00  0.00     0.049 A 
ATOM     59  H   UNL A   1      42.483  30.960  31.957  1.00  0.00     0.167 HD
ATOM     60  C   UNL A   1      41.304  33.448  32.646  1.00  0.00     0.074 A 
ATOM     61  C   UNL A   1      40.356  34.538  32.736  1.00  0.00     0.031 C 
ATOM     62  C   UNL A   1      42.495  33.422  33.292  1.00  0.00     0.031 A 
BRANCH  49  63
ATOM     63  C   UNL A   1      45.759  28.259  32.399  1.00  0.00    -0.014 A 
ATOM     64  C   UNL A   1      45.751  27.331  33.456  1.00  0.00     0.010 A 
ATOM     65  C   UNL A   1      46.915  28.388  31.609  1.00  0.00     0.010 A 
ATOM     66  C   UNL A   1      46.887  26.568  33.735  1.00  0.00     0.020 A 
ATOM     67  C   UNL A   1      48.046  27.609  31.868  1.00  0.00     0.020 A 
ATOM     68  C   UNL A   1      48.028  26.712  32.939  1.00  0.00     0.054 A 
BRANCH  68  69
ATOM     69  S   UNL A   1      49.473  25.674  33.295  1.00  0.00     0.124 S 
ATOM     70  O   UNL A   1      49.780  25.125  31.977  1.00  0.00    -0.237 OA
ATOM     71  O   UNL A   1      50.440  26.638  33.814  1.00  0.00    -0.237 OA
ATOM     72  O   UNL A   1      48.975  24.709  34.272  1.00  0.00    -0.744 OA
ENDBRANCH  68  69
ENDBRANCH  49  63
BRANCH  50  73
ATOM     73  C   UNL A   1      37.272  33.084  30.247  1.00  0.00    -0.014 A 
ATOM     74  C   UNL A   1      36.220  32.998  31.176  1.00  0.00     0.010 A 
ATOM     75  C   UNL A   1      37.082  33.824  29.066  1.00  0.00     0.010 A 
ATOM     76  C   UNL A   1      34.990  33.609  30.913  1.00  0.00     0.020 A 
ATOM     77  C   UNL A   1      35.862  34.458  28.812  1.00  0.00     0.020 A 
ATOM     78  C   UNL A   1      34.817  34.331  29.730  1.00  0.00     0.054 A 
BRANCH  78  79
ATOM     79  S   UNL A   1      33.220  35.133  29.416  1.00  0.00     0.124 S 
ATOM     80  O   UNL A   1      32.630  34.250  28.416  1.00  0.00    -0.237 OA
ATOM     81  O   UNL A   1      32.588  35.109  30.733  1.00  0.00    -0.237 OA
ATOM     82  O   UNL A   1      33.594  36.462  28.937  1.00  0.00    -0.744 OA
ENDBRANCH  78  79
ENDBRANCH  50  73
BRANCH  62  83
ATOM     83  C   UNL A   1      42.874  34.625  34.111  1.00  0.00    -0.014 A 
ATOM     84  C   UNL A   1      42.541  34.713  35.473  1.00  0.00     0.010 A 
ATOM     85  C   UNL A   1      43.654  35.638  33.525  1.00  0.00     0.010 A 
ATOM     86  C   UNL A   1      42.968  35.805  36.232  1.00  0.00     0.020 A 
ATOM     87  C   UNL A   1      44.104  36.719  34.286  1.00  0.00     0.020 A 
ATOM     88  C   UNL A   1      43.751  36.799  35.635  1.00  0.00     0.054 A 
BRANCH  88  89
ATOM     89  S   UNL A   1      44.356  38.169  36.659  1.00  0.00     0.124 S 
ATOM     90  O   UNL A   1      43.521  38.049  37.850  1.00  0.00    -0.237 OA
ATOM     91  O   UNL A   1      45.766  37.835  36.843  1.00  0.00    -0.237 OA
ATOM     92  O   UNL A   1      44.105  39.352  35.838  1.00  0.00    -0.744 OA
ENDBRANCH  88  89
ENDBRANCH  62  83
ENDBRANCH  36  37
ENDBRANCH  28  31
ENDBRANCH  26  27
ENDBRANCH  25  26
ENDBRANCH   1  25
TORSDOF 20
ENDMDL
