MODEL 1
REMARK VINA RESULT:     -11.2      0.000      0.000
REMARK SMILES CCc1nc(N2CC[N@H+](CC=C(C)C)[C@H](C(=O)NCCCCNC(=O)c3ccc(-c4c5nc(c(-c6ccc(S(=O)(=O)[O-])cc6)c6ccc([nH]6)c(-c6ccc(S(=O)(=O)[O-])cc6)c6nc(c(-c7ccc(S(=O)(=O)[O-])cc7)c7ccc4[nH]7)C=C6)C=C5)cc3)C2)no1
REMARK SMILES IDX 21 1 20 2 19 3 18 4 16 5 17 6 15 8 6 9 7 10 86 11 8 12 9 13
REMARK SMILES IDX 5 15 3 16 4 17 88 18 87 19 2 20 1 21 10 22 11 23 12 24 13 25
REMARK SMILES IDX 14 26 22 27 23 28 24 29 25 31 26 32 27 33 85 34 28 35 84 36
REMARK SMILES IDX 29 37 30 38 31 39 78 40 32 41 83 42 77 43 79 44 33 45 82 46
REMARK SMILES IDX 76 47 75 48 34 50 64 51 45 52 63 53 46 54 49 55 62 56 80 57
REMARK SMILES IDX 47 58 48 59 61 61 81 62 50 63 35 64 36 65 44 66 37 67 43 68
REMARK SMILES IDX 38 69 39 70 40 71 41 72 42 73 65 74 66 75 74 76 67 77 73 78
REMARK SMILES IDX 68 79 69 80 70 81 71 82 72 83 51 84 52 85 60 86 53 87 59 88
REMARK SMILES IDX 54 89 55 90 56 91 57 92 58 93
REMARK H PARENT 18 7 9 14 23 30 79 49 49 60
REMARK Flexibility Score: inf
ROOT
ATOM      1  C   UNL A   1      38.067  20.292  25.260  1.00  0.00     0.023 C 
ENDROOT
BRANCH   1   2
ATOM      2  C   UNL A   1      37.355  21.489  24.627  1.00  0.00     0.023 C 
BRANCH   2   3
ATOM      3  C   UNL A   1      36.641  22.403  25.622  1.00  0.00     0.116 C 
BRANCH   3   4
ATOM      4  N   UNL A   1      35.697  21.657  26.437  1.00  0.00    -0.351 N 
ATOM      5  C   UNL A   1      34.330  21.635  26.392  1.00  0.00     0.280 C 
ATOM      6  O   UNL A   1      33.748  21.110  27.343  1.00  0.00    -0.268 OA
ATOM      7  H   UNL A   1      36.103  21.081  27.125  1.00  0.00     0.163 HD
BRANCH   5   8
ATOM      8  C   UNL A   1      33.608  22.303  25.214  1.00  0.00     0.294 C 
ATOM      9  N   UNL A   1      31.816  23.921  24.665  1.00  0.00    -0.326 N 
ATOM     10  C   UNL A   1      31.393  23.102  23.531  1.00  0.00     0.181 C 
ATOM     11  C   UNL A   1      32.509  23.240  25.760  1.00  0.00     0.195 C 
ATOM     12  C   UNL A   1      32.536  22.166  23.060  1.00  0.00     0.284 C 
ATOM     13  N   UNL A   1      33.224  21.378  24.105  1.00  0.00    -0.318 N 
ATOM     14  H   UNL A   1      34.106  20.990  23.773  1.00  0.00     0.349 HD
BRANCH   9  15
ATOM     15  C   UNL A   1      31.306  25.158  24.828  1.00  0.00     0.266 A 
ATOM     16  C   UNL A   1      31.301  27.131  25.517  1.00  0.00     0.227 A 
ATOM     17  N   UNL A   1      31.861  25.973  25.779  1.00  0.00    -0.176 NA
ATOM     18  O   UNL A   1      30.363  27.067  24.532  1.00  0.00    -0.337 OA
ATOM     19  N   UNL A   1      30.384  25.759  24.063  1.00  0.00    -0.038 NA
BRANCH  16  20
ATOM     20  C   UNL A   1      31.634  28.480  26.026  1.00  0.00     0.097 C 
ATOM     21  C   UNL A   1      31.672  28.533  27.540  1.00  0.00     0.014 C 
ENDBRANCH  16  20
ENDBRANCH   9  15
BRANCH  13  22
ATOM     22  C   UNL A   1      32.536  20.125  24.428  1.00  0.00     0.291 C 
BRANCH  22  23
ATOM     23  C   UNL A   1      33.054  18.893  23.748  1.00  0.00     0.032 C 
ATOM     24  C   UNL A   1      33.180  17.662  24.287  1.00  0.00    -0.075 C 
ATOM     25  C   UNL A   1      33.876  16.564  23.532  1.00  0.00     0.039 C 
ATOM     26  C   UNL A   1      32.723  17.314  25.674  1.00  0.00     0.039 C 
ENDBRANCH  22  23
ENDBRANCH  13  22
ENDBRANCH   5   8
ENDBRANCH   3   4
ENDBRANCH   2   3
ENDBRANCH   1   2
BRANCH   1  27
ATOM     27  C   UNL A   1      39.373  20.622  25.974  1.00  0.00     0.116 C 
BRANCH  27  28
ATOM     28  N   UNL A   1      40.298  19.501  26.000  1.00  0.00    -0.352 N 
ATOM     29  C   UNL A   1      41.670  19.511  26.103  1.00  0.00     0.251 C 
ATOM     30  H   UNL A   1      39.885  18.610  25.934  1.00  0.00     0.163 HD
ATOM     31  O   UNL A   1      42.303  18.475  25.951  1.00  0.00    -0.269 OA
BRANCH  29  32
ATOM     32  C   UNL A   1      42.371  20.786  26.369  1.00  0.00     0.039 A 
ATOM     33  C   UNL A   1      42.818  21.549  25.288  1.00  0.00     0.014 A 
ATOM     34  C   UNL A   1      42.568  21.236  27.677  1.00  0.00     0.014 A 
ATOM     35  C   UNL A   1      43.402  22.797  25.519  1.00  0.00     0.010 A 
ATOM     36  C   UNL A   1      43.075  22.513  27.900  1.00  0.00     0.010 A 
ATOM     37  C   UNL A   1      43.501  23.306  26.824  1.00  0.00    -0.014 A 
BRANCH  37  38
ATOM     38  C   UNL A   1      44.046  24.664  27.083  1.00  0.00     0.031 A 
ATOM     39  C   UNL A   1      43.133  25.773  27.531  1.00  0.00     0.074 A 
ATOM     40  C   UNL A   1      45.350  24.916  26.856  1.00  0.00     0.049 A 
ATOM     41  N   UNL A   1      43.412  27.031  27.759  1.00  0.00    -0.248 NA
ATOM     42  C   UNL A   1      41.714  25.431  27.721  1.00  0.00     0.031 C 
ATOM     43  C   UNL A   1      46.334  23.937  26.384  1.00  0.00     0.029 A 
ATOM     44  N   UNL A   1      46.075  26.075  26.987  1.00  0.00    -0.354 N 
ATOM     45  C   UNL A   1      42.207  27.630  28.103  1.00  0.00     0.074 A 
ATOM     46  C   UNL A   1      41.185  26.612  27.999  1.00  0.00     0.031 C 
ATOM     47  C   UNL A   1      47.536  24.528  26.297  1.00  0.00     0.029 A 
ATOM     48  C   UNL A   1      47.404  25.935  26.662  1.00  0.00     0.049 A 
ATOM     49  H   UNL A   1      45.680  26.926  27.286  1.00  0.00     0.167 HD
ATOM     50  C   UNL A   1      41.972  28.908  28.491  1.00  0.00     0.031 A 
ATOM     51  C   UNL A   1      48.404  26.838  26.651  1.00  0.00     0.031 A 
ATOM     52  C   UNL A   1      42.993  29.917  28.595  1.00  0.00     0.049 A 
ATOM     53  C   UNL A   1      48.118  28.256  27.063  1.00  0.00     0.074 A 
ATOM     54  C   UNL A   1      42.866  31.226  29.030  1.00  0.00     0.029 A 
ATOM     55  N   UNL A   1      44.325  29.737  28.253  1.00  0.00    -0.354 N 
ATOM     56  N   UNL A   1      46.983  28.788  27.452  1.00  0.00    -0.248 NA
ATOM     57  C   UNL A   1      49.250  29.192  27.046  1.00  0.00     0.031 C 
ATOM     58  C   UNL A   1      44.109  31.852  28.892  1.00  0.00     0.029 A 
ATOM     59  C   UNL A   1      45.025  30.916  28.439  1.00  0.00     0.049 A 
ATOM     60  H   UNL A   1      44.715  28.893  27.928  1.00  0.00     0.167 HD
ATOM     61  C   UNL A   1      47.270  30.115  27.753  1.00  0.00     0.074 A 
ATOM     62  C   UNL A   1      48.688  30.299  27.515  1.00  0.00     0.031 C 
ATOM     63  C   UNL A   1      46.437  31.089  28.193  1.00  0.00     0.031 A 
BRANCH  50  64
ATOM     64  C   UNL A   1      40.549  29.283  28.816  1.00  0.00    -0.014 A 
ATOM     65  C   UNL A   1      40.143  29.531  30.141  1.00  0.00     0.010 A 
ATOM     66  C   UNL A   1      39.606  29.409  27.780  1.00  0.00     0.010 A 
ATOM     67  C   UNL A   1      38.811  29.842  30.429  1.00  0.00     0.020 A 
ATOM     68  C   UNL A   1      38.279  29.752  28.060  1.00  0.00     0.020 A 
ATOM     69  C   UNL A   1      37.886  29.944  29.386  1.00  0.00     0.054 A 
BRANCH  69  70
ATOM     70  S   UNL A   1      36.165  30.349  29.788  1.00  0.00     0.124 S 
ATOM     71  O   UNL A   1      36.230  31.799  29.959  1.00  0.00    -0.237 OA
ATOM     72  O   UNL A   1      35.443  29.889  28.604  1.00  0.00    -0.237 OA
ATOM     73  O   UNL A   1      35.904  29.590  31.009  1.00  0.00    -0.744 OA
ENDBRANCH  69  70
ENDBRANCH  50  64
BRANCH  51  74
ATOM     74  C   UNL A   1      49.777  26.416  26.255  1.00  0.00    -0.014 A 
ATOM     75  C   UNL A   1      50.254  26.667  24.956  1.00  0.00     0.010 A 
ATOM     76  C   UNL A   1      50.626  25.786  27.183  1.00  0.00     0.010 A 
ATOM     77  C   UNL A   1      51.548  26.288  24.591  1.00  0.00     0.020 A 
ATOM     78  C   UNL A   1      51.931  25.432  26.831  1.00  0.00     0.020 A 
ATOM     79  C   UNL A   1      52.382  25.679  25.533  1.00  0.00     0.054 A 
BRANCH  79  80
ATOM     80  S   UNL A   1      54.081  25.259  25.053  1.00  0.00     0.124 S 
ATOM     81  O   UNL A   1      54.220  25.961  23.781  1.00  0.00    -0.237 OA
ATOM     82  O   UNL A   1      54.863  25.797  26.163  1.00  0.00    -0.237 OA
ATOM     83  O   UNL A   1      54.060  23.800  24.964  1.00  0.00    -0.744 OA
ENDBRANCH  79  80
ENDBRANCH  51  74
BRANCH  63  84
ATOM     84  C   UNL A   1      47.037  32.441  28.479  1.00  0.00    -0.014 A 
ATOM     85  C   UNL A   1      47.104  33.438  27.490  1.00  0.00     0.010 A 
ATOM     86  C   UNL A   1      47.489  32.735  29.779  1.00  0.00     0.010 A 
ATOM     87  C   UNL A   1      47.643  34.694  27.789  1.00  0.00     0.020 A 
ATOM     88  C   UNL A   1      47.998  33.998  30.090  1.00  0.00     0.020 A 
ATOM     89  C   UNL A   1      48.084  34.966  29.088  1.00  0.00     0.054 A 
BRANCH  89  90
ATOM     90  S   UNL A   1      48.735  36.618  29.459  1.00  0.00     0.124 S 
ATOM     91  O   UNL A   1      47.581  37.269  30.071  1.00  0.00    -0.237 OA
ATOM     92  O   UNL A   1      49.847  36.329  30.361  1.00  0.00    -0.237 OA
ATOM     93  O   UNL A   1      49.123  37.141  28.150  1.00  0.00    -0.744 OA
ENDBRANCH  89  90
ENDBRANCH  63  84
ENDBRANCH  37  38
ENDBRANCH  29  32
ENDBRANCH  27  28
ENDBRANCH   1  27
TORSDOF 18
ENDMDL
MODEL 2
REMARK VINA RESULT:     -11.1      6.731     11.955
REMARK SMILES CCc1nc(N2CC[N@H+](CC=C(C)C)[C@H](C(=O)NCCCCNC(=O)c3ccc(-c4c5nc(c(-c6ccc(S(=O)(=O)[O-])cc6)c6ccc([nH]6)c(-c6ccc(S(=O)(=O)[O-])cc6)c6nc(c(-c7ccc(S(=O)(=O)[O-])cc7)c7ccc4[nH]7)C=C6)C=C5)cc3)C2)no1
REMARK SMILES IDX 21 1 20 2 19 3 18 4 16 5 17 6 15 8 6 9 7 10 86 11 8 12 9 13
REMARK SMILES IDX 5 15 3 16 4 17 88 18 87 19 2 20 1 21 10 22 11 23 12 24 13 25
REMARK SMILES IDX 14 26 22 27 23 28 24 29 25 31 26 32 27 33 85 34 28 35 84 36
REMARK SMILES IDX 29 37 30 38 31 39 78 40 32 41 83 42 77 43 79 44 33 45 82 46
REMARK SMILES IDX 76 47 75 48 34 50 64 51 45 52 63 53 46 54 49 55 62 56 80 57
REMARK SMILES IDX 47 58 48 59 61 61 81 62 50 63 35 64 36 65 44 66 37 67 43 68
REMARK SMILES IDX 38 69 39 70 40 71 41 72 42 73 65 74 66 75 74 76 67 77 73 78
REMARK SMILES IDX 68 79 69 80 70 81 71 82 72 83 51 84 52 85 60 86 53 87 59 88
REMARK SMILES IDX 54 89 55 90 56 91 57 92 58 93
REMARK H PARENT 18 7 9 14 23 30 79 49 49 60
REMARK Flexibility Score: inf
ROOT
ATOM      1  C   UNL A   1      33.555  32.321  27.688  1.00  0.00     0.023 C 
ENDROOT
BRANCH   1   2
ATOM      2  C   UNL A   1      34.626  31.348  28.184  1.00  0.00     0.023 C 
BRANCH   2   3
ATOM      3  C   UNL A   1      34.661  30.010  27.449  1.00  0.00     0.116 C 
BRANCH   3   4
ATOM      4  N   UNL A   1      33.629  29.113  27.940  1.00  0.00    -0.351 N 
ATOM      5  C   UNL A   1      32.656  28.440  27.253  1.00  0.00     0.280 C 
ATOM      6  O   UNL A   1      31.751  27.932  27.918  1.00  0.00    -0.268 OA
ATOM      7  H   UNL A   1      33.630  28.969  28.915  1.00  0.00     0.163 HD
BRANCH   5   8
ATOM      8  C   UNL A   1      32.711  28.403  25.719  1.00  0.00     0.294 C 
ATOM      9  N   UNL A   1      31.285  28.467  23.696  1.00  0.00    -0.326 N 
ATOM     10  C   UNL A   1      32.137  27.480  23.037  1.00  0.00     0.181 C 
ATOM     11  C   UNL A   1      31.274  28.469  25.160  1.00  0.00     0.195 C 
ATOM     12  C   UNL A   1      33.551  27.449  23.672  1.00  0.00     0.284 C 
ATOM     13  N   UNL A   1      33.616  27.361  25.147  1.00  0.00    -0.318 N 
ATOM     14  H   UNL A   1      34.542  27.596  25.504  1.00  0.00     0.349 HD
BRANCH   9  15
ATOM     15  C   UNL A   1      30.330  29.108  22.993  1.00  0.00     0.266 A 
ATOM     16  C   UNL A   1      28.953  30.635  22.619  1.00  0.00     0.227 A 
ATOM     17  N   UNL A   1      29.602  30.085  23.619  1.00  0.00    -0.176 NA
ATOM     18  O   UNL A   1      29.154  30.001  21.431  1.00  0.00    -0.337 OA
ATOM     19  N   UNL A   1      30.084  28.999  21.680  1.00  0.00    -0.038 NA
BRANCH  16  20
ATOM     20  C   UNL A   1      28.172  31.890  22.576  1.00  0.00     0.097 C 
ATOM     21  C   UNL A   1      28.046  32.446  21.172  1.00  0.00     0.014 C 
ENDBRANCH  16  20
ENDBRANCH   9  15
BRANCH  13  22
ATOM     22  C   UNL A   1      33.527  25.987  25.647  1.00  0.00     0.291 C 
BRANCH  22  23
ATOM     23  C   UNL A   1      34.675  25.083  25.307  1.00  0.00     0.032 C 
ATOM     24  C   UNL A   1      34.939  23.872  25.838  1.00  0.00    -0.075 C 
ATOM     25  C   UNL A   1      36.224  23.160  25.520  1.00  0.00     0.039 C 
ATOM     26  C   UNL A   1      34.039  23.187  26.827  1.00  0.00     0.039 C 
ENDBRANCH  22  23
ENDBRANCH  13  22
ENDBRANCH   5   8
ENDBRANCH   3   4
ENDBRANCH   2   3
ENDBRANCH   1   2
BRANCH   1  27
ATOM     27  C   UNL A   1      33.965  33.789  27.695  1.00  0.00     0.116 C 
BRANCH  27  28
ATOM     28  N   UNL A   1      33.109  34.606  28.540  1.00  0.00    -0.352 N 
ATOM     29  C   UNL A   1      33.188  34.829  29.896  1.00  0.00     0.251 C 
ATOM     30  H   UNL A   1      32.370  35.064  28.078  1.00  0.00     0.163 HD
ATOM     31  O   UNL A   1      32.287  35.423  30.472  1.00  0.00    -0.269 OA
BRANCH  29  32
ATOM     32  C   UNL A   1      34.353  34.319  30.651  1.00  0.00     0.039 A 
ATOM     33  C   UNL A   1      34.172  33.252  31.534  1.00  0.00     0.014 A 
ATOM     34  C   UNL A   1      35.622  34.878  30.474  1.00  0.00     0.014 A 
ATOM     35  C   UNL A   1      35.277  32.701  32.187  1.00  0.00     0.010 A 
ATOM     36  C   UNL A   1      36.731  34.276  31.063  1.00  0.00     0.010 A 
ATOM     37  C   UNL A   1      36.570  33.184  31.929  1.00  0.00    -0.014 A 
BRANCH  37  38
ATOM     38  C   UNL A   1      37.766  32.560  32.552  1.00  0.00     0.031 A 
ATOM     39  C   UNL A   1      38.470  31.421  31.866  1.00  0.00     0.074 A 
ATOM     40  C   UNL A   1      38.182  32.976  33.766  1.00  0.00     0.049 A 
ATOM     41  N   UNL A   1      39.496  30.719  32.275  1.00  0.00    -0.248 NA
ATOM     42  C   UNL A   1      37.936  30.998  30.562  1.00  0.00     0.031 C 
ATOM     43  C   UNL A   1      37.562  34.045  34.554  1.00  0.00     0.029 A 
ATOM     44  N   UNL A   1      39.221  32.546  34.552  1.00  0.00    -0.354 N 
ATOM     45  C   UNL A   1      39.718  29.765  31.289  1.00  0.00     0.074 A 
ATOM     46  C   UNL A   1      38.687  29.942  30.291  1.00  0.00     0.031 C 
ATOM     47  C   UNL A   1      38.253  34.209  35.693  1.00  0.00     0.029 A 
ATOM     48  C   UNL A   1      39.335  33.230  35.740  1.00  0.00     0.049 A 
ATOM     49  H   UNL A   1      39.829  31.818  34.289  1.00  0.00     0.167 HD
ATOM     50  C   UNL A   1      40.704  28.837  31.210  1.00  0.00     0.031 A 
ATOM     51  C   UNL A   1      40.205  33.082  36.758  1.00  0.00     0.031 A 
ATOM     52  C   UNL A   1      41.729  28.666  32.206  1.00  0.00     0.049 A 
ATOM     53  C   UNL A   1      41.277  32.031  36.661  1.00  0.00     0.074 A 
ATOM     54  C   UNL A   1      42.802  27.791  32.192  1.00  0.00     0.029 A 
ATOM     55  N   UNL A   1      41.806  29.375  33.395  1.00  0.00    -0.354 N 
ATOM     56  N   UNL A   1      41.513  31.183  35.688  1.00  0.00    -0.248 NA
ATOM     57  C   UNL A   1      42.207  31.926  37.793  1.00  0.00     0.031 C 
ATOM     58  C   UNL A   1      43.491  27.930  33.401  1.00  0.00     0.029 A 
ATOM     59  C   UNL A   1      42.890  28.939  34.137  1.00  0.00     0.049 A 
ATOM     60  H   UNL A   1      41.182  30.085  33.671  1.00  0.00     0.167 HD
ATOM     61  C   UNL A   1      42.636  30.462  36.078  1.00  0.00     0.074 A 
ATOM     62  C   UNL A   1      43.039  30.984  37.368  1.00  0.00     0.031 C 
ATOM     63  C   UNL A   1      43.278  29.463  35.424  1.00  0.00     0.031 A 
BRANCH  50  64
ATOM     64  C   UNL A   1      40.704  27.927  30.008  1.00  0.00    -0.014 A 
ATOM     65  C   UNL A   1      39.723  26.931  29.845  1.00  0.00     0.010 A 
ATOM     66  C   UNL A   1      41.689  28.082  29.016  1.00  0.00     0.010 A 
ATOM     67  C   UNL A   1      39.760  26.073  28.743  1.00  0.00     0.020 A 
ATOM     68  C   UNL A   1      41.711  27.247  27.895  1.00  0.00     0.020 A 
ATOM     69  C   UNL A   1      40.758  26.232  27.778  1.00  0.00     0.054 A 
BRANCH  69  70
ATOM     70  S   UNL A   1      40.781  25.105  26.358  1.00  0.00     0.124 S 
ATOM     71  O   UNL A   1      41.166  26.000  25.269  1.00  0.00    -0.237 OA
ATOM     72  O   UNL A   1      41.790  24.122  26.747  1.00  0.00    -0.237 OA
ATOM     73  O   UNL A   1      39.413  24.598  26.293  1.00  0.00    -0.744 OA
ENDBRANCH  69  70
ENDBRANCH  50  64
BRANCH  51  74
ATOM     74  C   UNL A   1      40.109  33.972  37.948  1.00  0.00    -0.014 A 
ATOM     75  C   UNL A   1      40.886  35.142  38.029  1.00  0.00     0.010 A 
ATOM     76  C   UNL A   1      39.220  33.670  38.997  1.00  0.00     0.010 A 
ATOM     77  C   UNL A   1      40.783  35.986  39.137  1.00  0.00     0.020 A 
ATOM     78  C   UNL A   1      39.093  34.527  40.093  1.00  0.00     0.020 A 
ATOM     79  C   UNL A   1      39.881  35.677  40.160  1.00  0.00     0.054 A 
BRANCH  79  80
ATOM     80  S   UNL A   1      39.717  36.826  41.555  1.00  0.00     0.124 S 
ATOM     81  O   UNL A   1      38.969  36.027  42.521  1.00  0.00    -0.237 OA
ATOM     82  O   UNL A   1      41.109  37.101  41.900  1.00  0.00    -0.237 OA
ATOM     83  O   UNL A   1      38.990  37.958  40.982  1.00  0.00    -0.744 OA
ENDBRANCH  79  80
ENDBRANCH  51  74
BRANCH  63  84
ATOM     84  C   UNL A   1      44.508  28.883  36.074  1.00  0.00    -0.014 A 
ATOM     85  C   UNL A   1      44.434  27.755  36.910  1.00  0.00     0.010 A 
ATOM     86  C   UNL A   1      45.767  29.447  35.796  1.00  0.00     0.010 A 
ATOM     87  C   UNL A   1      45.593  27.221  37.480  1.00  0.00     0.020 A 
ATOM     88  C   UNL A   1      46.931  28.898  36.338  1.00  0.00     0.020 A 
ATOM     89  C   UNL A   1      46.835  27.795  37.189  1.00  0.00     0.054 A 
BRANCH  89  90
ATOM     90  S   UNL A   1      48.328  27.054  37.906  1.00  0.00     0.124 S 
ATOM     91  O   UNL A   1      47.884  25.694  38.194  1.00  0.00    -0.237 OA
ATOM     92  O   UNL A   1      49.300  27.183  36.824  1.00  0.00    -0.237 OA
ATOM     93  O   UNL A   1      48.597  27.883  39.079  1.00  0.00    -0.744 OA
ENDBRANCH  89  90
ENDBRANCH  63  84
ENDBRANCH  37  38
ENDBRANCH  29  32
ENDBRANCH  27  28
ENDBRANCH   1  27
TORSDOF 18
ENDMDL
MODEL 3
REMARK VINA RESULT:     -10.9      6.050     10.607
REMARK SMILES CCc1nc(N2CC[N@H+](CC=C(C)C)[C@H](C(=O)NCCCCNC(=O)c3ccc(-c4c5nc(c(-c6ccc(S(=O)(=O)[O-])cc6)c6ccc([nH]6)c(-c6ccc(S(=O)(=O)[O-])cc6)c6nc(c(-c7ccc(S(=O)(=O)[O-])cc7)c7ccc4[nH]7)C=C6)C=C5)cc3)C2)no1
REMARK SMILES IDX 21 1 20 2 19 3 18 4 16 5 17 6 15 8 6 9 7 10 86 11 8 12 9 13
REMARK SMILES IDX 5 15 3 16 4 17 88 18 87 19 2 20 1 21 10 22 11 23 12 24 13 25
REMARK SMILES IDX 14 26 22 27 23 28 24 29 25 31 26 32 27 33 85 34 28 35 84 36
REMARK SMILES IDX 29 37 30 38 31 39 78 40 32 41 83 42 77 43 79 44 33 45 82 46
REMARK SMILES IDX 76 47 75 48 34 50 64 51 45 52 63 53 46 54 49 55 62 56 80 57
REMARK SMILES IDX 47 58 48 59 61 61 81 62 50 63 35 64 36 65 44 66 37 67 43 68
REMARK SMILES IDX 38 69 39 70 40 71 41 72 42 73 65 74 66 75 74 76 67 77 73 78
REMARK SMILES IDX 68 79 69 80 70 81 71 82 72 83 51 84 52 85 60 86 53 87 59 88
REMARK SMILES IDX 54 89 55 90 56 91 57 92 58 93
REMARK H PARENT 18 7 9 14 23 30 79 49 49 60
REMARK Flexibility Score: inf
ROOT
ATOM      1  C   UNL A   1      38.293  24.332  26.063  1.00  0.00     0.023 C 
ENDROOT
BRANCH   1   2
ATOM      2  C   UNL A   1      36.873  23.763  26.068  1.00  0.00     0.023 C 
BRANCH   2   3
ATOM      3  C   UNL A   1      36.776  22.292  25.665  1.00  0.00     0.116 C 
BRANCH   3   4
ATOM      4  N   UNL A   1      35.848  21.573  26.522  1.00  0.00    -0.351 N 
ATOM      5  C   UNL A   1      34.483  21.644  26.586  1.00  0.00     0.280 C 
ATOM      6  O   UNL A   1      33.941  21.115  27.558  1.00  0.00    -0.268 OA
ATOM      7  H   UNL A   1      36.265  20.940  27.151  1.00  0.00     0.163 HD
BRANCH   5   8
ATOM      8  C   UNL A   1      33.720  22.412  25.498  1.00  0.00     0.294 C 
ATOM      9  N   UNL A   1      32.106  24.258  25.156  1.00  0.00    -0.326 N 
ATOM     10  C   UNL A   1      31.446  23.513  24.086  1.00  0.00     0.181 C 
ATOM     11  C   UNL A   1      32.828  23.481  26.164  1.00  0.00     0.195 C 
ATOM     12  C   UNL A   1      32.391  22.439  23.488  1.00  0.00     0.284 C 
ATOM     13  N   UNL A   1      33.088  21.557  24.449  1.00  0.00    -0.318 N 
ATOM     14  H   UNL A   1      33.866  21.058  24.017  1.00  0.00     0.349 HD
BRANCH   9  15
ATOM     15  C   UNL A   1      31.787  25.550  25.370  1.00  0.00     0.266 A 
ATOM     16  C   UNL A   1      31.505  27.267  26.529  1.00  0.00     0.227 A 
ATOM     17  N   UNL A   1      31.553  25.961  26.656  1.00  0.00    -0.176 NA
ATOM     18  O   UNL A   1      31.594  27.687  25.237  1.00  0.00    -0.337 OA
ATOM     19  N   UNL A   1      31.802  26.545  24.472  1.00  0.00    -0.038 NA
BRANCH  16  20
ATOM     20  C   UNL A   1      31.509  28.318  27.569  1.00  0.00     0.097 C 
ATOM     21  C   UNL A   1      31.815  29.690  27.004  1.00  0.00     0.014 C 
ENDBRANCH  16  20
ENDBRANCH   9  15
BRANCH  13  22
ATOM     22  C   UNL A   1      32.284  20.403  24.860  1.00  0.00     0.291 C 
BRANCH  22  23
ATOM     23  C   UNL A   1      32.420  19.169  24.018  1.00  0.00     0.032 C 
ATOM     24  C   UNL A   1      33.510  18.383  23.900  1.00  0.00    -0.075 C 
ATOM     25  C   UNL A   1      33.550  17.276  22.883  1.00  0.00     0.039 C 
ATOM     26  C   UNL A   1      34.770  18.590  24.691  1.00  0.00     0.039 C 
ENDBRANCH  22  23
ENDBRANCH  13  22
ENDBRANCH   5   8
ENDBRANCH   3   4
ENDBRANCH   2   3
ENDBRANCH   1   2
BRANCH   1  27
ATOM     27  C   UNL A   1      39.304  23.548  26.891  1.00  0.00     0.116 C 
BRANCH  27  28
ATOM     28  N   UNL A   1      40.657  23.650  26.369  1.00  0.00    -0.352 N 
ATOM     29  C   UNL A   1      41.592  24.639  26.569  1.00  0.00     0.251 C 
ATOM     30  H   UNL A   1      40.944  22.906  25.790  1.00  0.00     0.163 HD
ATOM     31  O   UNL A   1      42.631  24.640  25.922  1.00  0.00    -0.269 OA
BRANCH  29  32
ATOM     32  C   UNL A   1      41.318  25.713  27.548  1.00  0.00     0.039 A 
ATOM     33  C   UNL A   1      40.303  25.526  28.489  1.00  0.00     0.014 A 
ATOM     34  C   UNL A   1      42.072  26.890  27.551  1.00  0.00     0.014 A 
ATOM     35  C   UNL A   1      40.090  26.492  29.476  1.00  0.00     0.010 A 
ATOM     36  C   UNL A   1      41.912  27.811  28.583  1.00  0.00     0.010 A 
ATOM     37  C   UNL A   1      40.917  27.624  29.554  1.00  0.00    -0.014 A 
BRANCH  37  38
ATOM     38  C   UNL A   1      40.758  28.622  30.643  1.00  0.00     0.031 A 
ATOM     39  C   UNL A   1      41.629  28.550  31.869  1.00  0.00     0.074 A 
ATOM     40  C   UNL A   1      39.789  29.555  30.560  1.00  0.00     0.049 A 
ATOM     41  N   UNL A   1      41.607  29.298  32.942  1.00  0.00    -0.248 NA
ATOM     42  C   UNL A   1      42.639  27.480  31.905  1.00  0.00     0.031 C 
ATOM     43  C   UNL A   1      38.853  29.708  29.442  1.00  0.00     0.029 A 
ATOM     44  N   UNL A   1      39.426  30.550  31.432  1.00  0.00    -0.354 N 
ATOM     45  C   UNL A   1      42.584  28.782  33.784  1.00  0.00     0.074 A 
ATOM     46  C   UNL A   1      43.142  27.623  33.121  1.00  0.00     0.031 C 
ATOM     47  C   UNL A   1      38.048  30.754  29.683  1.00  0.00     0.029 A 
ATOM     48  C   UNL A   1      38.376  31.319  30.988  1.00  0.00     0.049 A 
ATOM     49  H   UNL A   1      39.876  30.700  32.295  1.00  0.00     0.167 HD
ATOM     50  C   UNL A   1      42.996  29.241  34.991  1.00  0.00     0.031 A 
ATOM     51  C   UNL A   1      37.742  32.358  31.567  1.00  0.00     0.031 A 
ATOM     52  C   UNL A   1      42.439  30.395  35.645  1.00  0.00     0.049 A 
ATOM     53  C   UNL A   1      38.200  32.837  32.917  1.00  0.00     0.074 A 
ATOM     54  C   UNL A   1      42.823  30.972  36.844  1.00  0.00     0.029 A 
ATOM     55  N   UNL A   1      41.375  31.144  35.164  1.00  0.00    -0.354 N 
ATOM     56  N   UNL A   1      39.174  32.378  33.668  1.00  0.00    -0.248 NA
ATOM     57  C   UNL A   1      37.482  33.982  33.493  1.00  0.00     0.031 C 
ATOM     58  C   UNL A   1      41.952  32.032  37.115  1.00  0.00     0.029 A 
ATOM     59  C   UNL A   1      41.070  32.159  36.054  1.00  0.00     0.049 A 
ATOM     60  H   UNL A   1      40.907  30.978  34.314  1.00  0.00     0.167 HD
ATOM     61  C   UNL A   1      39.204  33.196  34.792  1.00  0.00     0.074 A 
ATOM     62  C   UNL A   1      38.160  34.186  34.615  1.00  0.00     0.031 C 
ATOM     63  C   UNL A   1      40.024  33.136  35.869  1.00  0.00     0.031 A 
BRANCH  50  64
ATOM     64  C   UNL A   1      44.096  28.477  35.684  1.00  0.00    -0.014 A 
ATOM     65  C   UNL A   1      45.451  28.792  35.471  1.00  0.00     0.010 A 
ATOM     66  C   UNL A   1      43.770  27.441  36.578  1.00  0.00     0.010 A 
ATOM     67  C   UNL A   1      46.458  28.050  36.093  1.00  0.00     0.020 A 
ATOM     68  C   UNL A   1      44.774  26.717  37.229  1.00  0.00     0.020 A 
ATOM     69  C   UNL A   1      46.113  27.013  36.964  1.00  0.00     0.054 A 
BRANCH  69  70
ATOM     70  S   UNL A   1      47.440  26.067  37.758  1.00  0.00     0.124 S 
ATOM     71  O   UNL A   1      48.633  26.661  37.158  1.00  0.00    -0.237 OA
ATOM     72  O   UNL A   1      47.239  26.361  39.175  1.00  0.00    -0.237 OA
ATOM     73  O   UNL A   1      47.168  24.687  37.365  1.00  0.00    -0.744 OA
ENDBRANCH  69  70
ENDBRANCH  50  64
BRANCH  51  74
ATOM     74  C   UNL A   1      36.618  33.028  30.856  1.00  0.00    -0.014 A 
ATOM     75  C   UNL A   1      35.318  33.003  31.393  1.00  0.00     0.010 A 
ATOM     76  C   UNL A   1      36.845  33.719  29.651  1.00  0.00     0.010 A 
ATOM     77  C   UNL A   1      34.267  33.648  30.735  1.00  0.00     0.020 A 
ATOM     78  C   UNL A   1      35.803  34.390  29.006  1.00  0.00     0.020 A 
ATOM     79  C   UNL A   1      34.518  34.343  29.549  1.00  0.00     0.054 A 
BRANCH  79  80
ATOM     80  S   UNL A   1      33.149  35.229  28.751  1.00  0.00     0.124 S 
ATOM     81  O   UNL A   1      32.576  34.195  27.894  1.00  0.00    -0.237 OA
ATOM     82  O   UNL A   1      32.330  35.634  29.891  1.00  0.00    -0.237 OA
ATOM     83  O   UNL A   1      33.814  36.326  28.051  1.00  0.00    -0.744 OA
ENDBRANCH  79  80
ENDBRANCH  51  74
BRANCH  63  84
ATOM     84  C   UNL A   1      39.854  34.189  36.933  1.00  0.00    -0.014 A 
ATOM     85  C   UNL A   1      39.060  33.962  38.071  1.00  0.00     0.010 A 
ATOM     86  C   UNL A   1      40.549  35.408  36.817  1.00  0.00     0.010 A 
ATOM     87  C   UNL A   1      38.939  34.946  39.057  1.00  0.00     0.020 A 
ATOM     88  C   UNL A   1      40.456  36.381  37.814  1.00  0.00     0.020 A 
ATOM     89  C   UNL A   1      39.640  36.149  38.923  1.00  0.00     0.054 A 
BRANCH  89  90
ATOM     90  S   UNL A   1      39.502  37.390  40.238  1.00  0.00     0.124 S 
ATOM     91  O   UNL A   1      38.912  36.616  41.326  1.00  0.00    -0.237 OA
ATOM     92  O   UNL A   1      40.890  37.800  40.438  1.00  0.00    -0.237 OA
ATOM     93  O   UNL A   1      38.634  38.414  39.660  1.00  0.00    -0.744 OA
ENDBRANCH  89  90
ENDBRANCH  63  84
ENDBRANCH  37  38
ENDBRANCH  29  32
ENDBRANCH  27  28
ENDBRANCH   1  27
TORSDOF 18
ENDMDL
