MODEL 1
REMARK VINA RESULT:     -13.9      0.000      0.000
REMARK SMILES Cc1c(NS(=O)(=O)c2ccc3c(c2)COC3)cccc1C(=O)NCCCCNC(=O)c1ccc(-c2c3nc(c(-c4ccc(S(=O)(=O)[O-])cc4)c4ccc([nH]4)c(-c4ccc(S(=O)(=O)[O-])cc4)c4nc(c(-c5ccc(S(=O)(=O)[O-])cc5)c5ccc2[nH]5)C=C4)C=C3)cc1
REMARK SMILES IDX 25 1 24 2 23 3 21 4 22 5 20 7 1 8 2 9 3 10 17 11 19 12 18 13
REMARK SMILES IDX 4 14 5 16 6 17 7 18 8 19 9 20 13 21 10 22 12 23 11 24 14 25
REMARK SMILES IDX 16 26 15 27 26 28 27 29 28 30 29 31 30 33 31 34 32 35 90 36
REMARK SMILES IDX 33 37 89 38 34 39 35 40 36 41 83 42 37 43 88 44 82 45 84 46
REMARK SMILES IDX 38 47 87 48 81 49 80 50 39 52 69 53 50 54 68 55 51 56 54 57
REMARK SMILES IDX 67 58 85 59 52 60 53 61 66 63 86 64 55 65 40 66 41 67 49 68
REMARK SMILES IDX 42 69 48 70 43 71 44 72 45 73 46 74 47 75 70 76 71 77 79 78
REMARK SMILES IDX 72 79 78 80 73 81 74 82 75 83 76 84 77 85 56 86 57 87 65 88
REMARK SMILES IDX 58 89 64 90 59 91 60 92 61 93 62 94 63 95
REMARK H PARENT 23 6 4 15 28 32 84 51 54 62
REMARK Flexibility Score: inf
ROOT
ATOM      1  C   UNL A   1      36.142  22.034  25.078  1.00  0.00     0.023 C 
ENDROOT
BRANCH   1   2
ATOM      2  C   UNL A   1      35.241  21.726  26.289  1.00  0.00     0.116 C 
BRANCH   2   3
ATOM      3  N   UNL A   1      34.268  20.682  25.981  1.00  0.00    -0.352 N 
ATOM      4  C   UNL A   1      32.962  20.740  25.571  1.00  0.00     0.251 C 
ATOM      5  O   UNL A   1      32.353  19.692  25.357  1.00  0.00    -0.269 OA
ATOM      6  H   UNL A   1      34.616  19.767  26.089  1.00  0.00     0.163 HD
BRANCH   4   7
ATOM      7  C   UNL A   1      32.263  22.023  25.312  1.00  0.00     0.044 A 
ATOM      8  C   UNL A   1      32.699  21.976  22.813  1.00  0.00     0.047 C 
ATOM      9  C   UNL A   1      32.111  22.614  24.039  1.00  0.00    -0.014 A 
ATOM     10  C   UNL A   1      31.433  23.852  23.927  1.00  0.00     0.053 A 
ATOM     11  C   UNL A   1      30.988  24.505  25.083  1.00  0.00     0.027 A 
ATOM     12  C   UNL A   1      31.879  22.736  26.458  1.00  0.00     0.014 A 
ATOM     13  C   UNL A   1      31.249  23.972  26.344  1.00  0.00     0.003 A 
BRANCH  10  14
ATOM     14  N   UNL A   1      31.378  24.456  22.631  1.00  0.00    -0.279 N 
ATOM     15  H   UNL A   1      30.628  24.175  22.057  1.00  0.00     0.180 HD
BRANCH  14  16
ATOM     16  S   UNL A   1      32.420  25.572  21.972  1.00  0.00     0.261 S 
ATOM     17  O   UNL A   1      33.749  25.022  22.138  1.00  0.00    -0.201 OA
ATOM     18  O   UNL A   1      31.925  25.951  20.666  1.00  0.00    -0.201 OA
BRANCH  16  19
ATOM     19  C   UNL A   1      32.352  27.031  22.995  1.00  0.00     0.088 A 
ATOM     20  C   UNL A   1      31.080  27.618  23.149  1.00  0.00     0.022 A 
ATOM     21  C   UNL A   1      33.423  27.409  23.810  1.00  0.00     0.028 A 
ATOM     22  C   UNL A   1      30.838  28.504  24.197  1.00  0.00     0.008 A 
ATOM     23  C   UNL A   1      33.138  28.224  24.891  1.00  0.00    -0.015 A 
ATOM     24  C   UNL A   1      31.867  28.743  25.091  1.00  0.00    -0.017 A 
ATOM     25  C   UNL A   1      34.006  28.595  26.037  1.00  0.00     0.196 C 
ATOM     26  C   UNL A   1      31.833  29.474  26.381  1.00  0.00     0.196 C 
ATOM     27  O   UNL A   1      33.101  29.172  27.009  1.00  0.00    -0.372 OA
ENDBRANCH  16  19
ENDBRANCH  14  16
ENDBRANCH  10  14
ENDBRANCH   4   7
ENDBRANCH   2   3
ENDBRANCH   1   2
BRANCH   1  28
ATOM     28  C   UNL A   1      37.643  21.987  25.362  1.00  0.00     0.023 C 
BRANCH  28  29
ATOM     29  C   UNL A   1      38.105  23.189  26.163  1.00  0.00     0.116 C 
BRANCH  29  30
ATOM     30  N   UNL A   1      39.239  22.928  27.039  1.00  0.00    -0.352 N 
ATOM     31  C   UNL A   1      40.088  23.866  27.602  1.00  0.00     0.251 C 
ATOM     32  H   UNL A   1      39.422  21.985  27.253  1.00  0.00     0.163 HD
ATOM     33  O   UNL A   1      41.194  23.572  28.046  1.00  0.00    -0.269 OA
BRANCH  31  34
ATOM     34  C   UNL A   1      39.540  25.225  27.786  1.00  0.00     0.039 A 
ATOM     35  C   UNL A   1      40.006  26.215  26.913  1.00  0.00     0.014 A 
ATOM     36  C   UNL A   1      38.918  25.557  28.985  1.00  0.00     0.014 A 
ATOM     37  C   UNL A   1      40.036  27.540  27.338  1.00  0.00     0.010 A 
ATOM     38  C   UNL A   1      39.072  26.845  29.454  1.00  0.00     0.010 A 
ATOM     39  C   UNL A   1      39.671  27.828  28.651  1.00  0.00    -0.014 A 
BRANCH  39  40
ATOM     40  C   UNL A   1      39.926  29.105  29.309  1.00  0.00     0.031 A 
ATOM     41  C   UNL A   1      38.929  30.194  29.180  1.00  0.00     0.074 A 
ATOM     42  C   UNL A   1      40.991  29.256  30.130  1.00  0.00     0.049 A 
ATOM     43  N   UNL A   1      39.159  31.440  29.430  1.00  0.00    -0.248 NA
ATOM     44  C   UNL A   1      37.577  29.958  28.680  1.00  0.00     0.031 C 
ATOM     45  C   UNL A   1      41.183  30.315  31.121  1.00  0.00     0.029 A 
ATOM     46  N   UNL A   1      42.226  28.604  30.099  1.00  0.00    -0.354 N 
ATOM     47  C   UNL A   1      37.941  32.084  29.456  1.00  0.00     0.074 A 
ATOM     48  C   UNL A   1      37.014  31.152  28.867  1.00  0.00     0.031 C 
ATOM     49  C   UNL A   1      42.496  30.443  31.363  1.00  0.00     0.029 A 
ATOM     50  C   UNL A   1      43.189  29.575  30.428  1.00  0.00     0.049 A 
ATOM     51  H   UNL A   1      42.388  27.656  29.889  1.00  0.00     0.167 HD
ATOM     52  C   UNL A   1      37.824  33.268  30.125  1.00  0.00     0.031 A 
ATOM     53  C   UNL A   1      44.200  29.966  29.595  1.00  0.00     0.031 A 
ATOM     54  C   UNL A   1      39.134  33.791  30.516  1.00  0.00     0.049 A 
ATOM     55  C   UNL A   1      44.163  31.447  29.276  1.00  0.00     0.074 A 
ATOM     56  C   UNL A   1      39.819  33.840  31.719  1.00  0.00     0.029 A 
ATOM     57  N   UNL A   1      40.060  34.105  29.525  1.00  0.00    -0.354 N 
ATOM     58  N   UNL A   1      43.145  32.221  29.539  1.00  0.00    -0.248 NA
ATOM     59  C   UNL A   1      45.237  32.166  28.595  1.00  0.00     0.031 C 
ATOM     60  C   UNL A   1      41.191  34.080  31.431  1.00  0.00     0.029 A 
ATOM     61  C   UNL A   1      41.329  34.214  30.060  1.00  0.00     0.049 A 
ATOM     62  H   UNL A   1      39.839  34.232  28.573  1.00  0.00     0.167 HD
ATOM     63  C   UNL A   1      43.388  33.485  29.076  1.00  0.00     0.074 A 
ATOM     64  C   UNL A   1      44.720  33.406  28.504  1.00  0.00     0.031 C 
ATOM     65  C   UNL A   1      42.467  34.487  29.192  1.00  0.00     0.031 A 
BRANCH  52  66
ATOM     66  C   UNL A   1      36.510  33.790  30.684  1.00  0.00    -0.014 A 
ATOM     67  C   UNL A   1      35.441  34.067  29.806  1.00  0.00     0.010 A 
ATOM     68  C   UNL A   1      36.288  34.127  32.034  1.00  0.00     0.010 A 
ATOM     69  C   UNL A   1      34.273  34.728  30.230  1.00  0.00     0.020 A 
ATOM     70  C   UNL A   1      35.140  34.803  32.470  1.00  0.00     0.020 A 
ATOM     71  C   UNL A   1      34.142  35.118  31.560  1.00  0.00     0.054 A 
BRANCH  71  72
ATOM     72  S   UNL A   1      32.680  36.047  32.084  1.00  0.00     0.124 S 
ATOM     73  O   UNL A   1      32.308  36.761  30.866  1.00  0.00    -0.237 OA
ATOM     74  O   UNL A   1      31.767  34.987  32.500  1.00  0.00    -0.237 OA
ATOM     75  O   UNL A   1      33.177  36.895  33.167  1.00  0.00    -0.744 OA
ENDBRANCH  71  72
ENDBRANCH  52  66
BRANCH  53  76
ATOM     76  C   UNL A   1      44.686  28.898  28.679  1.00  0.00    -0.014 A 
ATOM     77  C   UNL A   1      44.026  28.775  27.438  1.00  0.00     0.010 A 
ATOM     78  C   UNL A   1      45.990  28.390  28.813  1.00  0.00     0.010 A 
ATOM     79  C   UNL A   1      44.723  28.349  26.306  1.00  0.00     0.020 A 
ATOM     80  C   UNL A   1      46.689  27.954  27.676  1.00  0.00     0.020 A 
ATOM     81  C   UNL A   1      46.072  28.017  26.423  1.00  0.00     0.054 A 
BRANCH  81  82
ATOM     82  S   UNL A   1      47.053  27.896  24.896  1.00  0.00     0.124 S 
ATOM     83  O   UNL A   1      46.558  26.659  24.300  1.00  0.00    -0.237 OA
ATOM     84  O   UNL A   1      46.670  29.126  24.202  1.00  0.00    -0.237 OA
ATOM     85  O   UNL A   1      48.427  27.856  25.384  1.00  0.00    -0.744 OA
ENDBRANCH  81  82
ENDBRANCH  53  76
BRANCH  65  86
ATOM     86  C   UNL A   1      42.567  35.851  28.558  1.00  0.00    -0.014 A 
ATOM     87  C   UNL A   1      42.104  36.157  27.267  1.00  0.00     0.010 A 
ATOM     88  C   UNL A   1      43.031  36.932  29.346  1.00  0.00     0.010 A 
ATOM     89  C   UNL A   1      42.157  37.467  26.769  1.00  0.00     0.020 A 
ATOM     90  C   UNL A   1      43.048  38.247  28.875  1.00  0.00     0.020 A 
ATOM     91  C   UNL A   1      42.632  38.503  27.574  1.00  0.00     0.054 A 
BRANCH  91  92
ATOM     92  S   UNL A   1      42.636  40.204  26.950  1.00  0.00     0.124 S 
ATOM     93  O   UNL A   1      41.238  40.388  26.572  1.00  0.00    -0.237 OA
ATOM     94  O   UNL A   1      43.080  40.978  28.107  1.00  0.00    -0.237 OA
ATOM     95  O   UNL A   1      43.585  40.156  25.840  1.00  0.00    -0.744 OA
ENDBRANCH  91  92
ENDBRANCH  65  86
ENDBRANCH  39  40
ENDBRANCH  31  34
ENDBRANCH  29  30
ENDBRANCH  28  29
ENDBRANCH   1  28
TORSDOF 17
ENDMDL
MODEL 2
REMARK VINA RESULT:     -12.7      1.611      2.376
REMARK SMILES Cc1c(NS(=O)(=O)c2ccc3c(c2)COC3)cccc1C(=O)NCCCCNC(=O)c1ccc(-c2c3nc(c(-c4ccc(S(=O)(=O)[O-])cc4)c4ccc([nH]4)c(-c4ccc(S(=O)(=O)[O-])cc4)c4nc(c(-c5ccc(S(=O)(=O)[O-])cc5)c5ccc2[nH]5)C=C4)C=C3)cc1
REMARK SMILES IDX 25 1 24 2 23 3 21 4 22 5 20 7 1 8 2 9 3 10 17 11 19 12 18 13
REMARK SMILES IDX 4 14 5 16 6 17 7 18 8 19 9 20 13 21 10 22 12 23 11 24 14 25
REMARK SMILES IDX 16 26 15 27 26 28 27 29 28 30 29 31 30 33 31 34 32 35 90 36
REMARK SMILES IDX 33 37 89 38 34 39 35 40 36 41 83 42 37 43 88 44 82 45 84 46
REMARK SMILES IDX 38 47 87 48 81 49 80 50 39 52 69 53 50 54 68 55 51 56 54 57
REMARK SMILES IDX 67 58 85 59 52 60 53 61 66 63 86 64 55 65 40 66 41 67 49 68
REMARK SMILES IDX 42 69 48 70 43 71 44 72 45 73 46 74 47 75 70 76 71 77 79 78
REMARK SMILES IDX 72 79 78 80 73 81 74 82 75 83 76 84 77 85 56 86 57 87 65 88
REMARK SMILES IDX 58 89 64 90 59 91 60 92 61 93 62 94 63 95
REMARK H PARENT 23 6 4 15 28 32 84 51 54 62
REMARK Flexibility Score: inf
ROOT
ATOM      1  C   UNL A   1      36.401  21.883  24.976  1.00  0.00     0.023 C 
ENDROOT
BRANCH   1   2
ATOM      2  C   UNL A   1      35.112  22.216  24.202  1.00  0.00     0.116 C 
BRANCH   2   3
ATOM      3  N   UNL A   1      34.030  21.297  24.541  1.00  0.00    -0.352 N 
ATOM      4  C   UNL A   1      32.693  21.499  24.766  1.00  0.00     0.251 C 
ATOM      5  O   UNL A   1      31.974  20.534  25.023  1.00  0.00    -0.269 OA
ATOM      6  H   UNL A   1      34.314  20.358  24.625  1.00  0.00     0.163 HD
BRANCH   4   7
ATOM      7  C   UNL A   1      32.058  22.836  24.651  1.00  0.00     0.044 A 
ATOM      8  C   UNL A   1      32.906  23.642  26.903  1.00  0.00     0.047 C 
ATOM      9  C   UNL A   1      32.153  23.857  25.621  1.00  0.00    -0.014 A 
ATOM     10  C   UNL A   1      31.487  25.087  25.399  1.00  0.00     0.053 A 
ATOM     11  C   UNL A   1      30.689  25.246  24.259  1.00  0.00     0.027 A 
ATOM     12  C   UNL A   1      31.188  22.993  23.561  1.00  0.00     0.014 A 
ATOM     13  C   UNL A   1      30.504  24.189  23.369  1.00  0.00     0.003 A 
BRANCH  10  14
ATOM     14  N   UNL A   1      31.539  26.061  26.446  1.00  0.00    -0.279 N 
ATOM     15  H   UNL A   1      30.943  25.900  27.213  1.00  0.00     0.180 HD
BRANCH  14  16
ATOM     16  S   UNL A   1      32.480  27.430  26.531  1.00  0.00     0.261 S 
ATOM     17  O   UNL A   1      32.027  28.152  27.702  1.00  0.00    -0.201 OA
ATOM     18  O   UNL A   1      33.866  27.047  26.377  1.00  0.00    -0.201 OA
BRANCH  16  19
ATOM     19  C   UNL A   1      32.064  28.447  25.126  1.00  0.00     0.088 A 
ATOM     20  C   UNL A   1      32.627  28.056  23.894  1.00  0.00     0.022 A 
ATOM     21  C   UNL A   1      31.040  29.396  25.181  1.00  0.00     0.028 A 
ATOM     22  C   UNL A   1      32.089  28.526  22.697  1.00  0.00     0.008 A 
ATOM     23  C   UNL A   1      30.469  29.781  23.981  1.00  0.00    -0.015 A 
ATOM     24  C   UNL A   1      30.971  29.339  22.766  1.00  0.00    -0.017 A 
ATOM     25  C   UNL A   1      29.239  30.580  23.744  1.00  0.00     0.196 C 
ATOM     26  C   UNL A   1      30.092  29.815  21.670  1.00  0.00     0.196 C 
ATOM     27  O   UNL A   1      28.944  30.385  22.339  1.00  0.00    -0.372 OA
ENDBRANCH  16  19
ENDBRANCH  14  16
ENDBRANCH  10  14
ENDBRANCH   4   7
ENDBRANCH   2   3
ENDBRANCH   1   2
BRANCH   1  28
ATOM     28  C   UNL A   1      36.774  22.884  26.069  1.00  0.00     0.023 C 
BRANCH  28  29
ATOM     29  C   UNL A   1      38.145  23.490  25.835  1.00  0.00     0.116 C 
BRANCH  29  30
ATOM     30  N   UNL A   1      39.135  23.144  26.845  1.00  0.00    -0.352 N 
ATOM     31  C   UNL A   1      39.984  24.012  27.510  1.00  0.00     0.251 C 
ATOM     32  H   UNL A   1      39.211  22.190  27.079  1.00  0.00     0.163 HD
ATOM     33  O   UNL A   1      40.998  23.631  28.087  1.00  0.00    -0.269 OA
BRANCH  31  34
ATOM     34  C   UNL A   1      39.533  25.414  27.627  1.00  0.00     0.039 A 
ATOM     35  C   UNL A   1      40.226  26.363  26.866  1.00  0.00     0.014 A 
ATOM     36  C   UNL A   1      38.747  25.794  28.709  1.00  0.00     0.014 A 
ATOM     37  C   UNL A   1      40.299  27.678  27.317  1.00  0.00     0.010 A 
ATOM     38  C   UNL A   1      38.930  27.060  29.224  1.00  0.00     0.010 A 
ATOM     39  C   UNL A   1      39.742  27.989  28.555  1.00  0.00    -0.014 A 
BRANCH  39  40
ATOM     40  C   UNL A   1      39.991  29.235  29.274  1.00  0.00     0.031 A 
ATOM     41  C   UNL A   1      38.998  30.332  29.182  1.00  0.00     0.074 A 
ATOM     42  C   UNL A   1      41.046  29.346  30.114  1.00  0.00     0.049 A 
ATOM     43  N   UNL A   1      39.227  31.564  29.491  1.00  0.00    -0.248 NA
ATOM     44  C   UNL A   1      37.652  30.121  28.654  1.00  0.00     0.031 C 
ATOM     45  C   UNL A   1      41.227  30.359  31.154  1.00  0.00     0.029 A 
ATOM     46  N   UNL A   1      42.280  28.694  30.069  1.00  0.00    -0.354 N 
ATOM     47  C   UNL A   1      38.010  32.210  29.531  1.00  0.00     0.074 A 
ATOM     48  C   UNL A   1      37.088  31.307  28.888  1.00  0.00     0.031 C 
ATOM     49  C   UNL A   1      42.538  30.473  31.417  1.00  0.00     0.029 A 
ATOM     50  C   UNL A   1      43.241  29.646  30.453  1.00  0.00     0.049 A 
ATOM     51  H   UNL A   1      42.443  27.755  29.818  1.00  0.00     0.167 HD
ATOM     52  C   UNL A   1      37.887  33.363  30.250  1.00  0.00     0.031 A 
ATOM     53  C   UNL A   1      44.262  30.072  29.651  1.00  0.00     0.031 A 
ATOM     54  C   UNL A   1      39.193  33.864  30.680  1.00  0.00     0.049 A 
ATOM     55  C   UNL A   1      44.232  31.566  29.399  1.00  0.00     0.074 A 
ATOM     56  C   UNL A   1      39.863  33.857  31.893  1.00  0.00     0.029 A 
ATOM     57  N   UNL A   1      40.131  34.220  29.716  1.00  0.00    -0.354 N 
ATOM     58  N   UNL A   1      43.212  32.329  29.683  1.00  0.00    -0.248 NA
ATOM     59  C   UNL A   1      45.316  32.312  28.764  1.00  0.00     0.031 C 
ATOM     60  C   UNL A   1      41.239  34.106  31.633  1.00  0.00     0.029 A 
ATOM     61  C   UNL A   1      41.394  34.302  30.271  1.00  0.00     0.049 A 
ATOM     62  H   UNL A   1      39.923  34.391  28.769  1.00  0.00     0.167 HD
ATOM     63  C   UNL A   1      43.464  33.613  29.281  1.00  0.00     0.074 A 
ATOM     64  C   UNL A   1      44.803  33.556  28.722  1.00  0.00     0.031 C 
ATOM     65  C   UNL A   1      42.544  34.610  29.431  1.00  0.00     0.031 A 
BRANCH  52  66
ATOM     66  C   UNL A   1      36.567  33.862  30.816  1.00  0.00    -0.014 A 
ATOM     67  C   UNL A   1      35.447  33.985  29.966  1.00  0.00     0.010 A 
ATOM     68  C   UNL A   1      36.380  34.323  32.134  1.00  0.00     0.010 A 
ATOM     69  C   UNL A   1      34.259  34.617  30.377  1.00  0.00     0.020 A 
ATOM     70  C   UNL A   1      35.211  34.972  32.555  1.00  0.00     0.020 A 
ATOM     71  C   UNL A   1      34.159  35.133  31.666  1.00  0.00     0.054 A 
BRANCH  71  72
ATOM     72  S   UNL A   1      32.665  36.025  32.164  1.00  0.00     0.124 S 
ATOM     73  O   UNL A   1      33.161  36.907  33.217  1.00  0.00    -0.237 OA
ATOM     74  O   UNL A   1      32.263  36.683  30.925  1.00  0.00    -0.237 OA
ATOM     75  O   UNL A   1      31.765  34.967  32.621  1.00  0.00    -0.744 OA
ENDBRANCH  71  72
ENDBRANCH  52  66
BRANCH  53  76
ATOM     76  C   UNL A   1      44.758  29.045  28.694  1.00  0.00    -0.014 A 
ATOM     77  C   UNL A   1      45.589  28.032  29.220  1.00  0.00     0.010 A 
ATOM     78  C   UNL A   1      44.070  28.807  27.490  1.00  0.00     0.010 A 
ATOM     79  C   UNL A   1      45.568  26.747  28.676  1.00  0.00     0.020 A 
ATOM     80  C   UNL A   1      44.056  27.517  26.939  1.00  0.00     0.020 A 
ATOM     81  C   UNL A   1      44.740  26.484  27.586  1.00  0.00     0.054 A 
BRANCH  81  82
ATOM     82  S   UNL A   1      44.397  24.744  27.180  1.00  0.00     0.124 S 
ATOM     83  O   UNL A   1      44.049  24.180  28.480  1.00  0.00    -0.237 OA
ATOM     84  O   UNL A   1      43.290  24.875  26.233  1.00  0.00    -0.237 OA
ATOM     85  O   UNL A   1      45.657  24.280  26.608  1.00  0.00    -0.744 OA
ENDBRANCH  81  82
ENDBRANCH  53  76
BRANCH  65  86
ATOM     86  C   UNL A   1      42.654  36.002  28.860  1.00  0.00    -0.014 A 
ATOM     87  C   UNL A   1      43.591  36.958  29.288  1.00  0.00     0.010 A 
ATOM     88  C   UNL A   1      41.865  36.336  27.734  1.00  0.00     0.010 A 
ATOM     89  C   UNL A   1      43.692  38.207  28.659  1.00  0.00     0.020 A 
ATOM     90  C   UNL A   1      41.986  37.561  27.073  1.00  0.00     0.020 A 
ATOM     91  C   UNL A   1      42.887  38.503  27.558  1.00  0.00     0.054 A 
BRANCH  91  92
ATOM     92  S   UNL A   1      43.066  40.092  26.707  1.00  0.00     0.124 S 
ATOM     93  O   UNL A   1      41.812  40.178  25.965  1.00  0.00    -0.237 OA
ATOM     94  O   UNL A   1      43.209  41.041  27.809  1.00  0.00    -0.237 OA
ATOM     95  O   UNL A   1      44.266  39.909  25.895  1.00  0.00    -0.744 OA
ENDBRANCH  91  92
ENDBRANCH  65  86
ENDBRANCH  39  40
ENDBRANCH  31  34
ENDBRANCH  29  30
ENDBRANCH  28  29
ENDBRANCH   1  28
TORSDOF 17
ENDMDL
MODEL 3
REMARK VINA RESULT:     -12.1      1.518      2.201
REMARK SMILES Cc1c(NS(=O)(=O)c2ccc3c(c2)COC3)cccc1C(=O)NCCCCNC(=O)c1ccc(-c2c3nc(c(-c4ccc(S(=O)(=O)[O-])cc4)c4ccc([nH]4)c(-c4ccc(S(=O)(=O)[O-])cc4)c4nc(c(-c5ccc(S(=O)(=O)[O-])cc5)c5ccc2[nH]5)C=C4)C=C3)cc1
REMARK SMILES IDX 25 1 24 2 23 3 21 4 22 5 20 7 1 8 2 9 3 10 17 11 19 12 18 13
REMARK SMILES IDX 4 14 5 16 6 17 7 18 8 19 9 20 13 21 10 22 12 23 11 24 14 25
REMARK SMILES IDX 16 26 15 27 26 28 27 29 28 30 29 31 30 33 31 34 32 35 90 36
REMARK SMILES IDX 33 37 89 38 34 39 35 40 36 41 83 42 37 43 88 44 82 45 84 46
REMARK SMILES IDX 38 47 87 48 81 49 80 50 39 52 69 53 50 54 68 55 51 56 54 57
REMARK SMILES IDX 67 58 85 59 52 60 53 61 66 63 86 64 55 65 40 66 41 67 49 68
REMARK SMILES IDX 42 69 48 70 43 71 44 72 45 73 46 74 47 75 70 76 71 77 79 78
REMARK SMILES IDX 72 79 78 80 73 81 74 82 75 83 76 84 77 85 56 86 57 87 65 88
REMARK SMILES IDX 58 89 64 90 59 91 60 92 61 93 62 94 63 95
REMARK H PARENT 23 6 4 15 28 32 84 51 54 62
REMARK Flexibility Score: inf
ROOT
ATOM      1  C   UNL A   1      37.237  22.208  24.698  1.00  0.00     0.023 C 
ENDROOT
BRANCH   1   2
ATOM      2  C   UNL A   1      36.454  22.907  25.825  1.00  0.00     0.116 C 
BRANCH   2   3
ATOM      3  N   UNL A   1      35.504  21.999  26.461  1.00  0.00    -0.352 N 
ATOM      4  C   UNL A   1      34.186  21.725  26.202  1.00  0.00     0.251 C 
ATOM      5  O   UNL A   1      33.602  20.886  26.888  1.00  0.00    -0.269 OA
ATOM      6  H   UNL A   1      35.880  21.491  27.215  1.00  0.00     0.163 HD
BRANCH   4   7
ATOM      7  C   UNL A   1      33.444  22.357  25.083  1.00  0.00     0.044 A 
ATOM      8  C   UNL A   1      32.890  24.462  26.388  1.00  0.00     0.047 C 
ATOM      9  C   UNL A   1      32.845  23.634  25.136  1.00  0.00    -0.014 A 
ATOM     10  C   UNL A   1      32.151  24.120  24.001  1.00  0.00     0.053 A 
ATOM     11  C   UNL A   1      32.008  23.301  22.874  1.00  0.00     0.027 A 
ATOM     12  C   UNL A   1      33.216  21.529  23.973  1.00  0.00     0.014 A 
ATOM     13  C   UNL A   1      32.498  21.997  22.877  1.00  0.00     0.003 A 
BRANCH  10  14
ATOM     14  N   UNL A   1      31.486  25.381  24.128  1.00  0.00    -0.279 N 
ATOM     15  H   UNL A   1      30.607  25.361  24.570  1.00  0.00     0.180 HD
BRANCH  14  16
ATOM     16  S   UNL A   1      32.012  26.875  23.621  1.00  0.00     0.261 S 
ATOM     17  O   UNL A   1      33.260  26.643  22.924  1.00  0.00    -0.201 OA
ATOM     18  O   UNL A   1      30.911  27.559  22.977  1.00  0.00    -0.201 OA
BRANCH  16  19
ATOM     19  C   UNL A   1      32.423  27.815  25.080  1.00  0.00     0.088 A 
ATOM     20  C   UNL A   1      33.712  27.601  25.609  1.00  0.00     0.022 A 
ATOM     21  C   UNL A   1      31.638  28.889  25.509  1.00  0.00     0.028 A 
ATOM     22  C   UNL A   1      34.273  28.525  26.488  1.00  0.00     0.008 A 
ATOM     23  C   UNL A   1      32.247  29.835  26.315  1.00  0.00    -0.015 A 
ATOM     24  C   UNL A   1      33.544  29.665  26.778  1.00  0.00    -0.017 A 
ATOM     25  C   UNL A   1      31.747  31.170  26.731  1.00  0.00     0.196 C 
ATOM     26  C   UNL A   1      33.965  30.884  27.511  1.00  0.00     0.196 C 
ATOM     27  O   UNL A   1      32.911  31.844  27.270  1.00  0.00    -0.372 OA
ENDBRANCH  16  19
ENDBRANCH  14  16
ENDBRANCH  10  14
ENDBRANCH   4   7
ENDBRANCH   2   3
ENDBRANCH   1   2
BRANCH   1  28
ATOM     28  C   UNL A   1      38.319  21.237  25.170  1.00  0.00     0.023 C 
BRANCH  28  29
ATOM     29  C   UNL A   1      39.021  21.737  26.418  1.00  0.00     0.116 C 
BRANCH  29  30
ATOM     30  N   UNL A   1      40.468  21.845  26.292  1.00  0.00    -0.352 N 
ATOM     31  C   UNL A   1      41.203  23.006  26.123  1.00  0.00     0.251 C 
ATOM     32  H   UNL A   1      40.977  21.003  26.329  1.00  0.00     0.163 HD
ATOM     33  O   UNL A   1      42.355  23.002  25.699  1.00  0.00    -0.269 OA
BRANCH  31  34
ATOM     34  C   UNL A   1      40.591  24.253  26.625  1.00  0.00     0.039 A 
ATOM     35  C   UNL A   1      40.789  25.405  25.856  1.00  0.00     0.014 A 
ATOM     36  C   UNL A   1      40.194  24.335  27.956  1.00  0.00     0.014 A 
ATOM     37  C   UNL A   1      40.792  26.650  26.479  1.00  0.00     0.010 A 
ATOM     38  C   UNL A   1      40.330  25.551  28.593  1.00  0.00     0.010 A 
ATOM     39  C   UNL A   1      40.673  26.701  27.866  1.00  0.00    -0.014 A 
BRANCH  39  40
ATOM     40  C   UNL A   1      40.946  27.890  28.666  1.00  0.00     0.031 A 
ATOM     41  C   UNL A   1      39.922  28.959  28.742  1.00  0.00     0.074 A 
ATOM     42  C   UNL A   1      42.060  27.965  29.432  1.00  0.00     0.049 A 
ATOM     43  N   UNL A   1      40.144  30.169  29.136  1.00  0.00    -0.248 NA
ATOM     44  C   UNL A   1      38.545  28.751  28.301  1.00  0.00     0.031 C 
ATOM     45  C   UNL A   1      42.296  28.893  30.537  1.00  0.00     0.029 A 
ATOM     46  N   UNL A   1      43.302  27.357  29.239  1.00  0.00    -0.354 N 
ATOM     47  C   UNL A   1      38.918  30.771  29.322  1.00  0.00     0.074 A 
ATOM     48  C   UNL A   1      37.972  29.895  28.676  1.00  0.00     0.031 C 
ATOM     49  C   UNL A   1      43.620  29.026  30.710  1.00  0.00     0.029 A 
ATOM     50  C   UNL A   1      44.266  28.304  29.629  1.00  0.00     0.049 A 
ATOM     51  H   UNL A   1      43.469  26.448  28.898  1.00  0.00     0.167 HD
ATOM     52  C   UNL A   1      38.822  31.856  30.144  1.00  0.00     0.031 A 
ATOM     53  C   UNL A   1      45.212  28.826  28.792  1.00  0.00     0.031 A 
ATOM     54  C   UNL A   1      40.145  32.360  30.515  1.00  0.00     0.049 A 
ATOM     55  C   UNL A   1      45.125  30.334  28.670  1.00  0.00     0.074 A 
ATOM     56  C   UNL A   1      40.907  32.275  31.669  1.00  0.00     0.029 A 
ATOM     57  N   UNL A   1      40.997  32.824  29.517  1.00  0.00    -0.354 N 
ATOM     58  N   UNL A   1      44.112  31.039  29.094  1.00  0.00    -0.248 NA
ATOM     59  C   UNL A   1      46.138  31.163  28.021  1.00  0.00     0.031 C 
ATOM     60  C   UNL A   1      42.251  32.587  31.329  1.00  0.00     0.029 A 
ATOM     61  C   UNL A   1      42.296  32.899  29.981  1.00  0.00     0.049 A 
ATOM     62  H   UNL A   1      40.712  33.065  28.606  1.00  0.00     0.167 HD
ATOM     63  C   UNL A   1      44.299  32.359  28.784  1.00  0.00     0.074 A 
ATOM     64  C   UNL A   1      45.592  32.390  28.123  1.00  0.00     0.031 C 
ATOM     65  C   UNL A   1      43.369  33.311  29.086  1.00  0.00     0.031 A 
BRANCH  52  66
ATOM     66  C   UNL A   1      37.538  32.265  30.847  1.00  0.00    -0.014 A 
ATOM     67  C   UNL A   1      36.455  32.759  30.088  1.00  0.00     0.010 A 
ATOM     68  C   UNL A   1      37.360  32.291  32.244  1.00  0.00     0.010 A 
ATOM     69  C   UNL A   1      35.318  33.331  30.687  1.00  0.00     0.020 A 
ATOM     70  C   UNL A   1      36.242  32.874  32.858  1.00  0.00     0.020 A 
ATOM     71  C   UNL A   1      35.232  33.410  32.074  1.00  0.00     0.054 A 
BRANCH  71  72
ATOM     72  S   UNL A   1      33.810  34.227  32.841  1.00  0.00     0.124 S 
ATOM     73  O   UNL A   1      33.021  33.096  33.324  1.00  0.00    -0.237 OA
ATOM     74  O   UNL A   1      34.437  35.047  33.873  1.00  0.00    -0.237 OA
ATOM     75  O   UNL A   1      33.204  34.975  31.741  1.00  0.00    -0.744 OA
ENDBRANCH  71  72
ENDBRANCH  52  66
BRANCH  53  76
ATOM     76  C   UNL A   1      45.657  27.898  27.717  1.00  0.00    -0.014 A 
ATOM     77  C   UNL A   1      45.231  28.192  26.404  1.00  0.00     0.010 A 
ATOM     78  C   UNL A   1      46.798  27.096  27.900  1.00  0.00     0.010 A 
ATOM     79  C   UNL A   1      46.037  27.874  25.310  1.00  0.00     0.020 A 
ATOM     80  C   UNL A   1      47.605  26.769  26.800  1.00  0.00     0.020 A 
ATOM     81  C   UNL A   1      47.256  27.233  25.529  1.00  0.00     0.054 A 
BRANCH  81  82
ATOM     82  S   UNL A   1      48.467  27.226  24.171  1.00  0.00     0.124 S 
ATOM     83  O   UNL A   1      49.400  28.273  24.575  1.00  0.00    -0.237 OA
ATOM     84  O   UNL A   1      48.984  25.859  24.244  1.00  0.00    -0.237 OA
ATOM     85  O   UNL A   1      47.653  27.525  22.996  1.00  0.00    -0.744 OA
ENDBRANCH  81  82
ENDBRANCH  53  76
BRANCH  65  86
ATOM     86  C   UNL A   1      43.401  34.748  28.628  1.00  0.00    -0.014 A 
ATOM     87  C   UNL A   1      43.260  35.153  27.290  1.00  0.00     0.010 A 
ATOM     88  C   UNL A   1      43.440  35.769  29.608  1.00  0.00     0.010 A 
ATOM     89  C   UNL A   1      43.219  36.511  26.944  1.00  0.00     0.020 A 
ATOM     90  C   UNL A   1      43.357  37.124  29.277  1.00  0.00     0.020 A 
ATOM     91  C   UNL A   1      43.272  37.489  27.938  1.00  0.00     0.054 A 
BRANCH  91  92
ATOM     92  S   UNL A   1      43.152  39.240  27.492  1.00  0.00     0.124 S 
ATOM     93  O   UNL A   1      44.133  39.343  26.416  1.00  0.00    -0.237 OA
ATOM     94  O   UNL A   1      41.756  39.381  27.083  1.00  0.00    -0.237 OA
ATOM     95  O   UNL A   1      43.502  39.931  28.730  1.00  0.00    -0.744 OA
ENDBRANCH  91  92
ENDBRANCH  65  86
ENDBRANCH  39  40
ENDBRANCH  31  34
ENDBRANCH  29  30
ENDBRANCH  28  29
ENDBRANCH   1  28
TORSDOF 17
ENDMDL
