MODEL 1
REMARK VINA RESULT:     -10.2      0.000      0.000
REMARK SMILES Cc1cnc(N2CCO[C@H](CC(=O)NCCCCNC(=O)c3ccc(-c4c5nc(c(-c6ccc(S(=O)(=O)[O-])cc6)c6ccc([nH]6)c(-c6ccc(S(=O)(=O)[O-])cc6)c6nc(c(-c7ccc(S(=O)(=O)[O-])cc7)c7ccc4[nH]7)C=C6)C=C5)cc3)C2)c([N+](=O)[O-])c1
REMARK SMILES IDX 16 1 15 2 14 3 12 4 13 5 11 7 10 8 6 9 7 10 82 11 8 12 9 13
REMARK SMILES IDX 5 14 1 15 2 16 3 17 87 18 4 19 83 20 84 21 85 22 86 23 17 24
REMARK SMILES IDX 18 25 19 26 20 27 21 29 22 30 23 31 81 32 24 33 80 34 25 35
REMARK SMILES IDX 26 36 27 37 74 38 28 39 79 40 73 41 75 42 29 43 78 44 72 45
REMARK SMILES IDX 71 46 30 48 60 49 41 50 59 51 42 52 45 53 58 54 76 55 43 56
REMARK SMILES IDX 44 57 57 59 77 60 46 61 31 62 32 63 40 64 33 65 39 66 34 67
REMARK SMILES IDX 35 68 36 69 37 70 38 71 61 72 62 73 70 74 63 75 69 76 64 77
REMARK SMILES IDX 65 78 66 79 67 80 68 81 47 82 48 83 56 84 49 85 55 86 50 87
REMARK SMILES IDX 51 88 52 89 53 90 54 91
REMARK H PARENT 14 6 19 28 75 47 45 58
REMARK Flexibility Score: inf
ROOT
ATOM      1  C   UNL A   1      34.913  22.336  24.366  1.00  0.00     0.023 C 
ENDROOT
BRANCH   1   2
ATOM      2  C   UNL A   1      33.542  22.731  23.824  1.00  0.00     0.116 C 
BRANCH   2   3
ATOM      3  N   UNL A   1      33.636  23.100  22.427  1.00  0.00    -0.356 N 
ATOM      4  C   UNL A   1      33.236  24.259  21.840  1.00  0.00     0.222 C 
ATOM      5  O   UNL A   1      33.211  24.338  20.612  1.00  0.00    -0.275 OA
ATOM      6  H   UNL A   1      34.039  22.429  21.829  1.00  0.00     0.163 HD
BRANCH   4   7
ATOM      7  C   UNL A   1      32.871  25.437  22.703  1.00  0.00     0.133 C 
BRANCH   7   8
ATOM      8  C   UNL A   1      31.668  26.226  22.160  1.00  0.00     0.147 C 
ATOM      9  N   UNL A   1      31.357  27.337  24.269  1.00  0.00    -0.346 N 
ATOM     10  C   UNL A   1      30.051  26.727  24.513  1.00  0.00     0.147 C 
ATOM     11  C   UNL A   1      31.607  27.604  22.850  1.00  0.00     0.151 C 
ATOM     12  C   UNL A   1      29.972  25.414  23.709  1.00  0.00     0.182 C 
ATOM     13  O   UNL A   1      30.398  25.545  22.334  1.00  0.00    -0.374 OA
BRANCH   9  14
ATOM     14  C   UNL A   1      32.034  28.058  25.212  1.00  0.00     0.208 A 
ATOM     15  C   UNL A   1      34.380  30.659  27.687  1.00  0.00     0.046 C 
ATOM     16  C   UNL A   1      33.564  29.722  26.859  1.00  0.00    -0.026 A 
ATOM     17  C   UNL A   1      32.641  30.195  25.940  1.00  0.00     0.117 A 
ATOM     18  C   UNL A   1      33.708  28.342  26.954  1.00  0.00     0.094 A 
ATOM     19  N   UNL A   1      31.894  29.405  25.133  1.00  0.00    -0.233 NA
ATOM     20  C   UNL A   1      32.940  27.509  26.125  1.00  0.00     0.311 A 
BRANCH  20  21
ATOM     21  N   UNL A   1      33.247  26.089  26.155  1.00  0.00     0.066 N 
ATOM     22  O   UNL A   1      32.403  25.304  26.607  1.00  0.00    -0.258 OA
ATOM     23  O   UNL A   1      34.384  25.752  25.790  1.00  0.00    -0.258 OA
ENDBRANCH  20  21
ENDBRANCH   9  14
ENDBRANCH   7   8
ENDBRANCH   4   7
ENDBRANCH   2   3
ENDBRANCH   1   2
BRANCH   1  24
ATOM     24  C   UNL A   1      36.044  23.259  23.904  1.00  0.00     0.023 C 
BRANCH  24  25
ATOM     25  C   UNL A   1      36.993  23.706  25.012  1.00  0.00     0.116 C 
BRANCH  25  26
ATOM     26  N   UNL A   1      37.979  22.693  25.347  1.00  0.00    -0.352 N 
ATOM     27  C   UNL A   1      39.148  22.827  26.057  1.00  0.00     0.251 C 
ATOM     28  H   UNL A   1      37.782  21.785  25.022  1.00  0.00     0.163 HD
ATOM     29  O   UNL A   1      39.939  21.895  26.115  1.00  0.00    -0.269 OA
BRANCH  27  30
ATOM     30  C   UNL A   1      39.458  24.114  26.719  1.00  0.00     0.039 A 
ATOM     31  C   UNL A   1      38.995  24.324  28.019  1.00  0.00     0.014 A 
ATOM     32  C   UNL A   1      40.208  25.100  26.071  1.00  0.00     0.014 A 
ATOM     33  C   UNL A   1      39.332  25.501  28.688  1.00  0.00     0.010 A 
ATOM     34  C   UNL A   1      40.609  26.238  26.768  1.00  0.00     0.010 A 
ATOM     35  C   UNL A   1      40.172  26.453  28.083  1.00  0.00    -0.014 A 
BRANCH  35  36
ATOM     36  C   UNL A   1      40.607  27.660  28.832  1.00  0.00     0.031 A 
ATOM     37  C   UNL A   1      41.976  27.727  29.452  1.00  0.00     0.074 A 
ATOM     38  C   UNL A   1      39.751  28.692  28.973  1.00  0.00     0.049 A 
ATOM     39  N   UNL A   1      42.536  28.716  30.103  1.00  0.00    -0.248 NA
ATOM     40  C   UNL A   1      42.820  26.525  29.349  1.00  0.00     0.031 C 
ATOM     41  C   UNL A   1      38.376  28.726  28.467  1.00  0.00     0.029 A 
ATOM     42  N   UNL A   1      39.912  29.914  29.574  1.00  0.00    -0.354 N 
ATOM     43  C   UNL A   1      43.790  28.255  30.490  1.00  0.00     0.074 A 
ATOM     44  C   UNL A   1      43.887  26.880  30.052  1.00  0.00     0.031 C 
ATOM     45  C   UNL A   1      37.838  29.925  28.736  1.00  0.00     0.029 A 
ATOM     46  C   UNL A   1      38.810  30.730  29.469  1.00  0.00     0.049 A 
ATOM     47  H   UNL A   1      40.738  30.183  30.037  1.00  0.00     0.167 HD
ATOM     48  C   UNL A   1      44.781  28.923  31.129  1.00  0.00     0.031 A 
ATOM     49  C   UNL A   1      38.603  31.988  29.905  1.00  0.00     0.031 A 
ATOM     50  C   UNL A   1      44.680  30.292  31.565  1.00  0.00     0.049 A 
ATOM     51  C   UNL A   1      39.717  32.705  30.618  1.00  0.00     0.074 A 
ATOM     52  C   UNL A   1      45.647  31.074  32.172  1.00  0.00     0.029 A 
ATOM     53  N   UNL A   1      43.546  31.080  31.447  1.00  0.00    -0.354 N 
ATOM     54  N   UNL A   1      40.924  32.280  30.900  1.00  0.00    -0.248 NA
ATOM     55  C   UNL A   1      39.443  34.081  31.055  1.00  0.00     0.031 C 
ATOM     56  C   UNL A   1      45.078  32.315  32.478  1.00  0.00     0.029 A 
ATOM     57  C   UNL A   1      43.778  32.330  31.997  1.00  0.00     0.049 A 
ATOM     58  H   UNL A   1      42.700  30.794  31.033  1.00  0.00     0.167 HD
ATOM     59  C   UNL A   1      41.563  33.344  31.529  1.00  0.00     0.074 A 
ATOM     60  C   UNL A   1      40.615  34.439  31.558  1.00  0.00     0.031 C 
ATOM     61  C   UNL A   1      42.820  33.407  32.036  1.00  0.00     0.031 A 
BRANCH  48  62
ATOM     62  C   UNL A   1      46.062  28.176  31.400  1.00  0.00    -0.014 A 
ATOM     63  C   UNL A   1      46.250  27.464  32.600  1.00  0.00     0.010 A 
ATOM     64  C   UNL A   1      47.075  28.144  30.424  1.00  0.00     0.010 A 
ATOM     65  C   UNL A   1      47.442  26.773  32.836  1.00  0.00     0.020 A 
ATOM     66  C   UNL A   1      48.256  27.427  30.643  1.00  0.00     0.020 A 
ATOM     67  C   UNL A   1      48.438  26.760  31.856  1.00  0.00     0.054 A 
BRANCH  67  68
ATOM     68  S   UNL A   1      49.963  25.832  32.180  1.00  0.00     0.124 S 
ATOM     69  O   UNL A   1      50.950  26.904  32.289  1.00  0.00    -0.237 OA
ATOM     70  O   UNL A   1      49.653  25.134  33.425  1.00  0.00    -0.237 OA
ATOM     71  O   UNL A   1      50.104  24.974  31.007  1.00  0.00    -0.744 OA
ENDBRANCH  67  68
ENDBRANCH  48  62
BRANCH  49  72
ATOM     72  C   UNL A   1      37.295  32.656  29.661  1.00  0.00    -0.014 A 
ATOM     73  C   UNL A   1      36.279  32.622  30.633  1.00  0.00     0.010 A 
ATOM     74  C   UNL A   1      37.062  33.342  28.455  1.00  0.00     0.010 A 
ATOM     75  C   UNL A   1      35.048  33.241  30.395  1.00  0.00     0.020 A 
ATOM     76  C   UNL A   1      35.844  33.989  28.226  1.00  0.00     0.020 A 
ATOM     77  C   UNL A   1      34.840  33.924  29.193  1.00  0.00     0.054 A 
BRANCH  77  78
ATOM     78  S   UNL A   1      33.253  34.761  28.927  1.00  0.00     0.124 S 
ATOM     79  O   UNL A   1      33.677  36.064  28.425  1.00  0.00    -0.237 OA
ATOM     80  O   UNL A   1      32.597  33.891  27.954  1.00  0.00    -0.237 OA
ATOM     81  O   UNL A   1      32.643  34.768  30.254  1.00  0.00    -0.744 OA
ENDBRANCH  77  78
ENDBRANCH  49  72
BRANCH  61  82
ATOM     82  C   UNL A   1      43.247  34.717  32.648  1.00  0.00    -0.014 A 
ATOM     83  C   UNL A   1      43.086  34.969  34.024  1.00  0.00     0.010 A 
ATOM     84  C   UNL A   1      43.834  35.705  31.836  1.00  0.00     0.010 A 
ATOM     85  C   UNL A   1      43.454  36.205  34.563  1.00  0.00     0.020 A 
ATOM     86  C   UNL A   1      44.236  36.928  32.379  1.00  0.00     0.020 A 
ATOM     87  C   UNL A   1      44.022  37.178  33.736  1.00  0.00     0.054 A 
BRANCH  87  88
ATOM     88  S   UNL A   1      44.500  38.770  34.463  1.00  0.00     0.124 S 
ATOM     89  O   UNL A   1      44.617  38.434  35.879  1.00  0.00    -0.237 OA
ATOM     90  O   UNL A   1      45.756  39.069  33.782  1.00  0.00    -0.237 OA
ATOM     91  O   UNL A   1      43.387  39.655  34.123  1.00  0.00    -0.744 OA
ENDBRANCH  87  88
ENDBRANCH  61  82
ENDBRANCH  35  36
ENDBRANCH  27  30
ENDBRANCH  25  26
ENDBRANCH  24  25
ENDBRANCH   1  24
TORSDOF 17
ENDMDL
MODEL 2
REMARK VINA RESULT:     -10.1      2.708      9.354
REMARK SMILES Cc1cnc(N2CCO[C@H](CC(=O)NCCCCNC(=O)c3ccc(-c4c5nc(c(-c6ccc(S(=O)(=O)[O-])cc6)c6ccc([nH]6)c(-c6ccc(S(=O)(=O)[O-])cc6)c6nc(c(-c7ccc(S(=O)(=O)[O-])cc7)c7ccc4[nH]7)C=C6)C=C5)cc3)C2)c([N+](=O)[O-])c1
REMARK SMILES IDX 16 1 15 2 14 3 12 4 13 5 11 7 10 8 6 9 7 10 82 11 8 12 9 13
REMARK SMILES IDX 5 14 1 15 2 16 3 17 87 18 4 19 83 20 84 21 85 22 86 23 17 24
REMARK SMILES IDX 18 25 19 26 20 27 21 29 22 30 23 31 81 32 24 33 80 34 25 35
REMARK SMILES IDX 26 36 27 37 74 38 28 39 79 40 73 41 75 42 29 43 78 44 72 45
REMARK SMILES IDX 71 46 30 48 60 49 41 50 59 51 42 52 45 53 58 54 76 55 43 56
REMARK SMILES IDX 44 57 57 59 77 60 46 61 31 62 32 63 40 64 33 65 39 66 34 67
REMARK SMILES IDX 35 68 36 69 37 70 38 71 61 72 62 73 70 74 63 75 69 76 64 77
REMARK SMILES IDX 65 78 66 79 67 80 68 81 47 82 48 83 56 84 49 85 55 86 50 87
REMARK SMILES IDX 51 88 52 89 53 90 54 91
REMARK H PARENT 14 6 19 28 75 47 45 58
REMARK Flexibility Score: inf
ROOT
ATOM      1  C   UNL A   1      31.367  27.870  26.308  1.00  0.00     0.023 C 
ENDROOT
BRANCH   1   2
ATOM      2  C   UNL A   1      30.688  26.729  25.556  1.00  0.00     0.116 C 
BRANCH   2   3
ATOM      3  N   UNL A   1      30.389  25.634  26.456  1.00  0.00    -0.356 N 
ATOM      4  C   UNL A   1      30.987  24.416  26.516  1.00  0.00     0.222 C 
ATOM      5  O   UNL A   1      30.487  23.530  27.210  1.00  0.00    -0.275 OA
ATOM      6  H   UNL A   1      29.664  25.793  27.103  1.00  0.00     0.163 HD
BRANCH   4   7
ATOM      7  C   UNL A   1      32.272  24.184  25.768  1.00  0.00     0.133 C 
BRANCH   7   8
ATOM      8  C   UNL A   1      32.115  24.337  24.246  1.00  0.00     0.147 C 
ATOM      9  N   UNL A   1      33.201  22.228  23.853  1.00  0.00    -0.346 N 
ATOM     10  C   UNL A   1      34.342  22.829  23.167  1.00  0.00     0.147 C 
ATOM     11  C   UNL A   1      31.946  22.943  23.608  1.00  0.00     0.151 C 
ATOM     12  C   UNL A   1      34.472  24.293  23.632  1.00  0.00     0.182 C 
ATOM     13  O   UNL A   1      33.226  25.024  23.612  1.00  0.00    -0.374 OA
BRANCH   9  14
ATOM     14  C   UNL A   1      33.157  20.914  24.224  1.00  0.00     0.208 A 
ATOM     15  C   UNL A   1      32.398  16.828  25.285  1.00  0.00     0.046 C 
ATOM     16  C   UNL A   1      32.702  18.249  24.941  1.00  0.00    -0.026 A 
ATOM     17  C   UNL A   1      32.287  18.799  23.738  1.00  0.00     0.117 A 
ATOM     18  C   UNL A   1      33.389  19.086  25.813  1.00  0.00     0.094 A 
ATOM     19  N   UNL A   1      32.496  20.086  23.376  1.00  0.00    -0.233 NA
ATOM     20  C   UNL A   1      33.615  20.424  25.452  1.00  0.00     0.311 A 
BRANCH  20  21
ATOM     21  N   UNL A   1      34.194  21.289  26.464  1.00  0.00     0.066 N 
ATOM     22  O   UNL A   1      35.358  21.684  26.319  1.00  0.00    -0.258 OA
ATOM     23  O   UNL A   1      33.501  21.522  27.467  1.00  0.00    -0.258 OA
ENDBRANCH  20  21
ENDBRANCH   9  14
ENDBRANCH   7   8
ENDBRANCH   4   7
ENDBRANCH   2   3
ENDBRANCH   1   2
BRANCH   1  24
ATOM     24  C   UNL A   1      32.821  28.101  25.888  1.00  0.00     0.023 C 
BRANCH  24  25
ATOM     25  C   UNL A   1      33.768  28.445  27.033  1.00  0.00     0.116 C 
BRANCH  25  26
ATOM     26  N   UNL A   1      33.622  29.819  27.487  1.00  0.00    -0.352 N 
ATOM     27  C   UNL A   1      34.514  30.596  28.185  1.00  0.00     0.251 C 
ATOM     28  H   UNL A   1      32.767  30.252  27.261  1.00  0.00     0.163 HD
ATOM     29  O   UNL A   1      34.165  31.686  28.620  1.00  0.00    -0.269 OA
BRANCH  27  30
ATOM     30  C   UNL A   1      35.882  30.093  28.438  1.00  0.00     0.039 A 
ATOM     31  C   UNL A   1      36.809  30.126  27.395  1.00  0.00     0.014 A 
ATOM     32  C   UNL A   1      36.255  29.604  29.694  1.00  0.00     0.014 A 
ATOM     33  C   UNL A   1      38.123  29.720  27.627  1.00  0.00     0.010 A 
ATOM     34  C   UNL A   1      37.585  29.275  29.945  1.00  0.00     0.010 A 
ATOM     35  C   UNL A   1      38.533  29.325  28.913  1.00  0.00    -0.014 A 
BRANCH  35  36
ATOM     36  C   UNL A   1      39.954  28.984  29.181  1.00  0.00     0.031 A 
ATOM     37  C   UNL A   1      40.873  29.981  29.834  1.00  0.00     0.074 A 
ATOM     38  C   UNL A   1      40.424  27.777  28.810  1.00  0.00     0.049 A 
ATOM     39  N   UNL A   1      42.128  29.838  30.180  1.00  0.00    -0.248 NA
ATOM     40  C   UNL A   1      40.322  31.317  30.118  1.00  0.00     0.031 C 
ATOM     41  C   UNL A   1      39.648  26.744  28.118  1.00  0.00     0.029 A 
ATOM     42  N   UNL A   1      41.661  27.207  28.970  1.00  0.00    -0.354 N 
ATOM     43  C   UNL A   1      42.516  31.062  30.715  1.00  0.00     0.074 A 
ATOM     44  C   UNL A   1      41.383  31.953  30.595  1.00  0.00     0.031 C 
ATOM     45  C   UNL A   1      40.412  25.652  27.957  1.00  0.00     0.029 A 
ATOM     46  C   UNL A   1      41.742  25.919  28.496  1.00  0.00     0.049 A 
ATOM     47  H   UNL A   1      42.421  27.676  29.387  1.00  0.00     0.167 HD
ATOM     48  C   UNL A   1      43.701  31.406  31.277  1.00  0.00     0.031 A 
ATOM     49  C   UNL A   1      42.767  25.045  28.497  1.00  0.00     0.031 A 
ATOM     50  C   UNL A   1      44.827  30.516  31.394  1.00  0.00     0.049 A 
ATOM     51  C   UNL A   1      44.074  25.454  29.122  1.00  0.00     0.074 A 
ATOM     52  C   UNL A   1      46.051  30.753  31.995  1.00  0.00     0.029 A 
ATOM     53  N   UNL A   1      44.872  29.224  30.893  1.00  0.00    -0.354 N 
ATOM     54  N   UNL A   1      44.394  26.588  29.697  1.00  0.00    -0.248 NA
ATOM     55  C   UNL A   1      45.150  24.455  29.113  1.00  0.00     0.031 C 
ATOM     56  C   UNL A   1      46.858  29.626  31.804  1.00  0.00     0.029 A 
ATOM     57  C   UNL A   1      46.112  28.661  31.145  1.00  0.00     0.049 A 
ATOM     58  H   UNL A   1      44.131  28.773  30.428  1.00  0.00     0.167 HD
ATOM     59  C   UNL A   1      45.704  26.431  30.138  1.00  0.00     0.074 A 
ATOM     60  C   UNL A   1      46.102  25.084  29.787  1.00  0.00     0.031 C 
ATOM     61  C   UNL A   1      46.504  27.323  30.775  1.00  0.00     0.031 A 
BRANCH  48  62
ATOM     62  C   UNL A   1      43.838  32.811  31.806  1.00  0.00    -0.014 A 
ATOM     63  C   UNL A   1      43.432  33.140  33.114  1.00  0.00     0.010 A 
ATOM     64  C   UNL A   1      44.422  33.808  31.004  1.00  0.00     0.010 A 
ATOM     65  C   UNL A   1      43.569  34.446  33.591  1.00  0.00     0.020 A 
ATOM     66  C   UNL A   1      44.590  35.109  31.490  1.00  0.00     0.020 A 
ATOM     67  C   UNL A   1      44.146  35.423  32.776  1.00  0.00     0.054 A 
BRANCH  67  68
ATOM     68  S   UNL A   1      44.335  37.103  33.434  1.00  0.00     0.124 S 
ATOM     69  O   UNL A   1      44.681  37.860  32.233  1.00  0.00    -0.237 OA
ATOM     70  O   UNL A   1      43.013  37.379  33.990  1.00  0.00    -0.237 OA
ATOM     71  O   UNL A   1      45.406  36.973  34.418  1.00  0.00    -0.744 OA
ENDBRANCH  67  68
ENDBRANCH  48  62
BRANCH  49  72
ATOM     72  C   UNL A   1      42.592  23.690  27.906  1.00  0.00    -0.014 A 
ATOM     73  C   UNL A   1      42.099  22.626  28.683  1.00  0.00     0.010 A 
ATOM     74  C   UNL A   1      42.909  23.458  26.555  1.00  0.00     0.010 A 
ATOM     75  C   UNL A   1      41.948  21.352  28.126  1.00  0.00     0.020 A 
ATOM     76  C   UNL A   1      42.729  22.195  25.986  1.00  0.00     0.020 A 
ATOM     77  C   UNL A   1      42.261  21.146  26.779  1.00  0.00     0.054 A 
BRANCH  77  78
ATOM     78  S   UNL A   1      42.009  19.497  26.066  1.00  0.00     0.124 S 
ATOM     79  O   UNL A   1      42.449  18.626  27.152  1.00  0.00    -0.237 OA
ATOM     80  O   UNL A   1      40.575  19.489  25.789  1.00  0.00    -0.237 OA
ATOM     81  O   UNL A   1      42.864  19.502  24.882  1.00  0.00    -0.744 OA
ENDBRANCH  77  78
ENDBRANCH  49  72
BRANCH  61  82
ATOM     82  C   UNL A   1      47.886  26.857  31.153  1.00  0.00    -0.014 A 
ATOM     83  C   UNL A   1      48.138  26.240  32.392  1.00  0.00     0.010 A 
ATOM     84  C   UNL A   1      48.949  27.024  30.245  1.00  0.00     0.010 A 
ATOM     85  C   UNL A   1      49.434  25.850  32.738  1.00  0.00     0.020 A 
ATOM     86  C   UNL A   1      50.240  26.603  30.573  1.00  0.00     0.020 A 
ATOM     87  C   UNL A   1      50.478  26.039  31.828  1.00  0.00     0.054 A 
BRANCH  87  88
ATOM     88  S   UNL A   1      52.151  25.516  32.296  1.00  0.00     0.124 S 
ATOM     89  O   UNL A   1      52.251  26.014  33.665  1.00  0.00    -0.237 OA
ATOM     90  O   UNL A   1      52.082  24.063  32.160  1.00  0.00    -0.237 OA
ATOM     91  O   UNL A   1      53.010  26.188  31.324  1.00  0.00    -0.744 OA
ENDBRANCH  87  88
ENDBRANCH  61  82
ENDBRANCH  35  36
ENDBRANCH  27  30
ENDBRANCH  25  26
ENDBRANCH  24  25
ENDBRANCH   1  24
TORSDOF 17
ENDMDL
MODEL 3
REMARK VINA RESULT:      -9.9      3.202      9.493
REMARK SMILES Cc1cnc(N2CCO[C@H](CC(=O)NCCCCNC(=O)c3ccc(-c4c5nc(c(-c6ccc(S(=O)(=O)[O-])cc6)c6ccc([nH]6)c(-c6ccc(S(=O)(=O)[O-])cc6)c6nc(c(-c7ccc(S(=O)(=O)[O-])cc7)c7ccc4[nH]7)C=C6)C=C5)cc3)C2)c([N+](=O)[O-])c1
REMARK SMILES IDX 16 1 15 2 14 3 12 4 13 5 11 7 10 8 6 9 7 10 82 11 8 12 9 13
REMARK SMILES IDX 5 14 1 15 2 16 3 17 87 18 4 19 83 20 84 21 85 22 86 23 17 24
REMARK SMILES IDX 18 25 19 26 20 27 21 29 22 30 23 31 81 32 24 33 80 34 25 35
REMARK SMILES IDX 26 36 27 37 74 38 28 39 79 40 73 41 75 42 29 43 78 44 72 45
REMARK SMILES IDX 71 46 30 48 60 49 41 50 59 51 42 52 45 53 58 54 76 55 43 56
REMARK SMILES IDX 44 57 57 59 77 60 46 61 31 62 32 63 40 64 33 65 39 66 34 67
REMARK SMILES IDX 35 68 36 69 37 70 38 71 61 72 62 73 70 74 63 75 69 76 64 77
REMARK SMILES IDX 65 78 66 79 67 80 68 81 47 82 48 83 56 84 49 85 55 86 50 87
REMARK SMILES IDX 51 88 52 89 53 90 54 91
REMARK H PARENT 14 6 19 28 75 47 45 58
REMARK Flexibility Score: inf
ROOT
ATOM      1  C   UNL A   1      31.922  27.363  25.261  1.00  0.00     0.023 C 
ENDROOT
BRANCH   1   2
ATOM      2  C   UNL A   1      31.845  25.988  24.604  1.00  0.00     0.116 C 
BRANCH   2   3
ATOM      3  N   UNL A   1      32.372  26.040  23.256  1.00  0.00    -0.356 N 
ATOM      4  C   UNL A   1      33.302  25.226  22.690  1.00  0.00     0.222 C 
ATOM      5  O   UNL A   1      33.781  25.524  21.595  1.00  0.00    -0.275 OA
ATOM      6  H   UNL A   1      32.012  26.753  22.679  1.00  0.00     0.163 HD
BRANCH   4   7
ATOM      7  C   UNL A   1      33.697  23.955  23.391  1.00  0.00     0.133 C 
BRANCH   7   8
ATOM      8  C   UNL A   1      35.061  24.059  24.094  1.00  0.00     0.147 C 
ATOM      9  N   UNL A   1      34.759  21.919  25.147  1.00  0.00    -0.346 N 
ATOM     10  C   UNL A   1      34.723  22.475  26.498  1.00  0.00     0.147 C 
ATOM     11  C   UNL A   1      35.662  22.647  24.253  1.00  0.00     0.151 C 
ATOM     12  C   UNL A   1      34.289  23.952  26.402  1.00  0.00     0.182 C 
ATOM     13  O   UNL A   1      34.999  24.704  25.393  1.00  0.00    -0.374 OA
BRANCH   9  14
ATOM     14  C   UNL A   1      34.448  20.619  24.864  1.00  0.00     0.208 A 
ATOM     15  C   UNL A   1      33.958  16.557  23.576  1.00  0.00     0.046 C 
ATOM     16  C   UNL A   1      34.083  17.971  24.038  1.00  0.00    -0.026 A 
ATOM     17  C   UNL A   1      35.287  18.464  24.518  1.00  0.00     0.117 A 
ATOM     18  C   UNL A   1      33.014  18.859  23.986  1.00  0.00     0.094 A 
ATOM     19  N   UNL A   1      35.482  19.742  24.920  1.00  0.00    -0.233 NA
ATOM     20  C   UNL A   1      33.200  20.188  24.400  1.00  0.00     0.311 A 
BRANCH  20  21
ATOM     21  N   UNL A   1      32.097  21.107  24.175  1.00  0.00     0.066 N 
ATOM     22  O   UNL A   1      31.484  21.556  25.152  1.00  0.00    -0.258 OA
ATOM     23  O   UNL A   1      31.784  21.329  22.994  1.00  0.00    -0.258 OA
ENDBRANCH  20  21
ENDBRANCH   9  14
ENDBRANCH   7   8
ENDBRANCH   4   7
ENDBRANCH   2   3
ENDBRANCH   1   2
BRANCH   1  24
ATOM     24  C   UNL A   1      33.217  28.120  24.952  1.00  0.00     0.023 C 
BRANCH  24  25
ATOM     25  C   UNL A   1      34.003  28.565  26.180  1.00  0.00     0.116 C 
BRANCH  25  26
ATOM     26  N   UNL A   1      33.742  29.949  26.540  1.00  0.00    -0.352 N 
ATOM     27  C   UNL A   1      34.411  30.749  27.435  1.00  0.00     0.251 C 
ATOM     28  H   UNL A   1      32.982  30.372  26.078  1.00  0.00     0.163 HD
ATOM     29  O   UNL A   1      33.959  31.848  27.729  1.00  0.00    -0.269 OA
BRANCH  27  30
ATOM     30  C   UNL A   1      35.657  30.259  28.065  1.00  0.00     0.039 A 
ATOM     31  C   UNL A   1      36.865  30.452  27.393  1.00  0.00     0.014 A 
ATOM     32  C   UNL A   1      35.639  29.627  29.312  1.00  0.00     0.014 A 
ATOM     33  C   UNL A   1      38.060  30.060  27.997  1.00  0.00     0.010 A 
ATOM     34  C   UNL A   1      36.838  29.309  29.947  1.00  0.00     0.010 A 
ATOM     35  C   UNL A   1      38.061  29.517  29.294  1.00  0.00    -0.014 A 
BRANCH  35  36
ATOM     36  C   UNL A   1      39.341  29.189  29.973  1.00  0.00     0.031 A 
ATOM     37  C   UNL A   1      39.770  29.936  31.207  1.00  0.00     0.074 A 
ATOM     38  C   UNL A   1      40.132  28.228  29.458  1.00  0.00     0.049 A 
ATOM     39  N   UNL A   1      40.832  29.754  31.951  1.00  0.00    -0.248 NA
ATOM     40  C   UNL A   1      38.910  31.044  31.655  1.00  0.00     0.031 C 
ATOM     41  C   UNL A   1      39.855  27.469  28.235  1.00  0.00     0.029 A 
ATOM     42  N   UNL A   1      41.325  27.714  29.902  1.00  0.00    -0.354 N 
ATOM     43  C   UNL A   1      40.770  30.723  32.946  1.00  0.00     0.074 A 
ATOM     44  C   UNL A   1      39.599  31.527  32.679  1.00  0.00     0.031 C 
ATOM     45  C   UNL A   1      40.823  26.557  28.054  1.00  0.00     0.029 A 
ATOM     46  C   UNL A   1      41.810  26.691  29.121  1.00  0.00     0.049 A 
ATOM     47  H   UNL A   1      41.789  28.045  30.704  1.00  0.00     0.167 HD
ATOM     48  C   UNL A   1      41.600  30.911  34.002  1.00  0.00     0.031 A 
ATOM     49  C   UNL A   1      42.919  25.938  29.249  1.00  0.00     0.031 A 
ATOM     50  C   UNL A   1      42.766  30.108  34.264  1.00  0.00     0.049 A 
ATOM     51  C   UNL A   1      43.827  26.171  30.426  1.00  0.00     0.074 A 
ATOM     52  C   UNL A   1      43.640  30.185  35.335  1.00  0.00     0.029 A 
ATOM     53  N   UNL A   1      43.228  29.089  33.446  1.00  0.00    -0.354 N 
ATOM     54  N   UNL A   1      43.707  27.038  31.402  1.00  0.00    -0.248 NA
ATOM     55  C   UNL A   1      45.012  25.310  30.526  1.00  0.00     0.031 C 
ATOM     56  C   UNL A   1      44.663  29.253  35.133  1.00  0.00     0.029 A 
ATOM     57  C   UNL A   1      44.390  28.548  33.971  1.00  0.00     0.049 A 
ATOM     58  H   UNL A   1      42.794  28.792  32.613  1.00  0.00     0.167 HD
ATOM     59  C   UNL A   1      44.789  26.812  32.245  1.00  0.00     0.074 A 
ATOM     60  C   UNL A   1      45.535  25.708  31.677  1.00  0.00     0.031 C 
ATOM     61  C   UNL A   1      45.134  27.460  33.386  1.00  0.00     0.031 A 
BRANCH  48  62
ATOM     62  C   UNL A   1      41.274  32.036  34.952  1.00  0.00    -0.014 A 
ATOM     63  C   UNL A   1      41.777  33.334  34.743  1.00  0.00     0.010 A 
ATOM     64  C   UNL A   1      40.416  31.805  36.042  1.00  0.00     0.010 A 
ATOM     65  C   UNL A   1      41.463  34.367  35.630  1.00  0.00     0.020 A 
ATOM     66  C   UNL A   1      40.074  32.844  36.914  1.00  0.00     0.020 A 
ATOM     67  C   UNL A   1      40.614  34.115  36.711  1.00  0.00     0.054 A 
BRANCH  67  68
ATOM     68  S   UNL A   1      40.204  35.483  37.830  1.00  0.00     0.124 S 
ATOM     69  O   UNL A   1      38.998  34.984  38.487  1.00  0.00    -0.237 OA
ATOM     70  O   UNL A   1      41.390  35.570  38.677  1.00  0.00    -0.237 OA
ATOM     71  O   UNL A   1      39.999  36.617  36.933  1.00  0.00    -0.744 OA
ENDBRANCH  67  68
ENDBRANCH  48  62
BRANCH  49  72
ATOM     72  C   UNL A   1      43.222  24.880  28.246  1.00  0.00    -0.014 A 
ATOM     73  C   UNL A   1      44.000  25.169  27.111  1.00  0.00     0.010 A 
ATOM     74  C   UNL A   1      42.741  23.570  28.428  1.00  0.00     0.010 A 
ATOM     75  C   UNL A   1      44.273  24.174  26.166  1.00  0.00     0.020 A 
ATOM     76  C   UNL A   1      43.038  22.566  27.503  1.00  0.00     0.020 A 
ATOM     77  C   UNL A   1      43.792  22.878  26.370  1.00  0.00     0.054 A 
BRANCH  77  78
ATOM     78  S   UNL A   1      44.199  21.593  25.156  1.00  0.00     0.124 S 
ATOM     79  O   UNL A   1      43.186  20.580  25.434  1.00  0.00    -0.237 OA
ATOM     80  O   UNL A   1      44.055  22.302  23.887  1.00  0.00    -0.237 OA
ATOM     81  O   UNL A   1      45.569  21.219  25.500  1.00  0.00    -0.744 OA
ENDBRANCH  77  78
ENDBRANCH  49  72
BRANCH  61  82
ATOM     82  C   UNL A   1      46.365  26.972  34.107  1.00  0.00    -0.014 A 
ATOM     83  C   UNL A   1      47.634  27.518  33.838  1.00  0.00     0.010 A 
ATOM     84  C   UNL A   1      46.248  25.963  35.080  1.00  0.00     0.010 A 
ATOM     85  C   UNL A   1      48.768  27.025  34.490  1.00  0.00     0.020 A 
ATOM     86  C   UNL A   1      47.373  25.492  35.759  1.00  0.00     0.020 A 
ATOM     87  C   UNL A   1      48.631  26.012  35.443  1.00  0.00     0.054 A 
BRANCH  87  88
ATOM     88  S   UNL A   1      50.116  25.395  36.281  1.00  0.00     0.124 S 
ATOM     89  O   UNL A   1      50.513  24.286  35.419  1.00  0.00    -0.237 OA
ATOM     90  O   UNL A   1      51.002  26.556  36.259  1.00  0.00    -0.237 OA
ATOM     91  O   UNL A   1      49.633  25.012  37.606  1.00  0.00    -0.744 OA
ENDBRANCH  87  88
ENDBRANCH  61  82
ENDBRANCH  35  36
ENDBRANCH  27  30
ENDBRANCH  25  26
ENDBRANCH  24  25
ENDBRANCH   1  24
TORSDOF 17
ENDMDL
