MODEL 1
REMARK VINA RESULT:     -11.5      0.000      0.000
REMARK SMILES C[C@](Nc1ccc(C(N)=O)nn1)(C(=O)NCCCCNC(=O)c1ccc(-c2c3nc(c(-c4ccc(S(=O)(=O)[O-])cc4)c4ccc([nH]4)c(-c4ccc(S(=O)(=O)[O-])cc4)c4nc(c(-c5ccc(S(=O)(=O)[O-])cc5)c5ccc2[nH]5)C=C4)C=C3)cc1)c1ccccc1
REMARK SMILES IDX 17 1 16 2 15 3 13 4 14 5 2 7 1 8 83 9 84 10 88 11 85 12
REMARK SMILES IDX 87 13 86 14 3 15 4 17 5 18 12 19 6 20 11 21 7 22 8 23 9 24
REMARK SMILES IDX 10 25 18 28 19 29 20 30 21 31 22 33 23 34 24 35 82 36 25 37
REMARK SMILES IDX 81 38 26 39 27 40 28 41 75 42 29 43 80 44 74 45 76 46 30 47
REMARK SMILES IDX 79 48 73 49 72 50 31 52 61 53 42 54 60 55 43 56 46 57 59 58
REMARK SMILES IDX 77 59 44 60 45 61 58 63 78 64 47 65 32 66 33 67 41 68 34 69
REMARK SMILES IDX 40 70 35 71 36 72 37 73 38 74 39 75 62 76 63 77 71 78 64 79
REMARK SMILES IDX 70 80 65 81 66 82 67 83 68 84 69 85 48 86 49 87 57 88 50 89
REMARK SMILES IDX 56 90 51 91 52 92 53 93 54 94 55 95
REMARK H PARENT 15 6 3 16 9 26 9 27 20 32 76 51 46 62
REMARK Flexibility Score: inf
ROOT
ATOM      1  C   UNL A   1      33.294  26.545  25.907  1.00  0.00     0.023 C 
ENDROOT
BRANCH   1   2
ATOM      2  C   UNL A   1      31.922  26.095  25.413  1.00  0.00     0.116 C 
BRANCH   2   3
ATOM      3  N   UNL A   1      31.294  25.164  26.333  1.00  0.00    -0.354 N 
ATOM      4  C   UNL A   1      31.305  23.798  26.413  1.00  0.00     0.250 C 
ATOM      5  O   UNL A   1      30.872  23.357  27.482  1.00  0.00    -0.272 OA
ATOM      6  H   UNL A   1      30.757  25.600  27.035  1.00  0.00     0.163 HD
BRANCH   4   7
ATOM      7  C   UNL A   1      31.937  22.879  25.267  1.00  0.00     0.140 C 
ATOM      8  C   UNL A   1      31.187  23.374  24.006  1.00  0.00     0.051 C 
BRANCH   7   9
ATOM      9  C   UNL A   1      33.479  23.041  25.106  1.00  0.00    -0.013 A 
ATOM     10  C   UNL A   1      34.059  23.138  23.822  1.00  0.00     0.007 A 
ATOM     11  C   UNL A   1      34.380  23.058  26.185  1.00  0.00     0.007 A 
ATOM     12  C   UNL A   1      35.437  23.291  23.627  1.00  0.00     0.000 A 
ATOM     13  C   UNL A   1      35.758  23.242  25.997  1.00  0.00     0.000 A 
ATOM     14  C   UNL A   1      36.287  23.360  24.719  1.00  0.00     0.000 A 
ENDBRANCH   7   9
BRANCH   7  15
ATOM     15  N   UNL A   1      31.682  21.461  25.613  1.00  0.00    -0.351 N 
ATOM     16  H   UNL A   1      31.048  21.337  26.357  1.00  0.00     0.163 HD
BRANCH  15  17
ATOM     17  C   UNL A   1      32.166  20.294  25.092  1.00  0.00     0.149 A 
ATOM     18  C   UNL A   1      32.272  20.003  23.743  1.00  0.00     0.051 A 
ATOM     19  N   UNL A   1      32.535  19.345  25.984  1.00  0.00    -0.132 NA
ATOM     20  C   UNL A   1      32.730  18.758  23.312  1.00  0.00     0.040 A 
ATOM     21  N   UNL A   1      32.954  18.085  25.580  1.00  0.00    -0.143 NA
ATOM     22  C   UNL A   1      33.046  17.814  24.263  1.00  0.00     0.150 A 
BRANCH  22  23
ATOM     23  C   UNL A   1      33.462  16.447  23.854  1.00  0.00     0.269 C 
ATOM     24  N   UNL A   1      32.983  15.408  24.603  1.00  0.00    -0.364 N 
ATOM     25  O   UNL A   1      34.178  16.252  22.877  1.00  0.00    -0.268 OA
ATOM     26  H   UNL A   1      32.410  15.587  25.384  1.00  0.00     0.160 HD
ATOM     27  H   UNL A   1      33.213  14.481  24.363  1.00  0.00     0.160 HD
ENDBRANCH  22  23
ENDBRANCH  15  17
ENDBRANCH   7  15
ENDBRANCH   4   7
ENDBRANCH   2   3
ENDBRANCH   1   2
BRANCH   1  28
ATOM     28  C   UNL A   1      33.289  27.838  26.728  1.00  0.00     0.023 C 
BRANCH  28  29
ATOM     29  C   UNL A   1      34.194  28.952  26.207  1.00  0.00     0.116 C 
BRANCH  29  30
ATOM     30  N   UNL A   1      33.997  30.213  26.903  1.00  0.00    -0.352 N 
ATOM     31  C   UNL A   1      34.781  30.806  27.864  1.00  0.00     0.251 C 
ATOM     32  H   UNL A   1      33.187  30.714  26.650  1.00  0.00     0.163 HD
ATOM     33  O   UNL A   1      34.382  31.813  28.443  1.00  0.00    -0.269 OA
BRANCH  31  34
ATOM     34  C   UNL A   1      36.087  30.212  28.219  1.00  0.00     0.039 A 
ATOM     35  C   UNL A   1      37.132  30.277  27.292  1.00  0.00     0.014 A 
ATOM     36  C   UNL A   1      36.289  29.607  29.462  1.00  0.00     0.014 A 
ATOM     37  C   UNL A   1      38.397  29.796  27.641  1.00  0.00     0.010 A 
ATOM     38  C   UNL A   1      37.566  29.193  29.833  1.00  0.00     0.010 A 
ATOM     39  C   UNL A   1      38.634  29.285  28.927  1.00  0.00    -0.014 A 
BRANCH  39  40
ATOM     40  C   UNL A   1      39.993  28.852  29.346  1.00  0.00     0.031 A 
ATOM     41  C   UNL A   1      40.888  29.790  30.109  1.00  0.00     0.074 A 
ATOM     42  C   UNL A   1      40.447  27.635  28.982  1.00  0.00     0.049 A 
ATOM     43  N   UNL A   1      42.120  29.611  30.511  1.00  0.00    -0.248 NA
ATOM     44  C   UNL A   1      40.335  31.113  30.446  1.00  0.00     0.031 C 
ATOM     45  C   UNL A   1      39.692  26.645  28.209  1.00  0.00     0.029 A 
ATOM     46  N   UNL A   1      41.654  27.022  29.211  1.00  0.00    -0.354 N 
ATOM     47  C   UNL A   1      42.496  30.798  31.128  1.00  0.00     0.074 A 
ATOM     48  C   UNL A   1      41.378  31.708  31.008  1.00  0.00     0.031 C 
ATOM     49  C   UNL A   1      40.443  25.542  28.053  1.00  0.00     0.029 A 
ATOM     50  C   UNL A   1      41.745  25.759  28.675  1.00  0.00     0.049 A 
ATOM     51  H   UNL A   1      42.387  27.449  29.712  1.00  0.00     0.167 HD
ATOM     52  C   UNL A   1      43.659  31.098  31.755  1.00  0.00     0.031 A 
ATOM     53  C   UNL A   1      42.762  24.875  28.678  1.00  0.00     0.031 A 
ATOM     54  C   UNL A   1      44.765  30.188  31.884  1.00  0.00     0.049 A 
ATOM     55  C   UNL A   1      44.049  25.240  29.368  1.00  0.00     0.074 A 
ATOM     56  C   UNL A   1      45.962  30.378  32.554  1.00  0.00     0.029 A 
ATOM     57  N   UNL A   1      44.815  28.917  31.331  1.00  0.00    -0.354 N 
ATOM     58  N   UNL A   1      44.358  26.342  30.007  1.00  0.00    -0.248 NA
ATOM     59  C   UNL A   1      45.121  24.234  29.345  1.00  0.00     0.031 C 
ATOM     60  C   UNL A   1      46.757  29.245  32.358  1.00  0.00     0.029 A 
ATOM     61  C   UNL A   1      46.032  28.322  31.621  1.00  0.00     0.049 A 
ATOM     62  H   UNL A   1      44.092  28.498  30.810  1.00  0.00     0.167 HD
ATOM     63  C   UNL A   1      45.649  26.151  30.489  1.00  0.00     0.074 A 
ATOM     64  C   UNL A   1      46.055  24.822  30.080  1.00  0.00     0.031 C 
ATOM     65  C   UNL A   1      46.424  26.998  31.209  1.00  0.00     0.031 A 
BRANCH  52  66
ATOM     66  C   UNL A   1      43.800  32.479  32.342  1.00  0.00    -0.014 A 
ATOM     67  C   UNL A   1      44.383  33.528  31.609  1.00  0.00     0.010 A 
ATOM     68  C   UNL A   1      43.296  32.744  33.630  1.00  0.00     0.010 A 
ATOM     69  C   UNL A   1      44.497  34.804  32.166  1.00  0.00     0.020 A 
ATOM     70  C   UNL A   1      43.380  34.027  34.179  1.00  0.00     0.020 A 
ATOM     71  C   UNL A   1      43.995  35.045  33.450  1.00  0.00     0.054 A 
BRANCH  71  72
ATOM     72  S   UNL A   1      44.133  36.719  34.136  1.00  0.00     0.124 S 
ATOM     73  O   UNL A   1      45.581  36.917  34.156  1.00  0.00    -0.237 OA
ATOM     74  O   UNL A   1      43.403  37.525  33.161  1.00  0.00    -0.237 OA
ATOM     75  O   UNL A   1      43.502  36.609  35.448  1.00  0.00    -0.744 OA
ENDBRANCH  71  72
ENDBRANCH  52  66
BRANCH  53  76
ATOM     76  C   UNL A   1      42.601  23.550  28.016  1.00  0.00    -0.014 A 
ATOM     77  C   UNL A   1      41.993  22.482  28.698  1.00  0.00     0.010 A 
ATOM     78  C   UNL A   1      43.055  23.349  26.699  1.00  0.00     0.010 A 
ATOM     79  C   UNL A   1      41.860  21.232  28.085  1.00  0.00     0.020 A 
ATOM     80  C   UNL A   1      42.897  22.110  26.073  1.00  0.00     0.020 A 
ATOM     81  C   UNL A   1      42.312  21.055  26.776  1.00  0.00     0.054 A 
BRANCH  81  82
ATOM     82  S   UNL A   1      42.090  19.437  25.985  1.00  0.00     0.124 S 
ATOM     83  O   UNL A   1      42.895  19.576  24.777  1.00  0.00    -0.237 OA
ATOM     84  O   UNL A   1      42.614  18.519  26.994  1.00  0.00    -0.237 OA
ATOM     85  O   UNL A   1      40.647  19.356  25.772  1.00  0.00    -0.744 OA
ENDBRANCH  81  82
ENDBRANCH  53  76
BRANCH  65  86
ATOM     86  C   UNL A   1      47.781  26.504  31.637  1.00  0.00    -0.014 A 
ATOM     87  C   UNL A   1      47.979  25.911  32.896  1.00  0.00     0.010 A 
ATOM     88  C   UNL A   1      48.862  26.584  30.739  1.00  0.00     0.010 A 
ATOM     89  C   UNL A   1      49.242  25.436  33.263  1.00  0.00     0.020 A 
ATOM     90  C   UNL A   1      50.117  26.084  31.090  1.00  0.00     0.020 A 
ATOM     91  C   UNL A   1      50.303  25.525  32.356  1.00  0.00     0.054 A 
BRANCH  91  92
ATOM     92  S   UNL A   1      51.921  24.861  32.837  1.00  0.00     0.124 S 
ATOM     93  O   UNL A   1      51.904  25.038  34.286  1.00  0.00    -0.237 OA
ATOM     94  O   UNL A   1      51.850  23.477  32.372  1.00  0.00    -0.237 OA
ATOM     95  O   UNL A   1      52.871  25.705  32.117  1.00  0.00    -0.744 OA
ENDBRANCH  91  92
ENDBRANCH  65  86
ENDBRANCH  39  40
ENDBRANCH  31  34
ENDBRANCH  29  30
ENDBRANCH  28  29
ENDBRANCH   1  28
TORSDOF 18
ENDMDL
MODEL 2
REMARK VINA RESULT:     -11.2      1.967      2.559
REMARK SMILES C[C@](Nc1ccc(C(N)=O)nn1)(C(=O)NCCCCNC(=O)c1ccc(-c2c3nc(c(-c4ccc(S(=O)(=O)[O-])cc4)c4ccc([nH]4)c(-c4ccc(S(=O)(=O)[O-])cc4)c4nc(c(-c5ccc(S(=O)(=O)[O-])cc5)c5ccc2[nH]5)C=C4)C=C3)cc1)c1ccccc1
REMARK SMILES IDX 17 1 16 2 15 3 13 4 14 5 2 7 1 8 83 9 84 10 88 11 85 12
REMARK SMILES IDX 87 13 86 14 3 15 4 17 5 18 12 19 6 20 11 21 7 22 8 23 9 24
REMARK SMILES IDX 10 25 18 28 19 29 20 30 21 31 22 33 23 34 24 35 82 36 25 37
REMARK SMILES IDX 81 38 26 39 27 40 28 41 75 42 29 43 80 44 74 45 76 46 30 47
REMARK SMILES IDX 79 48 73 49 72 50 31 52 61 53 42 54 60 55 43 56 46 57 59 58
REMARK SMILES IDX 77 59 44 60 45 61 58 63 78 64 47 65 32 66 33 67 41 68 34 69
REMARK SMILES IDX 40 70 35 71 36 72 37 73 38 74 39 75 62 76 63 77 71 78 64 79
REMARK SMILES IDX 70 80 65 81 66 82 67 83 68 84 69 85 48 86 49 87 57 88 50 89
REMARK SMILES IDX 56 90 51 91 52 92 53 93 54 94 55 95
REMARK H PARENT 15 6 3 16 9 26 9 27 20 32 76 51 46 62
REMARK Flexibility Score: inf
ROOT
ATOM      1  C   UNL A   1      33.606  26.708  26.076  1.00  0.00     0.023 C 
ENDROOT
BRANCH   1   2
ATOM      2  C   UNL A   1      32.361  26.154  25.389  1.00  0.00     0.116 C 
BRANCH   2   3
ATOM      3  N   UNL A   1      31.594  25.292  26.270  1.00  0.00    -0.354 N 
ATOM      4  C   UNL A   1      31.476  23.932  26.356  1.00  0.00     0.250 C 
ATOM      5  O   UNL A   1      30.938  23.542  27.398  1.00  0.00    -0.272 OA
ATOM      6  H   UNL A   1      31.056  25.781  26.935  1.00  0.00     0.163 HD
BRANCH   4   7
ATOM      7  C   UNL A   1      32.094  22.948  25.256  1.00  0.00     0.140 C 
ATOM      8  C   UNL A   1      31.294  23.338  23.990  1.00  0.00     0.051 C 
BRANCH   7   9
ATOM      9  C   UNL A   1      33.625  23.131  25.034  1.00  0.00    -0.013 A 
ATOM     10  C   UNL A   1      34.511  23.156  26.134  1.00  0.00     0.007 A 
ATOM     11  C   UNL A   1      34.215  23.322  23.772  1.00  0.00     0.007 A 
ATOM     12  C   UNL A   1      35.894  23.311  25.984  1.00  0.00     0.000 A 
ATOM     13  C   UNL A   1      35.603  23.447  23.614  1.00  0.00     0.000 A 
ATOM     14  C   UNL A   1      36.444  23.440  24.719  1.00  0.00     0.000 A 
ENDBRANCH   7   9
BRANCH   7  15
ATOM     15  N   UNL A   1      31.882  21.553  25.708  1.00  0.00    -0.351 N 
ATOM     16  H   UNL A   1      31.350  21.474  26.533  1.00  0.00     0.163 HD
BRANCH  15  17
ATOM     17  C   UNL A   1      32.290  20.356  25.191  1.00  0.00     0.149 A 
ATOM     18  C   UNL A   1      32.387  20.057  23.843  1.00  0.00     0.051 A 
ATOM     19  N   UNL A   1      32.587  19.385  26.085  1.00  0.00    -0.132 NA
ATOM     20  C   UNL A   1      32.763  18.784  23.416  1.00  0.00     0.040 A 
ATOM     21  N   UNL A   1      32.923  18.099  25.685  1.00  0.00    -0.143 NA
ATOM     22  C   UNL A   1      33.006  17.821  24.369  1.00  0.00     0.150 A 
BRANCH  22  23
ATOM     23  C   UNL A   1      33.332  16.429  23.963  1.00  0.00     0.269 C 
ATOM     24  N   UNL A   1      32.828  15.427  24.744  1.00  0.00    -0.364 N 
ATOM     25  O   UNL A   1      33.998  16.184  22.962  1.00  0.00    -0.268 OA
ATOM     26  H   UNL A   1      32.296  15.645  25.544  1.00  0.00     0.160 HD
ATOM     27  H   UNL A   1      32.998  14.486  24.509  1.00  0.00     0.160 HD
ENDBRANCH  22  23
ENDBRANCH  15  17
ENDBRANCH   7  15
ENDBRANCH   4   7
ENDBRANCH   2   3
ENDBRANCH   1   2
BRANCH   1  28
ATOM     28  C   UNL A   1      33.402  28.047  26.792  1.00  0.00     0.023 C 
BRANCH  28  29
ATOM     29  C   UNL A   1      34.233  29.212  26.259  1.00  0.00     0.116 C 
BRANCH  29  30
ATOM     30  N   UNL A   1      33.902  30.479  26.891  1.00  0.00    -0.352 N 
ATOM     31  C   UNL A   1      34.528  31.119  27.932  1.00  0.00     0.251 C 
ATOM     32  H   UNL A   1      33.117  30.944  26.519  1.00  0.00     0.163 HD
ATOM     33  O   UNL A   1      34.022  32.123  28.427  1.00  0.00    -0.269 OA
BRANCH  31  34
ATOM     34  C   UNL A   1      35.794  30.580  28.474  1.00  0.00     0.039 A 
ATOM     35  C   UNL A   1      37.004  31.046  27.951  1.00  0.00     0.014 A 
ATOM     36  C   UNL A   1      35.792  29.633  29.501  1.00  0.00     0.014 A 
ATOM     37  C   UNL A   1      38.210  30.611  28.507  1.00  0.00     0.010 A 
ATOM     38  C   UNL A   1      36.992  29.255  30.099  1.00  0.00     0.010 A 
ATOM     39  C   UNL A   1      38.214  29.742  29.610  1.00  0.00    -0.014 A 
BRANCH  39  40
ATOM     40  C   UNL A   1      39.484  29.340  30.270  1.00  0.00     0.031 A 
ATOM     41  C   UNL A   1      39.977  30.081  31.484  1.00  0.00     0.074 A 
ATOM     42  C   UNL A   1      40.226  28.348  29.739  1.00  0.00     0.049 A 
ATOM     43  N   UNL A   1      41.083  29.911  32.161  1.00  0.00    -0.248 NA
ATOM     44  C   UNL A   1      39.127  31.171  31.991  1.00  0.00     0.031 C 
ATOM     45  C   UNL A   1      39.879  27.575  28.543  1.00  0.00     0.029 A 
ATOM     46  N   UNL A   1      41.431  27.819  30.133  1.00  0.00    -0.354 N 
ATOM     47  C   UNL A   1      41.072  30.880  33.157  1.00  0.00     0.074 A 
ATOM     48  C   UNL A   1      39.872  31.664  32.969  1.00  0.00     0.031 C 
ATOM     49  C   UNL A   1      40.832  26.656  28.319  1.00  0.00     0.029 A 
ATOM     50  C   UNL A   1      41.879  26.800  29.326  1.00  0.00     0.049 A 
ATOM     51  H   UNL A   1      41.928  28.141  30.920  1.00  0.00     0.167 HD
ATOM     52  C   UNL A   1      41.971  31.087  34.149  1.00  0.00     0.031 A 
ATOM     53  C   UNL A   1      43.008  26.066  29.384  1.00  0.00     0.031 A 
ATOM     54  C   UNL A   1      43.158  30.297  34.343  1.00  0.00     0.049 A 
ATOM     55  C   UNL A   1      43.997  26.326  30.488  1.00  0.00     0.074 A 
ATOM     56  C   UNL A   1      44.098  30.390  35.355  1.00  0.00     0.029 A 
ATOM     57  N   UNL A   1      43.573  29.272  33.506  1.00  0.00    -0.354 N 
ATOM     58  N   UNL A   1      43.933  27.202  31.462  1.00  0.00    -0.248 NA
ATOM     59  C   UNL A   1      45.206  25.490  30.505  1.00  0.00     0.031 C 
ATOM     60  C   UNL A   1      45.109  29.459  35.099  1.00  0.00     0.029 A 
ATOM     61  C   UNL A   1      44.768  28.743  33.963  1.00  0.00     0.049 A 
ATOM     62  H   UNL A   1      43.089  28.965  32.705  1.00  0.00     0.167 HD
ATOM     63  C   UNL A   1      45.078  27.002  32.226  1.00  0.00     0.074 A 
ATOM     64  C   UNL A   1      45.807  25.913  31.609  1.00  0.00     0.031 C 
ATOM     65  C   UNL A   1      45.484  27.658  33.340  1.00  0.00     0.031 A 
BRANCH  52  66
ATOM     66  C   UNL A   1      41.709  32.224  35.103  1.00  0.00    -0.014 A 
ATOM     67  C   UNL A   1      42.244  33.505  34.875  1.00  0.00     0.010 A 
ATOM     68  C   UNL A   1      40.874  32.022  36.218  1.00  0.00     0.010 A 
ATOM     69  C   UNL A   1      41.983  34.551  35.764  1.00  0.00     0.020 A 
ATOM     70  C   UNL A   1      40.585  33.073  37.093  1.00  0.00     0.020 A 
ATOM     71  C   UNL A   1      41.155  34.327  36.870  1.00  0.00     0.054 A 
BRANCH  71  72
ATOM     72  S   UNL A   1      40.812  35.710  37.992  1.00  0.00     0.124 S 
ATOM     73  O   UNL A   1      42.141  36.293  38.165  1.00  0.00    -0.237 OA
ATOM     74  O   UNL A   1      39.868  36.518  37.225  1.00  0.00    -0.237 OA
ATOM     75  O   UNL A   1      40.257  35.066  39.178  1.00  0.00    -0.744 OA
ENDBRANCH  71  72
ENDBRANCH  52  66
BRANCH  53  76
ATOM     76  C   UNL A   1      43.259  25.002  28.372  1.00  0.00    -0.014 A 
ATOM     77  C   UNL A   1      44.002  25.282  27.212  1.00  0.00     0.010 A 
ATOM     78  C   UNL A   1      42.756  23.702  28.562  1.00  0.00     0.010 A 
ATOM     79  C   UNL A   1      44.220  24.289  26.252  1.00  0.00     0.020 A 
ATOM     80  C   UNL A   1      42.996  22.699  27.620  1.00  0.00     0.020 A 
ATOM     81  C   UNL A   1      43.717  23.003  26.463  1.00  0.00     0.054 A 
BRANCH  81  82
ATOM     82  S   UNL A   1      44.049  21.720  25.224  1.00  0.00     0.124 S 
ATOM     83  O   UNL A   1      45.426  21.350  25.532  1.00  0.00    -0.237 OA
ATOM     84  O   UNL A   1      43.037  20.713  25.533  1.00  0.00    -0.237 OA
ATOM     85  O   UNL A   1      43.856  22.414  23.953  1.00  0.00    -0.744 OA
ENDBRANCH  81  82
ENDBRANCH  53  76
BRANCH  65  86
ATOM     86  C   UNL A   1      46.761  27.194  33.993  1.00  0.00    -0.014 A 
ATOM     87  C   UNL A   1      48.001  27.768  33.663  1.00  0.00     0.010 A 
ATOM     88  C   UNL A   1      46.707  26.206  34.994  1.00  0.00     0.010 A 
ATOM     89  C   UNL A   1      49.169  27.340  34.300  1.00  0.00     0.020 A 
ATOM     90  C   UNL A   1      47.867  25.797  35.654  1.00  0.00     0.020 A 
ATOM     91  C   UNL A   1      49.094  26.357  35.293  1.00  0.00     0.054 A 
BRANCH  91  92
ATOM     92  S   UNL A   1      50.617  25.850  36.137  1.00  0.00     0.124 S 
ATOM     93  O   UNL A   1      50.105  25.317  37.395  1.00  0.00    -0.237 OA
ATOM     94  O   UNL A   1      51.178  24.862  35.218  1.00  0.00    -0.237 OA
ATOM     95  O   UNL A   1      51.381  27.090  36.249  1.00  0.00    -0.744 OA
ENDBRANCH  91  92
ENDBRANCH  65  86
ENDBRANCH  39  40
ENDBRANCH  31  34
ENDBRANCH  29  30
ENDBRANCH  28  29
ENDBRANCH   1  28
TORSDOF 18
ENDMDL
MODEL 3
REMARK VINA RESULT:     -11.1      3.315      9.854
REMARK SMILES C[C@](Nc1ccc(C(N)=O)nn1)(C(=O)NCCCCNC(=O)c1ccc(-c2c3nc(c(-c4ccc(S(=O)(=O)[O-])cc4)c4ccc([nH]4)c(-c4ccc(S(=O)(=O)[O-])cc4)c4nc(c(-c5ccc(S(=O)(=O)[O-])cc5)c5ccc2[nH]5)C=C4)C=C3)cc1)c1ccccc1
REMARK SMILES IDX 17 1 16 2 15 3 13 4 14 5 2 7 1 8 83 9 84 10 88 11 85 12
REMARK SMILES IDX 87 13 86 14 3 15 4 17 5 18 12 19 6 20 11 21 7 22 8 23 9 24
REMARK SMILES IDX 10 25 18 28 19 29 20 30 21 31 22 33 23 34 24 35 82 36 25 37
REMARK SMILES IDX 81 38 26 39 27 40 28 41 75 42 29 43 80 44 74 45 76 46 30 47
REMARK SMILES IDX 79 48 73 49 72 50 31 52 61 53 42 54 60 55 43 56 46 57 59 58
REMARK SMILES IDX 77 59 44 60 45 61 58 63 78 64 47 65 32 66 33 67 41 68 34 69
REMARK SMILES IDX 40 70 35 71 36 72 37 73 38 74 39 75 62 76 63 77 71 78 64 79
REMARK SMILES IDX 70 80 65 81 66 82 67 83 68 84 69 85 48 86 49 87 57 88 50 89
REMARK SMILES IDX 56 90 51 91 52 92 53 93 54 94 55 95
REMARK H PARENT 15 6 3 16 9 26 9 27 20 32 76 51 46 62
REMARK Flexibility Score: inf
ROOT
ATOM      1  C   UNL A   1      34.062  23.915  26.024  1.00  0.00     0.023 C 
ENDROOT
BRANCH   1   2
ATOM      2  C   UNL A   1      32.851  23.447  25.223  1.00  0.00     0.116 C 
BRANCH   2   3
ATOM      3  N   UNL A   1      32.965  23.791  23.817  1.00  0.00    -0.354 N 
ATOM      4  C   UNL A   1      32.452  24.821  23.076  1.00  0.00     0.250 C 
ATOM      5  O   UNL A   1      32.973  24.941  21.962  1.00  0.00    -0.272 OA
ATOM      6  H   UNL A   1      33.517  23.163  23.298  1.00  0.00     0.163 HD
BRANCH   4   7
ATOM      7  C   UNL A   1      31.367  25.839  23.661  1.00  0.00     0.140 C 
ATOM      8  C   UNL A   1      30.245  24.881  24.129  1.00  0.00     0.051 C 
BRANCH   7   9
ATOM      9  C   UNL A   1      31.891  26.713  24.840  1.00  0.00    -0.013 A 
ATOM     10  C   UNL A   1      33.167  27.314  24.775  1.00  0.00     0.007 A 
ATOM     11  C   UNL A   1      31.178  26.924  26.034  1.00  0.00     0.007 A 
ATOM     12  C   UNL A   1      33.679  28.111  25.806  1.00  0.00     0.000 A 
ATOM     13  C   UNL A   1      31.672  27.747  27.056  1.00  0.00     0.000 A 
ATOM     14  C   UNL A   1      32.921  28.342  26.943  1.00  0.00     0.000 A 
ENDBRANCH   7   9
BRANCH   7  15
ATOM     15  N   UNL A   1      30.967  26.766  22.577  1.00  0.00    -0.351 N 
ATOM     16  H   UNL A   1      31.318  26.522  21.689  1.00  0.00     0.163 HD
BRANCH  15  17
ATOM     17  C   UNL A   1      30.200  27.898  22.581  1.00  0.00     0.149 A 
ATOM     18  C   UNL A   1      28.888  27.974  23.014  1.00  0.00     0.051 A 
ATOM     19  N   UNL A   1      30.778  29.017  22.088  1.00  0.00    -0.132 NA
ATOM     20  C   UNL A   1      28.173  29.168  22.928  1.00  0.00     0.040 A 
ATOM     21  N   UNL A   1      30.074  30.206  21.953  1.00  0.00    -0.143 NA
ATOM     22  C   UNL A   1      28.795  30.263  22.372  1.00  0.00     0.150 A 
BRANCH  22  23
ATOM     23  C   UNL A   1      28.049  31.535  22.185  1.00  0.00     0.269 C 
ATOM     24  N   UNL A   1      27.841  31.942  20.896  1.00  0.00    -0.364 N 
ATOM     25  O   UNL A   1      27.617  32.180  23.135  1.00  0.00    -0.268 OA
ATOM     26  H   UNL A   1      28.197  31.410  20.148  1.00  0.00     0.160 HD
ATOM     27  H   UNL A   1      27.336  32.768  20.716  1.00  0.00     0.160 HD
ENDBRANCH  22  23
ENDBRANCH  15  17
ENDBRANCH   7  15
ENDBRANCH   4   7
ENDBRANCH   2   3
ENDBRANCH   1   2
BRANCH   1  28
ATOM     28  C   UNL A   1      35.281  22.991  25.943  1.00  0.00     0.023 C 
BRANCH  28  29
ATOM     29  C   UNL A   1      36.628  23.692  25.788  1.00  0.00     0.116 C 
BRANCH  29  30
ATOM     30  N   UNL A   1      37.757  22.781  25.903  1.00  0.00    -0.352 N 
ATOM     31  C   UNL A   1      39.023  23.024  26.379  1.00  0.00     0.251 C 
ATOM     32  H   UNL A   1      37.590  21.860  25.597  1.00  0.00     0.163 HD
ATOM     33  O   UNL A   1      39.892  22.164  26.271  1.00  0.00    -0.269 OA
BRANCH  31  34
ATOM     34  C   UNL A   1      39.341  24.332  26.991  1.00  0.00     0.039 A 
ATOM     35  C   UNL A   1      38.937  24.577  28.307  1.00  0.00     0.014 A 
ATOM     36  C   UNL A   1      40.047  25.306  26.280  1.00  0.00     0.014 A 
ATOM     37  C   UNL A   1      39.302  25.773  28.930  1.00  0.00     0.010 A 
ATOM     38  C   UNL A   1      40.469  26.466  26.926  1.00  0.00     0.010 A 
ATOM     39  C   UNL A   1      40.103  26.711  28.259  1.00  0.00    -0.014 A 
BRANCH  39  40
ATOM     40  C   UNL A   1      40.575  27.947  28.936  1.00  0.00     0.031 A 
ATOM     41  C   UNL A   1      41.957  28.009  29.527  1.00  0.00     0.074 A 
ATOM     42  C   UNL A   1      39.735  28.993  29.076  1.00  0.00     0.049 A 
ATOM     43  N   UNL A   1      42.524  28.978  30.201  1.00  0.00    -0.248 NA
ATOM     44  C   UNL A   1      42.808  26.819  29.361  1.00  0.00     0.031 C 
ATOM     45  C   UNL A   1      38.357  29.046  28.581  1.00  0.00     0.029 A 
ATOM     46  N   UNL A   1      39.915  30.214  29.679  1.00  0.00    -0.354 N 
ATOM     47  C   UNL A   1      43.784  28.509  30.553  1.00  0.00     0.074 A 
ATOM     48  C   UNL A   1      43.883  27.153  30.060  1.00  0.00     0.031 C 
ATOM     49  C   UNL A   1      37.828  30.245  28.875  1.00  0.00     0.029 A 
ATOM     50  C   UNL A   1      38.810  31.031  29.616  1.00  0.00     0.049 A 
ATOM     51  H   UNL A   1      40.756  30.479  30.116  1.00  0.00     0.167 HD
ATOM     52  C   UNL A   1      44.776  29.155  31.213  1.00  0.00     0.031 A 
ATOM     53  C   UNL A   1      38.606  32.270  30.104  1.00  0.00     0.031 A 
ATOM     54  C   UNL A   1      44.680  30.508  31.691  1.00  0.00     0.049 A 
ATOM     55  C   UNL A   1      39.719  32.959  30.845  1.00  0.00     0.074 A 
ATOM     56  C   UNL A   1      45.652  31.270  32.316  1.00  0.00     0.029 A 
ATOM     57  N   UNL A   1      43.546  31.302  31.604  1.00  0.00    -0.354 N 
ATOM     58  N   UNL A   1      40.929  32.525  31.107  1.00  0.00    -0.248 NA
ATOM     59  C   UNL A   1      39.443  34.313  31.349  1.00  0.00     0.031 C 
ATOM     60  C   UNL A   1      45.089  32.504  32.657  1.00  0.00     0.029 A 
ATOM     61  C   UNL A   1      43.785  32.534  32.187  1.00  0.00     0.049 A 
ATOM     62  H   UNL A   1      42.696  31.029  31.188  1.00  0.00     0.167 HD
ATOM     63  C   UNL A   1      41.567  33.562  31.778  1.00  0.00     0.074 A 
ATOM     64  C   UNL A   1      40.615  34.650  31.868  1.00  0.00     0.031 C 
ATOM     65  C   UNL A   1      42.829  33.610  32.270  1.00  0.00     0.031 A 
BRANCH  52  66
ATOM     66  C   UNL A   1      46.054  28.398  31.465  1.00  0.00    -0.014 A 
ATOM     67  C   UNL A   1      46.227  27.623  32.626  1.00  0.00     0.010 A 
ATOM     68  C   UNL A   1      47.081  28.423  30.502  1.00  0.00     0.010 A 
ATOM     69  C   UNL A   1      47.415  26.920  32.839  1.00  0.00     0.020 A 
ATOM     70  C   UNL A   1      48.260  27.697  30.698  1.00  0.00     0.020 A 
ATOM     71  C   UNL A   1      48.426  26.963  31.873  1.00  0.00     0.054 A 
BRANCH  71  72
ATOM     72  S   UNL A   1      49.947  26.019  32.165  1.00  0.00     0.124 S 
ATOM     73  O   UNL A   1      50.924  27.084  32.383  1.00  0.00    -0.237 OA
ATOM     74  O   UNL A   1      49.609  25.226  33.344  1.00  0.00    -0.237 OA
ATOM     75  O   UNL A   1      50.124  25.256  30.933  1.00  0.00    -0.744 OA
ENDBRANCH  71  72
ENDBRANCH  52  66
BRANCH  53  76
ATOM     76  C   UNL A   1      37.296  32.948  29.894  1.00  0.00    -0.014 A 
ATOM     77  C   UNL A   1      36.324  32.951  30.910  1.00  0.00     0.010 A 
ATOM     78  C   UNL A   1      37.014  33.596  28.678  1.00  0.00     0.010 A 
ATOM     79  C   UNL A   1      35.087  33.570  30.706  1.00  0.00     0.020 A 
ATOM     80  C   UNL A   1      35.790  34.240  28.480  1.00  0.00     0.020 A 
ATOM     81  C   UNL A   1      34.828  34.211  29.493  1.00  0.00     0.054 A 
BRANCH  81  82
ATOM     82  S   UNL A   1      33.232  35.044  29.267  1.00  0.00     0.124 S 
ATOM     83  O   UNL A   1      32.665  34.983  30.609  1.00  0.00    -0.237 OA
ATOM     84  O   UNL A   1      33.631  36.372  28.807  1.00  0.00    -0.237 OA
ATOM     85  O   UNL A   1      32.557  34.223  28.263  1.00  0.00    -0.744 OA
ENDBRANCH  81  82
ENDBRANCH  53  76
BRANCH  65  86
ATOM     86  C   UNL A   1      43.273  34.895  32.920  1.00  0.00    -0.014 A 
ATOM     87  C   UNL A   1      43.133  35.100  34.303  1.00  0.00     0.010 A 
ATOM     88  C   UNL A   1      43.893  35.887  32.138  1.00  0.00     0.010 A 
ATOM     89  C   UNL A   1      43.577  36.290  34.889  1.00  0.00     0.020 A 
ATOM     90  C   UNL A   1      44.363  37.064  32.723  1.00  0.00     0.020 A 
ATOM     91  C   UNL A   1      44.190  37.265  34.094  1.00  0.00     0.054 A 
BRANCH  91  92
ATOM     92  S   UNL A   1      44.797  38.780  34.884  1.00  0.00     0.124 S 
ATOM     93  O   UNL A   1      43.800  39.762  34.465  1.00  0.00    -0.237 OA
ATOM     94  O   UNL A   1      44.778  38.432  36.302  1.00  0.00    -0.237 OA
ATOM     95  O   UNL A   1      46.128  38.961  34.311  1.00  0.00    -0.744 OA
ENDBRANCH  91  92
ENDBRANCH  65  86
ENDBRANCH  39  40
ENDBRANCH  31  34
ENDBRANCH  29  30
ENDBRANCH  28  29
ENDBRANCH   1  28
TORSDOF 18
ENDMDL
