MODEL 1
REMARK VINA RESULT:     -10.3      0.000      0.000
REMARK SMILES CC(=O)c1ccc(NC(=O)C[C@H](C(=O)NCCCCNC(=O)c2ccc(-c3c4nc(c(-c5ccc(S(=O)(=O)[O-])cc5)c5ccc([nH]5)c(-c5ccc(S(=O)(=O)[O-])cc5)c5nc(c(-c6ccc(S(=O)(=O)[O-])cc6)c6ccc3[nH]6)C=C5)C=C4)cc2)[NH+](C)C)cc1
REMARK SMILES IDX 17 1 16 2 15 3 13 4 14 5 12 7 11 8 9 9 8 10 10 12 7 13 4 14
REMARK SMILES IDX 5 15 87 16 6 17 86 18 2 19 1 20 3 21 83 22 84 23 85 24 18 26
REMARK SMILES IDX 19 27 20 28 21 29 22 31 23 32 24 33 82 34 25 35 81 36 26 37
REMARK SMILES IDX 27 38 28 39 75 40 29 41 80 42 74 43 76 44 30 45 79 46 73 47
REMARK SMILES IDX 72 48 31 50 61 51 42 52 60 53 43 54 46 55 59 56 77 57 44 58
REMARK SMILES IDX 45 59 58 61 78 62 47 63 32 64 33 65 41 66 34 67 40 68 35 69
REMARK SMILES IDX 36 70 37 71 38 72 39 73 62 74 63 75 71 76 64 77 70 78 65 79
REMARK SMILES IDX 66 80 67 81 68 82 69 83 48 84 49 85 57 86 50 87 56 88 51 89
REMARK SMILES IDX 52 90 53 91 54 92 55 93
REMARK H PARENT 15 6 8 11 83 25 20 30 76 49 46 60
REMARK Flexibility Score: inf
ROOT
ATOM      1  C   UNL A   1      34.750  23.729  24.157  1.00  0.00     0.023 C 
ENDROOT
BRANCH   1   2
ATOM      2  C   UNL A   1      34.170  25.064  23.698  1.00  0.00     0.116 C 
BRANCH   2   3
ATOM      3  N   UNL A   1      34.236  26.051  24.753  1.00  0.00    -0.351 N 
ATOM      4  C   UNL A   1      33.469  27.116  25.079  1.00  0.00     0.278 C 
ATOM      5  O   UNL A   1      33.870  27.742  26.076  1.00  0.00    -0.268 OA
ATOM      6  H   UNL A   1      34.999  25.919  25.362  1.00  0.00     0.163 HD
BRANCH   4   7
ATOM      7  C   UNL A   1      32.123  27.543  24.426  1.00  0.00     0.283 C 
BRANCH   7   8
ATOM      8  C   UNL A   1      30.952  26.679  24.970  1.00  0.00     0.175 C 
BRANCH   8   9
ATOM      9  C   UNL A   1      29.983  26.042  23.999  1.00  0.00     0.230 C 
ATOM     10  N   UNL A   1      29.940  24.713  23.705  1.00  0.00    -0.326 N 
ATOM     11  H   UNL A   1      29.189  24.474  23.114  1.00  0.00     0.169 HD
ATOM     12  O   UNL A   1      29.121  26.751  23.462  1.00  0.00    -0.274 OA
BRANCH  10  13
ATOM     13  C   UNL A   1      30.732  23.614  24.062  1.00  0.00     0.041 A 
ATOM     14  C   UNL A   1      32.190  21.251  24.552  1.00  0.00     0.017 A 
ATOM     15  C   UNL A   1      31.619  21.977  25.605  1.00  0.00     0.014 A 
ATOM     16  C   UNL A   1      32.084  21.749  23.253  1.00  0.00     0.014 A 
ATOM     17  C   UNL A   1      30.908  23.160  25.360  1.00  0.00     0.027 A 
ATOM     18  C   UNL A   1      31.372  22.932  23.016  1.00  0.00     0.027 A 
BRANCH  14  19
ATOM     19  C   UNL A   1      32.829  19.939  24.864  1.00  0.00     0.159 C 
ATOM     20  C   UNL A   1      34.310  19.768  24.655  1.00  0.00     0.093 C 
ATOM     21  O   UNL A   1      32.128  19.012  25.269  1.00  0.00    -0.295 OA
ENDBRANCH  14  19
ENDBRANCH  10  13
ENDBRANCH   8   9
ENDBRANCH   7   8
BRANCH   7  22
ATOM     22  N   UNL A   1      31.936  28.983  24.115  1.00  0.00    -0.329 N 
ATOM     23  C   UNL A   1      31.204  29.183  22.861  1.00  0.00     0.333 C 
ATOM     24  C   UNL A   1      31.323  29.804  25.147  1.00  0.00     0.333 C 
ATOM     25  H   UNL A   1      32.900  29.309  24.040  1.00  0.00     0.348 HD
ENDBRANCH   7  22
ENDBRANCH   4   7
ENDBRANCH   2   3
ENDBRANCH   1   2
BRANCH   1  26
ATOM     26  C   UNL A   1      36.262  23.726  24.350  1.00  0.00     0.023 C 
BRANCH  26  27
ATOM     27  C   UNL A   1      36.717  23.562  25.785  1.00  0.00     0.116 C 
BRANCH  27  28
ATOM     28  N   UNL A   1      37.862  22.670  25.898  1.00  0.00    -0.352 N 
ATOM     29  C   UNL A   1      39.139  22.935  26.327  1.00  0.00     0.251 C 
ATOM     30  H   UNL A   1      37.695  21.739  25.627  1.00  0.00     0.163 HD
ATOM     31  O   UNL A   1      40.017  22.095  26.157  1.00  0.00    -0.269 OA
BRANCH  29  32
ATOM     32  C   UNL A   1      39.457  24.233  26.963  1.00  0.00     0.039 A 
ATOM     33  C   UNL A   1      39.080  24.443  28.291  1.00  0.00     0.014 A 
ATOM     34  C   UNL A   1      40.118  25.242  26.258  1.00  0.00     0.014 A 
ATOM     35  C   UNL A   1      39.412  25.642  28.920  1.00  0.00     0.010 A 
ATOM     36  C   UNL A   1      40.554  26.383  26.919  1.00  0.00     0.010 A 
ATOM     37  C   UNL A   1      40.182  26.610  28.249  1.00  0.00    -0.014 A 
BRANCH  37  38
ATOM     38  C   UNL A   1      40.578  27.871  28.924  1.00  0.00     0.031 A 
ATOM     39  C   UNL A   1      41.967  28.022  29.487  1.00  0.00     0.074 A 
ATOM     40  C   UNL A   1      39.678  28.868  29.039  1.00  0.00     0.049 A 
ATOM     41  N   UNL A   1      42.502  29.056  30.085  1.00  0.00    -0.248 NA
ATOM     42  C   UNL A   1      42.867  26.858  29.393  1.00  0.00     0.031 C 
ATOM     43  C   UNL A   1      38.284  28.809  28.587  1.00  0.00     0.029 A 
ATOM     44  N   UNL A   1      39.802  30.131  29.559  1.00  0.00    -0.354 N 
ATOM     45  C   UNL A   1      43.790  28.665  30.436  1.00  0.00     0.074 A 
ATOM     46  C   UNL A   1      43.935  27.281  30.051  1.00  0.00     0.031 C 
ATOM     47  C   UNL A   1      37.701  30.000  28.798  1.00  0.00     0.029 A 
ATOM     48  C   UNL A   1      38.662  30.891  29.438  1.00  0.00     0.049 A 
ATOM     49  H   UNL A   1      40.629  30.462  29.978  1.00  0.00     0.167 HD
ATOM     50  C   UNL A   1      44.777  29.403  30.995  1.00  0.00     0.031 A 
ATOM     51  C   UNL A   1      38.423  32.166  29.799  1.00  0.00     0.031 A 
ATOM     52  C   UNL A   1      44.632  30.786  31.362  1.00  0.00     0.049 A 
ATOM     53  C   UNL A   1      39.537  32.960  30.424  1.00  0.00     0.074 A 
ATOM     54  C   UNL A   1      45.579  31.639  31.897  1.00  0.00     0.029 A 
ATOM     55  N   UNL A   1      43.462  31.519  31.226  1.00  0.00    -0.354 N 
ATOM     56  N   UNL A   1      40.771  32.591  30.679  1.00  0.00    -0.248 NA
ATOM     57  C   UNL A   1      39.233  34.348  30.794  1.00  0.00     0.031 C 
ATOM     58  C   UNL A   1      44.969  32.875  32.131  1.00  0.00     0.029 A 
ATOM     59  C   UNL A   1      43.660  32.810  31.684  1.00  0.00     0.049 A 
ATOM     60  H   UNL A   1      42.618  31.172  30.858  1.00  0.00     0.167 HD
ATOM     61  C   UNL A   1      41.395  33.712  31.218  1.00  0.00     0.074 A 
ATOM     62  C   UNL A   1      40.412  34.776  31.217  1.00  0.00     0.031 C 
ATOM     63  C   UNL A   1      42.664  33.850  31.677  1.00  0.00     0.031 A 
BRANCH  50  64
ATOM     64  C   UNL A   1      46.110  28.737  31.223  1.00  0.00    -0.014 A 
ATOM     65  C   UNL A   1      47.111  28.773  30.236  1.00  0.00     0.010 A 
ATOM     66  C   UNL A   1      46.393  28.130  32.460  1.00  0.00     0.010 A 
ATOM     67  C   UNL A   1      48.362  28.197  30.472  1.00  0.00     0.020 A 
ATOM     68  C   UNL A   1      47.652  27.577  32.711  1.00  0.00     0.020 A 
ATOM     69  C   UNL A   1      48.626  27.608  31.711  1.00  0.00     0.054 A 
BRANCH  69  70
ATOM     70  S   UNL A   1      50.281  26.926  32.009  1.00  0.00     0.124 S 
ATOM     71  O   UNL A   1      50.115  25.536  31.593  1.00  0.00    -0.237 OA
ATOM     72  O   UNL A   1      51.123  27.744  31.141  1.00  0.00    -0.237 OA
ATOM     73  O   UNL A   1      50.487  27.125  33.442  1.00  0.00    -0.744 OA
ENDBRANCH  69  70
ENDBRANCH  50  64
BRANCH  51  74
ATOM     74  C   UNL A   1      37.082  32.778  29.573  1.00  0.00    -0.014 A 
ATOM     75  C   UNL A   1      36.779  33.414  28.355  1.00  0.00     0.010 A 
ATOM     76  C   UNL A   1      36.110  32.753  30.588  1.00  0.00     0.010 A 
ATOM     77  C   UNL A   1      35.548  34.054  28.176  1.00  0.00     0.020 A 
ATOM     78  C   UNL A   1      34.865  33.361  30.401  1.00  0.00     0.020 A 
ATOM     79  C   UNL A   1      34.601  34.026  29.203  1.00  0.00     0.054 A 
BRANCH  79  80
ATOM     80  S   UNL A   1      33.008  34.857  28.949  1.00  0.00     0.124 S 
ATOM     81  O   UNL A   1      32.433  34.826  30.291  1.00  0.00    -0.237 OA
ATOM     82  O   UNL A   1      33.412  36.174  28.463  1.00  0.00    -0.237 OA
ATOM     83  O   UNL A   1      32.338  34.016  27.960  1.00  0.00    -0.744 OA
ENDBRANCH  79  80
ENDBRANCH  51  74
BRANCH  63  84
ATOM     84  C   UNL A   1      43.060  35.210  32.187  1.00  0.00    -0.014 A 
ATOM     85  C   UNL A   1      43.678  36.152  31.345  1.00  0.00     0.010 A 
ATOM     86  C   UNL A   1      42.792  35.555  33.524  1.00  0.00     0.010 A 
ATOM     87  C   UNL A   1      44.074  37.393  31.847  1.00  0.00     0.020 A 
ATOM     88  C   UNL A   1      43.154  36.809  34.021  1.00  0.00     0.020 A 
ATOM     89  C   UNL A   1      43.814  37.711  33.184  1.00  0.00     0.054 A 
BRANCH  89  90
ATOM     90  S   UNL A   1      44.331  39.332  33.810  1.00  0.00     0.124 S 
ATOM     91  O   UNL A   1      44.846  38.994  35.134  1.00  0.00    -0.237 OA
ATOM     92  O   UNL A   1      45.334  39.748  32.833  1.00  0.00    -0.237 OA
ATOM     93  O   UNL A   1      43.098  40.116  33.802  1.00  0.00    -0.744 OA
ENDBRANCH  89  90
ENDBRANCH  63  84
ENDBRANCH  37  38
ENDBRANCH  29  32
ENDBRANCH  27  28
ENDBRANCH  26  27
ENDBRANCH   1  26
TORSDOF 19
ENDMDL
MODEL 2
REMARK VINA RESULT:     -10.2      4.123      9.813
REMARK SMILES CC(=O)c1ccc(NC(=O)C[C@H](C(=O)NCCCCNC(=O)c2ccc(-c3c4nc(c(-c5ccc(S(=O)(=O)[O-])cc5)c5ccc([nH]5)c(-c5ccc(S(=O)(=O)[O-])cc5)c5nc(c(-c6ccc(S(=O)(=O)[O-])cc6)c6ccc3[nH]6)C=C5)C=C4)cc2)[NH+](C)C)cc1
REMARK SMILES IDX 17 1 16 2 15 3 13 4 14 5 12 7 11 8 9 9 8 10 10 12 7 13 4 14
REMARK SMILES IDX 5 15 87 16 6 17 86 18 2 19 1 20 3 21 83 22 84 23 85 24 18 26
REMARK SMILES IDX 19 27 20 28 21 29 22 31 23 32 24 33 82 34 25 35 81 36 26 37
REMARK SMILES IDX 27 38 28 39 75 40 29 41 80 42 74 43 76 44 30 45 79 46 73 47
REMARK SMILES IDX 72 48 31 50 61 51 42 52 60 53 43 54 46 55 59 56 77 57 44 58
REMARK SMILES IDX 45 59 58 61 78 62 47 63 32 64 33 65 41 66 34 67 40 68 35 69
REMARK SMILES IDX 36 70 37 71 38 72 39 73 62 74 63 75 71 76 64 77 70 78 65 79
REMARK SMILES IDX 66 80 67 81 68 82 69 83 48 84 49 85 57 86 50 87 56 88 51 89
REMARK SMILES IDX 52 90 53 91 54 92 55 93
REMARK H PARENT 15 6 8 11 83 25 20 30 76 49 46 60
REMARK Flexibility Score: inf
ROOT
ATOM      1  C   UNL A   1      34.893  29.091  27.069  1.00  0.00     0.023 C 
ENDROOT
BRANCH   1   2
ATOM      2  C   UNL A   1      33.901  28.644  25.999  1.00  0.00     0.116 C 
BRANCH   2   3
ATOM      3  N   UNL A   1      32.729  28.042  26.595  1.00  0.00    -0.351 N 
ATOM      4  C   UNL A   1      31.820  27.142  26.155  1.00  0.00     0.278 C 
ATOM      5  O   UNL A   1      30.928  26.879  26.981  1.00  0.00    -0.268 OA
ATOM      6  H   UNL A   1      32.557  28.352  27.514  1.00  0.00     0.163 HD
BRANCH   4   7
ATOM      7  C   UNL A   1      31.851  26.350  24.816  1.00  0.00     0.283 C 
BRANCH   7   8
ATOM      8  C   UNL A   1      31.468  24.863  25.051  1.00  0.00     0.175 C 
BRANCH   8   9
ATOM      9  C   UNL A   1      31.375  23.922  23.871  1.00  0.00     0.230 C 
ATOM     10  N   UNL A   1      32.306  22.980  23.554  1.00  0.00    -0.326 N 
ATOM     11  H   UNL A   1      32.033  22.407  22.800  1.00  0.00     0.169 HD
ATOM     12  O   UNL A   1      30.362  23.954  23.158  1.00  0.00    -0.274 OA
BRANCH  10  13
ATOM     13  C   UNL A   1      33.566  22.649  24.070  1.00  0.00     0.041 A 
ATOM     14  C   UNL A   1      36.174  21.890  24.826  1.00  0.00     0.017 A 
ATOM     15  C   UNL A   1      35.068  21.557  25.618  1.00  0.00     0.014 A 
ATOM     16  C   UNL A   1      35.976  22.663  23.681  1.00  0.00     0.014 A 
ATOM     17  C   UNL A   1      33.774  21.950  25.249  1.00  0.00     0.027 A 
ATOM     18  C   UNL A   1      34.680  23.052  23.318  1.00  0.00     0.027 A 
BRANCH  14  19
ATOM     19  C   UNL A   1      37.508  21.340  25.208  1.00  0.00     0.159 C 
ATOM     20  C   UNL A   1      37.879  19.941  24.794  1.00  0.00     0.093 C 
ATOM     21  O   UNL A   1      38.274  22.035  25.874  1.00  0.00    -0.295 OA
ENDBRANCH  14  19
ENDBRANCH  10  13
ENDBRANCH   8   9
ENDBRANCH   7   8
BRANCH   7  22
ATOM     22  N   UNL A   1      31.435  27.065  23.584  1.00  0.00    -0.329 N 
ATOM     23  C   UNL A   1      30.439  28.103  23.862  1.00  0.00     0.333 C 
ATOM     24  C   UNL A   1      32.493  27.644  22.770  1.00  0.00     0.333 C 
ATOM     25  H   UNL A   1      31.039  26.309  23.024  1.00  0.00     0.348 HD
ENDBRANCH   7  22
ENDBRANCH   4   7
ENDBRANCH   2   3
ENDBRANCH   1   2
BRANCH   1  26
ATOM     26  C   UNL A   1      34.631  30.480  27.638  1.00  0.00     0.023 C 
BRANCH  26  27
ATOM     27  C   UNL A   1      35.771  31.058  28.451  1.00  0.00     0.116 C 
BRANCH  27  28
ATOM     28  N   UNL A   1      35.687  30.685  29.855  1.00  0.00    -0.352 N 
ATOM     29  C   UNL A   1      36.590  30.009  30.637  1.00  0.00     0.251 C 
ATOM     30  H   UNL A   1      34.860  30.959  30.312  1.00  0.00     0.163 HD
ATOM     31  O   UNL A   1      36.248  29.614  31.748  1.00  0.00    -0.269 OA
BRANCH  29  32
ATOM     32  C   UNL A   1      37.954  29.737  30.133  1.00  0.00     0.039 A 
ATOM     33  C   UNL A   1      38.948  29.364  31.041  1.00  0.00     0.014 A 
ATOM     34  C   UNL A   1      38.261  29.851  28.774  1.00  0.00     0.014 A 
ATOM     35  C   UNL A   1      40.227  29.059  30.577  1.00  0.00     0.010 A 
ATOM     36  C   UNL A   1      39.497  29.431  28.300  1.00  0.00     0.010 A 
ATOM     37  C   UNL A   1      40.503  29.057  29.198  1.00  0.00    -0.014 A 
BRANCH  37  38
ATOM     38  C   UNL A   1      41.849  28.692  28.691  1.00  0.00     0.031 A 
ATOM     39  C   UNL A   1      42.943  29.727  28.639  1.00  0.00     0.074 A 
ATOM     40  C   UNL A   1      42.075  27.434  28.263  1.00  0.00     0.049 A 
ATOM     41  N   UNL A   1      44.186  29.590  28.254  1.00  0.00    -0.248 NA
ATOM     42  C   UNL A   1      42.595  31.101  29.048  1.00  0.00     0.031 C 
ATOM     43  C   UNL A   1      41.072  26.365  28.207  1.00  0.00     0.029 A 
ATOM     44  N   UNL A   1      43.221  26.835  27.807  1.00  0.00    -0.354 N 
ATOM     45  C   UNL A   1      44.760  30.851  28.372  1.00  0.00     0.074 A 
ATOM     46  C   UNL A   1      43.718  31.756  28.796  1.00  0.00     0.031 C 
ATOM     47  C   UNL A   1      41.661  25.230  27.797  1.00  0.00     0.029 A 
ATOM     48  C   UNL A   1      43.068  25.498  27.520  1.00  0.00     0.049 A 
ATOM     49  H   UNL A   1      44.072  27.316  27.697  1.00  0.00     0.167 HD
ATOM     50  C   UNL A   1      46.049  31.217  28.182  1.00  0.00     0.031 A 
ATOM     51  C   UNL A   1      43.964  24.591  27.088  1.00  0.00     0.031 A 
ATOM     52  C   UNL A   1      47.086  30.308  27.776  1.00  0.00     0.049 A 
ATOM     53  C   UNL A   1      45.388  25.028  26.879  1.00  0.00     0.074 A 
ATOM     54  C   UNL A   1      48.433  30.564  27.593  1.00  0.00     0.029 A 
ATOM     55  N   UNL A   1      46.892  28.964  27.493  1.00  0.00    -0.354 N 
ATOM     56  N   UNL A   1      45.925  26.211  27.069  1.00  0.00    -0.248 NA
ATOM     57  C   UNL A   1      46.332  24.003  26.415  1.00  0.00     0.031 C 
ATOM     58  C   UNL A   1      49.044  29.386  27.152  1.00  0.00     0.029 A 
ATOM     59  C   UNL A   1      48.090  28.382  27.120  1.00  0.00     0.049 A 
ATOM     60  H   UNL A   1      46.028  28.494  27.550  1.00  0.00     0.167 HD
ATOM     61  C   UNL A   1      47.276  26.063  26.769  1.00  0.00     0.074 A 
ATOM     62  C   UNL A   1      47.475  24.672  26.421  1.00  0.00     0.031 C 
ATOM     63  C   UNL A   1      48.262  26.995  26.774  1.00  0.00     0.031 A 
BRANCH  50  64
ATOM     64  C   UNL A   1      46.416  32.657  28.434  1.00  0.00    -0.014 A 
ATOM     65  C   UNL A   1      46.945  33.059  29.674  1.00  0.00     0.010 A 
ATOM     66  C   UNL A   1      46.298  33.606  27.402  1.00  0.00     0.010 A 
ATOM     67  C   UNL A   1      47.329  34.386  29.885  1.00  0.00     0.020 A 
ATOM     68  C   UNL A   1      46.707  34.928  27.599  1.00  0.00     0.020 A 
ATOM     69  C   UNL A   1      47.214  35.310  28.843  1.00  0.00     0.054 A 
BRANCH  69  70
ATOM     70  S   UNL A   1      47.782  37.009  29.129  1.00  0.00     0.124 S 
ATOM     71  O   UNL A   1      46.559  37.664  29.586  1.00  0.00    -0.237 OA
ATOM     72  O   UNL A   1      48.816  36.833  30.144  1.00  0.00    -0.237 OA
ATOM     73  O   UNL A   1      48.265  37.440  27.819  1.00  0.00    -0.744 OA
ENDBRANCH  69  70
ENDBRANCH  50  64
BRANCH  51  74
ATOM     74  C   UNL A   1      43.551  23.181  26.833  1.00  0.00    -0.014 A 
ATOM     75  C   UNL A   1      42.987  22.401  27.858  1.00  0.00     0.010 A 
ATOM     76  C   UNL A   1      43.750  22.602  25.567  1.00  0.00     0.010 A 
ATOM     77  C   UNL A   1      42.674  21.056  27.635  1.00  0.00     0.020 A 
ATOM     78  C   UNL A   1      43.405  21.268  25.330  1.00  0.00     0.020 A 
ATOM     79  C   UNL A   1      42.889  20.498  26.373  1.00  0.00     0.054 A 
BRANCH  79  80
ATOM     80  S   UNL A   1      42.471  18.753  26.102  1.00  0.00     0.124 S 
ATOM     81  O   UNL A   1      41.070  18.836  25.700  1.00  0.00    -0.237 OA
ATOM     82  O   UNL A   1      43.410  18.361  25.054  1.00  0.00    -0.237 OA
ATOM     83  O   UNL A   1      42.713  18.138  27.406  1.00  0.00    -0.744 OA
ENDBRANCH  79  80
ENDBRANCH  51  74
BRANCH  63  84
ATOM     84  C   UNL A   1      49.647  26.522  26.421  1.00  0.00    -0.014 A 
ATOM     85  C   UNL A   1      50.115  26.564  25.095  1.00  0.00     0.010 A 
ATOM     86  C   UNL A   1      50.498  26.048  27.435  1.00  0.00     0.010 A 
ATOM     87  C   UNL A   1      51.389  26.085  24.782  1.00  0.00     0.020 A 
ATOM     88  C   UNL A   1      51.786  25.600  27.131  1.00  0.00     0.020 A 
ATOM     89  C   UNL A   1      52.214  25.600  25.802  1.00  0.00     0.054 A 
BRANCH  89  90
ATOM     90  S   UNL A   1      53.865  24.990  25.370  1.00  0.00     0.124 S 
ATOM     91  O   UNL A   1      54.535  24.988  26.668  1.00  0.00    -0.237 OA
ATOM     92  O   UNL A   1      53.583  23.673  24.807  1.00  0.00    -0.237 OA
ATOM     93  O   UNL A   1      54.361  25.978  24.414  1.00  0.00    -0.744 OA
ENDBRANCH  89  90
ENDBRANCH  63  84
ENDBRANCH  37  38
ENDBRANCH  29  32
ENDBRANCH  27  28
ENDBRANCH  26  27
ENDBRANCH   1  26
TORSDOF 19
ENDMDL
MODEL 3
REMARK VINA RESULT:     -10.1      3.265      9.355
REMARK SMILES CC(=O)c1ccc(NC(=O)C[C@H](C(=O)NCCCCNC(=O)c2ccc(-c3c4nc(c(-c5ccc(S(=O)(=O)[O-])cc5)c5ccc([nH]5)c(-c5ccc(S(=O)(=O)[O-])cc5)c5nc(c(-c6ccc(S(=O)(=O)[O-])cc6)c6ccc3[nH]6)C=C5)C=C4)cc2)[NH+](C)C)cc1
REMARK SMILES IDX 17 1 16 2 15 3 13 4 14 5 12 7 11 8 9 9 8 10 10 12 7 13 4 14
REMARK SMILES IDX 5 15 87 16 6 17 86 18 2 19 1 20 3 21 83 22 84 23 85 24 18 26
REMARK SMILES IDX 19 27 20 28 21 29 22 31 23 32 24 33 82 34 25 35 81 36 26 37
REMARK SMILES IDX 27 38 28 39 75 40 29 41 80 42 74 43 76 44 30 45 79 46 73 47
REMARK SMILES IDX 72 48 31 50 61 51 42 52 60 53 43 54 46 55 59 56 77 57 44 58
REMARK SMILES IDX 45 59 58 61 78 62 47 63 32 64 33 65 41 66 34 67 40 68 35 69
REMARK SMILES IDX 36 70 37 71 38 72 39 73 62 74 63 75 71 76 64 77 70 78 65 79
REMARK SMILES IDX 66 80 67 81 68 82 69 83 48 84 49 85 57 86 50 87 56 88 51 89
REMARK SMILES IDX 52 90 53 91 54 92 55 93
REMARK H PARENT 15 6 8 11 83 25 20 30 76 49 46 60
REMARK Flexibility Score: inf
ROOT
ATOM      1  C   UNL A   1      32.582  27.229  26.336  1.00  0.00     0.023 C 
ENDROOT
BRANCH   1   2
ATOM      2  C   UNL A   1      31.280  26.438  26.228  1.00  0.00     0.116 C 
BRANCH   2   3
ATOM      3  N   UNL A   1      31.398  25.151  26.879  1.00  0.00    -0.351 N 
ATOM      4  C   UNL A   1      31.789  23.928  26.456  1.00  0.00     0.278 C 
ATOM      5  O   UNL A   1      31.740  23.049  27.335  1.00  0.00    -0.268 OA
ATOM      6  H   UNL A   1      31.139  25.171  27.829  1.00  0.00     0.163 HD
BRANCH   4   7
ATOM      7  C   UNL A   1      32.385  23.558  25.067  1.00  0.00     0.283 C 
BRANCH   7   8
ATOM      8  C   UNL A   1      33.762  24.246  24.861  1.00  0.00     0.175 C 
BRANCH   8   9
ATOM      9  C   UNL A   1      34.296  24.440  23.460  1.00  0.00     0.230 C 
ATOM     10  N   UNL A   1      33.899  25.425  22.607  1.00  0.00    -0.326 N 
ATOM     11  H   UNL A   1      34.417  25.442  21.769  1.00  0.00     0.169 HD
ATOM     12  O   UNL A   1      35.199  23.696  23.054  1.00  0.00    -0.274 OA
BRANCH  10  13
ATOM     13  C   UNL A   1      32.914  26.420  22.665  1.00  0.00     0.041 A 
ATOM     14  C   UNL A   1      31.079  28.530  23.027  1.00  0.00     0.017 A 
ATOM     15  C   UNL A   1      30.637  27.230  22.749  1.00  0.00     0.014 A 
ATOM     16  C   UNL A   1      32.450  28.785  23.059  1.00  0.00     0.014 A 
ATOM     17  C   UNL A   1      31.552  26.187  22.554  1.00  0.00     0.027 A 
ATOM     18  C   UNL A   1      33.359  27.737  22.862  1.00  0.00     0.027 A 
BRANCH  14  19
ATOM     19  C   UNL A   1      30.057  29.570  23.345  1.00  0.00     0.159 C 
ATOM     20  C   UNL A   1      28.777  29.617  22.553  1.00  0.00     0.093 C 
ATOM     21  O   UNL A   1      30.288  30.385  24.237  1.00  0.00    -0.295 OA
ENDBRANCH  14  19
ENDBRANCH  10  13
ENDBRANCH   8   9
ENDBRANCH   7   8
BRANCH   7  22
ATOM     22  N   UNL A   1      32.123  22.191  24.549  1.00  0.00    -0.329 N 
ATOM     23  C   UNL A   1      31.758  22.203  23.130  1.00  0.00     0.333 C 
ATOM     24  C   UNL A   1      33.169  21.200  24.752  1.00  0.00     0.333 C 
ATOM     25  H   UNL A   1      31.342  21.891  25.133  1.00  0.00     0.348 HD
ENDBRANCH   7  22
ENDBRANCH   4   7
ENDBRANCH   2   3
ENDBRANCH   1   2
BRANCH   1  26
ATOM     26  C   UNL A   1      32.406  28.694  26.714  1.00  0.00     0.023 C 
BRANCH  26  27
ATOM     27  C   UNL A   1      33.656  29.538  26.581  1.00  0.00     0.116 C 
BRANCH  27  28
ATOM     28  N   UNL A   1      33.431  30.919  26.983  1.00  0.00    -0.352 N 
ATOM     29  C   UNL A   1      34.123  31.693  27.881  1.00  0.00     0.251 C 
ATOM     30  H   UNL A   1      32.669  31.363  26.547  1.00  0.00     0.163 HD
ATOM     31  O   UNL A   1      33.653  32.771  28.234  1.00  0.00    -0.269 OA
BRANCH  29  32
ATOM     32  C   UNL A   1      35.409  31.218  28.438  1.00  0.00     0.039 A 
ATOM     33  C   UNL A   1      36.564  31.965  28.198  1.00  0.00     0.014 A 
ATOM     34  C   UNL A   1      35.483  30.042  29.189  1.00  0.00     0.014 A 
ATOM     35  C   UNL A   1      37.776  31.556  28.754  1.00  0.00     0.010 A 
ATOM     36  C   UNL A   1      36.662  29.704  29.840  1.00  0.00     0.010 A 
ATOM     37  C   UNL A   1      37.829  30.440  29.608  1.00  0.00    -0.014 A 
BRANCH  37  38
ATOM     38  C   UNL A   1      39.105  30.023  30.239  1.00  0.00     0.031 A 
ATOM     39  C   UNL A   1      39.610  30.735  31.467  1.00  0.00     0.074 A 
ATOM     40  C   UNL A   1      39.813  29.013  29.692  1.00  0.00     0.049 A 
ATOM     41  N   UNL A   1      40.686  30.496  32.171  1.00  0.00    -0.248 NA
ATOM     42  C   UNL A   1      38.821  31.881  31.957  1.00  0.00     0.031 C 
ATOM     43  C   UNL A   1      39.453  28.292  28.467  1.00  0.00     0.029 A 
ATOM     44  N   UNL A   1      40.973  28.408  30.101  1.00  0.00    -0.354 N 
ATOM     45  C   UNL A   1      40.702  31.456  33.177  1.00  0.00     0.074 A 
ATOM     46  C   UNL A   1      39.571  32.326  32.953  1.00  0.00     0.031 C 
ATOM     47  C   UNL A   1      40.343  27.309  28.257  1.00  0.00     0.029 A 
ATOM     48  C   UNL A   1      41.357  27.355  29.304  1.00  0.00     0.049 A 
ATOM     49  H   UNL A   1      41.482  28.700  30.892  1.00  0.00     0.167 HD
ATOM     50  C   UNL A   1      41.560  31.582  34.215  1.00  0.00     0.031 A 
ATOM     51  C   UNL A   1      42.407  26.519  29.410  1.00  0.00     0.031 A 
ATOM     52  C   UNL A   1      42.676  30.703  34.442  1.00  0.00     0.049 A 
ATOM     53  C   UNL A   1      43.347  26.686  30.572  1.00  0.00     0.074 A 
ATOM     54  C   UNL A   1      43.583  30.715  35.485  1.00  0.00     0.029 A 
ATOM     55  N   UNL A   1      43.032  29.651  33.612  1.00  0.00    -0.354 N 
ATOM     56  N   UNL A   1      43.300  27.557  31.554  1.00  0.00    -0.248 NA
ATOM     57  C   UNL A   1      44.473  25.747  30.651  1.00  0.00     0.031 C 
ATOM     58  C   UNL A   1      44.518  29.700  35.260  1.00  0.00     0.029 A 
ATOM     59  C   UNL A   1      44.157  29.018  34.110  1.00  0.00     0.049 A 
ATOM     60  H   UNL A   1      42.555  29.393  32.790  1.00  0.00     0.167 HD
ATOM     61  C   UNL A   1      44.378  27.252  32.379  1.00  0.00     0.074 A 
ATOM     62  C   UNL A   1      45.033  26.098  31.799  1.00  0.00     0.031 C 
ATOM     63  C   UNL A   1      44.793  27.873  33.511  1.00  0.00     0.031 A 
BRANCH  50  64
ATOM     64  C   UNL A   1      41.313  32.695  35.202  1.00  0.00    -0.014 A 
ATOM     65  C   UNL A   1      40.466  32.502  36.308  1.00  0.00     0.010 A 
ATOM     66  C   UNL A   1      41.986  33.923  35.062  1.00  0.00     0.010 A 
ATOM     67  C   UNL A   1      40.280  33.522  37.245  1.00  0.00     0.020 A 
ATOM     68  C   UNL A   1      41.824  34.936  36.012  1.00  0.00     0.020 A 
ATOM     69  C   UNL A   1      40.965  34.730  37.094  1.00  0.00     0.054 A 
BRANCH  69  70
ATOM     70  S   UNL A   1      40.752  36.010  38.362  1.00  0.00     0.124 S 
ATOM     71  O   UNL A   1      40.436  35.214  39.545  1.00  0.00    -0.237 OA
ATOM     72  O   UNL A   1      42.058  36.664  38.377  1.00  0.00    -0.237 OA
ATOM     73  O   UNL A   1      39.654  36.827  37.851  1.00  0.00    -0.744 OA
ENDBRANCH  69  70
ENDBRANCH  50  64
BRANCH  51  74
ATOM     74  C   UNL A   1      42.623  25.444  28.400  1.00  0.00    -0.014 A 
ATOM     75  C   UNL A   1      42.088  24.158  28.594  1.00  0.00     0.010 A 
ATOM     76  C   UNL A   1      43.394  25.695  27.251  1.00  0.00     0.010 A 
ATOM     77  C   UNL A   1      42.359  23.132  27.682  1.00  0.00     0.020 A 
ATOM     78  C   UNL A   1      43.638  24.682  26.319  1.00  0.00     0.020 A 
ATOM     79  C   UNL A   1      43.136  23.400  26.553  1.00  0.00     0.054 A 
BRANCH  79  80
ATOM     80  S   UNL A   1      43.471  22.057  25.380  1.00  0.00     0.124 S 
ATOM     81  O   UNL A   1      44.800  21.618  25.794  1.00  0.00    -0.237 OA
ATOM     82  O   UNL A   1      42.382  21.123  25.649  1.00  0.00    -0.237 OA
ATOM     83  O   UNL A   1      43.407  22.718  24.077  1.00  0.00    -0.744 OA
ENDBRANCH  79  80
ENDBRANCH  51  74
BRANCH  63  84
ATOM     84  C   UNL A   1      45.995  27.291  34.206  1.00  0.00    -0.014 A 
ATOM     85  C   UNL A   1      47.296  27.732  33.904  1.00  0.00     0.010 A 
ATOM     86  C   UNL A   1      45.816  26.301  35.189  1.00  0.00     0.010 A 
ATOM     87  C   UNL A   1      48.401  27.151  34.530  1.00  0.00     0.020 A 
ATOM     88  C   UNL A   1      46.916  25.743  35.844  1.00  0.00     0.020 A 
ATOM     89  C   UNL A   1      48.203  26.155  35.493  1.00  0.00     0.054 A 
BRANCH  89  90
ATOM     90  S   UNL A   1      49.653  25.422  36.298  1.00  0.00     0.124 S 
ATOM     91  O   UNL A   1      49.182  24.073  36.596  1.00  0.00    -0.237 OA
ATOM     92  O   UNL A   1      50.677  25.516  35.260  1.00  0.00    -0.237 OA
ATOM     93  O   UNL A   1      49.872  26.278  37.462  1.00  0.00    -0.744 OA
ENDBRANCH  89  90
ENDBRANCH  63  84
ENDBRANCH  37  38
ENDBRANCH  29  32
ENDBRANCH  27  28
ENDBRANCH  26  27
ENDBRANCH   1  26
TORSDOF 19
ENDMDL
