MODEL 1
REMARK VINA RESULT:     -12.2      0.000      0.000
REMARK SMILES Nn1c(S[C@@H](C(=O)NCCCCNC(=O)c2ccc(-c3c4nc(c(-c5ccc(S(=O)(=O)[O-])cc5)c5ccc([nH]5)c(-c5ccc(S(=O)(=O)[O-])cc5)c5nc(c(-c6ccc(S(=O)(=O)[O-])cc6)c6ccc3[nH]6)C=C5)C=C4)cc2)c2ccccc2)nc2ccc(Br)cc2c1=O
REMARK SMILES IDX 10 1 9 2 8 3 6 4 7 5 5 7 4 8 3 9 2 10 90 11 82 12 89 13
REMARK SMILES IDX 91 14 83 15 88 16 84 17 86 18 85 19 87 20 1 21 76 24 77 25
REMARK SMILES IDX 81 26 78 27 80 28 79 29 11 30 12 31 13 32 14 33 15 35 16 36
REMARK SMILES IDX 17 37 75 38 18 39 74 40 19 41 20 42 21 43 68 44 22 45 73 46
REMARK SMILES IDX 67 47 69 48 23 49 72 50 66 51 65 52 24 54 54 55 35 56 53 57
REMARK SMILES IDX 36 58 39 59 52 60 70 61 37 62 38 63 51 65 71 66 40 67 25 68
REMARK SMILES IDX 26 69 34 70 27 71 33 72 28 73 29 74 30 75 31 76 32 77 55 78
REMARK SMILES IDX 56 79 64 80 57 81 63 82 58 83 59 84 60 85 61 86 62 87 41 88
REMARK SMILES IDX 42 89 50 90 43 91 49 92 44 93 45 94 46 95 47 96 48 97
REMARK H PARENT 8 6 1 22 1 23 13 34 69 53 39 64
REMARK Flexibility Score: inf
ROOT
ATOM      1  C   UNL A   1      34.525  22.842  24.355  1.00  0.00     0.023 C 
ENDROOT
BRANCH   1   2
ATOM      2  C   UNL A   1      33.163  23.536  24.448  1.00  0.00     0.116 C 
BRANCH   2   3
ATOM      3  N   UNL A   1      32.478  23.256  25.697  1.00  0.00    -0.355 N 
ATOM      4  C   UNL A   1      31.568  23.980  26.425  1.00  0.00     0.238 C 
ATOM      5  O   UNL A   1      31.173  23.402  27.443  1.00  0.00    -0.273 OA
ATOM      6  H   UNL A   1      32.709  22.385  26.095  1.00  0.00     0.163 HD
BRANCH   4   7
ATOM      7  C   UNL A   1      31.069  25.366  25.936  1.00  0.00     0.174 C 
BRANCH   7   8
ATOM      8  S   UNL A   1      30.465  25.279  24.225  1.00  0.00    -0.068 SA
BRANCH   8   9
ATOM      9  C   UNL A   1      29.541  26.671  23.726  1.00  0.00     0.191 A 
ATOM     10  N   UNL A   1      28.186  26.894  23.951  1.00  0.00    -0.202 N 
ATOM     11  C   UNL A   1      27.529  28.029  23.460  1.00  0.00     0.280 A 
ATOM     12  N   UNL A   1      30.281  27.531  23.092  1.00  0.00    -0.222 NA
ATOM     13  C   UNL A   1      28.361  29.001  22.742  1.00  0.00     0.069 A 
ATOM     14  O   UNL A   1      26.320  28.225  23.584  1.00  0.00    -0.267 OA
ATOM     15  C   UNL A   1      29.713  28.706  22.601  1.00  0.00     0.079 A 
ATOM     16  C   UNL A   1      27.808  30.171  22.213  1.00  0.00     0.031 A 
ATOM     17  C   UNL A   1      30.531  29.614  21.923  1.00  0.00     0.030 A 
ATOM     18  C   UNL A   1      28.635  31.058  21.531  1.00  0.00     0.018 A 
ATOM     19  C   UNL A   1      29.996  30.788  21.387  1.00  0.00     0.018 A 
ATOM     20  Br  UNL A   1      27.907  32.634  20.785  1.00  0.00    -0.051 Br
BRANCH  10  21
ATOM     21  N   UNL A   1      27.362  25.987  24.626  1.00  0.00    -0.334 N 
ATOM     22  H   UNL A   1      27.234  26.068  25.599  1.00  0.00     0.178 HD
ATOM     23  H   UNL A   1      26.908  25.269  24.128  1.00  0.00     0.178 HD
ENDBRANCH  10  21
ENDBRANCH   8   9
ENDBRANCH   7   8
BRANCH   7  24
ATOM     24  C   UNL A   1      31.852  26.654  26.252  1.00  0.00    -0.025 A 
ATOM     25  C   UNL A   1      31.297  27.767  26.902  1.00  0.00     0.005 A 
ATOM     26  C   UNL A   1      33.203  26.761  25.850  1.00  0.00     0.005 A 
ATOM     27  C   UNL A   1      32.076  28.883  27.233  1.00  0.00     0.000 A 
ATOM     28  C   UNL A   1      33.981  27.876  26.173  1.00  0.00     0.000 A 
ATOM     29  C   UNL A   1      33.421  28.931  26.881  1.00  0.00     0.000 A 
ENDBRANCH   7  24
ENDBRANCH   4   7
ENDBRANCH   2   3
ENDBRANCH   1   2
BRANCH   1  30
ATOM     30  C   UNL A   1      35.508  23.160  25.484  1.00  0.00     0.023 C 
BRANCH  30  31
ATOM     31  C   UNL A   1      36.887  23.637  25.049  1.00  0.00     0.116 C 
BRANCH  31  32
ATOM     32  N   UNL A   1      37.953  22.704  25.375  1.00  0.00    -0.352 N 
ATOM     33  C   UNL A   1      39.103  22.903  26.110  1.00  0.00     0.251 C 
ATOM     34  H   UNL A   1      37.838  21.794  25.017  1.00  0.00     0.163 HD
ATOM     35  O   UNL A   1      39.930  22.008  26.194  1.00  0.00    -0.269 OA
BRANCH  33  36
ATOM     36  C   UNL A   1      39.353  24.214  26.757  1.00  0.00     0.039 A 
ATOM     37  C   UNL A   1      40.028  25.234  26.087  1.00  0.00     0.014 A 
ATOM     38  C   UNL A   1      38.912  24.417  28.069  1.00  0.00     0.014 A 
ATOM     39  C   UNL A   1      40.421  26.374  26.782  1.00  0.00     0.010 A 
ATOM     40  C   UNL A   1      39.227  25.606  28.736  1.00  0.00     0.010 A 
ATOM     41  C   UNL A   1      40.030  26.574  28.118  1.00  0.00    -0.014 A 
BRANCH  41  42
ATOM     42  C   UNL A   1      40.475  27.807  28.823  1.00  0.00     0.031 A 
ATOM     43  C   UNL A   1      41.914  28.000  29.222  1.00  0.00     0.074 A 
ATOM     44  C   UNL A   1      39.583  28.799  29.026  1.00  0.00     0.049 A 
ATOM     45  N   UNL A   1      42.487  29.064  29.731  1.00  0.00    -0.248 NA
ATOM     46  C   UNL A   1      42.831  26.865  29.032  1.00  0.00     0.031 C 
ATOM     47  C   UNL A   1      38.162  28.729  28.682  1.00  0.00     0.029 A 
ATOM     48  N   UNL A   1      39.744  30.069  29.521  1.00  0.00    -0.354 N 
ATOM     49  C   UNL A   1      43.821  28.726  29.923  1.00  0.00     0.074 A 
ATOM     50  C   UNL A   1      43.968  27.346  29.518  1.00  0.00     0.031 C 
ATOM     51  C   UNL A   1      37.601  29.927  28.894  1.00  0.00     0.029 A 
ATOM     52  C   UNL A   1      38.602  30.832  29.450  1.00  0.00     0.049 A 
ATOM     53  H   UNL A   1      40.594  30.401  29.891  1.00  0.00     0.167 HD
ATOM     54  C   UNL A   1      44.836  29.501  30.376  1.00  0.00     0.031 A 
ATOM     55  C   UNL A   1      38.377  32.120  29.782  1.00  0.00     0.031 A 
ATOM     56  C   UNL A   1      44.687  30.879  30.771  1.00  0.00     0.049 A 
ATOM     57  C   UNL A   1      39.509  32.947  30.318  1.00  0.00     0.074 A 
ATOM     58  C   UNL A   1      45.666  31.750  31.220  1.00  0.00     0.029 A 
ATOM     59  N   UNL A   1      43.495  31.587  30.766  1.00  0.00    -0.354 N 
ATOM     60  N   UNL A   1      40.768  32.614  30.470  1.00  0.00    -0.248 NA
ATOM     61  C   UNL A   1      39.192  34.321  30.729  1.00  0.00     0.031 C 
ATOM     62  C   UNL A   1      45.054  32.963  31.547  1.00  0.00     0.029 A 
ATOM     63  C   UNL A   1      43.707  32.873  31.236  1.00  0.00     0.049 A 
ATOM     64  H   UNL A   1      42.626  31.228  30.472  1.00  0.00     0.167 HD
ATOM     65  C   UNL A   1      41.394  33.735  30.999  1.00  0.00     0.074 A 
ATOM     66  C   UNL A   1      40.384  34.768  31.108  1.00  0.00     0.031 C 
ATOM     67  C   UNL A   1      42.690  33.888  31.368  1.00  0.00     0.031 A 
BRANCH  54  68
ATOM     68  C   UNL A   1      46.213  28.892  30.470  1.00  0.00    -0.014 A 
ATOM     69  C   UNL A   1      47.083  28.952  29.367  1.00  0.00     0.010 A 
ATOM     70  C   UNL A   1      46.602  28.162  31.608  1.00  0.00     0.010 A 
ATOM     71  C   UNL A   1      48.307  28.275  29.387  1.00  0.00     0.020 A 
ATOM     72  C   UNL A   1      47.837  27.506  31.644  1.00  0.00     0.020 A 
ATOM     73  C   UNL A   1      48.672  27.550  30.524  1.00  0.00     0.054 A 
BRANCH  73  74
ATOM     74  S   UNL A   1      50.257  26.666  30.529  1.00  0.00     0.124 S 
ATOM     75  O   UNL A   1      50.990  27.339  29.462  1.00  0.00    -0.237 OA
ATOM     76  O   UNL A   1      50.751  26.903  31.883  1.00  0.00    -0.237 OA
ATOM     77  O   UNL A   1      49.876  25.282  30.251  1.00  0.00    -0.744 OA
ENDBRANCH  73  74
ENDBRANCH  54  68
BRANCH  55  78
ATOM     78  C   UNL A   1      37.018  32.689  29.574  1.00  0.00    -0.014 A 
ATOM     79  C   UNL A   1      36.616  33.124  28.297  1.00  0.00     0.010 A 
ATOM     80  C   UNL A   1      36.161  32.900  30.668  1.00  0.00     0.010 A 
ATOM     81  C   UNL A   1      35.419  33.824  28.129  1.00  0.00     0.020 A 
ATOM     82  C   UNL A   1      34.946  33.572  30.500  1.00  0.00     0.020 A 
ATOM     83  C   UNL A   1      34.601  34.060  29.237  1.00  0.00     0.054 A 
BRANCH  83  84
ATOM     84  S   UNL A   1      33.090  35.040  29.011  1.00  0.00     0.124 S 
ATOM     85  O   UNL A   1      32.507  35.001  30.349  1.00  0.00    -0.237 OA
ATOM     86  O   UNL A   1      33.610  36.337  28.588  1.00  0.00    -0.237 OA
ATOM     87  O   UNL A   1      32.356  34.302  27.986  1.00  0.00    -0.744 OA
ENDBRANCH  83  84
ENDBRANCH  55  78
BRANCH  67  88
ATOM     88  C   UNL A   1      43.101  35.210  31.963  1.00  0.00    -0.014 A 
ATOM     89  C   UNL A   1      42.828  35.489  33.315  1.00  0.00     0.010 A 
ATOM     90  C   UNL A   1      43.659  36.216  31.155  1.00  0.00     0.010 A 
ATOM     91  C   UNL A   1      43.080  36.759  33.841  1.00  0.00     0.020 A 
ATOM     92  C   UNL A   1      43.940  37.479  31.686  1.00  0.00     0.020 A 
ATOM     93  C   UNL A   1      43.626  37.749  33.020  1.00  0.00     0.054 A 
BRANCH  93  94
ATOM     94  S   UNL A   1      43.934  39.395  33.716  1.00  0.00     0.124 S 
ATOM     95  O   UNL A   1      44.975  39.913  32.832  1.00  0.00    -0.237 OA
ATOM     96  O   UNL A   1      42.630  40.043  33.601  1.00  0.00    -0.237 OA
ATOM     97  O   UNL A   1      44.361  39.113  35.085  1.00  0.00    -0.744 OA
ENDBRANCH  93  94
ENDBRANCH  67  88
ENDBRANCH  41  42
ENDBRANCH  33  36
ENDBRANCH  31  32
ENDBRANCH  30  31
ENDBRANCH   1  30
TORSDOF 18
ENDMDL
MODEL 2
REMARK VINA RESULT:     -12.1      3.608      5.548
REMARK SMILES Nn1c(S[C@@H](C(=O)NCCCCNC(=O)c2ccc(-c3c4nc(c(-c5ccc(S(=O)(=O)[O-])cc5)c5ccc([nH]5)c(-c5ccc(S(=O)(=O)[O-])cc5)c5nc(c(-c6ccc(S(=O)(=O)[O-])cc6)c6ccc3[nH]6)C=C5)C=C4)cc2)c2ccccc2)nc2ccc(Br)cc2c1=O
REMARK SMILES IDX 10 1 9 2 8 3 6 4 7 5 5 7 4 8 3 9 2 10 90 11 82 12 89 13
REMARK SMILES IDX 91 14 83 15 88 16 84 17 86 18 85 19 87 20 1 21 76 24 77 25
REMARK SMILES IDX 81 26 78 27 80 28 79 29 11 30 12 31 13 32 14 33 15 35 16 36
REMARK SMILES IDX 17 37 75 38 18 39 74 40 19 41 20 42 21 43 68 44 22 45 73 46
REMARK SMILES IDX 67 47 69 48 23 49 72 50 66 51 65 52 24 54 54 55 35 56 53 57
REMARK SMILES IDX 36 58 39 59 52 60 70 61 37 62 38 63 51 65 71 66 40 67 25 68
REMARK SMILES IDX 26 69 34 70 27 71 33 72 28 73 29 74 30 75 31 76 32 77 55 78
REMARK SMILES IDX 56 79 64 80 57 81 63 82 58 83 59 84 60 85 61 86 62 87 41 88
REMARK SMILES IDX 42 89 50 90 43 91 49 92 44 93 45 94 46 95 47 96 48 97
REMARK H PARENT 8 6 1 22 1 23 13 34 69 53 39 64
REMARK Flexibility Score: inf
ROOT
ATOM      1  C   UNL A   1      37.115  21.972  24.240  1.00  0.00     0.023 C 
ENDROOT
BRANCH   1   2
ATOM      2  C   UNL A   1      36.118  22.934  24.891  1.00  0.00     0.116 C 
BRANCH   2   3
ATOM      3  N   UNL A   1      35.406  22.332  26.004  1.00  0.00    -0.355 N 
ATOM      4  C   UNL A   1      34.272  21.561  26.057  1.00  0.00     0.238 C 
ATOM      5  O   UNL A   1      33.970  21.198  27.198  1.00  0.00    -0.273 OA
ATOM      6  H   UNL A   1      35.812  22.510  26.883  1.00  0.00     0.163 HD
BRANCH   4   7
ATOM      7  C   UNL A   1      33.513  21.160  24.763  1.00  0.00     0.174 C 
BRANCH   7   8
ATOM      8  S   UNL A   1      31.860  21.912  24.714  1.00  0.00    -0.068 SA
BRANCH   8   9
ATOM      9  C   UNL A   1      31.793  23.423  23.846  1.00  0.00     0.191 A 
ATOM     10  N   UNL A   1      32.637  23.829  22.817  1.00  0.00    -0.202 N 
ATOM     11  C   UNL A   1      32.525  25.091  22.220  1.00  0.00     0.280 A 
ATOM     12  N   UNL A   1      30.822  24.174  24.273  1.00  0.00    -0.222 NA
ATOM     13  C   UNL A   1      31.432  25.942  22.701  1.00  0.00     0.069 A 
ATOM     14  O   UNL A   1      33.295  25.506  21.355  1.00  0.00    -0.267 OA
ATOM     15  C   UNL A   1      30.619  25.432  23.708  1.00  0.00     0.079 A 
ATOM     16  C   UNL A   1      31.228  27.220  22.173  1.00  0.00     0.031 A 
ATOM     17  C   UNL A   1      29.568  26.220  24.185  1.00  0.00     0.030 A 
ATOM     18  C   UNL A   1      30.184  27.995  22.668  1.00  0.00     0.018 A 
ATOM     19  C   UNL A   1      29.349  27.500  23.669  1.00  0.00     0.018 A 
ATOM     20  Br  UNL A   1      29.903  29.735  21.987  1.00  0.00    -0.051 Br
BRANCH  10  21
ATOM     21  N   UNL A   1      33.692  23.046  22.337  1.00  0.00    -0.334 N 
ATOM     22  H   UNL A   1      33.644  22.064  22.399  1.00  0.00     0.178 HD
ATOM     23  H   UNL A   1      34.482  23.476  21.937  1.00  0.00     0.178 HD
ENDBRANCH  10  21
ENDBRANCH   8   9
ENDBRANCH   7   8
BRANCH   7  24
ATOM     24  C   UNL A   1      33.553  19.716  24.228  1.00  0.00    -0.025 A 
ATOM     25  C   UNL A   1      34.542  18.782  24.573  1.00  0.00     0.005 A 
ATOM     26  C   UNL A   1      32.564  19.287  23.314  1.00  0.00     0.005 A 
ATOM     27  C   UNL A   1      34.486  17.458  24.117  1.00  0.00     0.000 A 
ATOM     28  C   UNL A   1      32.511  17.970  22.851  1.00  0.00     0.000 A 
ATOM     29  C   UNL A   1      33.463  17.049  23.268  1.00  0.00     0.000 A 
ENDBRANCH   7  24
ENDBRANCH   4   7
ENDBRANCH   2   3
ENDBRANCH   1   2
BRANCH   1  30
ATOM     30  C   UNL A   1      37.602  20.824  25.128  1.00  0.00     0.023 C 
BRANCH  30  31
ATOM     31  C   UNL A   1      38.917  21.060  25.857  1.00  0.00     0.116 C 
BRANCH  31  32
ATOM     32  N   UNL A   1      39.789  19.897  25.872  1.00  0.00    -0.352 N 
ATOM     33  C   UNL A   1      41.146  19.817  26.108  1.00  0.00     0.251 C 
ATOM     34  H   UNL A   1      39.345  19.038  25.687  1.00  0.00     0.163 HD
ATOM     35  O   UNL A   1      41.719  18.745  25.983  1.00  0.00    -0.269 OA
BRANCH  33  36
ATOM     36  C   UNL A   1      41.910  21.037  26.465  1.00  0.00     0.039 A 
ATOM     37  C   UNL A   1      42.319  21.275  27.777  1.00  0.00     0.014 A 
ATOM     38  C   UNL A   1      42.208  21.967  25.464  1.00  0.00     0.014 A 
ATOM     39  C   UNL A   1      42.856  22.513  28.118  1.00  0.00     0.010 A 
ATOM     40  C   UNL A   1      42.835  23.174  25.795  1.00  0.00     0.010 A 
ATOM     41  C   UNL A   1      43.117  23.481  27.133  1.00  0.00    -0.014 A 
BRANCH  41  42
ATOM     42  C   UNL A   1      43.691  24.792  27.543  1.00  0.00     0.031 A 
ATOM     43  C   UNL A   1      45.146  25.109  27.322  1.00  0.00     0.074 A 
ATOM     44  C   UNL A   1      42.867  25.737  28.042  1.00  0.00     0.049 A 
ATOM     45  N   UNL A   1      45.774  26.244  27.508  1.00  0.00    -0.248 NA
ATOM     46  C   UNL A   1      46.011  24.024  26.832  1.00  0.00     0.031 C 
ATOM     47  C   UNL A   1      41.438  25.548  28.301  1.00  0.00     0.029 A 
ATOM     48  N   UNL A   1      43.095  27.050  28.372  1.00  0.00    -0.354 N 
ATOM     49  C   UNL A   1      47.100  26.010  27.163  1.00  0.00     0.074 A 
ATOM     50  C   UNL A   1      47.200  24.615  26.798  1.00  0.00     0.031 C 
ATOM     51  C   UNL A   1      40.901  26.720  28.664  1.00  0.00     0.029 A 
ATOM     52  C   UNL A   1      41.954  27.730  28.730  1.00  0.00     0.049 A 
ATOM     53  H   UNL A   1      43.987  27.464  28.353  1.00  0.00     0.167 HD
ATOM     54  C   UNL A   1      48.137  26.883  27.135  1.00  0.00     0.031 A 
ATOM     55  C   UNL A   1      41.763  29.022  29.065  1.00  0.00     0.031 A 
ATOM     56  C   UNL A   1      48.032  28.275  27.493  1.00  0.00     0.049 A 
ATOM     57  C   UNL A   1      42.934  29.960  29.063  1.00  0.00     0.074 A 
ATOM     58  C   UNL A   1      49.025  29.240  27.470  1.00  0.00     0.029 A 
ATOM     59  N   UNL A   1      46.877  28.901  27.935  1.00  0.00    -0.354 N 
ATOM     60  N   UNL A   1      44.175  29.722  28.712  1.00  0.00    -0.248 NA
ATOM     61  C   UNL A   1      42.683  31.339  29.502  1.00  0.00     0.031 C 
ATOM     62  C   UNL A   1      48.486  30.432  27.960  1.00  0.00     0.029 A 
ATOM     63  C   UNL A   1      47.140  30.231  28.220  1.00  0.00     0.049 A 
ATOM     64  H   UNL A   1      45.999  28.465  28.031  1.00  0.00     0.167 HD
ATOM     65  C   UNL A   1      44.855  30.920  28.892  1.00  0.00     0.074 A 
ATOM     66  C   UNL A   1      43.881  31.890  29.350  1.00  0.00     0.031 C 
ATOM     67  C   UNL A   1      46.171  31.185  28.703  1.00  0.00     0.031 A 
BRANCH  54  68
ATOM     68  C   UNL A   1      49.487  26.373  26.697  1.00  0.00    -0.014 A 
ATOM     69  C   UNL A   1      50.391  25.871  27.651  1.00  0.00     0.010 A 
ATOM     70  C   UNL A   1      49.904  26.494  25.359  1.00  0.00     0.010 A 
ATOM     71  C   UNL A   1      51.695  25.524  27.283  1.00  0.00     0.020 A 
ATOM     72  C   UNL A   1      51.199  26.121  24.981  1.00  0.00     0.020 A 
ATOM     73  C   UNL A   1      52.092  25.658  25.951  1.00  0.00     0.054 A 
BRANCH  73  74
ATOM     74  S   UNL A   1      53.791  25.216  25.492  1.00  0.00     0.124 S 
ATOM     75  O   UNL A   1      53.592  24.010  24.696  1.00  0.00    -0.237 OA
ATOM     76  O   UNL A   1      54.241  26.394  24.755  1.00  0.00    -0.237 OA
ATOM     77  O   UNL A   1      54.450  25.013  26.782  1.00  0.00    -0.744 OA
ENDBRANCH  73  74
ENDBRANCH  54  68
BRANCH  55  78
ATOM     78  C   UNL A   1      40.387  29.484  29.394  1.00  0.00    -0.014 A 
ATOM     79  C   UNL A   1      39.456  29.737  28.368  1.00  0.00     0.010 A 
ATOM     80  C   UNL A   1      40.035  29.777  30.723  1.00  0.00     0.010 A 
ATOM     81  C   UNL A   1      38.230  30.342  28.655  1.00  0.00     0.020 A 
ATOM     82  C   UNL A   1      38.796  30.354  31.019  1.00  0.00     0.020 A 
ATOM     83  C   UNL A   1      37.917  30.664  29.978  1.00  0.00     0.054 A 
BRANCH  83  84
ATOM     84  S   UNL A   1      36.355  31.522  30.318  1.00  0.00     0.124 S 
ATOM     85  O   UNL A   1      36.812  32.886  30.569  1.00  0.00    -0.237 OA
ATOM     86  O   UNL A   1      35.606  31.327  29.079  1.00  0.00    -0.237 OA
ATOM     87  O   UNL A   1      35.824  30.816  31.481  1.00  0.00    -0.744 OA
ENDBRANCH  83  84
ENDBRANCH  55  78
BRANCH  67  88
ATOM     88  C   UNL A   1      46.662  32.574  29.022  1.00  0.00    -0.014 A 
ATOM     89  C   UNL A   1      47.095  32.886  30.323  1.00  0.00     0.010 A 
ATOM     90  C   UNL A   1      46.593  33.596  28.059  1.00  0.00     0.010 A 
ATOM     91  C   UNL A   1      47.422  34.201  30.664  1.00  0.00     0.020 A 
ATOM     92  C   UNL A   1      46.948  34.908  28.389  1.00  0.00     0.020 A 
ATOM     93  C   UNL A   1      47.338  35.205  29.697  1.00  0.00     0.054 A 
BRANCH  93  94
ATOM     94  S   UNL A   1      47.753  36.909  30.160  1.00  0.00     0.124 S 
ATOM     95  O   UNL A   1      46.545  37.635  29.777  1.00  0.00    -0.237 OA
ATOM     96  O   UNL A   1      47.995  36.802  31.598  1.00  0.00    -0.237 OA
ATOM     97  O   UNL A   1      48.939  37.202  29.358  1.00  0.00    -0.744 OA
ENDBRANCH  93  94
ENDBRANCH  67  88
ENDBRANCH  41  42
ENDBRANCH  33  36
ENDBRANCH  31  32
ENDBRANCH  30  31
ENDBRANCH   1  30
TORSDOF 18
ENDMDL
MODEL 3
REMARK VINA RESULT:     -11.9      4.132      5.637
REMARK SMILES Nn1c(S[C@@H](C(=O)NCCCCNC(=O)c2ccc(-c3c4nc(c(-c5ccc(S(=O)(=O)[O-])cc5)c5ccc([nH]5)c(-c5ccc(S(=O)(=O)[O-])cc5)c5nc(c(-c6ccc(S(=O)(=O)[O-])cc6)c6ccc3[nH]6)C=C5)C=C4)cc2)c2ccccc2)nc2ccc(Br)cc2c1=O
REMARK SMILES IDX 10 1 9 2 8 3 6 4 7 5 5 7 4 8 3 9 2 10 90 11 82 12 89 13
REMARK SMILES IDX 91 14 83 15 88 16 84 17 86 18 85 19 87 20 1 21 76 24 77 25
REMARK SMILES IDX 81 26 78 27 80 28 79 29 11 30 12 31 13 32 14 33 15 35 16 36
REMARK SMILES IDX 17 37 75 38 18 39 74 40 19 41 20 42 21 43 68 44 22 45 73 46
REMARK SMILES IDX 67 47 69 48 23 49 72 50 66 51 65 52 24 54 54 55 35 56 53 57
REMARK SMILES IDX 36 58 39 59 52 60 70 61 37 62 38 63 51 65 71 66 40 67 25 68
REMARK SMILES IDX 26 69 34 70 27 71 33 72 28 73 29 74 30 75 31 76 32 77 55 78
REMARK SMILES IDX 56 79 64 80 57 81 63 82 58 83 59 84 60 85 61 86 62 87 41 88
REMARK SMILES IDX 42 89 50 90 43 91 49 92 44 93 45 94 46 95 47 96 48 97
REMARK H PARENT 8 6 1 22 1 23 13 34 69 53 39 64
REMARK Flexibility Score: inf
ROOT
ATOM      1  C   UNL A   1      37.649  22.873  25.966  1.00  0.00     0.023 C 
ENDROOT
BRANCH   1   2
ATOM      2  C   UNL A   1      36.704  21.733  25.578  1.00  0.00     0.116 C 
BRANCH   2   3
ATOM      3  N   UNL A   1      35.537  21.656  26.439  1.00  0.00    -0.355 N 
ATOM      4  C   UNL A   1      34.298  21.100  26.253  1.00  0.00     0.238 C 
ATOM      5  O   UNL A   1      33.553  21.205  27.233  1.00  0.00    -0.273 OA
ATOM      6  H   UNL A   1      35.659  22.082  27.318  1.00  0.00     0.163 HD
BRANCH   4   7
ATOM      7  C   UNL A   1      33.937  20.363  24.935  1.00  0.00     0.174 C 
BRANCH   7   8
ATOM      8  S   UNL A   1      32.688  21.283  23.990  1.00  0.00    -0.068 SA
BRANCH   8   9
ATOM      9  C   UNL A   1      32.323  22.859  24.642  1.00  0.00     0.191 A 
ATOM     10  N   UNL A   1      31.380  23.156  25.621  1.00  0.00    -0.202 N 
ATOM     11  C   UNL A   1      31.131  24.470  26.037  1.00  0.00     0.280 A 
ATOM     12  N   UNL A   1      33.061  23.780  24.098  1.00  0.00    -0.222 NA
ATOM     13  C   UNL A   1      31.961  25.513  25.424  1.00  0.00     0.069 A 
ATOM     14  O   UNL A   1      30.260  24.774  26.851  1.00  0.00    -0.267 OA
ATOM     15  C   UNL A   1      32.903  25.112  24.482  1.00  0.00     0.079 A 
ATOM     16  C   UNL A   1      31.798  26.858  25.769  1.00  0.00     0.031 A 
ATOM     17  C   UNL A   1      33.708  26.084  23.883  1.00  0.00     0.030 A 
ATOM     18  C   UNL A   1      32.602  27.813  25.154  1.00  0.00     0.018 A 
ATOM     19  C   UNL A   1      33.560  27.432  24.215  1.00  0.00     0.018 A 
ATOM     20  Br  UNL A   1      32.384  29.640  25.585  1.00  0.00    -0.051 Br
BRANCH  10  21
ATOM     21  N   UNL A   1      30.568  22.189  26.221  1.00  0.00    -0.334 N 
ATOM     22  H   UNL A   1      30.890  21.262  26.311  1.00  0.00     0.178 HD
ATOM     23  H   UNL A   1      29.675  22.434  26.557  1.00  0.00     0.178 HD
ENDBRANCH  10  21
ENDBRANCH   8   9
ENDBRANCH   7   8
BRANCH   7  24
ATOM     24  C   UNL A   1      33.738  18.836  24.902  1.00  0.00    -0.025 A 
ATOM     25  C   UNL A   1      32.660  18.174  25.509  1.00  0.00     0.005 A 
ATOM     26  C   UNL A   1      34.696  18.026  24.251  1.00  0.00     0.005 A 
ATOM     27  C   UNL A   1      32.488  16.790  25.381  1.00  0.00     0.000 A 
ATOM     28  C   UNL A   1      34.531  16.644  24.129  1.00  0.00     0.000 A 
ATOM     29  C   UNL A   1      33.415  16.027  24.679  1.00  0.00     0.000 A 
ENDBRANCH   7  24
ENDBRANCH   4   7
ENDBRANCH   2   3
ENDBRANCH   1   2
BRANCH   1  30
ATOM     30  C   UNL A   1      39.086  22.460  26.292  1.00  0.00     0.023 C 
BRANCH  30  31
ATOM     31  C   UNL A   1      39.959  23.534  26.927  1.00  0.00     0.116 C 
BRANCH  31  32
ATOM     32  N   UNL A   1      40.829  24.209  25.979  1.00  0.00    -0.352 N 
ATOM     33  C   UNL A   1      41.307  25.503  25.989  1.00  0.00     0.251 C 
ATOM     34  H   UNL A   1      41.122  23.662  25.215  1.00  0.00     0.163 HD
ATOM     35  O   UNL A   1      41.959  25.915  25.042  1.00  0.00    -0.269 OA
BRANCH  33  36
ATOM     36  C   UNL A   1      40.989  26.402  27.126  1.00  0.00     0.039 A 
ATOM     37  C   UNL A   1      41.672  27.604  27.310  1.00  0.00     0.014 A 
ATOM     38  C   UNL A   1      39.995  26.020  28.033  1.00  0.00     0.014 A 
ATOM     39  C   UNL A   1      41.494  28.326  28.486  1.00  0.00     0.010 A 
ATOM     40  C   UNL A   1      39.751  26.800  29.171  1.00  0.00     0.010 A 
ATOM     41  C   UNL A   1      40.534  27.931  29.435  1.00  0.00    -0.014 A 
BRANCH  41  42
ATOM     42  C   UNL A   1      40.378  28.732  30.680  1.00  0.00     0.031 A 
ATOM     43  C   UNL A   1      41.324  28.561  31.840  1.00  0.00     0.074 A 
ATOM     44  C   UNL A   1      39.424  29.684  30.727  1.00  0.00     0.049 A 
ATOM     45  N   UNL A   1      41.401  29.263  32.943  1.00  0.00    -0.248 NA
ATOM     46  C   UNL A   1      42.307  27.468  31.760  1.00  0.00     0.031 C 
ATOM     47  C   UNL A   1      38.450  29.945  29.666  1.00  0.00     0.029 A 
ATOM     48  N   UNL A   1      39.147  30.637  31.676  1.00  0.00    -0.354 N 
ATOM     49  C   UNL A   1      42.432  28.699  33.686  1.00  0.00     0.074 A 
ATOM     50  C   UNL A   1      42.924  27.569  32.931  1.00  0.00     0.031 C 
ATOM     51  C   UNL A   1      37.742  31.038  29.981  1.00  0.00     0.029 A 
ATOM     52  C   UNL A   1      38.163  31.519  31.294  1.00  0.00     0.049 A 
ATOM     53  H   UNL A   1      39.608  30.685  32.544  1.00  0.00     0.167 HD
ATOM     54  C   UNL A   1      42.935  29.098  34.879  1.00  0.00     0.031 A 
ATOM     55  C   UNL A   1      37.656  32.602  31.916  1.00  0.00     0.031 A 
ATOM     56  C   UNL A   1      42.446  30.230  35.626  1.00  0.00     0.049 A 
ATOM     57  C   UNL A   1      38.204  33.002  33.255  1.00  0.00     0.074 A 
ATOM     58  C   UNL A   1      42.912  30.724  36.833  1.00  0.00     0.029 A 
ATOM     59  N   UNL A   1      41.390  31.043  35.243  1.00  0.00    -0.354 N 
ATOM     60  N   UNL A   1      39.194  32.467  33.928  1.00  0.00    -0.248 NA
ATOM     61  C   UNL A   1      37.569  34.148  33.919  1.00  0.00     0.031 C 
ATOM     62  C   UNL A   1      42.097  31.793  37.211  1.00  0.00     0.029 A 
ATOM     63  C   UNL A   1      41.167  32.013  36.207  1.00  0.00     0.049 A 
ATOM     64  H   UNL A   1      40.874  30.945  34.410  1.00  0.00     0.167 HD
ATOM     65  C   UNL A   1      39.299  33.208  35.099  1.00  0.00     0.074 A 
ATOM     66  C   UNL A   1      38.294  34.249  35.027  1.00  0.00     0.031 C 
ATOM     67  C   UNL A   1      40.147  33.030  36.142  1.00  0.00     0.031 A 
BRANCH  54  68
ATOM     68  C   UNL A   1      44.084  28.317  35.467  1.00  0.00    -0.014 A 
ATOM     69  C   UNL A   1      43.831  27.295  36.401  1.00  0.00     0.010 A 
ATOM     70  C   UNL A   1      45.416  28.667  35.181  1.00  0.00     0.010 A 
ATOM     71  C   UNL A   1      44.887  26.655  37.058  1.00  0.00     0.020 A 
ATOM     72  C   UNL A   1      46.476  28.010  35.815  1.00  0.00     0.020 A 
ATOM     73  C   UNL A   1      46.203  27.022  36.766  1.00  0.00     0.054 A 
BRANCH  73  74
ATOM     74  S   UNL A   1      47.560  26.191  37.637  1.00  0.00     0.124 S 
ATOM     75  O   UNL A   1      48.327  25.616  36.537  1.00  0.00    -0.237 OA
ATOM     76  O   UNL A   1      48.205  27.292  38.349  1.00  0.00    -0.237 OA
ATOM     77  O   UNL A   1      46.874  25.226  38.494  1.00  0.00    -0.744 OA
ENDBRANCH  73  74
ENDBRANCH  54  68
BRANCH  55  78
ATOM     78  C   UNL A   1      36.589  33.388  31.238  1.00  0.00    -0.014 A 
ATOM     79  C   UNL A   1      35.239  33.213  31.597  1.00  0.00     0.010 A 
ATOM     80  C   UNL A   1      36.905  34.232  30.159  1.00  0.00     0.010 A 
ATOM     81  C   UNL A   1      34.222  33.807  30.846  1.00  0.00     0.020 A 
ATOM     82  C   UNL A   1      35.891  34.854  29.424  1.00  0.00     0.020 A 
ATOM     83  C   UNL A   1      34.556  34.608  29.751  1.00  0.00     0.054 A 
BRANCH  83  84
ATOM     84  S   UNL A   1      33.218  35.304  28.742  1.00  0.00     0.124 S 
ATOM     85  O   UNL A   1      33.961  36.126  27.790  1.00  0.00    -0.237 OA
ATOM     86  O   UNL A   1      32.584  34.113  28.185  1.00  0.00    -0.237 OA
ATOM     87  O   UNL A   1      32.410  36.043  29.708  1.00  0.00    -0.744 OA
ENDBRANCH  83  84
ENDBRANCH  55  78
BRANCH  67  88
ATOM     88  C   UNL A   1      40.014  33.959  37.321  1.00  0.00    -0.014 A 
ATOM     89  C   UNL A   1      39.057  33.699  38.319  1.00  0.00     0.010 A 
ATOM     90  C   UNL A   1      40.765  35.147  37.385  1.00  0.00     0.010 A 
ATOM     91  C   UNL A   1      38.832  34.623  39.343  1.00  0.00     0.020 A 
ATOM     92  C   UNL A   1      40.563  36.059  38.425  1.00  0.00     0.020 A 
ATOM     93  C   UNL A   1      39.581  35.801  39.385  1.00  0.00     0.054 A 
BRANCH  93  94
ATOM     94  S   UNL A   1      39.266  36.995  40.713  1.00  0.00     0.124 S 
ATOM     95  O   UNL A   1      40.596  37.555  40.945  1.00  0.00    -0.237 OA
ATOM     96  O   UNL A   1      38.297  37.905  40.107  1.00  0.00    -0.237 OA
ATOM     97  O   UNL A   1      38.739  36.169  41.798  1.00  0.00    -0.744 OA
ENDBRANCH  93  94
ENDBRANCH  67  88
ENDBRANCH  41  42
ENDBRANCH  33  36
ENDBRANCH  31  32
ENDBRANCH  30  31
ENDBRANCH   1  30
TORSDOF 18
ENDMDL
