MODEL 1
REMARK VINA RESULT:     -11.4      0.000      0.000
REMARK SMILES O=C(NCCCCNC(=O)c1ccc(S(=O)(=O)NCc2ccn[nH]2)c(F)c1)c1ccc(-c2c3nc(c(-c4ccc(S(=O)(=O)[O-])cc4)c4ccc([nH]4)c(-c4ccc(S(=O)(=O)[O-])cc4)c4nc(c(-c5ccc(S(=O)(=O)[O-])cc5)c5ccc2[nH]5)C=C4)C=C3)cc1
REMARK SMILES IDX 6 1 5 2 4 3 3 4 1 5 2 6 28 8 29 9 87 10 30 11 86 12 31 13
REMARK SMILES IDX 32 14 33 15 80 16 34 17 85 18 79 19 81 20 35 21 84 22 78 23
REMARK SMILES IDX 77 24 36 26 66 27 47 28 65 29 48 30 51 31 64 32 82 33 49 34
REMARK SMILES IDX 50 35 63 37 83 38 52 39 37 40 38 41 46 42 39 43 45 44 40 45
REMARK SMILES IDX 41 46 42 47 43 48 44 49 67 50 68 51 76 52 69 53 75 54 70 55
REMARK SMILES IDX 71 56 72 57 73 58 74 59 53 60 54 61 62 62 55 63 61 64 56 65
REMARK SMILES IDX 57 66 58 67 59 68 60 69 7 70 8 71 9 72 10 74 11 75 12 76
REMARK SMILES IDX 27 77 13 78 25 79 14 80 26 81 15 82 16 83 17 84 18 85 19 87
REMARK SMILES IDX 20 88 21 89 24 90 22 91 23 92
REMARK H PARENT 3 7 81 25 51 36 8 73 18 86 24 93
REMARK Flexibility Score: inf
ROOT
ATOM      1  C   UNL A   1      37.854  23.516  25.918  1.00  0.00     0.023 C 
ENDROOT
BRANCH   1   2
ATOM      2  C   UNL A   1      38.986  22.684  26.517  1.00  0.00     0.023 C 
BRANCH   2   3
ATOM      3  C   UNL A   1      40.160  23.479  27.076  1.00  0.00     0.116 C 
BRANCH   3   4
ATOM      4  N   UNL A   1      40.934  24.149  26.042  1.00  0.00    -0.352 N 
ATOM      5  O   UNL A   1      41.916  25.869  24.972  1.00  0.00    -0.269 OA
ATOM      6  C   UNL A   1      41.403  25.440  26.003  1.00  0.00     0.251 C 
ATOM      7  H   UNL A   1      41.153  23.597  25.257  1.00  0.00     0.163 HD
BRANCH   6   8
ATOM      8  C   UNL A   1      41.267  26.317  27.186  1.00  0.00     0.039 A 
ATOM      9  C   UNL A   1      40.246  26.112  28.118  1.00  0.00     0.014 A 
ATOM     10  C   UNL A   1      42.184  27.355  27.369  1.00  0.00     0.014 A 
ATOM     11  C   UNL A   1      40.059  27.022  29.154  1.00  0.00     0.010 A 
ATOM     12  C   UNL A   1      42.041  28.224  28.454  1.00  0.00     0.010 A 
ATOM     13  C   UNL A   1      40.960  28.083  29.338  1.00  0.00    -0.014 A 
BRANCH  13  14
ATOM     14  C   UNL A   1      40.796  28.996  30.496  1.00  0.00     0.031 A 
ATOM     15  C   UNL A   1      41.673  28.876  31.711  1.00  0.00     0.074 A 
ATOM     16  C   UNL A   1      39.834  29.937  30.449  1.00  0.00     0.049 A 
ATOM     17  N   UNL A   1      41.649  29.579  32.815  1.00  0.00    -0.248 NA
ATOM     18  C   UNL A   1      42.705  27.828  31.689  1.00  0.00     0.031 C 
ATOM     19  C   UNL A   1      38.910  30.140  29.330  1.00  0.00     0.029 A 
ATOM     20  N   UNL A   1      39.470  30.896  31.360  1.00  0.00    -0.354 N 
ATOM     21  C   UNL A   1      42.641  29.046  33.629  1.00  0.00     0.074 A 
ATOM     22  C   UNL A   1      43.237  27.947  32.899  1.00  0.00     0.031 C 
ATOM     23  C   UNL A   1      38.098  31.169  29.613  1.00  0.00     0.029 A 
ATOM     24  C   UNL A   1      38.405  31.661  30.952  1.00  0.00     0.049 A 
ATOM     25  H   UNL A   1      39.928  31.022  32.222  1.00  0.00     0.167 HD
ATOM     26  C   UNL A   1      43.019  29.435  34.872  1.00  0.00     0.031 A 
ATOM     27  C   UNL A   1      37.725  32.633  31.588  1.00  0.00     0.031 A 
ATOM     28  C   UNL A   1      42.416  30.527  35.594  1.00  0.00     0.049 A 
ATOM     29  C   UNL A   1      38.147  33.038  32.968  1.00  0.00     0.074 A 
ATOM     30  C   UNL A   1      42.760  31.028  36.837  1.00  0.00     0.029 A 
ATOM     31  N   UNL A   1      41.337  31.275  35.146  1.00  0.00    -0.354 N 
ATOM     32  N   UNL A   1      39.124  32.558  33.700  1.00  0.00    -0.248 NA
ATOM     33  C   UNL A   1      37.383  34.115  33.608  1.00  0.00     0.031 C 
ATOM     34  C   UNL A   1      41.856  32.046  37.163  1.00  0.00     0.029 A 
ATOM     35  C   UNL A   1      40.982  32.214  36.100  1.00  0.00     0.049 A 
ATOM     36  H   UNL A   1      40.889  31.156  34.278  1.00  0.00     0.167 HD
ATOM     37  C   UNL A   1      39.100  33.281  34.885  1.00  0.00     0.074 A 
ATOM     38  C   UNL A   1      38.020  34.242  34.766  1.00  0.00     0.031 C 
ATOM     39  C   UNL A   1      39.899  33.159  35.972  1.00  0.00     0.031 A 
BRANCH  26  40
ATOM     40  C   UNL A   1      44.112  28.647  35.543  1.00  0.00    -0.014 A 
ATOM     41  C   UNL A   1      45.464  29.017  35.420  1.00  0.00     0.010 A 
ATOM     42  C   UNL A   1      43.780  27.525  36.324  1.00  0.00     0.010 A 
ATOM     43  C   UNL A   1      46.466  28.246  36.017  1.00  0.00     0.020 A 
ATOM     44  C   UNL A   1      44.777  26.766  36.944  1.00  0.00     0.020 A 
ATOM     45  C   UNL A   1      46.117  27.118  36.766  1.00  0.00     0.054 A 
BRANCH  45  46
ATOM     46  S   UNL A   1      47.436  26.123  37.514  1.00  0.00     0.124 S 
ATOM     47  O   UNL A   1      47.481  24.967  36.620  1.00  0.00    -0.237 OA
ATOM     48  O   UNL A   1      48.592  27.014  37.445  1.00  0.00    -0.237 OA
ATOM     49  O   UNL A   1      46.943  25.849  38.861  1.00  0.00    -0.744 OA
ENDBRANCH  45  46
ENDBRANCH  26  40
BRANCH  27  50
ATOM     50  C   UNL A   1      36.561  33.259  30.909  1.00  0.00    -0.014 A 
ATOM     51  C   UNL A   1      35.295  33.270  31.519  1.00  0.00     0.010 A 
ATOM     52  C   UNL A   1      36.740  33.929  29.684  1.00  0.00     0.010 A 
ATOM     53  C   UNL A   1      34.230  33.949  30.918  1.00  0.00     0.020 A 
ATOM     54  C   UNL A   1      35.686  34.629  29.095  1.00  0.00     0.020 A 
ATOM     55  C   UNL A   1      34.436  34.633  29.715  1.00  0.00     0.054 A 
BRANCH  55  56
ATOM     56  S   UNL A   1      33.069  35.594  29.008  1.00  0.00     0.124 S 
ATOM     57  O   UNL A   1      32.365  36.045  30.203  1.00  0.00    -0.237 OA
ATOM     58  O   UNL A   1      33.768  36.632  28.255  1.00  0.00    -0.237 OA
ATOM     59  O   UNL A   1      32.355  34.618  28.189  1.00  0.00    -0.744 OA
ENDBRANCH  55  56
ENDBRANCH  27  50
BRANCH  39  60
ATOM     60  C   UNL A   1      39.653  34.097  37.121  1.00  0.00    -0.014 A 
ATOM     61  C   UNL A   1      38.787  33.745  38.171  1.00  0.00     0.010 A 
ATOM     62  C   UNL A   1      40.351  35.316  37.184  1.00  0.00     0.010 A 
ATOM     63  C   UNL A   1      38.612  34.605  39.259  1.00  0.00     0.020 A 
ATOM     64  C   UNL A   1      40.196  36.167  38.280  1.00  0.00     0.020 A 
ATOM     65  C   UNL A   1      39.320  35.811  39.307  1.00  0.00     0.054 A 
BRANCH  65  66
ATOM     66  S   UNL A   1      39.128  36.880  40.760  1.00  0.00     0.124 S 
ATOM     67  O   UNL A   1      40.512  37.228  41.067  1.00  0.00    -0.237 OA
ATOM     68  O   UNL A   1      38.304  37.973  40.249  1.00  0.00    -0.237 OA
ATOM     69  O   UNL A   1      38.469  36.017  41.739  1.00  0.00    -0.744 OA
ENDBRANCH  65  66
ENDBRANCH  39  60
ENDBRANCH  13  14
ENDBRANCH   6   8
ENDBRANCH   3   4
ENDBRANCH   2   3
ENDBRANCH   1   2
BRANCH   1  70
ATOM     70  C   UNL A   1      37.229  22.964  24.640  1.00  0.00     0.116 C 
BRANCH  70  71
ATOM     71  N   UNL A   1      37.123  21.513  24.636  1.00  0.00    -0.352 N 
ATOM     72  C   UNL A   1      36.064  20.704  24.962  1.00  0.00     0.251 C 
ATOM     73  H   UNL A   1      37.938  21.037  24.355  1.00  0.00     0.163 HD
ATOM     74  O   UNL A   1      36.207  19.487  25.014  1.00  0.00    -0.269 OA
BRANCH  72  75
ATOM     75  C   UNL A   1      34.745  21.285  25.298  1.00  0.00     0.042 A 
ATOM     76  C   UNL A   1      33.771  21.514  24.319  1.00  0.00     0.015 A 
ATOM     77  C   UNL A   1      34.470  21.577  26.638  1.00  0.00     0.054 A 
ATOM     78  C   UNL A   1      32.585  22.164  24.659  1.00  0.00     0.026 A 
ATOM     79  C   UNL A   1      33.260  22.176  26.979  1.00  0.00     0.144 A 
ATOM     80  C   UNL A   1      32.345  22.519  25.994  1.00  0.00     0.118 A 
ATOM     81  F   UNL A   1      33.025  22.444  28.271  1.00  0.00    -0.205 F 
BRANCH  80  82
ATOM     82  S   UNL A   1      30.885  23.427  26.362  1.00  0.00     0.243 S 
ATOM     83  O   UNL A   1      29.865  22.469  26.736  1.00  0.00    -0.207 OA
ATOM     84  O   UNL A   1      31.263  24.495  27.259  1.00  0.00    -0.207 OA
BRANCH  82  85
ATOM     85  N   UNL A   1      30.327  24.165  24.969  1.00  0.00    -0.205 NA
ATOM     86  H   UNL A   1      29.311  24.069  24.988  1.00  0.00     0.141 HD
BRANCH  85  87
ATOM     87  C   UNL A   1      30.591  25.560  24.647  1.00  0.00     0.154 C 
BRANCH  87  88
ATOM     88  C   UNL A   1      31.647  25.767  23.634  1.00  0.00     0.050 A 
ATOM     89  C   UNL A   1      33.017  25.636  23.749  1.00  0.00     0.046 A 
ATOM     90  N   UNL A   1      31.423  26.080  22.320  1.00  0.00    -0.281 N 
ATOM     91  C   UNL A   1      33.519  25.899  22.465  1.00  0.00     0.135 A 
ATOM     92  N   UNL A   1      32.553  26.191  21.595  1.00  0.00    -0.184 NA
ATOM     93  H   UNL A   1      30.524  26.213  21.942  1.00  0.00     0.190 HD
ENDBRANCH  87  88
ENDBRANCH  85  87
ENDBRANCH  82  85
ENDBRANCH  80  82
ENDBRANCH  72  75
ENDBRANCH  70  71
ENDBRANCH   1  70
TORSDOF 18
ENDMDL
MODEL 2
REMARK VINA RESULT:     -11.3      2.479      9.004
REMARK SMILES O=C(NCCCCNC(=O)c1ccc(S(=O)(=O)NCc2ccn[nH]2)c(F)c1)c1ccc(-c2c3nc(c(-c4ccc(S(=O)(=O)[O-])cc4)c4ccc([nH]4)c(-c4ccc(S(=O)(=O)[O-])cc4)c4nc(c(-c5ccc(S(=O)(=O)[O-])cc5)c5ccc2[nH]5)C=C4)C=C3)cc1
REMARK SMILES IDX 6 1 5 2 4 3 3 4 1 5 2 6 28 8 29 9 87 10 30 11 86 12 31 13
REMARK SMILES IDX 32 14 33 15 80 16 34 17 85 18 79 19 81 20 35 21 84 22 78 23
REMARK SMILES IDX 77 24 36 26 66 27 47 28 65 29 48 30 51 31 64 32 82 33 49 34
REMARK SMILES IDX 50 35 63 37 83 38 52 39 37 40 38 41 46 42 39 43 45 44 40 45
REMARK SMILES IDX 41 46 42 47 43 48 44 49 67 50 68 51 76 52 69 53 75 54 70 55
REMARK SMILES IDX 71 56 72 57 73 58 74 59 53 60 54 61 62 62 55 63 61 64 56 65
REMARK SMILES IDX 57 66 58 67 59 68 60 69 7 70 8 71 9 72 10 74 11 75 12 76
REMARK SMILES IDX 27 77 13 78 25 79 14 80 26 81 15 82 16 83 17 84 18 85 19 87
REMARK SMILES IDX 20 88 21 89 24 90 22 91 23 92
REMARK H PARENT 3 7 81 25 51 36 8 73 18 86 24 93
REMARK Flexibility Score: inf
ROOT
ATOM      1  C   UNL A   1      31.575  30.362  26.741  1.00  0.00     0.023 C 
ENDROOT
BRANCH   1   2
ATOM      2  C   UNL A   1      31.635  31.888  26.762  1.00  0.00     0.023 C 
BRANCH   2   3
ATOM      3  C   UNL A   1      32.950  32.487  27.245  1.00  0.00     0.116 C 
BRANCH   3   4
ATOM      4  N   UNL A   1      32.821  33.876  27.657  1.00  0.00    -0.352 N 
ATOM      5  O   UNL A   1      33.140  35.698  28.941  1.00  0.00    -0.269 OA
ATOM      6  C   UNL A   1      33.493  34.560  28.643  1.00  0.00     0.251 C 
ATOM      7  H   UNL A   1      32.157  34.403  27.157  1.00  0.00     0.163 HD
BRANCH   6   8
ATOM      8  C   UNL A   1      34.617  33.918  29.358  1.00  0.00     0.039 A 
ATOM      9  C   UNL A   1      34.384  33.024  30.406  1.00  0.00     0.014 A 
ATOM     10  C   UNL A   1      35.926  34.211  28.965  1.00  0.00     0.014 A 
ATOM     11  C   UNL A   1      35.453  32.530  31.148  1.00  0.00     0.010 A 
ATOM     12  C   UNL A   1      37.000  33.653  29.662  1.00  0.00     0.010 A 
ATOM     13  C   UNL A   1      36.773  32.832  30.778  1.00  0.00    -0.014 A 
BRANCH  13  14
ATOM     14  C   UNL A   1      37.904  32.230  31.527  1.00  0.00     0.031 A 
ATOM     15  C   UNL A   1      38.323  32.767  32.866  1.00  0.00     0.074 A 
ATOM     16  C   UNL A   1      38.564  31.191  30.979  1.00  0.00     0.049 A 
ATOM     17  N   UNL A   1      39.301  32.370  33.641  1.00  0.00    -0.248 NA
ATOM     18  C   UNL A   1      37.554  33.899  33.403  1.00  0.00     0.031 C 
ATOM     19  C   UNL A   1      38.258  30.594  29.677  1.00  0.00     0.029 A 
ATOM     20  N   UNL A   1      39.625  30.457  31.443  1.00  0.00    -0.354 N 
ATOM     21  C   UNL A   1      39.283  33.216  34.744  1.00  0.00     0.074 A 
ATOM     22  C   UNL A   1      38.207  34.161  34.528  1.00  0.00     0.031 C 
ATOM     23  C   UNL A   1      39.100  29.574  29.454  1.00  0.00     0.029 A 
ATOM     24  C   UNL A   1      40.039  29.482  30.567  1.00  0.00     0.049 A 
ATOM     25  H   UNL A   1      40.049  30.614  32.317  1.00  0.00     0.167 HD
ATOM     26  C   UNL A   1      40.089  33.207  35.833  1.00  0.00     0.031 A 
ATOM     27  C   UNL A   1      41.074  28.624  30.631  1.00  0.00     0.031 A 
ATOM     28  C   UNL A   1      41.161  32.266  36.037  1.00  0.00     0.049 A 
ATOM     29  C   UNL A   1      41.965  28.641  31.837  1.00  0.00     0.074 A 
ATOM     30  C   UNL A   1      42.003  32.146  37.129  1.00  0.00     0.029 A 
ATOM     31  N   UNL A   1      41.550  31.296  35.124  1.00  0.00    -0.354 N 
ATOM     32  N   UNL A   1      41.896  29.413  32.895  1.00  0.00    -0.248 NA
ATOM     33  C   UNL A   1      43.067  27.672  31.864  1.00  0.00     0.031 C 
ATOM     34  C   UNL A   1      42.933  31.136  36.854  1.00  0.00     0.029 A 
ATOM     35  C   UNL A   1      42.637  30.593  35.614  1.00  0.00     0.049 A 
ATOM     36  H   UNL A   1      41.116  31.132  34.256  1.00  0.00     0.167 HD
ATOM     37  C   UNL A   1      42.941  29.018  33.720  1.00  0.00     0.074 A 
ATOM     38  C   UNL A   1      43.617  27.927  33.045  1.00  0.00     0.031 C 
ATOM     39  C   UNL A   1      43.306  29.514  34.927  1.00  0.00     0.031 A 
BRANCH  26  40
ATOM     40  C   UNL A   1      39.864  34.274  36.872  1.00  0.00    -0.014 A 
ATOM     41  C   UNL A   1      40.555  35.498  36.826  1.00  0.00     0.010 A 
ATOM     42  C   UNL A   1      38.933  34.054  37.904  1.00  0.00     0.010 A 
ATOM     43  C   UNL A   1      40.362  36.458  37.824  1.00  0.00     0.020 A 
ATOM     44  C   UNL A   1      38.719  35.020  38.890  1.00  0.00     0.020 A 
ATOM     45  C   UNL A   1      39.453  36.208  38.858  1.00  0.00     0.054 A 
BRANCH  45  46
ATOM     46  S   UNL A   1      39.235  37.460  40.152  1.00  0.00     0.124 S 
ATOM     47  O   UNL A   1      38.865  36.638  41.302  1.00  0.00    -0.237 OA
ATOM     48  O   UNL A   1      40.555  38.083  40.225  1.00  0.00    -0.237 OA
ATOM     49  O   UNL A   1      38.173  38.317  39.631  1.00  0.00    -0.744 OA
ENDBRANCH  45  46
ENDBRANCH  26  40
BRANCH  27  50
ATOM     50  C   UNL A   1      41.315  27.701  29.492  1.00  0.00    -0.014 A 
ATOM     51  C   UNL A   1      42.338  27.958  28.564  1.00  0.00     0.010 A 
ATOM     52  C   UNL A   1      40.574  26.509  29.387  1.00  0.00     0.010 A 
ATOM     53  C   UNL A   1      42.622  27.033  27.555  1.00  0.00     0.020 A 
ATOM     54  C   UNL A   1      40.871  25.571  28.396  1.00  0.00     0.020 A 
ATOM     55  C   UNL A   1      41.893  25.840  27.484  1.00  0.00     0.054 A 
BRANCH  55  56
ATOM     56  S   UNL A   1      42.348  24.607  26.233  1.00  0.00     0.124 S 
ATOM     57  O   UNL A   1      43.648  24.153  26.713  1.00  0.00    -0.237 OA
ATOM     58  O   UNL A   1      41.261  23.637  26.334  1.00  0.00    -0.237 OA
ATOM     59  O   UNL A   1      42.370  25.377  24.991  1.00  0.00    -0.744 OA
ENDBRANCH  55  56
ENDBRANCH  27  50
BRANCH  39  60
ATOM     60  C   UNL A   1      44.483  28.875  35.611  1.00  0.00    -0.014 A 
ATOM     61  C   UNL A   1      45.786  29.368  35.424  1.00  0.00     0.010 A 
ATOM     62  C   UNL A   1      44.271  27.811  36.506  1.00  0.00     0.010 A 
ATOM     63  C   UNL A   1      46.861  28.797  36.110  1.00  0.00     0.020 A 
ATOM     64  C   UNL A   1      45.340  27.253  37.211  1.00  0.00     0.020 A 
ATOM     65  C   UNL A   1      46.630  27.744  37.002  1.00  0.00     0.054 A 
BRANCH  65  66
ATOM     66  S   UNL A   1      48.032  27.063  37.931  1.00  0.00     0.124 S 
ATOM     67  O   UNL A   1      48.233  25.773  37.277  1.00  0.00    -0.237 OA
ATOM     68  O   UNL A   1      49.082  28.054  37.702  1.00  0.00    -0.237 OA
ATOM     69  O   UNL A   1      47.536  26.997  39.304  1.00  0.00    -0.744 OA
ENDBRANCH  65  66
ENDBRANCH  39  60
ENDBRANCH  13  14
ENDBRANCH   6   8
ENDBRANCH   3   4
ENDBRANCH   2   3
ENDBRANCH   1   2
BRANCH   1  70
ATOM     70  C   UNL A   1      32.212  29.690  25.527  1.00  0.00     0.116 C 
BRANCH  70  71
ATOM     71  N   UNL A   1      31.324  29.626  24.377  1.00  0.00    -0.352 N 
ATOM     72  C   UNL A   1      30.695  28.549  23.805  1.00  0.00     0.251 C 
ATOM     73  H   UNL A   1      31.147  30.491  23.940  1.00  0.00     0.163 HD
ATOM     74  O   UNL A   1      30.077  28.679  22.754  1.00  0.00    -0.269 OA
BRANCH  72  75
ATOM     75  C   UNL A   1      30.786  27.208  24.421  1.00  0.00     0.042 A 
ATOM     76  C   UNL A   1      30.698  27.026  25.807  1.00  0.00     0.015 A 
ATOM     77  C   UNL A   1      30.932  26.099  23.581  1.00  0.00     0.054 A 
ATOM     78  C   UNL A   1      30.898  25.760  26.354  1.00  0.00     0.026 A 
ATOM     79  C   UNL A   1      31.076  24.829  24.132  1.00  0.00     0.144 A 
ATOM     80  C   UNL A   1      31.115  24.662  25.509  1.00  0.00     0.118 A 
ATOM     81  F   UNL A   1      31.213  23.787  23.301  1.00  0.00    -0.205 F 
BRANCH  80  82
ATOM     82  S   UNL A   1      31.464  23.103  26.244  1.00  0.00     0.243 S 
ATOM     83  O   UNL A   1      31.820  23.349  27.626  1.00  0.00    -0.207 OA
ATOM     84  O   UNL A   1      30.372  22.220  25.905  1.00  0.00    -0.207 OA
BRANCH  82  85
ATOM     85  N   UNL A   1      32.828  22.450  25.532  1.00  0.00    -0.205 NA
ATOM     86  H   UNL A   1      33.500  23.216  25.459  1.00  0.00     0.141 HD
BRANCH  85  87
ATOM     87  C   UNL A   1      33.563  21.327  26.097  1.00  0.00     0.154 C 
BRANCH  87  88
ATOM     88  C   UNL A   1      33.114  20.001  25.625  1.00  0.00     0.050 A 
ATOM     89  C   UNL A   1      32.886  19.554  24.339  1.00  0.00     0.046 A 
ATOM     90  N   UNL A   1      32.899  18.914  26.430  1.00  0.00    -0.281 N 
ATOM     91  C   UNL A   1      32.531  18.202  24.478  1.00  0.00     0.135 A 
ATOM     92  N   UNL A   1      32.518  17.813  25.753  1.00  0.00    -0.184 NA
ATOM     93  H   UNL A   1      33.011  18.935  27.407  1.00  0.00     0.190 HD
ENDBRANCH  87  88
ENDBRANCH  85  87
ENDBRANCH  82  85
ENDBRANCH  80  82
ENDBRANCH  72  75
ENDBRANCH  70  71
ENDBRANCH   1  70
TORSDOF 18
ENDMDL
MODEL 3
REMARK VINA RESULT:     -11.2      5.140      8.057
REMARK SMILES O=C(NCCCCNC(=O)c1ccc(S(=O)(=O)NCc2ccn[nH]2)c(F)c1)c1ccc(-c2c3nc(c(-c4ccc(S(=O)(=O)[O-])cc4)c4ccc([nH]4)c(-c4ccc(S(=O)(=O)[O-])cc4)c4nc(c(-c5ccc(S(=O)(=O)[O-])cc5)c5ccc2[nH]5)C=C4)C=C3)cc1
REMARK SMILES IDX 6 1 5 2 4 3 3 4 1 5 2 6 28 8 29 9 87 10 30 11 86 12 31 13
REMARK SMILES IDX 32 14 33 15 80 16 34 17 85 18 79 19 81 20 35 21 84 22 78 23
REMARK SMILES IDX 77 24 36 26 66 27 47 28 65 29 48 30 51 31 64 32 82 33 49 34
REMARK SMILES IDX 50 35 63 37 83 38 52 39 37 40 38 41 46 42 39 43 45 44 40 45
REMARK SMILES IDX 41 46 42 47 43 48 44 49 67 50 68 51 76 52 69 53 75 54 70 55
REMARK SMILES IDX 71 56 72 57 73 58 74 59 53 60 54 61 62 62 55 63 61 64 56 65
REMARK SMILES IDX 57 66 58 67 59 68 60 69 7 70 8 71 9 72 10 74 11 75 12 76
REMARK SMILES IDX 27 77 13 78 25 79 14 80 26 81 15 82 16 83 17 84 18 85 19 87
REMARK SMILES IDX 20 88 21 89 24 90 22 91 23 92
REMARK H PARENT 3 7 81 25 51 36 8 73 18 86 24 93
REMARK Flexibility Score: inf
ROOT
ATOM      1  C   UNL A   1      42.564  22.720  26.451  1.00  0.00     0.023 C 
ENDROOT
BRANCH   1   2
ATOM      2  C   UNL A   1      41.798  21.399  26.511  1.00  0.00     0.023 C 
BRANCH   2   3
ATOM      3  C   UNL A   1      40.449  21.454  27.217  1.00  0.00     0.116 C 
BRANCH   3   4
ATOM      4  N   UNL A   1      39.346  21.727  26.310  1.00  0.00    -0.352 N 
ATOM      5  O   UNL A   1      37.665  22.902  25.382  1.00  0.00    -0.269 OA
ATOM      6  C   UNL A   1      38.671  22.904  26.086  1.00  0.00     0.251 C 
ATOM      7  H   UNL A   1      39.039  20.958  25.778  1.00  0.00     0.163 HD
BRANCH   6   8
ATOM      8  C   UNL A   1      39.138  24.159  26.714  1.00  0.00     0.039 A 
ATOM      9  C   UNL A   1      39.915  25.073  25.998  1.00  0.00     0.014 A 
ATOM     10  C   UNL A   1      38.782  24.427  28.038  1.00  0.00     0.014 A 
ATOM     11  C   UNL A   1      40.449  26.185  26.644  1.00  0.00     0.010 A 
ATOM     12  C   UNL A   1      39.256  25.584  28.663  1.00  0.00     0.010 A 
ATOM     13  C   UNL A   1      40.118  26.456  27.980  1.00  0.00    -0.014 A 
BRANCH  13  14
ATOM     14  C   UNL A   1      40.627  27.690  28.630  1.00  0.00     0.031 A 
ATOM     15  C   UNL A   1      42.035  27.771  29.151  1.00  0.00     0.074 A 
ATOM     16  C   UNL A   1      39.799  28.745  28.756  1.00  0.00     0.049 A 
ATOM     17  N   UNL A   1      42.629  28.764  29.761  1.00  0.00    -0.248 NA
ATOM     18  C   UNL A   1      42.882  26.583  28.973  1.00  0.00     0.031 C 
ATOM     19  C   UNL A   1      38.406  28.779  28.304  1.00  0.00     0.029 A 
ATOM     20  N   UNL A   1      40.003  29.986  29.303  1.00  0.00    -0.354 N 
ATOM     21  C   UNL A   1      43.910  28.317  30.062  1.00  0.00     0.074 A 
ATOM     22  C   UNL A   1      44.000  26.953  29.584  1.00  0.00     0.031 C 
ATOM     23  C   UNL A   1      37.887  29.986  28.575  1.00  0.00     0.029 A 
ATOM     24  C   UNL A   1      38.888  30.788  29.270  1.00  0.00     0.049 A 
ATOM     25  H   UNL A   1      40.864  30.273  29.683  1.00  0.00     0.167 HD
ATOM     26  C   UNL A   1      44.916  28.980  30.682  1.00  0.00     0.031 A 
ATOM     27  C   UNL A   1      38.676  32.021  29.765  1.00  0.00     0.031 A 
ATOM     28  C   UNL A   1      44.817  30.335  31.161  1.00  0.00     0.049 A 
ATOM     29  C   UNL A   1      39.797  32.731  30.463  1.00  0.00     0.074 A 
ATOM     30  C   UNL A   1      45.795  31.110  31.759  1.00  0.00     0.029 A 
ATOM     31  N   UNL A   1      43.668  31.112  31.110  1.00  0.00    -0.354 N 
ATOM     32  N   UNL A   1      41.019  32.311  30.689  1.00  0.00    -0.248 NA
ATOM     33  C   UNL A   1      39.517  34.081  30.967  1.00  0.00     0.031 C 
ATOM     34  C   UNL A   1      45.223  32.337  32.116  1.00  0.00     0.029 A 
ATOM     35  C   UNL A   1      43.904  32.346  31.692  1.00  0.00     0.049 A 
ATOM     36  H   UNL A   1      42.812  30.827  30.717  1.00  0.00     0.167 HD
ATOM     37  C   UNL A   1      41.658  33.348  31.355  1.00  0.00     0.074 A 
ATOM     38  C   UNL A   1      40.693  34.423  31.480  1.00  0.00     0.031 C 
ATOM     39  C   UNL A   1      42.930  33.403  31.819  1.00  0.00     0.031 A 
BRANCH  26  40
ATOM     40  C   UNL A   1      46.202  28.231  30.913  1.00  0.00    -0.014 A 
ATOM     41  C   UNL A   1      46.423  27.499  32.094  1.00  0.00     0.010 A 
ATOM     42  C   UNL A   1      47.203  28.247  29.924  1.00  0.00     0.010 A 
ATOM     43  C   UNL A   1      47.641  26.846  32.306  1.00  0.00     0.020 A 
ATOM     44  C   UNL A   1      48.412  27.575  30.120  1.00  0.00     0.020 A 
ATOM     45  C   UNL A   1      48.633  26.898  31.322  1.00  0.00     0.054 A 
BRANCH  45  46
ATOM     46  S   UNL A   1      50.213  26.060  31.628  1.00  0.00     0.124 S 
ATOM     47  O   UNL A   1      50.122  24.914  30.726  1.00  0.00    -0.237 OA
ATOM     48  O   UNL A   1      51.195  27.074  31.256  1.00  0.00    -0.237 OA
ATOM     49  O   UNL A   1      50.164  25.737  33.052  1.00  0.00    -0.744 OA
ENDBRANCH  45  46
ENDBRANCH  26  40
BRANCH  27  50
ATOM     50  C   UNL A   1      37.329  32.631  29.625  1.00  0.00    -0.014 A 
ATOM     51  C   UNL A   1      36.449  32.689  30.719  1.00  0.00     0.010 A 
ATOM     52  C   UNL A   1      36.958  33.240  28.411  1.00  0.00     0.010 A 
ATOM     53  C   UNL A   1      35.224  33.354  30.603  1.00  0.00     0.020 A 
ATOM     54  C   UNL A   1      35.747  33.927  28.300  1.00  0.00     0.020 A 
ATOM     55  C   UNL A   1      34.887  33.977  29.397  1.00  0.00     0.054 A 
BRANCH  55  56
ATOM     56  S   UNL A   1      33.341  34.924  29.302  1.00  0.00     0.124 S 
ATOM     57  O   UNL A   1      32.575  34.157  28.327  1.00  0.00    -0.237 OA
ATOM     58  O   UNL A   1      32.852  34.868  30.678  1.00  0.00    -0.237 OA
ATOM     59  O   UNL A   1      33.779  36.246  28.860  1.00  0.00    -0.744 OA
ENDBRANCH  55  56
ENDBRANCH  27  50
BRANCH  39  60
ATOM     60  C   UNL A   1      43.365  34.674  32.495  1.00  0.00    -0.014 A 
ATOM     61  C   UNL A   1      43.258  34.827  33.888  1.00  0.00     0.010 A 
ATOM     62  C   UNL A   1      43.952  35.700  31.733  1.00  0.00     0.010 A 
ATOM     63  C   UNL A   1      43.718  35.992  34.507  1.00  0.00     0.020 A 
ATOM     64  C   UNL A   1      44.433  36.857  32.351  1.00  0.00     0.020 A 
ATOM     65  C   UNL A   1      44.305  37.000  33.734  1.00  0.00     0.054 A 
BRANCH  65  66
ATOM     66  S   UNL A   1      44.955  38.474  34.567  1.00  0.00     0.124 S 
ATOM     67  O   UNL A   1      45.742  39.100  33.508  1.00  0.00    -0.237 OA
ATOM     68  O   UNL A   1      43.740  39.189  34.952  1.00  0.00    -0.237 OA
ATOM     69  O   UNL A   1      45.728  37.929  35.681  1.00  0.00    -0.744 OA
ENDBRANCH  65  66
ENDBRANCH  39  60
ENDBRANCH  13  14
ENDBRANCH   6   8
ENDBRANCH   3   4
ENDBRANCH   2   3
ENDBRANCH   1   2
BRANCH   1  70
ATOM     70  C   UNL A   1      43.220  23.045  25.112  1.00  0.00     0.116 C 
BRANCH  70  71
ATOM     71  N   UNL A   1      44.482  22.351  24.909  1.00  0.00    -0.352 N 
ATOM     72  C   UNL A   1      45.765  22.837  24.896  1.00  0.00     0.251 C 
ATOM     73  H   UNL A   1      44.404  21.381  24.756  1.00  0.00     0.163 HD
ATOM     74  O   UNL A   1      46.701  22.108  24.584  1.00  0.00    -0.269 OA
BRANCH  72  75
ATOM     75  C   UNL A   1      46.039  24.255  25.218  1.00  0.00     0.042 A 
ATOM     76  C   UNL A   1      45.176  25.007  26.025  1.00  0.00     0.015 A 
ATOM     77  C   UNL A   1      47.210  24.834  24.720  1.00  0.00     0.054 A 
ATOM     78  C   UNL A   1      45.413  26.368  26.213  1.00  0.00     0.026 A 
ATOM     79  C   UNL A   1      47.469  26.182  24.958  1.00  0.00     0.144 A 
ATOM     80  C   UNL A   1      46.553  26.960  25.652  1.00  0.00     0.118 A 
ATOM     81  F   UNL A   1      48.600  26.708  24.469  1.00  0.00    -0.205 F 
BRANCH  80  82
ATOM     82  S   UNL A   1      46.759  28.698  25.827  1.00  0.00     0.243 S 
ATOM     83  O   UNL A   1      48.007  28.914  26.529  1.00  0.00    -0.207 OA
ATOM     84  O   UNL A   1      46.526  29.286  24.528  1.00  0.00    -0.207 OA
BRANCH  82  85
ATOM     85  N   UNL A   1      45.563  29.297  26.830  1.00  0.00    -0.205 NA
ATOM     86  H   UNL A   1      45.449  28.607  27.574  1.00  0.00     0.141 HD
BRANCH  85  87
ATOM     87  C   UNL A   1      45.654  30.589  27.495  1.00  0.00     0.154 C 
BRANCH  87  88
ATOM     88  C   UNL A   1      45.062  31.711  26.738  1.00  0.00     0.050 A 
ATOM     89  C   UNL A   1      44.251  32.740  27.176  1.00  0.00     0.046 A 
ATOM     90  N   UNL A   1      45.286  31.967  25.411  1.00  0.00    -0.281 N 
ATOM     91  C   UNL A   1      44.037  33.544  26.045  1.00  0.00     0.135 A 
ATOM     92  N   UNL A   1      44.649  33.066  24.962  1.00  0.00    -0.184 NA
ATOM     93  H   UNL A   1      45.855  31.402  24.841  1.00  0.00     0.190 HD
ENDBRANCH  87  88
ENDBRANCH  85  87
ENDBRANCH  82  85
ENDBRANCH  80  82
ENDBRANCH  72  75
ENDBRANCH  70  71
ENDBRANCH   1  70
TORSDOF 18
ENDMDL
