MODEL 1
REMARK VINA RESULT:     -10.4      0.000      0.000
REMARK SMILES CCC(CC)NC(=O)NC[C@H]1CC[C@H](C(=O)NCCCCNC(=O)c2ccc(-c3c4nc(c(-c5ccc(S(=O)(=O)[O-])cc5)c5ccc([nH]5)c(-c5ccc(S(=O)(=O)[O-])cc5)c5nc(c(-c6ccc(S(=O)(=O)[O-])cc6)c6ccc3[nH]6)C=C5)C=C4)cc2)O1
REMARK SMILES IDX 19 1 18 2 17 3 15 4 16 5 14 7 11 8 12 9 85 10 13 11 10 12
REMARK SMILES IDX 9 13 6 14 7 15 8 17 3 19 2 20 1 21 4 22 5 23 20 24 21 25
REMARK SMILES IDX 22 26 23 27 24 29 25 30 26 31 84 32 27 33 83 34 28 35 29 36
REMARK SMILES IDX 30 37 77 38 31 39 82 40 76 41 78 42 32 43 81 44 75 45 74 46
REMARK SMILES IDX 33 48 63 49 44 50 62 51 45 52 48 53 61 54 79 55 46 56 47 57
REMARK SMILES IDX 60 59 80 60 49 61 34 62 35 63 43 64 36 65 42 66 37 67 38 68
REMARK SMILES IDX 39 69 40 70 41 71 64 72 65 73 73 74 66 75 72 76 67 77 68 78
REMARK SMILES IDX 69 79 70 80 71 81 50 82 51 83 59 84 52 85 58 86 53 87 54 88
REMARK SMILES IDX 55 89 56 90 57 91
REMARK H PARENT 17 6 6 16 9 18 22 28 78 47 48 58
REMARK Flexibility Score: inf
ROOT
ATOM      1  C   UNL A   1      45.620  22.700  26.336  1.00  0.00     0.023 C 
ENDROOT
BRANCH   1   2
ATOM      2  C   UNL A   1      44.827  21.893  25.307  1.00  0.00     0.116 C 
BRANCH   2   3
ATOM      3  N   UNL A   1      45.143  20.483  25.365  1.00  0.00    -0.354 N 
ATOM      4  C   UNL A   1      44.306  19.411  25.476  1.00  0.00     0.249 C 
ATOM      5  O   UNL A   1      44.818  18.287  25.516  1.00  0.00    -0.272 OA
ATOM      6  H   UNL A   1      46.101  20.265  25.319  1.00  0.00     0.163 HD
BRANCH   4   7
ATOM      7  C   UNL A   1      42.776  19.584  25.632  1.00  0.00     0.207 C 
ATOM      8  C   UNL A   1      41.393  21.131  26.730  1.00  0.00     0.138 C 
ATOM      9  C   UNL A   1      41.511  19.932  27.657  1.00  0.00     0.037 C 
ATOM     10  O   UNL A   1      42.287  20.922  25.631  1.00  0.00    -0.363 OA
ATOM     11  C   UNL A   1      42.243  18.876  26.866  1.00  0.00     0.045 C 
BRANCH   8  12
ATOM     12  C   UNL A   1      39.951  21.471  26.289  1.00  0.00     0.149 C 
BRANCH  12  13
ATOM     13  N   UNL A   1      39.610  22.881  26.336  1.00  0.00    -0.336 N 
ATOM     14  N   UNL A   1      37.262  23.030  26.123  1.00  0.00    -0.335 N 
ATOM     15  C   UNL A   1      38.464  23.568  26.369  1.00  0.00     0.315 C 
ATOM     16  H   UNL A   1      36.515  23.634  26.338  1.00  0.00     0.165 HD
ATOM     17  O   UNL A   1      38.509  24.767  26.649  1.00  0.00    -0.249 OA
ATOM     18  H   UNL A   1      40.402  23.464  26.346  1.00  0.00     0.165 HD
BRANCH  14  19
ATOM     19  C   UNL A   1      36.829  21.741  25.605  1.00  0.00     0.083 C 
BRANCH  19  20
ATOM     20  C   UNL A   1      35.405  21.435  26.085  1.00  0.00     0.021 C 
ATOM     21  C   UNL A   1      34.620  20.569  25.110  1.00  0.00     0.006 C 
ENDBRANCH  19  20
BRANCH  19  22
ATOM     22  C   UNL A   1      37.039  21.666  24.080  1.00  0.00     0.021 C 
ATOM     23  C   UNL A   1      36.678  22.923  23.303  1.00  0.00     0.006 C 
ENDBRANCH  19  22
ENDBRANCH  14  19
ENDBRANCH  12  13
ENDBRANCH   8  12
ENDBRANCH   4   7
ENDBRANCH   2   3
ENDBRANCH   1   2
BRANCH   1  24
ATOM     24  C   UNL A   1      44.878  22.978  27.640  1.00  0.00     0.023 C 
BRANCH  24  25
ATOM     25  C   UNL A   1      43.664  23.889  27.503  1.00  0.00     0.116 C 
BRANCH  25  26
ATOM     26  N   UNL A   1      43.420  24.343  26.139  1.00  0.00    -0.352 N 
ATOM     27  C   UNL A   1      42.773  25.487  25.739  1.00  0.00     0.251 C 
ATOM     28  H   UNL A   1      43.760  23.762  25.420  1.00  0.00     0.163 HD
ATOM     29  O   UNL A   1      42.564  25.705  24.553  1.00  0.00    -0.269 OA
BRANCH  27  30
ATOM     30  C   UNL A   1      42.283  26.416  26.777  1.00  0.00     0.039 A 
ATOM     31  C   UNL A   1      41.310  25.972  27.673  1.00  0.00     0.014 A 
ATOM     32  C   UNL A   1      42.858  27.682  26.914  1.00  0.00     0.014 A 
ATOM     33  C   UNL A   1      40.967  26.774  28.762  1.00  0.00     0.010 A 
ATOM     34  C   UNL A   1      42.568  28.447  28.037  1.00  0.00     0.010 A 
ATOM     35  C   UNL A   1      41.624  27.998  28.974  1.00  0.00    -0.014 A 
BRANCH  35  36
ATOM     36  C   UNL A   1      41.350  28.821  30.175  1.00  0.00     0.031 A 
ATOM     37  C   UNL A   1      42.166  28.623  31.421  1.00  0.00     0.074 A 
ATOM     38  C   UNL A   1      40.313  29.680  30.172  1.00  0.00     0.049 A 
ATOM     39  N   UNL A   1      42.030  29.187  32.593  1.00  0.00    -0.248 NA
ATOM     40  C   UNL A   1      43.256  27.639  31.348  1.00  0.00     0.031 C 
ATOM     41  C   UNL A   1      39.408  29.914  29.044  1.00  0.00     0.029 A 
ATOM     42  N   UNL A   1      39.837  30.507  31.157  1.00  0.00    -0.354 N 
ATOM     43  C   UNL A   1      43.002  28.613  33.401  1.00  0.00     0.074 A 
ATOM     44  C   UNL A   1      43.686  27.620  32.600  1.00  0.00     0.031 C 
ATOM     45  C   UNL A   1      38.495  30.834  29.396  1.00  0.00     0.029 A 
ATOM     46  C   UNL A   1      38.733  31.234  30.781  1.00  0.00     0.049 A 
ATOM     47  H   UNL A   1      40.246  30.574  32.050  1.00  0.00     0.167 HD
ATOM     48  C   UNL A   1      43.313  28.897  34.689  1.00  0.00     0.031 A 
ATOM     49  C   UNL A   1      37.992  32.122  31.472  1.00  0.00     0.031 A 
ATOM     50  C   UNL A   1      42.638  29.890  35.479  1.00  0.00     0.049 A 
ATOM     51  C   UNL A   1      38.374  32.450  32.886  1.00  0.00     0.074 A 
ATOM     52  C   UNL A   1      42.908  30.291  36.775  1.00  0.00     0.029 A 
ATOM     53  N   UNL A   1      41.557  30.642  35.044  1.00  0.00    -0.354 N 
ATOM     54  N   UNL A   1      39.338  31.942  33.616  1.00  0.00    -0.248 NA
ATOM     55  C   UNL A   1      37.577  33.480  33.566  1.00  0.00     0.031 C 
ATOM     56  C   UNL A   1      41.970  31.266  37.135  1.00  0.00     0.029 A 
ATOM     57  C   UNL A   1      41.142  31.499  36.049  1.00  0.00     0.049 A 
ATOM     58  H   UNL A   1      41.145  30.576  34.152  1.00  0.00     0.167 HD
ATOM     59  C   UNL A   1      39.277  32.604  34.837  1.00  0.00     0.074 A 
ATOM     60  C   UNL A   1      38.190  33.558  34.742  1.00  0.00     0.031 C 
ATOM     61  C   UNL A   1      40.052  32.437  35.937  1.00  0.00     0.031 A 
BRANCH  48  62
ATOM     62  C   UNL A   1      44.435  28.108  35.306  1.00  0.00    -0.014 A 
ATOM     63  C   UNL A   1      44.180  26.902  35.985  1.00  0.00     0.010 A 
ATOM     64  C   UNL A   1      45.755  28.584  35.227  1.00  0.00     0.010 A 
ATOM     65  C   UNL A   1      45.215  26.221  36.630  1.00  0.00     0.020 A 
ATOM     66  C   UNL A   1      46.798  27.891  35.847  1.00  0.00     0.020 A 
ATOM     67  C   UNL A   1      46.516  26.727  36.569  1.00  0.00     0.054 A 
BRANCH  67  68
ATOM     68  S   UNL A   1      47.840  25.841  37.435  1.00  0.00     0.124 S 
ATOM     69  O   UNL A   1      49.004  26.667  37.125  1.00  0.00    -0.237 OA
ATOM     70  O   UNL A   1      47.398  25.878  38.827  1.00  0.00    -0.237 OA
ATOM     71  O   UNL A   1      47.830  24.518  36.817  1.00  0.00    -0.744 OA
ENDBRANCH  67  68
ENDBRANCH  48  62
BRANCH  49  72
ATOM     72  C   UNL A   1      36.833  32.778  30.811  1.00  0.00    -0.014 A 
ATOM     73  C   UNL A   1      35.521  32.379  31.118  1.00  0.00     0.010 A 
ATOM     74  C   UNL A   1      37.035  33.842  29.913  1.00  0.00     0.010 A 
ATOM     75  C   UNL A   1      34.429  33.034  30.540  1.00  0.00     0.020 A 
ATOM     76  C   UNL A   1      35.947  34.511  29.349  1.00  0.00     0.020 A 
ATOM     77  C   UNL A   1      34.650  34.100  29.663  1.00  0.00     0.054 A 
BRANCH  77  78
ATOM     78  S   UNL A   1      33.219  34.995  28.994  1.00  0.00     0.124 S 
ATOM     79  O   UNL A   1      33.845  36.184  28.424  1.00  0.00    -0.237 OA
ATOM     80  O   UNL A   1      32.671  34.044  28.030  1.00  0.00    -0.237 OA
ATOM     81  O   UNL A   1      32.383  35.226  30.170  1.00  0.00    -0.744 OA
ENDBRANCH  77  78
ENDBRANCH  49  72
BRANCH  61  82
ATOM     82  C   UNL A   1      39.765  33.316  37.121  1.00  0.00    -0.014 A 
ATOM     83  C   UNL A   1      38.752  32.987  38.039  1.00  0.00     0.010 A 
ATOM     84  C   UNL A   1      40.558  34.456  37.349  1.00  0.00     0.010 A 
ATOM     85  C   UNL A   1      38.521  33.797  39.153  1.00  0.00     0.020 A 
ATOM     86  C   UNL A   1      40.343  35.256  38.473  1.00  0.00     0.020 A 
ATOM     87  C   UNL A   1      39.317  34.928  39.362  1.00  0.00     0.054 A 
BRANCH  87  88
ATOM     88  S   UNL A   1      39.031  35.938  40.841  1.00  0.00     0.124 S 
ATOM     89  O   UNL A   1      38.004  35.171  41.539  1.00  0.00    -0.237 OA
ATOM     90  O   UNL A   1      40.345  35.956  41.480  1.00  0.00    -0.237 OA
ATOM     91  O   UNL A   1      38.591  37.223  40.301  1.00  0.00    -0.744 OA
ENDBRANCH  87  88
ENDBRANCH  61  82
ENDBRANCH  35  36
ENDBRANCH  27  30
ENDBRANCH  25  26
ENDBRANCH  24  25
ENDBRANCH   1  24
TORSDOF 19
ENDMDL
MODEL 2
REMARK VINA RESULT:     -10.1      5.931      8.970
REMARK SMILES CCC(CC)NC(=O)NC[C@H]1CC[C@H](C(=O)NCCCCNC(=O)c2ccc(-c3c4nc(c(-c5ccc(S(=O)(=O)[O-])cc5)c5ccc([nH]5)c(-c5ccc(S(=O)(=O)[O-])cc5)c5nc(c(-c6ccc(S(=O)(=O)[O-])cc6)c6ccc3[nH]6)C=C5)C=C4)cc2)O1
REMARK SMILES IDX 19 1 18 2 17 3 15 4 16 5 14 7 11 8 12 9 85 10 13 11 10 12
REMARK SMILES IDX 9 13 6 14 7 15 8 17 3 19 2 20 1 21 4 22 5 23 20 24 21 25
REMARK SMILES IDX 22 26 23 27 24 29 25 30 26 31 84 32 27 33 83 34 28 35 29 36
REMARK SMILES IDX 30 37 77 38 31 39 82 40 76 41 78 42 32 43 81 44 75 45 74 46
REMARK SMILES IDX 33 48 63 49 44 50 62 51 45 52 48 53 61 54 79 55 46 56 47 57
REMARK SMILES IDX 60 59 80 60 49 61 34 62 35 63 43 64 36 65 42 66 37 67 38 68
REMARK SMILES IDX 39 69 40 70 41 71 64 72 65 73 73 74 66 75 72 76 67 77 68 78
REMARK SMILES IDX 69 79 70 80 71 81 50 82 51 83 59 84 52 85 58 86 53 87 54 88
REMARK SMILES IDX 55 89 56 90 57 91
REMARK H PARENT 17 6 6 16 9 18 22 28 78 47 48 58
REMARK Flexibility Score: inf
ROOT
ATOM      1  C   UNL A   1      38.625  23.677  26.444  1.00  0.00     0.023 C 
ENDROOT
BRANCH   1   2
ATOM      2  C   UNL A   1      37.264  23.557  25.758  1.00  0.00     0.116 C 
BRANCH   2   3
ATOM      3  N   UNL A   1      36.339  22.756  26.528  1.00  0.00    -0.354 N 
ATOM      4  C   UNL A   1      35.017  22.500  26.302  1.00  0.00     0.249 C 
ATOM      5  O   UNL A   1      34.426  21.784  27.117  1.00  0.00    -0.272 OA
ATOM      6  H   UNL A   1      36.717  22.335  27.333  1.00  0.00     0.163 HD
BRANCH   4   7
ATOM      7  C   UNL A   1      34.253  23.143  25.121  1.00  0.00     0.207 C 
ATOM      8  C   UNL A   1      32.119  22.857  24.184  1.00  0.00     0.138 C 
ATOM      9  C   UNL A   1      33.073  22.041  23.328  1.00  0.00     0.037 C 
ATOM     10  O   UNL A   1      32.856  23.351  25.309  1.00  0.00    -0.363 OA
ATOM     11  C   UNL A   1      34.457  22.380  23.823  1.00  0.00     0.045 C 
BRANCH   8  12
ATOM     12  C   UNL A   1      31.350  23.963  23.424  1.00  0.00     0.149 C 
BRANCH  12  13
ATOM     13  N   UNL A   1      32.106  24.631  22.381  1.00  0.00    -0.336 N 
ATOM     14  N   UNL A   1      32.914  26.651  23.302  1.00  0.00    -0.335 N 
ATOM     15  C   UNL A   1      32.867  25.729  22.332  1.00  0.00     0.315 C 
ATOM     16  H   UNL A   1      33.634  27.310  23.176  1.00  0.00     0.165 HD
ATOM     17  O   UNL A   1      33.575  25.905  21.339  1.00  0.00    -0.249 OA
ATOM     18  H   UNL A   1      32.043  24.173  21.513  1.00  0.00     0.165 HD
BRANCH  14  19
ATOM     19  C   UNL A   1      32.125  26.882  24.502  1.00  0.00     0.083 C 
BRANCH  19  20
ATOM     20  C   UNL A   1      33.051  27.048  25.714  1.00  0.00     0.021 C 
ATOM     21  C   UNL A   1      32.355  27.671  26.916  1.00  0.00     0.006 C 
ENDBRANCH  19  20
BRANCH  19  22
ATOM     22  C   UNL A   1      31.118  28.028  24.283  1.00  0.00     0.021 C 
ATOM     23  C   UNL A   1      31.440  28.978  23.140  1.00  0.00     0.006 C 
ENDBRANCH  19  22
ENDBRANCH  14  19
ENDBRANCH  12  13
ENDBRANCH   8  12
ENDBRANCH   4   7
ENDBRANCH   2   3
ENDBRANCH   1   2
BRANCH   1  24
ATOM     24  C   UNL A   1      39.243  22.349  26.874  1.00  0.00     0.023 C 
BRANCH  24  25
ATOM     25  C   UNL A   1      39.576  21.398  25.731  1.00  0.00     0.116 C 
BRANCH  25  26
ATOM     26  N   UNL A   1      40.330  20.220  26.144  1.00  0.00    -0.352 N 
ATOM     27  C   UNL A   1      41.617  20.172  26.619  1.00  0.00     0.251 C 
ATOM     28  H   UNL A   1      39.859  19.358  26.075  1.00  0.00     0.163 HD
ATOM     29  O   UNL A   1      42.158  19.099  26.853  1.00  0.00    -0.269 OA
BRANCH  27  30
ATOM     30  C   UNL A   1      42.352  21.442  26.786  1.00  0.00     0.039 A 
ATOM     31  C   UNL A   1      42.608  22.225  25.659  1.00  0.00     0.014 A 
ATOM     32  C   UNL A   1      42.697  21.892  28.063  1.00  0.00     0.014 A 
ATOM     33  C   UNL A   1      43.141  23.503  25.822  1.00  0.00     0.010 A 
ATOM     34  C   UNL A   1      43.161  23.191  28.228  1.00  0.00     0.010 A 
ATOM     35  C   UNL A   1      43.382  24.010  27.110  1.00  0.00    -0.014 A 
BRANCH  35  36
ATOM     36  C   UNL A   1      43.855  25.400  27.314  1.00  0.00     0.031 A 
ATOM     37  C   UNL A   1      45.295  25.746  27.057  1.00  0.00     0.074 A 
ATOM     38  C   UNL A   1      43.013  26.324  27.812  1.00  0.00     0.049 A 
ATOM     39  N   UNL A   1      45.915  26.881  27.250  1.00  0.00    -0.248 NA
ATOM     40  C   UNL A   1      46.154  24.667  26.547  1.00  0.00     0.031 C 
ATOM     41  C   UNL A   1      41.608  26.093  28.162  1.00  0.00     0.029 A 
ATOM     42  N   UNL A   1      43.220  27.643  28.126  1.00  0.00    -0.354 N 
ATOM     43  C   UNL A   1      47.241  26.647  26.906  1.00  0.00     0.074 A 
ATOM     44  C   UNL A   1      47.342  25.251  26.541  1.00  0.00     0.031 C 
ATOM     45  C   UNL A   1      41.078  27.235  28.628  1.00  0.00     0.029 A 
ATOM     46  C   UNL A   1      42.108  28.270  28.635  1.00  0.00     0.049 A 
ATOM     47  H   UNL A   1      44.083  28.099  27.999  1.00  0.00     0.167 HD
ATOM     48  C   UNL A   1      48.277  27.519  26.876  1.00  0.00     0.031 A 
ATOM     49  C   UNL A   1      41.936  29.535  29.065  1.00  0.00     0.031 A 
ATOM     50  C   UNL A   1      48.170  28.908  27.230  1.00  0.00     0.049 A 
ATOM     51  C   UNL A   1      43.087  30.496  28.991  1.00  0.00     0.074 A 
ATOM     52  C   UNL A   1      49.146  29.887  27.186  1.00  0.00     0.029 A 
ATOM     53  N   UNL A   1      47.013  29.517  27.693  1.00  0.00    -0.354 N 
ATOM     54  N   UNL A   1      44.319  30.274  28.601  1.00  0.00    -0.248 NA
ATOM     55  C   UNL A   1      42.822  31.882  29.400  1.00  0.00     0.031 C 
ATOM     56  C   UNL A   1      48.586  31.083  27.650  1.00  0.00     0.029 A 
ATOM     57  C   UNL A   1      47.252  30.857  27.947  1.00  0.00     0.049 A 
ATOM     58  H   UNL A   1      46.149  29.063  27.822  1.00  0.00     0.167 HD
ATOM     59  C   UNL A   1      44.974  31.496  28.701  1.00  0.00     0.074 A 
ATOM     60  C   UNL A   1      43.998  32.456  29.174  1.00  0.00     0.031 C 
ATOM     61  C   UNL A   1      46.267  31.795  28.424  1.00  0.00     0.031 A 
BRANCH  48  62
ATOM     62  C   UNL A   1      49.611  26.973  26.446  1.00  0.00    -0.014 A 
ATOM     63  C   UNL A   1      49.938  26.859  25.083  1.00  0.00     0.010 A 
ATOM     64  C   UNL A   1      50.540  26.549  27.412  1.00  0.00     0.010 A 
ATOM     65  C   UNL A   1      51.143  26.271  24.691  1.00  0.00     0.020 A 
ATOM     66  C   UNL A   1      51.759  25.985  27.024  1.00  0.00     0.020 A 
ATOM     67  C   UNL A   1      52.040  25.824  25.664  1.00  0.00     0.054 A 
BRANCH  67  68
ATOM     68  S   UNL A   1      53.587  25.040  25.133  1.00  0.00     0.124 S 
ATOM     69  O   UNL A   1      53.759  25.598  23.794  1.00  0.00    -0.237 OA
ATOM     70  O   UNL A   1      54.544  25.504  26.134  1.00  0.00    -0.237 OA
ATOM     71  O   UNL A   1      53.282  23.612  25.181  1.00  0.00    -0.744 OA
ENDBRANCH  67  68
ENDBRANCH  48  62
BRANCH  49  72
ATOM     72  C   UNL A   1      40.605  29.960  29.573  1.00  0.00    -0.014 A 
ATOM     73  C   UNL A   1      39.587  30.328  28.678  1.00  0.00     0.010 A 
ATOM     74  C   UNL A   1      40.334  29.945  30.954  1.00  0.00     0.010 A 
ATOM     75  C   UNL A   1      38.318  30.674  29.153  1.00  0.00     0.020 A 
ATOM     76  C   UNL A   1      39.062  30.270  31.431  1.00  0.00     0.020 A 
ATOM     77  C   UNL A   1      38.062  30.637  30.527  1.00  0.00     0.054 A 
BRANCH  77  78
ATOM     78  S   UNL A   1      36.384  31.001  31.117  1.00  0.00     0.124 S 
ATOM     79  O   UNL A   1      35.656  31.181  29.865  1.00  0.00    -0.237 OA
ATOM     80  O   UNL A   1      36.047  29.801  31.878  1.00  0.00    -0.237 OA
ATOM     81  O   UNL A   1      36.562  32.208  31.921  1.00  0.00    -0.744 OA
ENDBRANCH  77  78
ENDBRANCH  49  72
BRANCH  61  82
ATOM     82  C   UNL A   1      46.697  33.223  28.609  1.00  0.00    -0.014 A 
ATOM     83  C   UNL A   1      46.588  34.154  27.561  1.00  0.00     0.010 A 
ATOM     84  C   UNL A   1      47.162  33.652  29.866  1.00  0.00     0.010 A 
ATOM     85  C   UNL A   1      46.959  35.486  27.760  1.00  0.00     0.020 A 
ATOM     86  C   UNL A   1      47.514  34.987  30.074  1.00  0.00     0.020 A 
ATOM     87  C   UNL A   1      47.422  35.894  29.016  1.00  0.00     0.054 A 
BRANCH  87  88
ATOM     88  S   UNL A   1      47.853  37.638  29.266  1.00  0.00     0.124 S 
ATOM     89  O   UNL A   1      47.167  38.283  28.150  1.00  0.00    -0.237 OA
ATOM     90  O   UNL A   1      47.304  37.920  30.590  1.00  0.00    -0.237 OA
ATOM     91  O   UNL A   1      49.313  37.647  29.189  1.00  0.00    -0.744 OA
ENDBRANCH  87  88
ENDBRANCH  61  82
ENDBRANCH  35  36
ENDBRANCH  27  30
ENDBRANCH  25  26
ENDBRANCH  24  25
ENDBRANCH   1  24
TORSDOF 19
ENDMDL
MODEL 3
REMARK VINA RESULT:      -9.9      3.637      9.414
REMARK SMILES CCC(CC)NC(=O)NC[C@H]1CC[C@H](C(=O)NCCCCNC(=O)c2ccc(-c3c4nc(c(-c5ccc(S(=O)(=O)[O-])cc5)c5ccc([nH]5)c(-c5ccc(S(=O)(=O)[O-])cc5)c5nc(c(-c6ccc(S(=O)(=O)[O-])cc6)c6ccc3[nH]6)C=C5)C=C4)cc2)O1
REMARK SMILES IDX 19 1 18 2 17 3 15 4 16 5 14 7 11 8 12 9 85 10 13 11 10 12
REMARK SMILES IDX 9 13 6 14 7 15 8 17 3 19 2 20 1 21 4 22 5 23 20 24 21 25
REMARK SMILES IDX 22 26 23 27 24 29 25 30 26 31 84 32 27 33 83 34 28 35 29 36
REMARK SMILES IDX 30 37 77 38 31 39 82 40 76 41 78 42 32 43 81 44 75 45 74 46
REMARK SMILES IDX 33 48 63 49 44 50 62 51 45 52 48 53 61 54 79 55 46 56 47 57
REMARK SMILES IDX 60 59 80 60 49 61 34 62 35 63 43 64 36 65 42 66 37 67 38 68
REMARK SMILES IDX 39 69 40 70 41 71 64 72 65 73 73 74 66 75 72 76 67 77 68 78
REMARK SMILES IDX 69 79 70 80 71 81 50 82 51 83 59 84 52 85 58 86 53 87 54 88
REMARK SMILES IDX 55 89 56 90 57 91
REMARK H PARENT 17 6 6 16 9 18 22 28 78 47 48 58
REMARK Flexibility Score: inf
ROOT
ATOM      1  C   UNL A   1      32.077  28.154  26.981  1.00  0.00     0.023 C 
ENDROOT
BRANCH   1   2
ATOM      2  C   UNL A   1      31.014  27.305  26.285  1.00  0.00     0.116 C 
BRANCH   2   3
ATOM      3  N   UNL A   1      30.801  27.721  24.916  1.00  0.00    -0.354 N 
ATOM      4  C   UNL A   1      31.042  27.044  23.756  1.00  0.00     0.249 C 
ATOM      5  O   UNL A   1      30.784  27.619  22.693  1.00  0.00    -0.272 OA
ATOM      6  H   UNL A   1      30.427  28.625  24.805  1.00  0.00     0.163 HD
BRANCH   4   7
ATOM      7  C   UNL A   1      31.695  25.641  23.752  1.00  0.00     0.207 C 
ATOM      8  C   UNL A   1      33.805  24.803  23.151  1.00  0.00     0.138 C 
ATOM      9  C   UNL A   1      32.893  24.555  21.961  1.00  0.00     0.037 C 
ATOM     10  O   UNL A   1      33.074  25.584  24.105  1.00  0.00    -0.363 OA
ATOM     11  C   UNL A   1      31.506  24.925  22.426  1.00  0.00     0.045 C 
BRANCH   8  12
ATOM     12  C   UNL A   1      34.438  23.531  23.759  1.00  0.00     0.149 C 
BRANCH  12  13
ATOM     13  N   UNL A   1      33.713  22.300  23.503  1.00  0.00    -0.336 N 
ATOM     14  N   UNL A   1      32.175  22.023  25.274  1.00  0.00    -0.335 N 
ATOM     15  C   UNL A   1      32.674  21.687  24.078  1.00  0.00     0.315 C 
ATOM     16  H   UNL A   1      31.322  21.576  25.479  1.00  0.00     0.165 HD
ATOM     17  O   UNL A   1      32.135  20.758  23.472  1.00  0.00    -0.249 OA
ATOM     18  H   UNL A   1      34.066  21.805  22.729  1.00  0.00     0.165 HD
BRANCH  14  19
ATOM     19  C   UNL A   1      32.628  22.912  26.334  1.00  0.00     0.083 C 
BRANCH  19  20
ATOM     20  C   UNL A   1      31.456  23.761  26.842  1.00  0.00     0.021 C 
ATOM     21  C   UNL A   1      30.137  23.003  26.868  1.00  0.00     0.006 C 
ENDBRANCH  19  20
BRANCH  19  22
ATOM     22  C   UNL A   1      33.389  22.125  27.419  1.00  0.00     0.021 C 
ATOM     23  C   UNL A   1      34.768  21.623  27.022  1.00  0.00     0.006 C 
ENDBRANCH  19  22
ENDBRANCH  14  19
ENDBRANCH  12  13
ENDBRANCH   8  12
ENDBRANCH   4   7
ENDBRANCH   2   3
ENDBRANCH   1   2
BRANCH   1  24
ATOM     24  C   UNL A   1      33.488  28.000  26.418  1.00  0.00     0.023 C 
BRANCH  24  25
ATOM     25  C   UNL A   1      34.121  29.292  25.917  1.00  0.00     0.116 C 
BRANCH  25  26
ATOM     26  N   UNL A   1      33.602  30.492  26.564  1.00  0.00    -0.352 N 
ATOM     27  C   UNL A   1      34.174  31.208  27.587  1.00  0.00     0.251 C 
ATOM     28  H   UNL A   1      32.740  30.829  26.226  1.00  0.00     0.163 HD
ATOM     29  O   UNL A   1      33.586  32.154  28.093  1.00  0.00    -0.269 OA
BRANCH  27  30
ATOM     30  C   UNL A   1      35.488  30.771  28.099  1.00  0.00     0.039 A 
ATOM     31  C   UNL A   1      36.603  31.578  27.869  1.00  0.00     0.014 A 
ATOM     32  C   UNL A   1      35.589  29.618  28.883  1.00  0.00     0.014 A 
ATOM     33  C   UNL A   1      37.811  31.270  28.494  1.00  0.00     0.010 A 
ATOM     34  C   UNL A   1      36.773  29.354  29.560  1.00  0.00     0.010 A 
ATOM     35  C   UNL A   1      37.893  30.180  29.376  1.00  0.00    -0.014 A 
BRANCH  35  36
ATOM     36  C   UNL A   1      39.137  29.890  30.129  1.00  0.00     0.031 A 
ATOM     37  C   UNL A   1      40.041  28.777  29.680  1.00  0.00     0.074 A 
ATOM     38  C   UNL A   1      39.403  30.568  31.261  1.00  0.00     0.049 A 
ATOM     39  N   UNL A   1      41.127  28.320  30.246  1.00  0.00    -0.248 NA
ATOM     40  C   UNL A   1      39.654  28.065  28.453  1.00  0.00     0.031 C 
ATOM     41  C   UNL A   1      38.569  31.627  31.833  1.00  0.00     0.029 A 
ATOM     42  N   UNL A   1      40.449  30.455  32.142  1.00  0.00    -0.354 N 
ATOM     43  C   UNL A   1      41.543  27.256  29.457  1.00  0.00     0.074 A 
ATOM     44  C   UNL A   1      40.564  27.104  28.402  1.00  0.00     0.031 C 
ATOM     45  C   UNL A   1      39.142  32.077  32.962  1.00  0.00     0.029 A 
ATOM     46  C   UNL A   1      40.368  31.321  33.207  1.00  0.00     0.049 A 
ATOM     47  H   UNL A   1      41.187  29.815  32.025  1.00  0.00     0.167 HD
ATOM     48  C   UNL A   1      42.650  26.485  29.584  1.00  0.00     0.031 A 
ATOM     49  C   UNL A   1      41.185  31.487  34.264  1.00  0.00     0.031 A 
ATOM     50  C   UNL A   1      43.626  26.645  30.627  1.00  0.00     0.049 A 
ATOM     51  C   UNL A   1      42.426  30.647  34.369  1.00  0.00     0.074 A 
ATOM     52  C   UNL A   1      44.807  25.951  30.817  1.00  0.00     0.029 A 
ATOM     53  N   UNL A   1      43.534  27.568  31.658  1.00  0.00    -0.354 N 
ATOM     54  N   UNL A   1      42.837  29.687  33.577  1.00  0.00    -0.248 NA
ATOM     55  C   UNL A   1      43.320  30.924  35.502  1.00  0.00     0.031 C 
ATOM     56  C   UNL A   1      45.416  26.435  31.981  1.00  0.00     0.029 A 
ATOM     57  C   UNL A   1      44.632  27.457  32.493  1.00  0.00     0.049 A 
ATOM     58  H   UNL A   1      42.795  28.209  31.779  1.00  0.00     0.167 HD
ATOM     59  C   UNL A   1      44.048  29.254  34.104  1.00  0.00     0.074 A 
ATOM     60  C   UNL A   1      44.309  30.067  35.275  1.00  0.00     0.031 C 
ATOM     61  C   UNL A   1      44.870  28.272  33.658  1.00  0.00     0.031 A 
BRANCH  48  62
ATOM     62  C   UNL A   1      42.843  25.401  28.560  1.00  0.00    -0.014 A 
ATOM     63  C   UNL A   1      42.293  24.120  28.753  1.00  0.00     0.010 A 
ATOM     64  C   UNL A   1      43.599  25.654  27.402  1.00  0.00     0.010 A 
ATOM     65  C   UNL A   1      42.550  23.095  27.840  1.00  0.00     0.020 A 
ATOM     66  C   UNL A   1      43.836  24.638  26.472  1.00  0.00     0.020 A 
ATOM     67  C   UNL A   1      43.332  23.357  26.712  1.00  0.00     0.054 A 
BRANCH  67  68
ATOM     68  S   UNL A   1      43.675  22.004  25.553  1.00  0.00     0.124 S 
ATOM     69  O   UNL A   1      45.089  21.743  25.810  1.00  0.00    -0.237 OA
ATOM     70  O   UNL A   1      42.754  20.960  25.994  1.00  0.00    -0.237 OA
ATOM     71  O   UNL A   1      43.374  22.586  24.248  1.00  0.00    -0.744 OA
ENDBRANCH  67  68
ENDBRANCH  48  62
BRANCH  49  72
ATOM     72  C   UNL A   1      40.859  32.516  35.287  1.00  0.00    -0.014 A 
ATOM     73  C   UNL A   1      40.097  32.177  36.417  1.00  0.00     0.010 A 
ATOM     74  C   UNL A   1      41.356  33.826  35.161  1.00  0.00     0.010 A 
ATOM     75  C   UNL A   1      39.837  33.130  37.406  1.00  0.00     0.020 A 
ATOM     76  C   UNL A   1      41.116  34.775  36.157  1.00  0.00     0.020 A 
ATOM     77  C   UNL A   1      40.353  34.422  37.272  1.00  0.00     0.054 A 
BRANCH  77  78
ATOM     78  S   UNL A   1      40.082  35.618  38.611  1.00  0.00     0.124 S 
ATOM     79  O   UNL A   1      39.039  34.964  39.395  1.00  0.00    -0.237 OA
ATOM     80  O   UNL A   1      41.396  35.692  39.243  1.00  0.00    -0.237 OA
ATOM     81  O   UNL A   1      39.671  36.829  37.905  1.00  0.00    -0.744 OA
ENDBRANCH  77  78
ENDBRANCH  49  72
BRANCH  61  82
ATOM     82  C   UNL A   1      46.139  28.034  34.428  1.00  0.00    -0.014 A 
ATOM     83  C   UNL A   1      47.305  28.768  34.147  1.00  0.00     0.010 A 
ATOM     84  C   UNL A   1      46.146  27.107  35.486  1.00  0.00     0.010 A 
ATOM     85  C   UNL A   1      48.466  28.560  34.895  1.00  0.00     0.020 A 
ATOM     86  C   UNL A   1      47.299  26.911  36.249  1.00  0.00     0.020 A 
ATOM     87  C   UNL A   1      48.456  27.631  35.940  1.00  0.00     0.054 A 
BRANCH  87  88
ATOM     88  S   UNL A   1      49.960  27.411  36.930  1.00  0.00     0.124 S 
ATOM     89  O   UNL A   1      49.595  26.293  37.795  1.00  0.00    -0.237 OA
ATOM     90  O   UNL A   1      50.974  27.119  35.920  1.00  0.00    -0.237 OA
ATOM     91  O   UNL A   1      50.118  28.698  37.607  1.00  0.00    -0.744 OA
ENDBRANCH  87  88
ENDBRANCH  61  82
ENDBRANCH  35  36
ENDBRANCH  27  30
ENDBRANCH  25  26
ENDBRANCH  24  25
ENDBRANCH   1  24
TORSDOF 19
ENDMDL
