MODEL 1
REMARK VINA RESULT:     -12.8      0.000      0.000
REMARK SMILES C[C@H]1CC[C@H]([NH2+]Cc2c(C(=O)NCCCCNC(=O)c3ccc(-c4c5nc(c(-c6ccc(S(=O)(=O)[O-])cc6)c6ccc([nH]6)c(-c6ccc(S(=O)(=O)[O-])cc6)c6nc(c(-c7ccc(S(=O)(=O)[O-])cc7)c7ccc4[nH]7)C=C6)C=C5)cc3)n(Cc3ccccc3F)c3ccccc23)CC1
REMARK SMILES IDX 14 1 13 2 12 3 10 4 11 5 9 7 8 8 94 9 80 10 89 11 93 12
REMARK SMILES IDX 90 13 92 14 91 15 7 16 6 17 5 20 1 21 2 22 3 23 96 24 4 25
REMARK SMILES IDX 95 26 81 27 82 28 83 29 87 30 84 31 86 32 88 33 85 34 15 35
REMARK SMILES IDX 16 36 17 37 18 38 19 40 20 41 21 42 79 43 22 44 78 45 23 46
REMARK SMILES IDX 24 47 25 48 72 49 26 50 77 51 71 52 73 53 27 54 76 55 70 56
REMARK SMILES IDX 69 57 28 59 58 60 39 61 57 62 40 63 43 64 56 65 74 66 41 67
REMARK SMILES IDX 42 68 55 70 75 71 44 72 29 73 30 74 38 75 31 76 37 77 32 78
REMARK SMILES IDX 33 79 34 80 35 81 36 82 59 83 60 84 68 85 61 86 67 87 62 88
REMARK SMILES IDX 63 89 64 90 65 91 66 92 45 93 46 94 54 95 47 96 53 97 48 98
REMARK SMILES IDX 49 99 50 100 51 101 52 102
REMARK H PARENT 12 6 6 18 6 19 17 39 73 58 43 69
REMARK Flexibility Score: inf
ROOT
ATOM      1  C   UNL A   1      33.898  28.287  25.189  1.00  0.00     0.023 C 
ENDROOT
BRANCH   1   2
ATOM      2  C   UNL A   1      33.616  26.851  24.765  1.00  0.00     0.116 C 
BRANCH   2   3
ATOM      3  N   UNL A   1      33.698  26.519  23.368  1.00  0.00    -0.351 N 
ATOM      4  C   UNL A   1      33.854  25.283  22.772  1.00  0.00     0.268 C 
ATOM      5  O   UNL A   1      33.753  25.302  21.538  1.00  0.00    -0.268 OA
ATOM      6  H   UNL A   1      33.633  27.282  22.748  1.00  0.00     0.163 HD
BRANCH   4   7
ATOM      7  C   UNL A   1      34.178  24.044  23.504  1.00  0.00     0.117 A 
ATOM      8  C   UNL A   1      35.232  23.666  24.362  1.00  0.00     0.045 A 
ATOM      9  C   UNL A   1      35.228  22.233  24.378  1.00  0.00     0.009 A 
ATOM     10  N   UNL A   1      33.274  22.953  23.615  1.00  0.00    -0.331 N 
ATOM     11  C   UNL A   1      33.916  21.849  24.165  1.00  0.00     0.049 A 
ATOM     12  C   UNL A   1      36.183  21.257  24.734  1.00  0.00     0.011 A 
ATOM     13  C   UNL A   1      33.482  20.557  24.512  1.00  0.00     0.027 A 
ATOM     14  C   UNL A   1      35.789  19.929  24.898  1.00  0.00     0.001 A 
ATOM     15  C   UNL A   1      34.443  19.596  24.837  1.00  0.00     0.002 A 
BRANCH   8  16
ATOM     16  C   UNL A   1      36.269  24.381  25.183  1.00  0.00     0.300 C 
BRANCH  16  17
ATOM     17  N   UNL A   1      37.531  23.708  25.418  1.00  0.00    -0.340 N 
ATOM     18  H   UNL A   1      37.334  22.713  25.319  1.00  0.00     0.346 HD
ATOM     19  H   UNL A   1      38.133  24.198  24.755  1.00  0.00     0.346 HD
BRANCH  17  20
ATOM     20  C   UNL A   1      38.321  23.833  26.641  1.00  0.00     0.182 C 
ATOM     21  C   UNL A   1      42.222  24.154  28.719  1.00  0.00     0.007 C 
ATOM     22  C   UNL A   1      41.100  24.139  27.691  1.00  0.00    -0.014 C 
ATOM     23  C   UNL A   1      40.000  25.147  28.039  1.00  0.00     0.009 C 
ATOM     24  C   UNL A   1      40.481  22.747  27.568  1.00  0.00     0.009 C 
ATOM     25  C   UNL A   1      38.966  25.191  26.919  1.00  0.00     0.065 C 
ATOM     26  C   UNL A   1      39.406  22.741  26.492  1.00  0.00     0.065 C 
ENDBRANCH  17  20
ENDBRANCH  16  17
ENDBRANCH   8  16
BRANCH  10  27
ATOM     27  C   UNL A   1      31.827  22.959  23.334  1.00  0.00     0.161 C 
BRANCH  27  28
ATOM     28  C   UNL A   1      31.045  24.061  24.011  1.00  0.00     0.008 A 
ATOM     29  C   UNL A   1      30.291  25.008  23.295  1.00  0.00     0.008 A 
ATOM     30  C   UNL A   1      30.976  24.126  25.404  1.00  0.00     0.128 A 
ATOM     31  C   UNL A   1      29.546  25.999  23.939  1.00  0.00     0.001 A 
ATOM     32  C   UNL A   1      30.247  25.121  26.059  1.00  0.00     0.039 A 
ATOM     33  F   UNL A   1      31.576  23.191  26.153  1.00  0.00    -0.207 F 
ATOM     34  C   UNL A   1      29.536  26.066  25.326  1.00  0.00     0.003 A 
ENDBRANCH  27  28
ENDBRANCH  10  27
ENDBRANCH   4   7
ENDBRANCH   2   3
ENDBRANCH   1   2
BRANCH   1  35
ATOM     35  C   UNL A   1      32.927  28.911  26.211  1.00  0.00     0.023 C 
BRANCH  35  36
ATOM     36  C   UNL A   1      33.459  29.246  27.614  1.00  0.00     0.116 C 
BRANCH  36  37
ATOM     37  N   UNL A   1      33.757  30.633  27.924  1.00  0.00    -0.352 N 
ATOM     38  C   UNL A   1      34.950  31.318  27.897  1.00  0.00     0.251 C 
ATOM     39  H   UNL A   1      32.980  31.170  28.198  1.00  0.00     0.163 HD
ATOM     40  O   UNL A   1      34.928  32.512  27.596  1.00  0.00    -0.269 OA
BRANCH  38  41
ATOM     41  C   UNL A   1      36.205  30.715  28.406  1.00  0.00     0.039 A 
ATOM     42  C   UNL A   1      37.187  31.429  29.086  1.00  0.00     0.014 A 
ATOM     43  C   UNL A   1      36.457  29.384  28.028  1.00  0.00     0.014 A 
ATOM     44  C   UNL A   1      38.464  30.915  29.185  1.00  0.00     0.010 A 
ATOM     45  C   UNL A   1      37.728  28.842  28.174  1.00  0.00     0.010 A 
ATOM     46  C   UNL A   1      38.746  29.643  28.680  1.00  0.00    -0.014 A 
BRANCH  46  47
ATOM     47  C   UNL A   1      40.124  29.193  28.809  1.00  0.00     0.031 A 
ATOM     48  C   UNL A   1      40.546  28.902  30.208  1.00  0.00     0.074 A 
ATOM     49  C   UNL A   1      40.949  29.002  27.765  1.00  0.00     0.049 A 
ATOM     50  N   UNL A   1      41.477  29.469  30.904  1.00  0.00    -0.248 NA
ATOM     51  C   UNL A   1      39.725  27.944  30.963  1.00  0.00     0.031 C 
ATOM     52  C   UNL A   1      40.615  28.956  26.339  1.00  0.00     0.029 A 
ATOM     53  N   UNL A   1      42.273  28.686  27.783  1.00  0.00    -0.354 N 
ATOM     54  C   UNL A   1      41.474  28.827  32.141  1.00  0.00     0.074 A 
ATOM     55  C   UNL A   1      40.292  28.004  32.167  1.00  0.00     0.031 C 
ATOM     56  C   UNL A   1      41.637  28.377  25.669  1.00  0.00     0.029 A 
ATOM     57  C   UNL A   1      42.741  28.157  26.589  1.00  0.00     0.049 A 
ATOM     58  H   UNL A   1      42.846  28.820  28.572  1.00  0.00     0.167 HD
ATOM     59  C   UNL A   1      42.531  28.880  32.999  1.00  0.00     0.031 A 
ATOM     60  C   UNL A   1      43.909  27.489  26.416  1.00  0.00     0.031 A 
ATOM     61  C   UNL A   1      43.415  29.971  32.695  1.00  0.00     0.049 A 
ATOM     62  C   UNL A   1      44.793  27.831  27.558  1.00  0.00     0.074 A 
ATOM     63  C   UNL A   1      43.282  31.345  32.676  1.00  0.00     0.029 A 
ATOM     64  N   UNL A   1      44.565  29.689  31.998  1.00  0.00    -0.354 N 
ATOM     65  N   UNL A   1      45.311  29.010  27.756  1.00  0.00    -0.248 NA
ATOM     66  C   UNL A   1      44.780  26.950  28.717  1.00  0.00     0.031 C 
ATOM     67  C   UNL A   1      44.077  31.775  31.578  1.00  0.00     0.029 A 
ATOM     68  C   UNL A   1      44.696  30.649  31.029  1.00  0.00     0.049 A 
ATOM     69  H   UNL A   1      45.180  28.939  32.164  1.00  0.00     0.167 HD
ATOM     70  C   UNL A   1      45.310  29.172  29.133  1.00  0.00     0.074 A 
ATOM     71  C   UNL A   1      45.058  27.838  29.673  1.00  0.00     0.031 C 
ATOM     72  C   UNL A   1      45.242  30.409  29.708  1.00  0.00     0.031 A 
BRANCH  59  73
ATOM     73  C   UNL A   1      42.918  27.751  33.923  1.00  0.00    -0.014 A 
ATOM     74  C   UNL A   1      43.371  26.499  33.459  1.00  0.00     0.010 A 
ATOM     75  C   UNL A   1      43.074  28.010  35.301  1.00  0.00     0.010 A 
ATOM     76  C   UNL A   1      43.940  25.551  34.311  1.00  0.00     0.020 A 
ATOM     77  C   UNL A   1      43.688  27.084  36.157  1.00  0.00     0.020 A 
ATOM     78  C   UNL A   1      44.112  25.857  35.655  1.00  0.00     0.054 A 
BRANCH  78  79
ATOM     79  S   UNL A   1      44.978  24.652  36.687  1.00  0.00     0.124 S 
ATOM     80  O   UNL A   1      44.460  24.975  38.019  1.00  0.00    -0.237 OA
ATOM     81  O   UNL A   1      44.548  23.387  36.131  1.00  0.00    -0.237 OA
ATOM     82  O   UNL A   1      46.394  24.983  36.479  1.00  0.00    -0.744 OA
ENDBRANCH  78  79
ENDBRANCH  59  73
BRANCH  60  83
ATOM     83  C   UNL A   1      44.119  26.251  25.619  1.00  0.00    -0.014 A 
ATOM     84  C   UNL A   1      43.032  25.408  25.316  1.00  0.00     0.010 A 
ATOM     85  C   UNL A   1      45.420  25.733  25.462  1.00  0.00     0.010 A 
ATOM     86  C   UNL A   1      43.228  24.067  24.975  1.00  0.00     0.020 A 
ATOM     87  C   UNL A   1      45.623  24.385  25.129  1.00  0.00     0.020 A 
ATOM     88  C   UNL A   1      44.522  23.551  24.933  1.00  0.00     0.054 A 
BRANCH  88  89
ATOM     89  S   UNL A   1      44.722  21.756  24.743  1.00  0.00     0.124 S 
ATOM     90  O   UNL A   1      43.589  21.245  25.510  1.00  0.00    -0.237 OA
ATOM     91  O   UNL A   1      44.628  21.581  23.296  1.00  0.00    -0.237 OA
ATOM     92  O   UNL A   1      46.038  21.491  25.317  1.00  0.00    -0.744 OA
ENDBRANCH  88  89
ENDBRANCH  60  83
BRANCH  72  93
ATOM     93  C   UNL A   1      45.476  31.641  28.860  1.00  0.00    -0.014 A 
ATOM     94  C   UNL A   1      44.406  32.074  28.054  1.00  0.00     0.010 A 
ATOM     95  C   UNL A   1      46.739  32.237  28.674  1.00  0.00     0.010 A 
ATOM     96  C   UNL A   1      44.594  33.036  27.062  1.00  0.00     0.020 A 
ATOM     97  C   UNL A   1      46.927  33.227  27.697  1.00  0.00     0.020 A 
ATOM     98  C   UNL A   1      45.859  33.598  26.878  1.00  0.00     0.054 A 
BRANCH  98  99
ATOM     99  S   UNL A   1      46.073  34.794  25.533  1.00  0.00     0.124 S 
ATOM    100  O   UNL A   1      45.666  36.047  26.165  1.00  0.00    -0.237 OA
ATOM    101  O   UNL A   1      47.499  34.686  25.228  1.00  0.00    -0.237 OA
ATOM    102  O   UNL A   1      45.181  34.311  24.483  1.00  0.00    -0.744 OA
ENDBRANCH  98  99
ENDBRANCH  72  93
ENDBRANCH  46  47
ENDBRANCH  38  41
ENDBRANCH  36  37
ENDBRANCH  35  36
ENDBRANCH   1  35
TORSDOF 19
ENDMDL
MODEL 2
REMARK VINA RESULT:     -12.5      2.642      9.077
REMARK SMILES C[C@H]1CC[C@H]([NH2+]Cc2c(C(=O)NCCCCNC(=O)c3ccc(-c4c5nc(c(-c6ccc(S(=O)(=O)[O-])cc6)c6ccc([nH]6)c(-c6ccc(S(=O)(=O)[O-])cc6)c6nc(c(-c7ccc(S(=O)(=O)[O-])cc7)c7ccc4[nH]7)C=C6)C=C5)cc3)n(Cc3ccccc3F)c3ccccc23)CC1
REMARK SMILES IDX 14 1 13 2 12 3 10 4 11 5 9 7 8 8 94 9 80 10 89 11 93 12
REMARK SMILES IDX 90 13 92 14 91 15 7 16 6 17 5 20 1 21 2 22 3 23 96 24 4 25
REMARK SMILES IDX 95 26 81 27 82 28 83 29 87 30 84 31 86 32 88 33 85 34 15 35
REMARK SMILES IDX 16 36 17 37 18 38 19 40 20 41 21 42 79 43 22 44 78 45 23 46
REMARK SMILES IDX 24 47 25 48 72 49 26 50 77 51 71 52 73 53 27 54 76 55 70 56
REMARK SMILES IDX 69 57 28 59 58 60 39 61 57 62 40 63 43 64 56 65 74 66 41 67
REMARK SMILES IDX 42 68 55 70 75 71 44 72 29 73 30 74 38 75 31 76 37 77 32 78
REMARK SMILES IDX 33 79 34 80 35 81 36 82 59 83 60 84 68 85 61 86 67 87 62 88
REMARK SMILES IDX 63 89 64 90 65 91 66 92 45 93 46 94 54 95 47 96 53 97 48 98
REMARK SMILES IDX 49 99 50 100 51 101 52 102
REMARK H PARENT 12 6 6 18 6 19 17 39 73 58 43 69
REMARK Flexibility Score: inf
ROOT
ATOM      1  C   UNL A   1      38.362  21.244  25.393  1.00  0.00     0.023 C 
ENDROOT
BRANCH   1   2
ATOM      2  C   UNL A   1      36.881  21.491  25.134  1.00  0.00     0.116 C 
BRANCH   2   3
ATOM      3  N   UNL A   1      36.020  21.742  26.259  1.00  0.00    -0.351 N 
ATOM      4  C   UNL A   1      34.758  22.301  26.283  1.00  0.00     0.268 C 
ATOM      5  O   UNL A   1      34.211  22.263  27.393  1.00  0.00    -0.268 OA
ATOM      6  H   UNL A   1      36.382  21.478  27.136  1.00  0.00     0.163 HD
BRANCH   4   7
ATOM      7  C   UNL A   1      34.116  22.953  25.126  1.00  0.00     0.117 A 
ATOM      8  C   UNL A   1      33.214  22.510  24.134  1.00  0.00     0.045 A 
ATOM      9  C   UNL A   1      33.326  23.449  23.058  1.00  0.00     0.009 A 
ATOM     10  N   UNL A   1      34.173  24.354  24.897  1.00  0.00    -0.331 N 
ATOM     11  C   UNL A   1      33.675  24.657  23.635  1.00  0.00     0.049 A 
ATOM     12  C   UNL A   1      32.985  23.412  21.689  1.00  0.00     0.011 A 
ATOM     13  C   UNL A   1      33.478  25.866  22.942  1.00  0.00     0.027 A 
ATOM     14  C   UNL A   1      32.970  24.592  20.946  1.00  0.00     0.001 A 
ATOM     15  C   UNL A   1      33.166  25.811  21.581  1.00  0.00     0.002 A 
BRANCH   8  16
ATOM     16  C   UNL A   1      32.255  21.363  23.978  1.00  0.00     0.300 C 
BRANCH  16  17
ATOM     17  N   UNL A   1      32.287  20.311  24.974  1.00  0.00    -0.340 N 
ATOM     18  H   UNL A   1      32.922  20.640  25.701  1.00  0.00     0.346 HD
ATOM     19  H   UNL A   1      31.290  20.191  25.155  1.00  0.00     0.346 HD
BRANCH  17  20
ATOM     20  C   UNL A   1      32.680  18.929  24.706  1.00  0.00     0.182 C 
ATOM     21  C   UNL A   1      35.449  15.512  25.251  1.00  0.00     0.007 C 
ATOM     22  C   UNL A   1      34.687  16.822  25.381  1.00  0.00    -0.014 C 
ATOM     23  C   UNL A   1      33.186  16.588  25.578  1.00  0.00     0.009 C 
ATOM     24  C   UNL A   1      34.896  17.709  24.155  1.00  0.00     0.009 C 
ATOM     25  C   UNL A   1      32.483  17.917  25.835  1.00  0.00     0.065 C 
ATOM     26  C   UNL A   1      34.177  19.037  24.334  1.00  0.00     0.065 C 
ENDBRANCH  17  20
ENDBRANCH  16  17
ENDBRANCH   8  16
BRANCH  10  27
ATOM     27  C   UNL A   1      34.565  25.401  25.858  1.00  0.00     0.161 C 
BRANCH  27  28
ATOM     28  C   UNL A   1      33.548  26.500  26.062  1.00  0.00     0.008 A 
ATOM     29  C   UNL A   1      33.826  27.852  25.795  1.00  0.00     0.008 A 
ATOM     30  C   UNL A   1      32.243  26.191  26.452  1.00  0.00     0.128 A 
ATOM     31  C   UNL A   1      32.862  28.850  25.957  1.00  0.00     0.001 A 
ATOM     32  C   UNL A   1      31.275  27.182  26.632  1.00  0.00     0.039 A 
ATOM     33  F   UNL A   1      31.872  24.915  26.617  1.00  0.00    -0.207 F 
ATOM     34  C   UNL A   1      31.586  28.518  26.392  1.00  0.00     0.003 A 
ENDBRANCH  27  28
ENDBRANCH  10  27
ENDBRANCH   4   7
ENDBRANCH   2   3
ENDBRANCH   1   2
BRANCH   1  35
ATOM     35  C   UNL A   1      39.089  22.268  26.287  1.00  0.00     0.023 C 
BRANCH  35  36
ATOM     36  C   UNL A   1      40.596  22.084  26.531  1.00  0.00     0.116 C 
BRANCH  36  37
ATOM     37  N   UNL A   1      41.509  22.355  25.436  1.00  0.00    -0.352 N 
ATOM     38  C   UNL A   1      42.604  23.186  25.370  1.00  0.00     0.251 C 
ATOM     39  H   UNL A   1      41.314  21.865  24.605  1.00  0.00     0.163 HD
ATOM     40  O   UNL A   1      43.546  22.850  24.652  1.00  0.00    -0.269 OA
BRANCH  38  41
ATOM     41  C   UNL A   1      42.588  24.542  25.970  1.00  0.00     0.039 A 
ATOM     42  C   UNL A   1      43.233  24.870  27.159  1.00  0.00     0.014 A 
ATOM     43  C   UNL A   1      41.737  25.483  25.364  1.00  0.00     0.014 A 
ATOM     44  C   UNL A   1      42.867  26.010  27.846  1.00  0.00     0.010 A 
ATOM     45  C   UNL A   1      41.406  26.658  26.027  1.00  0.00     0.010 A 
ATOM     46  C   UNL A   1      41.914  26.875  27.304  1.00  0.00    -0.014 A 
BRANCH  46  47
ATOM     47  C   UNL A   1      41.573  28.039  28.109  1.00  0.00     0.031 A 
ATOM     48  C   UNL A   1      42.588  29.129  28.070  1.00  0.00     0.074 A 
ATOM     49  C   UNL A   1      40.425  28.163  28.798  1.00  0.00     0.049 A 
ATOM     50  N   UNL A   1      43.284  29.619  29.044  1.00  0.00    -0.248 NA
ATOM     51  C   UNL A   1      42.964  29.639  26.743  1.00  0.00     0.031 C 
ATOM     52  C   UNL A   1      39.220  27.336  28.710  1.00  0.00     0.029 A 
ATOM     53  N   UNL A   1      40.059  29.154  29.655  1.00  0.00    -0.354 N 
ATOM     54  C   UNL A   1      44.075  30.619  28.483  1.00  0.00     0.074 A 
ATOM     55  C   UNL A   1      43.940  30.489  27.055  1.00  0.00     0.031 C 
ATOM     56  C   UNL A   1      38.188  28.005  29.271  1.00  0.00     0.029 A 
ATOM     57  C   UNL A   1      38.692  29.225  29.883  1.00  0.00     0.049 A 
ATOM     58  H   UNL A   1      40.705  29.767  30.076  1.00  0.00     0.167 HD
ATOM     59  C   UNL A   1      44.658  31.600  29.228  1.00  0.00     0.031 A 
ATOM     60  C   UNL A   1      38.029  30.271  30.435  1.00  0.00     0.031 A 
ATOM     61  C   UNL A   1      44.724  31.249  30.620  1.00  0.00     0.049 A 
ATOM     62  C   UNL A   1      39.021  31.091  31.174  1.00  0.00     0.074 A 
ATOM     63  C   UNL A   1      45.352  30.247  31.334  1.00  0.00     0.029 A 
ATOM     64  N   UNL A   1      43.781  31.784  31.463  1.00  0.00    -0.354 N 
ATOM     65  N   UNL A   1      39.633  30.700  32.256  1.00  0.00    -0.248 NA
ATOM     66  C   UNL A   1      39.638  32.207  30.475  1.00  0.00     0.031 C 
ATOM     67  C   UNL A   1      44.443  29.915  32.376  1.00  0.00     0.029 A 
ATOM     68  C   UNL A   1      43.344  30.771  32.275  1.00  0.00     0.049 A 
ATOM     69  H   UNL A   1      43.476  32.720  31.480  1.00  0.00     0.167 HD
ATOM     70  C   UNL A   1      40.909  31.231  32.155  1.00  0.00     0.074 A 
ATOM     71  C   UNL A   1      40.824  32.223  31.086  1.00  0.00     0.031 C 
ATOM     72  C   UNL A   1      41.982  30.635  32.754  1.00  0.00     0.031 A 
BRANCH  59  73
ATOM     73  C   UNL A   1      44.885  33.007  28.732  1.00  0.00    -0.014 A 
ATOM     74  C   UNL A   1      43.833  33.895  28.427  1.00  0.00     0.010 A 
ATOM     75  C   UNL A   1      46.181  33.561  28.798  1.00  0.00     0.010 A 
ATOM     76  C   UNL A   1      44.049  35.252  28.191  1.00  0.00     0.020 A 
ATOM     77  C   UNL A   1      46.404  34.933  28.611  1.00  0.00     0.020 A 
ATOM     78  C   UNL A   1      45.334  35.769  28.304  1.00  0.00     0.054 A 
BRANCH  78  79
ATOM     79  S   UNL A   1      45.541  37.556  28.126  1.00  0.00     0.124 S 
ATOM     80  O   UNL A   1      45.828  37.960  29.505  1.00  0.00    -0.237 OA
ATOM     81  O   UNL A   1      46.642  37.660  27.194  1.00  0.00    -0.237 OA
ATOM     82  O   UNL A   1      44.237  37.998  27.613  1.00  0.00    -0.744 OA
ENDBRANCH  78  79
ENDBRANCH  59  73
BRANCH  60  83
ATOM     83  C   UNL A   1      36.735  30.847  29.980  1.00  0.00    -0.014 A 
ATOM     84  C   UNL A   1      36.502  31.074  28.609  1.00  0.00     0.010 A 
ATOM     85  C   UNL A   1      35.889  31.485  30.908  1.00  0.00     0.010 A 
ATOM     86  C   UNL A   1      35.534  31.987  28.181  1.00  0.00     0.020 A 
ATOM     87  C   UNL A   1      34.921  32.408  30.485  1.00  0.00     0.020 A 
ATOM     88  C   UNL A   1      34.783  32.685  29.125  1.00  0.00     0.054 A 
BRANCH  88  89
ATOM     89  S   UNL A   1      33.725  34.041  28.542  1.00  0.00     0.124 S 
ATOM     90  O   UNL A   1      33.181  34.558  29.795  1.00  0.00    -0.237 OA
ATOM     91  O   UNL A   1      34.680  34.916  27.866  1.00  0.00    -0.237 OA
ATOM     92  O   UNL A   1      32.762  33.378  27.667  1.00  0.00    -0.744 OA
ENDBRANCH  88  89
ENDBRANCH  60  83
BRANCH  72  93
ATOM     93  C   UNL A   1      41.756  29.557  33.792  1.00  0.00    -0.014 A 
ATOM     94  C   UNL A   1      42.163  29.842  35.109  1.00  0.00     0.010 A 
ATOM     95  C   UNL A   1      41.368  28.239  33.481  1.00  0.00     0.010 A 
ATOM     96  C   UNL A   1      42.228  28.840  36.077  1.00  0.00     0.020 A 
ATOM     97  C   UNL A   1      41.403  27.232  34.459  1.00  0.00     0.020 A 
ATOM     98  C   UNL A   1      41.861  27.535  35.743  1.00  0.00     0.054 A 
BRANCH  98  99
ATOM     99  S   UNL A   1      42.026  26.252  37.013  1.00  0.00     0.124 S 
ATOM    100  O   UNL A   1      42.963  26.864  37.951  1.00  0.00    -0.237 OA
ATOM    101  O   UNL A   1      40.658  26.106  37.506  1.00  0.00    -0.237 OA
ATOM    102  O   UNL A   1      42.543  25.097  36.284  1.00  0.00    -0.744 OA
ENDBRANCH  98  99
ENDBRANCH  72  93
ENDBRANCH  46  47
ENDBRANCH  38  41
ENDBRANCH  36  37
ENDBRANCH  35  36
ENDBRANCH   1  35
TORSDOF 19
ENDMDL
MODEL 3
REMARK VINA RESULT:     -12.5      2.591      9.403
REMARK SMILES C[C@H]1CC[C@H]([NH2+]Cc2c(C(=O)NCCCCNC(=O)c3ccc(-c4c5nc(c(-c6ccc(S(=O)(=O)[O-])cc6)c6ccc([nH]6)c(-c6ccc(S(=O)(=O)[O-])cc6)c6nc(c(-c7ccc(S(=O)(=O)[O-])cc7)c7ccc4[nH]7)C=C6)C=C5)cc3)n(Cc3ccccc3F)c3ccccc23)CC1
REMARK SMILES IDX 14 1 13 2 12 3 10 4 11 5 9 7 8 8 94 9 80 10 89 11 93 12
REMARK SMILES IDX 90 13 92 14 91 15 7 16 6 17 5 20 1 21 2 22 3 23 96 24 4 25
REMARK SMILES IDX 95 26 81 27 82 28 83 29 87 30 84 31 86 32 88 33 85 34 15 35
REMARK SMILES IDX 16 36 17 37 18 38 19 40 20 41 21 42 79 43 22 44 78 45 23 46
REMARK SMILES IDX 24 47 25 48 72 49 26 50 77 51 71 52 73 53 27 54 76 55 70 56
REMARK SMILES IDX 69 57 28 59 58 60 39 61 57 62 40 63 43 64 56 65 74 66 41 67
REMARK SMILES IDX 42 68 55 70 75 71 44 72 29 73 30 74 38 75 31 76 37 77 32 78
REMARK SMILES IDX 33 79 34 80 35 81 36 82 59 83 60 84 68 85 61 86 67 87 62 88
REMARK SMILES IDX 63 89 64 90 65 91 66 92 45 93 46 94 54 95 47 96 53 97 48 98
REMARK SMILES IDX 49 99 50 100 51 101 52 102
REMARK H PARENT 12 6 6 18 6 19 17 39 73 58 43 69
REMARK Flexibility Score: inf
ROOT
ATOM      1  C   UNL A   1      39.021  23.677  26.766  1.00  0.00     0.023 C 
ENDROOT
BRANCH   1   2
ATOM      2  C   UNL A   1      37.702  23.891  26.033  1.00  0.00     0.116 C 
BRANCH   2   3
ATOM      3  N   UNL A   1      37.579  23.405  24.685  1.00  0.00    -0.351 N 
ATOM      4  C   UNL A   1      36.443  23.243  23.917  1.00  0.00     0.268 C 
ATOM      5  O   UNL A   1      36.671  22.930  22.741  1.00  0.00    -0.268 OA
ATOM      6  H   UNL A   1      38.425  23.152  24.248  1.00  0.00     0.163 HD
BRANCH   4   7
ATOM      7  C   UNL A   1      35.067  23.360  24.435  1.00  0.00     0.117 A 
ATOM      8  C   UNL A   1      34.035  24.306  24.254  1.00  0.00     0.045 A 
ATOM      9  C   UNL A   1      33.134  24.115  25.353  1.00  0.00     0.009 A 
ATOM     10  N   UNL A   1      34.418  22.318  25.150  1.00  0.00    -0.331 N 
ATOM     11  C   UNL A   1      33.227  22.779  25.698  1.00  0.00     0.049 A 
ATOM     12  C   UNL A   1      32.133  24.913  25.945  1.00  0.00     0.011 A 
ATOM     13  C   UNL A   1      32.211  22.161  26.450  1.00  0.00     0.027 A 
ATOM     14  C   UNL A   1      31.231  24.341  26.842  1.00  0.00     0.001 A 
ATOM     15  C   UNL A   1      31.242  22.968  27.052  1.00  0.00     0.002 A 
BRANCH   8  16
ATOM     16  C   UNL A   1      33.712  25.378  23.251  1.00  0.00     0.300 C 
BRANCH  16  17
ATOM     17  N   UNL A   1      32.322  25.577  22.894  1.00  0.00    -0.340 N 
ATOM     18  H   UNL A   1      32.301  25.601  21.875  1.00  0.00     0.346 HD
ATOM     19  H   UNL A   1      31.882  24.817  23.416  1.00  0.00     0.346 HD
BRANCH  17  20
ATOM     20  C   UNL A   1      31.509  26.710  23.330  1.00  0.00     0.182 C 
ATOM     21  C   UNL A   1      29.083  30.310  22.439  1.00  0.00     0.007 C 
ATOM     22  C   UNL A   1      29.859  29.004  22.361  1.00  0.00    -0.014 C 
ATOM     23  C   UNL A   1      29.278  27.943  23.303  1.00  0.00     0.009 C 
ATOM     24  C   UNL A   1      31.334  29.215  22.698  1.00  0.00     0.009 C 
ATOM     25  C   UNL A   1      30.000  26.616  23.097  1.00  0.00     0.065 C 
ATOM     26  C   UNL A   1      32.101  27.909  22.553  1.00  0.00     0.065 C 
ENDBRANCH  17  20
ENDBRANCH  16  17
ENDBRANCH   8  16
BRANCH  10  27
ATOM     27  C   UNL A   1      34.823  20.902  25.229  1.00  0.00     0.161 C 
BRANCH  27  28
ATOM     28  C   UNL A   1      33.978  19.946  24.418  1.00  0.00     0.008 A 
ATOM     29  C   UNL A   1      32.898  20.371  23.624  1.00  0.00     0.008 A 
ATOM     30  C   UNL A   1      34.302  18.588  24.365  1.00  0.00     0.128 A 
ATOM     31  C   UNL A   1      32.150  19.477  22.855  1.00  0.00     0.001 A 
ATOM     32  C   UNL A   1      33.552  17.683  23.612  1.00  0.00     0.039 A 
ATOM     33  F   UNL A   1      35.384  18.128  25.006  1.00  0.00    -0.207 F 
ATOM     34  C   UNL A   1      32.467  18.125  22.860  1.00  0.00     0.003 A 
ENDBRANCH  27  28
ENDBRANCH  10  27
ENDBRANCH   4   7
ENDBRANCH   2   3
ENDBRANCH   1   2
BRANCH   1  35
ATOM     35  C   UNL A   1      39.675  22.288  26.624  1.00  0.00     0.023 C 
BRANCH  35  36
ATOM     36  C   UNL A   1      41.209  22.198  26.633  1.00  0.00     0.116 C 
BRANCH  36  37
ATOM     37  N   UNL A   1      41.927  22.564  25.426  1.00  0.00    -0.352 N 
ATOM     38  C   UNL A   1      42.914  23.502  25.223  1.00  0.00     0.251 C 
ATOM     39  H   UNL A   1      41.668  22.059  24.622  1.00  0.00     0.163 HD
ATOM     40  O   UNL A   1      43.775  23.266  24.375  1.00  0.00    -0.269 OA
BRANCH  38  41
ATOM     41  C   UNL A   1      42.847  24.847  25.843  1.00  0.00     0.039 A 
ATOM     42  C   UNL A   1      43.601  25.228  26.948  1.00  0.00     0.014 A 
ATOM     43  C   UNL A   1      41.842  25.707  25.364  1.00  0.00     0.014 A 
ATOM     44  C   UNL A   1      43.220  26.325  27.695  1.00  0.00     0.010 A 
ATOM     45  C   UNL A   1      41.489  26.841  26.082  1.00  0.00     0.010 A 
ATOM     46  C   UNL A   1      42.130  27.099  27.290  1.00  0.00    -0.014 A 
BRANCH  46  47
ATOM     47  C   UNL A   1      41.786  28.221  28.150  1.00  0.00     0.031 A 
ATOM     48  C   UNL A   1      42.827  29.284  28.218  1.00  0.00     0.074 A 
ATOM     49  C   UNL A   1      40.614  28.334  28.801  1.00  0.00     0.049 A 
ATOM     50  N   UNL A   1      43.495  29.695  29.246  1.00  0.00    -0.248 NA
ATOM     51  C   UNL A   1      43.269  29.862  26.940  1.00  0.00     0.031 C 
ATOM     52  C   UNL A   1      39.393  27.547  28.615  1.00  0.00     0.029 A 
ATOM     53  N   UNL A   1      40.238  29.282  29.701  1.00  0.00    -0.354 N 
ATOM     54  C   UNL A   1      44.333  30.706  28.778  1.00  0.00     0.074 A 
ATOM     55  C   UNL A   1      44.253  30.665  27.341  1.00  0.00     0.031 C 
ATOM     56  C   UNL A   1      38.356  28.209  29.175  1.00  0.00     0.029 A 
ATOM     57  C   UNL A   1      38.865  29.376  29.879  1.00  0.00     0.049 A 
ATOM     58  H   UNL A   1      40.881  29.851  30.183  1.00  0.00     0.167 HD
ATOM     59  C   UNL A   1      44.909  31.624  29.604  1.00  0.00     0.031 A 
ATOM     60  C   UNL A   1      38.205  30.405  30.468  1.00  0.00     0.031 A 
ATOM     61  C   UNL A   1      44.910  31.189  30.973  1.00  0.00     0.049 A 
ATOM     62  C   UNL A   1      39.186  31.152  31.294  1.00  0.00     0.074 A 
ATOM     63  C   UNL A   1      45.484  30.130  31.649  1.00  0.00     0.029 A 
ATOM     64  N   UNL A   1      43.946  31.698  31.809  1.00  0.00    -0.354 N 
ATOM     65  N   UNL A   1      39.744  30.681  32.373  1.00  0.00    -0.248 NA
ATOM     66  C   UNL A   1      39.859  32.291  30.688  1.00  0.00     0.031 C 
ATOM     67  C   UNL A   1      44.525  29.760  32.633  1.00  0.00     0.029 A 
ATOM     68  C   UNL A   1      43.452  30.650  32.541  1.00  0.00     0.049 A 
ATOM     69  H   UNL A   1      43.664  32.639  31.872  1.00  0.00     0.167 HD
ATOM     70  C   UNL A   1      41.036  31.182  32.354  1.00  0.00     0.074 A 
ATOM     71  C   UNL A   1      41.019  32.239  31.345  1.00  0.00     0.031 C 
ATOM     72  C   UNL A   1      42.069  30.523  32.957  1.00  0.00     0.031 A 
BRANCH  59  73
ATOM     73  C   UNL A   1      45.190  33.052  29.203  1.00  0.00    -0.014 A 
ATOM     74  C   UNL A   1      46.419  33.469  28.652  1.00  0.00     0.010 A 
ATOM     75  C   UNL A   1      44.123  33.973  29.140  1.00  0.00     0.010 A 
ATOM     76  C   UNL A   1      46.588  34.729  28.078  1.00  0.00     0.020 A 
ATOM     77  C   UNL A   1      44.268  35.224  28.521  1.00  0.00     0.020 A 
ATOM     78  C   UNL A   1      45.504  35.594  27.998  1.00  0.00     0.054 A 
BRANCH  78  79
ATOM     79  S   UNL A   1      45.740  37.158  27.122  1.00  0.00     0.124 S 
ATOM     80  O   UNL A   1      44.360  37.516  26.779  1.00  0.00    -0.237 OA
ATOM     81  O   UNL A   1      46.379  37.989  28.119  1.00  0.00    -0.237 OA
ATOM     82  O   UNL A   1      46.583  36.782  25.980  1.00  0.00    -0.744 OA
ENDBRANCH  78  79
ENDBRANCH  59  73
BRANCH  60  83
ATOM     83  C   UNL A   1      36.946  31.041  29.998  1.00  0.00    -0.014 A 
ATOM     84  C   UNL A   1      36.872  31.605  28.709  1.00  0.00     0.010 A 
ATOM     85  C   UNL A   1      35.952  31.396  30.932  1.00  0.00     0.010 A 
ATOM     86  C   UNL A   1      35.911  32.570  28.394  1.00  0.00     0.020 A 
ATOM     87  C   UNL A   1      34.989  32.370  30.624  1.00  0.00     0.020 A 
ATOM     88  C   UNL A   1      35.006  32.982  29.371  1.00  0.00     0.054 A 
BRANCH  88  89
ATOM     89  S   UNL A   1      33.947  34.411  29.007  1.00  0.00     0.124 S 
ATOM     90  O   UNL A   1      33.898  35.087  30.301  1.00  0.00    -0.237 OA
ATOM     91  O   UNL A   1      34.703  35.105  27.966  1.00  0.00    -0.237 OA
ATOM     92  O   UNL A   1      32.692  33.810  28.566  1.00  0.00    -0.744 OA
ENDBRANCH  88  89
ENDBRANCH  60  83
BRANCH  72  93
ATOM     93  C   UNL A   1      41.774  29.391  33.918  1.00  0.00    -0.014 A 
ATOM     94  C   UNL A   1      41.911  29.667  35.292  1.00  0.00     0.010 A 
ATOM     95  C   UNL A   1      41.585  28.054  33.519  1.00  0.00     0.010 A 
ATOM     96  C   UNL A   1      41.905  28.642  36.237  1.00  0.00     0.020 A 
ATOM     97  C   UNL A   1      41.549  27.020  34.469  1.00  0.00     0.020 A 
ATOM     98  C   UNL A   1      41.739  27.320  35.819  1.00  0.00     0.054 A 
BRANCH  98  99
ATOM     99  S   UNL A   1      41.808  26.014  37.075  1.00  0.00     0.124 S 
ATOM    100  O   UNL A   1      40.453  26.038  37.621  1.00  0.00    -0.237 OA
ATOM    101  O   UNL A   1      42.140  24.827  36.289  1.00  0.00    -0.237 OA
ATOM    102  O   UNL A   1      42.855  26.458  37.992  1.00  0.00    -0.744 OA
ENDBRANCH  98  99
ENDBRANCH  72  93
ENDBRANCH  46  47
ENDBRANCH  38  41
ENDBRANCH  36  37
ENDBRANCH  35  36
ENDBRANCH   1  35
TORSDOF 19
ENDMDL
