MODEL 1
REMARK VINA RESULT:     -10.8      0.000      0.000
REMARK SMILES O=C(Cc1ccc(NC(=O)C2CCCC2)cc1)NCCCCNC(=O)c1ccc(-c2c3nc(c(-c4ccc(S(=O)(=O)[O-])cc4)c4ccc([nH]4)c(-c4ccc(S(=O)(=O)[O-])cc4)c4nc(c(-c5ccc(S(=O)(=O)[O-])cc5)c5ccc2[nH]5)C=C4)C=C3)cc1
REMARK SMILES IDX 20 1 19 2 18 3 1 4 2 5 3 7 4 8 5 9 17 10 6 11 16 12 7 13
REMARK SMILES IDX 8 14 9 15 10 17 11 18 12 19 15 20 13 21 14 22 21 23 22 24
REMARK SMILES IDX 23 25 24 26 25 28 26 29 27 30 85 31 28 32 84 33 29 34 30 35
REMARK SMILES IDX 31 36 78 37 32 38 83 39 77 40 79 41 33 42 82 43 76 44 75 45
REMARK SMILES IDX 34 47 64 48 45 49 63 50 46 51 49 52 62 53 80 54 47 55 48 56
REMARK SMILES IDX 61 58 81 59 50 60 35 61 36 62 44 63 37 64 43 65 38 66 39 67
REMARK SMILES IDX 40 68 41 69 42 70 65 71 66 72 74 73 67 74 73 75 68 76 69 77
REMARK SMILES IDX 70 78 71 79 72 80 51 81 52 82 60 83 53 84 59 85 54 86 55 87
REMARK SMILES IDX 56 88 57 89 58 90
REMARK H PARENT 18 6 8 16 23 27 79 46 49 57
REMARK Flexibility Score: inf
ROOT
ATOM      1  C   UNL A   1      35.413  21.964  26.321  1.00  0.00     0.023 C 
ENDROOT
BRANCH   1   2
ATOM      2  C   UNL A   1      34.621  20.805  25.720  1.00  0.00     0.116 C 
BRANCH   2   3
ATOM      3  N   UNL A   1      34.014  21.134  24.444  1.00  0.00    -0.356 N 
ATOM      4  O   UNL A   1      31.874  20.521  25.027  1.00  0.00    -0.275 OA
ATOM      5  C   UNL A   1      32.658  21.006  24.214  1.00  0.00     0.224 C 
ATOM      6  H   UNL A   1      34.589  21.459  23.716  1.00  0.00     0.163 HD
BRANCH   5   7
ATOM      7  C   UNL A   1      32.187  21.554  22.871  1.00  0.00     0.135 C 
BRANCH   7   8
ATOM      8  C   UNL A   1      32.098  23.065  22.811  1.00  0.00    -0.039 A 
ATOM      9  C   UNL A   1      33.094  23.839  22.212  1.00  0.00     0.006 A 
ATOM     10  C   UNL A   1      31.000  23.725  23.380  1.00  0.00     0.006 A 
ATOM     11  C   UNL A   1      32.917  25.212  22.036  1.00  0.00     0.026 A 
ATOM     12  C   UNL A   1      30.827  25.103  23.203  1.00  0.00     0.026 A 
ATOM     13  C   UNL A   1      31.737  25.833  22.434  1.00  0.00     0.041 A 
BRANCH  13  14
ATOM     14  N   UNL A   1      31.384  27.145  22.081  1.00  0.00    -0.326 N 
ATOM     15  C   UNL A   1      31.429  28.319  22.791  1.00  0.00     0.227 C 
ATOM     16  H   UNL A   1      31.047  27.241  21.161  1.00  0.00     0.169 HD
ATOM     17  O   UNL A   1      30.975  29.330  22.250  1.00  0.00    -0.274 OA
BRANCH  15  18
ATOM     18  C   UNL A   1      32.041  28.371  24.186  1.00  0.00     0.079 C 
ATOM     19  C   UNL A   1      33.508  28.807  24.224  1.00  0.00     0.013 C 
ATOM     20  C   UNL A   1      31.417  29.412  25.122  1.00  0.00     0.013 C 
ATOM     21  C   UNL A   1      33.754  29.003  25.711  1.00  0.00     0.001 C 
ATOM     22  C   UNL A   1      32.441  29.568  26.252  1.00  0.00     0.001 C 
ENDBRANCH  15  18
ENDBRANCH  13  14
ENDBRANCH   7   8
ENDBRANCH   5   7
ENDBRANCH   2   3
ENDBRANCH   1   2
BRANCH   1  23
ATOM     23  C   UNL A   1      35.486  23.222  25.450  1.00  0.00     0.023 C 
BRANCH  23  24
ATOM     24  C   UNL A   1      36.891  23.739  25.153  1.00  0.00     0.116 C 
BRANCH  24  25
ATOM     25  N   UNL A   1      37.932  22.781  25.487  1.00  0.00    -0.352 N 
ATOM     26  C   UNL A   1      39.113  22.967  26.171  1.00  0.00     0.251 C 
ATOM     27  H   UNL A   1      37.769  21.860  25.178  1.00  0.00     0.163 HD
ATOM     28  O   UNL A   1      39.933  22.058  26.224  1.00  0.00    -0.269 OA
BRANCH  26  29
ATOM     29  C   UNL A   1      39.408  24.269  26.817  1.00  0.00     0.039 A 
ATOM     30  C   UNL A   1      38.956  24.492  28.122  1.00  0.00     0.014 A 
ATOM     31  C   UNL A   1      40.119  25.268  26.149  1.00  0.00     0.014 A 
ATOM     32  C   UNL A   1      39.281  25.683  28.777  1.00  0.00     0.010 A 
ATOM     33  C   UNL A   1      40.509  26.420  26.830  1.00  0.00     0.010 A 
ATOM     34  C   UNL A   1      40.097  26.641  28.154  1.00  0.00    -0.014 A 
BRANCH  34  35
ATOM     35  C   UNL A   1      40.541  27.867  28.873  1.00  0.00     0.031 A 
ATOM     36  C   UNL A   1      41.902  27.924  29.517  1.00  0.00     0.074 A 
ATOM     37  C   UNL A   1      39.694  28.908  29.004  1.00  0.00     0.049 A 
ATOM     38  N   UNL A   1      42.438  28.883  30.229  1.00  0.00    -0.248 NA
ATOM     39  C   UNL A   1      42.764  26.742  29.360  1.00  0.00     0.031 C 
ATOM     40  C   UNL A   1      38.335  28.970  28.459  1.00  0.00     0.029 A 
ATOM     41  N   UNL A   1      39.847  30.116  29.641  1.00  0.00    -0.354 N 
ATOM     42  C   UNL A   1      43.688  28.415  30.618  1.00  0.00     0.074 A 
ATOM     43  C   UNL A   1      43.812  27.068  30.104  1.00  0.00     0.031 C 
ATOM     44  C   UNL A   1      37.794  30.162  28.757  1.00  0.00     0.029 A 
ATOM     45  C   UNL A   1      38.743  30.933  29.554  1.00  0.00     0.049 A 
ATOM     46  H   UNL A   1      40.671  30.373  30.115  1.00  0.00     0.167 HD
ATOM     47  C   UNL A   1      44.652  29.053  31.323  1.00  0.00     0.031 A 
ATOM     48  C   UNL A   1      38.513  32.159  30.065  1.00  0.00     0.031 A 
ATOM     49  C   UNL A   1      44.531  30.396  31.829  1.00  0.00     0.049 A 
ATOM     50  C   UNL A   1      39.590  32.835  30.868  1.00  0.00     0.074 A 
ATOM     51  C   UNL A   1      45.476  31.148  32.504  1.00  0.00     0.029 A 
ATOM     52  N   UNL A   1      43.396  31.185  31.723  1.00  0.00    -0.354 N 
ATOM     53  N   UNL A   1      40.792  32.402  31.164  1.00  0.00    -0.248 NA
ATOM     54  C   UNL A   1      39.284  34.172  31.396  1.00  0.00     0.031 C 
ATOM     55  C   UNL A   1      44.891  32.366  32.863  1.00  0.00     0.029 A 
ATOM     56  C   UNL A   1      43.605  32.402  32.349  1.00  0.00     0.049 A 
ATOM     57  H   UNL A   1      42.563  30.918  31.269  1.00  0.00     0.167 HD
ATOM     58  C   UNL A   1      41.397  33.426  31.885  1.00  0.00     0.074 A 
ATOM     59  C   UNL A   1      40.434  34.504  31.968  1.00  0.00     0.031 C 
ATOM     60  C   UNL A   1      42.640  33.470  32.428  1.00  0.00     0.031 A 
BRANCH  47  61
ATOM     61  C   UNL A   1      45.928  28.298  31.607  1.00  0.00    -0.014 A 
ATOM     62  C   UNL A   1      46.087  27.550  32.788  1.00  0.00     0.010 A 
ATOM     63  C   UNL A   1      46.963  28.298  30.654  1.00  0.00     0.010 A 
ATOM     64  C   UNL A   1      47.274  26.853  33.030  1.00  0.00     0.020 A 
ATOM     65  C   UNL A   1      48.139  27.575  30.878  1.00  0.00     0.020 A 
ATOM     66  C   UNL A   1      48.293  26.870  32.073  1.00  0.00     0.054 A 
BRANCH  66  67
ATOM     67  S   UNL A   1      49.811  25.934  32.405  1.00  0.00     0.124 S 
ATOM     68  O   UNL A   1      50.406  25.847  31.074  1.00  0.00    -0.237 OA
ATOM     69  O   UNL A   1      50.515  26.794  33.352  1.00  0.00    -0.237 OA
ATOM     70  O   UNL A   1      49.328  24.670  32.954  1.00  0.00    -0.744 OA
ENDBRANCH  66  67
ENDBRANCH  47  61
BRANCH  48  71
ATOM     71  C   UNL A   1      37.207  32.835  29.821  1.00  0.00    -0.014 A 
ATOM     72  C   UNL A   1      36.176  32.763  30.774  1.00  0.00     0.010 A 
ATOM     73  C   UNL A   1      36.990  33.560  28.634  1.00  0.00     0.010 A 
ATOM     74  C   UNL A   1      34.946  33.386  30.538  1.00  0.00     0.020 A 
ATOM     75  C   UNL A   1      35.773  34.209  28.408  1.00  0.00     0.020 A 
ATOM     76  C   UNL A   1      34.754  34.107  29.356  1.00  0.00     0.054 A 
BRANCH  76  77
ATOM     77  S   UNL A   1      33.167  34.947  29.093  1.00  0.00     0.124 S 
ATOM     78  O   UNL A   1      32.546  34.110  28.072  1.00  0.00    -0.237 OA
ATOM     79  O   UNL A   1      32.558  34.888  30.419  1.00  0.00    -0.237 OA
ATOM     80  O   UNL A   1      33.557  36.285  28.654  1.00  0.00    -0.744 OA
ENDBRANCH  76  77
ENDBRANCH  48  71
BRANCH  60  81
ATOM     81  C   UNL A   1      43.050  34.740  33.127  1.00  0.00    -0.014 A 
ATOM     82  C   UNL A   1      42.874  34.906  34.512  1.00  0.00     0.010 A 
ATOM     83  C   UNL A   1      43.676  35.764  32.390  1.00  0.00     0.010 A 
ATOM     84  C   UNL A   1      43.286  36.084  35.140  1.00  0.00     0.020 A 
ATOM     85  C   UNL A   1      44.119  36.928  33.020  1.00  0.00     0.020 A 
ATOM     86  C   UNL A   1      43.907  37.088  34.391  1.00  0.00     0.054 A 
BRANCH  86  87
ATOM     87  S   UNL A   1      44.472  38.588  35.239  1.00  0.00     0.124 S 
ATOM     88  O   UNL A   1      45.913  38.546  35.002  1.00  0.00    -0.237 OA
ATOM     89  O   UNL A   1      43.751  39.645  34.535  1.00  0.00    -0.237 OA
ATOM     90  O   UNL A   1      44.063  38.379  36.626  1.00  0.00    -0.744 OA
ENDBRANCH  86  87
ENDBRANCH  60  81
ENDBRANCH  34  35
ENDBRANCH  26  29
ENDBRANCH  24  25
ENDBRANCH  23  24
ENDBRANCH   1  23
TORSDOF 17
ENDMDL
MODEL 2
REMARK VINA RESULT:     -10.3      4.335     10.361
REMARK SMILES O=C(Cc1ccc(NC(=O)C2CCCC2)cc1)NCCCCNC(=O)c1ccc(-c2c3nc(c(-c4ccc(S(=O)(=O)[O-])cc4)c4ccc([nH]4)c(-c4ccc(S(=O)(=O)[O-])cc4)c4nc(c(-c5ccc(S(=O)(=O)[O-])cc5)c5ccc2[nH]5)C=C4)C=C3)cc1
REMARK SMILES IDX 20 1 19 2 18 3 1 4 2 5 3 7 4 8 5 9 17 10 6 11 16 12 7 13
REMARK SMILES IDX 8 14 9 15 10 17 11 18 12 19 15 20 13 21 14 22 21 23 22 24
REMARK SMILES IDX 23 25 24 26 25 28 26 29 27 30 85 31 28 32 84 33 29 34 30 35
REMARK SMILES IDX 31 36 78 37 32 38 83 39 77 40 79 41 33 42 82 43 76 44 75 45
REMARK SMILES IDX 34 47 64 48 45 49 63 50 46 51 49 52 62 53 80 54 47 55 48 56
REMARK SMILES IDX 61 58 81 59 50 60 35 61 36 62 44 63 37 64 43 65 38 66 39 67
REMARK SMILES IDX 40 68 41 69 42 70 65 71 66 72 74 73 67 74 73 75 68 76 69 77
REMARK SMILES IDX 70 78 71 79 72 80 51 81 52 82 60 83 53 84 59 85 54 86 55 87
REMARK SMILES IDX 56 88 57 89 58 90
REMARK H PARENT 18 6 8 16 23 27 79 46 49 57
REMARK Flexibility Score: inf
ROOT
ATOM      1  C   UNL A   1      34.497  31.992  28.929  1.00  0.00     0.023 C 
ENDROOT
BRANCH   1   2
ATOM      2  C   UNL A   1      34.606  31.248  27.600  1.00  0.00     0.116 C 
BRANCH   2   3
ATOM      3  N   UNL A   1      34.027  29.918  27.646  1.00  0.00    -0.356 N 
ATOM      4  O   UNL A   1      31.941  30.534  26.894  1.00  0.00    -0.275 OA
ATOM      5  C   UNL A   1      32.733  29.658  27.237  1.00  0.00     0.224 C 
ATOM      6  H   UNL A   1      34.576  29.174  27.981  1.00  0.00     0.163 HD
BRANCH   5   7
ATOM      7  C   UNL A   1      32.361  28.180  27.205  1.00  0.00     0.135 C 
BRANCH   7   8
ATOM      8  C   UNL A   1      32.415  27.553  25.827  1.00  0.00    -0.039 A 
ATOM      9  C   UNL A   1      33.541  27.667  25.008  1.00  0.00     0.006 A 
ATOM     10  C   UNL A   1      31.308  26.849  25.334  1.00  0.00     0.006 A 
ATOM     11  C   UNL A   1      33.622  26.957  23.809  1.00  0.00     0.026 A 
ATOM     12  C   UNL A   1      31.393  26.140  24.130  1.00  0.00     0.026 A 
ATOM     13  C   UNL A   1      32.594  26.106  23.417  1.00  0.00     0.041 A 
BRANCH  13  14
ATOM     14  N   UNL A   1      32.699  25.184  22.363  1.00  0.00    -0.326 N 
ATOM     15  C   UNL A   1      33.328  23.967  22.282  1.00  0.00     0.227 C 
ATOM     16  H   UNL A   1      32.240  25.458  21.536  1.00  0.00     0.169 HD
ATOM     17  O   UNL A   1      33.327  23.396  21.189  1.00  0.00    -0.274 OA
BRANCH  15  18
ATOM     18  C   UNL A   1      33.979  23.336  23.507  1.00  0.00     0.079 C 
ATOM     19  C   UNL A   1      33.495  21.920  23.830  1.00  0.00     0.013 C 
ATOM     20  C   UNL A   1      35.487  23.090  23.377  1.00  0.00     0.013 C 
ATOM     21  C   UNL A   1      34.472  21.475  24.907  1.00  0.00     0.001 C 
ATOM     22  C   UNL A   1      35.808  22.098  24.500  1.00  0.00     0.001 C 
ENDBRANCH  15  18
ENDBRANCH  13  14
ENDBRANCH   7   8
ENDBRANCH   5   7
ENDBRANCH   2   3
ENDBRANCH   1   2
BRANCH   1  23
ATOM     23  C   UNL A   1      35.523  33.110  29.134  1.00  0.00     0.023 C 
BRANCH  23  24
ATOM     24  C   UNL A   1      36.469  32.929  30.319  1.00  0.00     0.116 C 
BRANCH  24  25
ATOM     25  N   UNL A   1      36.102  31.811  31.173  1.00  0.00    -0.352 N 
ATOM     26  C   UNL A   1      36.759  30.621  31.396  1.00  0.00     0.251 C 
ATOM     27  H   UNL A   1      35.257  31.921  31.667  1.00  0.00     0.163 HD
ATOM     28  O   UNL A   1      36.210  29.738  32.044  1.00  0.00    -0.269 OA
BRANCH  26  29
ATOM     29  C   UNL A   1      38.111  30.394  30.831  1.00  0.00     0.039 A 
ATOM     30  C   UNL A   1      39.194  30.260  31.705  1.00  0.00     0.014 A 
ATOM     31  C   UNL A   1      38.319  30.316  29.452  1.00  0.00     0.014 A 
ATOM     32  C   UNL A   1      40.465  29.975  31.201  1.00  0.00     0.010 A 
ATOM     33  C   UNL A   1      39.570  29.956  28.955  1.00  0.00     0.010 A 
ATOM     34  C   UNL A   1      40.659  29.778  29.823  1.00  0.00    -0.014 A 
BRANCH  34  35
ATOM     35  C   UNL A   1      41.983  29.370  29.278  1.00  0.00     0.031 A 
ATOM     36  C   UNL A   1      43.104  30.371  29.166  1.00  0.00     0.074 A 
ATOM     37  C   UNL A   1      42.160  28.113  28.823  1.00  0.00     0.049 A 
ATOM     38  N   UNL A   1      44.304  30.212  28.668  1.00  0.00    -0.248 NA
ATOM     39  C   UNL A   1      42.834  31.732  29.655  1.00  0.00     0.031 C 
ATOM     40  C   UNL A   1      41.147  27.054  28.842  1.00  0.00     0.029 A 
ATOM     41  N   UNL A   1      43.254  27.511  28.251  1.00  0.00    -0.354 N 
ATOM     42  C   UNL A   1      44.925  31.453  28.768  1.00  0.00     0.074 A 
ATOM     43  C   UNL A   1      43.952  32.366  29.329  1.00  0.00     0.031 C 
ATOM     44  C   UNL A   1      41.677  25.929  28.336  1.00  0.00     0.029 A 
ATOM     45  C   UNL A   1      43.048  26.193  27.913  1.00  0.00     0.049 A 
ATOM     46  H   UNL A   1      44.107  27.979  28.098  1.00  0.00     0.167 HD
ATOM     47  C   UNL A   1      46.192  31.798  28.439  1.00  0.00     0.031 A 
ATOM     48  C   UNL A   1      43.864  25.298  27.320  1.00  0.00     0.031 A 
ATOM     49  C   UNL A   1      47.162  30.888  27.887  1.00  0.00     0.049 A 
ATOM     50  C   UNL A   1      45.259  25.714  26.940  1.00  0.00     0.074 A 
ATOM     51  C   UNL A   1      48.488  31.130  27.576  1.00  0.00     0.029 A 
ATOM     52  N   UNL A   1      46.910  29.565  27.556  1.00  0.00    -0.354 N 
ATOM     53  N   UNL A   1      45.848  26.873  27.108  1.00  0.00    -0.248 NA
ATOM     54  C   UNL A   1      46.104  24.696  26.300  1.00  0.00     0.031 C 
ATOM     55  C   UNL A   1      49.020  29.974  26.997  1.00  0.00     0.029 A 
ATOM     56  C   UNL A   1      48.047  28.988  27.014  1.00  0.00     0.049 A 
ATOM     57  H   UNL A   1      46.050  29.104  27.687  1.00  0.00     0.167 HD
ATOM     58  C   UNL A   1      47.142  26.714  26.624  1.00  0.00     0.074 A 
ATOM     59  C   UNL A   1      47.254  25.344  26.171  1.00  0.00     0.031 C 
ATOM     60  C   UNL A   1      48.149  27.622  26.564  1.00  0.00     0.031 A 
BRANCH  47  61
ATOM     61  C   UNL A   1      46.606  33.233  28.654  1.00  0.00    -0.014 A 
ATOM     62  C   UNL A   1      47.095  33.675  29.897  1.00  0.00     0.010 A 
ATOM     63  C   UNL A   1      46.550  34.142  27.581  1.00  0.00     0.010 A 
ATOM     64  C   UNL A   1      47.478  35.007  30.075  1.00  0.00     0.020 A 
ATOM     65  C   UNL A   1      46.963  35.468  27.746  1.00  0.00     0.020 A 
ATOM     66  C   UNL A   1      47.409  35.895  28.998  1.00  0.00     0.054 A 
BRANCH  66  67
ATOM     67  S   UNL A   1      47.938  37.612  29.253  1.00  0.00     0.124 S 
ATOM     68  O   UNL A   1      46.667  38.329  29.194  1.00  0.00    -0.237 OA
ATOM     69  O   UNL A   1      48.568  37.559  30.569  1.00  0.00    -0.237 OA
ATOM     70  O   UNL A   1      48.848  37.865  28.139  1.00  0.00    -0.744 OA
ENDBRANCH  66  67
ENDBRANCH  47  61
BRANCH  48  71
ATOM     71  C   UNL A   1      43.385  23.910  27.059  1.00  0.00    -0.014 A 
ATOM     72  C   UNL A   1      43.449  22.931  28.066  1.00  0.00     0.010 A 
ATOM     73  C   UNL A   1      42.858  23.563  25.802  1.00  0.00     0.010 A 
ATOM     74  C   UNL A   1      43.014  21.627  27.816  1.00  0.00     0.020 A 
ATOM     75  C   UNL A   1      42.393  22.267  25.557  1.00  0.00     0.020 A 
ATOM     76  C   UNL A   1      42.486  21.304  26.563  1.00  0.00     0.054 A 
BRANCH  76  77
ATOM     77  S   UNL A   1      41.883  19.617  26.277  1.00  0.00     0.124 S 
ATOM     78  O   UNL A   1      42.241  18.950  27.524  1.00  0.00    -0.237 OA
ATOM     79  O   UNL A   1      40.454  19.827  26.058  1.00  0.00    -0.237 OA
ATOM     80  O   UNL A   1      42.628  19.182  25.098  1.00  0.00    -0.744 OA
ENDBRANCH  76  77
ENDBRANCH  48  71
BRANCH  60  81
ATOM     81  C   UNL A   1      49.476  27.156  26.024  1.00  0.00    -0.014 A 
ATOM     82  C   UNL A   1      50.445  26.574  26.860  1.00  0.00     0.010 A 
ATOM     83  C   UNL A   1      49.733  27.253  24.643  1.00  0.00     0.010 A 
ATOM     84  C   UNL A   1      51.659  26.129  26.330  1.00  0.00     0.020 A 
ATOM     85  C   UNL A   1      50.931  26.778  24.106  1.00  0.00     0.020 A 
ATOM     86  C   UNL A   1      51.895  26.232  24.956  1.00  0.00     0.054 A 
BRANCH  86  87
ATOM     87  S   UNL A   1      53.459  25.604  24.288  1.00  0.00     0.124 S 
ATOM     88  O   UNL A   1      53.408  24.194  24.667  1.00  0.00    -0.237 OA
ATOM     89  O   UNL A   1      53.328  25.874  22.859  1.00  0.00    -0.237 OA
ATOM     90  O   UNL A   1      54.475  26.397  24.976  1.00  0.00    -0.744 OA
ENDBRANCH  86  87
ENDBRANCH  60  81
ENDBRANCH  34  35
ENDBRANCH  26  29
ENDBRANCH  24  25
ENDBRANCH  23  24
ENDBRANCH   1  23
TORSDOF 17
ENDMDL
MODEL 3
REMARK VINA RESULT:     -10.3      0.715      8.274
REMARK SMILES O=C(Cc1ccc(NC(=O)C2CCCC2)cc1)NCCCCNC(=O)c1ccc(-c2c3nc(c(-c4ccc(S(=O)(=O)[O-])cc4)c4ccc([nH]4)c(-c4ccc(S(=O)(=O)[O-])cc4)c4nc(c(-c5ccc(S(=O)(=O)[O-])cc5)c5ccc2[nH]5)C=C4)C=C3)cc1
REMARK SMILES IDX 20 1 19 2 18 3 1 4 2 5 3 7 4 8 5 9 17 10 6 11 16 12 7 13
REMARK SMILES IDX 8 14 9 15 10 17 11 18 12 19 15 20 13 21 14 22 21 23 22 24
REMARK SMILES IDX 23 25 24 26 25 28 26 29 27 30 85 31 28 32 84 33 29 34 30 35
REMARK SMILES IDX 31 36 78 37 32 38 83 39 77 40 79 41 33 42 82 43 76 44 75 45
REMARK SMILES IDX 34 47 64 48 45 49 63 50 46 51 49 52 62 53 80 54 47 55 48 56
REMARK SMILES IDX 61 58 81 59 50 60 35 61 36 62 44 63 37 64 43 65 38 66 39 67
REMARK SMILES IDX 40 68 41 69 42 70 65 71 66 72 74 73 67 74 73 75 68 76 69 77
REMARK SMILES IDX 70 78 71 79 72 80 51 81 52 82 60 83 53 84 59 85 54 86 55 87
REMARK SMILES IDX 56 88 57 89 58 90
REMARK H PARENT 18 6 8 16 23 27 79 46 49 57
REMARK Flexibility Score: inf
ROOT
ATOM      1  C   UNL A   1      35.165  21.900  26.390  1.00  0.00     0.023 C 
ENDROOT
BRANCH   1   2
ATOM      2  C   UNL A   1      34.747  20.792  25.427  1.00  0.00     0.116 C 
BRANCH   2   3
ATOM      3  N   UNL A   1      34.057  21.293  24.253  1.00  0.00    -0.356 N 
ATOM      4  O   UNL A   1      31.952  20.631  24.905  1.00  0.00    -0.275 OA
ATOM      5  C   UNL A   1      32.685  21.211  24.107  1.00  0.00     0.224 C 
ATOM      6  H   UNL A   1      34.585  21.705  23.532  1.00  0.00     0.163 HD
BRANCH   5   7
ATOM      7  C   UNL A   1      32.131  21.935  22.885  1.00  0.00     0.135 C 
BRANCH   7   8
ATOM      8  C   UNL A   1      31.855  23.409  23.107  1.00  0.00    -0.039 A 
ATOM      9  C   UNL A   1      32.782  24.394  22.757  1.00  0.00     0.006 A 
ATOM     10  C   UNL A   1      30.648  23.814  23.692  1.00  0.00     0.006 A 
ATOM     11  C   UNL A   1      32.443  25.745  22.832  1.00  0.00     0.026 A 
ATOM     12  C   UNL A   1      30.313  25.172  23.766  1.00  0.00     0.026 A 
ATOM     13  C   UNL A   1      31.170  26.138  23.234  1.00  0.00     0.041 A 
BRANCH  13  14
ATOM     14  N   UNL A   1      30.678  27.447  23.107  1.00  0.00    -0.326 N 
ATOM     15  C   UNL A   1      30.798  28.544  23.923  1.00  0.00     0.227 C 
ATOM     16  H   UNL A   1      30.155  27.606  22.289  1.00  0.00     0.169 HD
ATOM     17  O   UNL A   1      30.186  29.565  23.599  1.00  0.00    -0.274 OA
BRANCH  15  18
ATOM     18  C   UNL A   1      31.678  28.506  25.167  1.00  0.00     0.079 C 
ATOM     19  C   UNL A   1      31.877  29.861  25.851  1.00  0.00     0.013 C 
ATOM     20  C   UNL A   1      31.110  27.688  26.331  1.00  0.00     0.013 C 
ATOM     21  C   UNL A   1      32.560  29.476  27.153  1.00  0.00     0.001 C 
ATOM     22  C   UNL A   1      31.921  28.145  27.548  1.00  0.00     0.001 C 
ENDBRANCH  15  18
ENDBRANCH  13  14
ENDBRANCH   7   8
ENDBRANCH   5   7
ENDBRANCH   2   3
ENDBRANCH   1   2
BRANCH   1  23
ATOM     23  C   UNL A   1      35.179  23.311  25.793  1.00  0.00     0.023 C 
BRANCH  23  24
ATOM     24  C   UNL A   1      36.554  23.852  25.410  1.00  0.00     0.116 C 
BRANCH  24  25
ATOM     25  N   UNL A   1      37.613  22.865  25.550  1.00  0.00    -0.352 N 
ATOM     26  C   UNL A   1      38.869  22.994  26.100  1.00  0.00     0.251 C 
ATOM     27  H   UNL A   1      37.400  21.970  25.199  1.00  0.00     0.163 HD
ATOM     28  O   UNL A   1      39.676  22.078  25.991  1.00  0.00    -0.269 OA
BRANCH  26  29
ATOM     29  C   UNL A   1      39.257  24.245  26.796  1.00  0.00     0.039 A 
ATOM     30  C   UNL A   1      38.858  24.430  28.123  1.00  0.00     0.014 A 
ATOM     31  C   UNL A   1      40.005  25.233  26.152  1.00  0.00     0.014 A 
ATOM     32  C   UNL A   1      39.271  25.568  28.823  1.00  0.00     0.010 A 
ATOM     33  C   UNL A   1      40.481  26.328  26.873  1.00  0.00     0.010 A 
ATOM     34  C   UNL A   1      40.122  26.508  28.218  1.00  0.00    -0.014 A 
BRANCH  34  35
ATOM     35  C   UNL A   1      40.657  27.670  28.979  1.00  0.00     0.031 A 
ATOM     36  C   UNL A   1      39.807  28.894  29.201  1.00  0.00     0.074 A 
ATOM     37  C   UNL A   1      41.933  27.652  29.417  1.00  0.00     0.049 A 
ATOM     38  N   UNL A   1      40.121  30.020  29.791  1.00  0.00    -0.248 NA
ATOM     39  C   UNL A   1      38.435  28.859  28.672  1.00  0.00     0.031 C 
ATOM     40  C   UNL A   1      42.874  26.542  29.240  1.00  0.00     0.029 A 
ATOM     41  N   UNL A   1      42.661  28.595  30.099  1.00  0.00    -0.354 N 
ATOM     42  C   UNL A   1      38.996  30.830  29.689  1.00  0.00     0.074 A 
ATOM     43  C   UNL A   1      38.008  30.085  28.939  1.00  0.00     0.031 C 
ATOM     44  C   UNL A   1      44.041  26.857  29.824  1.00  0.00     0.029 A 
ATOM     45  C   UNL A   1      43.952  28.205  30.376  1.00  0.00     0.049 A 
ATOM     46  H   UNL A   1      42.295  29.469  30.365  1.00  0.00     0.167 HD
ATOM     47  C   UNL A   1      38.796  32.073  30.189  1.00  0.00     0.031 A 
ATOM     48  C   UNL A   1      44.955  28.859  30.994  1.00  0.00     0.031 A 
ATOM     49  C   UNL A   1      39.776  32.811  30.941  1.00  0.00     0.049 A 
ATOM     50  C   UNL A   1      44.716  30.250  31.517  1.00  0.00     0.074 A 
ATOM     51  C   UNL A   1      39.646  34.052  31.539  1.00  0.00     0.029 A 
ATOM     52  N   UNL A   1      41.070  32.382  31.195  1.00  0.00    -0.354 N 
ATOM     53  N   UNL A   1      43.621  30.970  31.471  1.00  0.00    -0.248 NA
ATOM     54  C   UNL A   1      45.845  30.912  32.185  1.00  0.00     0.031 C 
ATOM     55  C   UNL A   1      40.879  34.402  32.096  1.00  0.00     0.029 A 
ATOM     56  C   UNL A   1      41.758  33.348  31.910  1.00  0.00     0.049 A 
ATOM     57  H   UNL A   1      41.445  31.517  30.908  1.00  0.00     0.167 HD
ATOM     58  C   UNL A   1      43.919  32.156  32.132  1.00  0.00     0.074 A 
ATOM     59  C   UNL A   1      45.292  32.051  32.580  1.00  0.00     0.031 C 
ATOM     60  C   UNL A   1      43.126  33.235  32.351  1.00  0.00     0.031 A 
BRANCH  47  61
ATOM     61  C   UNL A   1      37.461  32.727  29.925  1.00  0.00    -0.014 A 
ATOM     62  C   UNL A   1      36.404  32.629  30.848  1.00  0.00     0.010 A 
ATOM     63  C   UNL A   1      37.280  33.492  28.758  1.00  0.00     0.010 A 
ATOM     64  C   UNL A   1      35.178  33.247  30.588  1.00  0.00     0.020 A 
ATOM     65  C   UNL A   1      36.065  34.139  28.510  1.00  0.00     0.020 A 
ATOM     66  C   UNL A   1      35.016  33.997  29.420  1.00  0.00     0.054 A 
BRANCH  66  67
ATOM     67  S   UNL A   1      33.421  34.809  29.124  1.00  0.00     0.124 S 
ATOM     68  O   UNL A   1      32.802  33.909  28.154  1.00  0.00    -0.237 OA
ATOM     69  O   UNL A   1      32.814  34.814  30.451  1.00  0.00    -0.237 OA
ATOM     70  O   UNL A   1      33.790  36.124  28.605  1.00  0.00    -0.744 OA
ENDBRANCH  66  67
ENDBRANCH  47  61
BRANCH  48  71
ATOM     71  C   UNL A   1      46.282  28.200  31.166  1.00  0.00    -0.014 A 
ATOM     72  C   UNL A   1      47.294  28.370  30.206  1.00  0.00     0.010 A 
ATOM     73  C   UNL A   1      46.539  27.401  32.295  1.00  0.00     0.010 A 
ATOM     74  C   UNL A   1      48.532  27.739  30.360  1.00  0.00     0.020 A 
ATOM     75  C   UNL A   1      47.786  26.793  32.469  1.00  0.00     0.020 A 
ATOM     76  C   UNL A   1      48.771  26.957  31.493  1.00  0.00     0.054 A 
BRANCH  76  77
ATOM     77  S   UNL A   1      50.401  26.187  31.697  1.00  0.00     0.124 S 
ATOM     78  O   UNL A   1      50.049  24.804  32.004  1.00  0.00    -0.237 OA
ATOM     79  O   UNL A   1      51.018  26.408  30.391  1.00  0.00    -0.237 OA
ATOM     80  O   UNL A   1      51.001  26.940  32.796  1.00  0.00    -0.744 OA
ENDBRANCH  76  77
ENDBRANCH  48  71
BRANCH  60  81
ATOM     81  C   UNL A   1      43.706  34.377  33.145  1.00  0.00    -0.014 A 
ATOM     82  C   UNL A   1      44.299  35.484  32.513  1.00  0.00     0.010 A 
ATOM     83  C   UNL A   1      43.604  34.365  34.549  1.00  0.00     0.010 A 
ATOM     84  C   UNL A   1      44.808  36.541  33.272  1.00  0.00     0.020 A 
ATOM     85  C   UNL A   1      44.082  35.434  35.308  1.00  0.00     0.020 A 
ATOM     86  C   UNL A   1      44.695  36.511  34.665  1.00  0.00     0.054 A 
BRANCH  86  87
ATOM     87  S   UNL A   1      45.323  37.917  35.623  1.00  0.00     0.124 S 
ATOM     88  O   UNL A   1      46.078  37.251  36.682  1.00  0.00    -0.237 OA
ATOM     89  O   UNL A   1      46.126  38.640  34.641  1.00  0.00    -0.237 OA
ATOM     90  O   UNL A   1      44.113  38.608  36.062  1.00  0.00    -0.744 OA
ENDBRANCH  86  87
ENDBRANCH  60  81
ENDBRANCH  34  35
ENDBRANCH  26  29
ENDBRANCH  24  25
ENDBRANCH  23  24
ENDBRANCH   1  23
TORSDOF 17
ENDMDL
