MODEL 1
REMARK VINA RESULT:     -12.5      0.000      0.000
REMARK SMILES Cc1ccc2c(=O)c3cccc(CC(=O)NCCCCNC(=O)c4ccc(-c5c6nc(c(-c7ccc(S(=O)(=O)[O-])cc7)c7ccc([nH]7)c(-c7ccc(S(=O)(=O)[O-])cc7)c7nc(c(-c8ccc(S(=O)(=O)[O-])cc8)c8ccc5[nH]8)C=C7)C=C6)cc4)c3oc2c1C
REMARK SMILES IDX 19 1 18 2 17 3 16 4 14 5 15 6 13 8 12 9 1 10 2 11 3 12 87 13
REMARK SMILES IDX 4 14 86 15 88 16 5 17 85 18 6 19 84 20 7 21 8 22 9 23 11 24
REMARK SMILES IDX 10 25 20 26 21 27 22 28 23 30 24 31 25 32 83 33 26 34 82 35
REMARK SMILES IDX 27 36 28 37 29 38 76 39 30 40 81 41 75 42 77 43 31 44 80 45
REMARK SMILES IDX 74 46 73 47 32 49 62 50 43 51 61 52 44 53 47 54 60 55 78 56
REMARK SMILES IDX 45 57 46 58 59 60 79 61 48 62 33 63 34 64 42 65 35 66 41 67
REMARK SMILES IDX 36 68 37 69 38 70 39 71 40 72 63 73 64 74 72 75 65 76 71 77
REMARK SMILES IDX 66 78 67 79 68 80 69 81 70 82 49 83 50 84 58 85 51 86 57 87
REMARK SMILES IDX 52 88 53 89 54 90 55 91 56 92
REMARK H PARENT 16 7 21 29 77 48 47 59
REMARK Flexibility Score: inf
ROOT
ATOM      1  C   UNL A   1      35.014  31.911  28.028  1.00  0.00     0.023 C 
ENDROOT
BRANCH   1   2
ATOM      2  C   UNL A   1      34.851  30.463  27.563  1.00  0.00     0.023 C 
BRANCH   2   3
ATOM      3  C   UNL A   1      33.483  30.122  26.969  1.00  0.00     0.116 C 
BRANCH   3   4
ATOM      4  N   UNL A   1      33.574  29.664  25.597  1.00  0.00    -0.356 N 
ATOM      5  C   UNL A   1      33.743  28.397  25.117  1.00  0.00     0.224 C 
ATOM      6  O   UNL A   1      33.755  28.233  23.894  1.00  0.00    -0.275 OA
ATOM      7  H   UNL A   1      33.505  30.368  24.912  1.00  0.00     0.163 HD
BRANCH   5   8
ATOM      8  C   UNL A   1      33.830  27.215  26.070  1.00  0.00     0.139 C 
BRANCH   8   9
ATOM      9  C   UNL A   1      32.679  26.236  25.986  1.00  0.00     0.005 A 
ATOM     10  C   UNL A   1      37.512  20.876  24.831  1.00  0.00     0.045 C 
ATOM     11  C   UNL A   1      36.100  21.357  25.038  1.00  0.00    -0.044 A 
ATOM     12  C   UNL A   1      35.068  20.404  25.034  1.00  0.00     0.005 A 
ATOM     13  C   UNL A   1      35.783  22.727  25.193  1.00  0.00    -0.005 A 
ATOM     14  C   UNL A   1      33.741  20.787  25.213  1.00  0.00     0.016 A 
ATOM     15  C   UNL A   1      34.438  23.101  25.400  1.00  0.00     0.141 A 
ATOM     16  C   UNL A   1      36.852  23.792  25.202  1.00  0.00     0.049 C 
ATOM     17  C   UNL A   1      33.434  22.134  25.399  1.00  0.00     0.066 A 
ATOM     18  O   UNL A   1      34.183  24.440  25.598  1.00  0.00    -0.455 OA
ATOM     19  C   UNL A   1      32.039  22.555  25.583  1.00  0.00     0.200 A 
ATOM     20  C   UNL A   1      32.888  24.860  25.785  1.00  0.00     0.142 A 
ATOM     21  O   UNL A   1      31.114  21.752  25.561  1.00  0.00    -0.288 OA
ATOM     22  C   UNL A   1      31.798  23.989  25.777  1.00  0.00     0.066 A 
ATOM     23  C   UNL A   1      30.495  24.467  25.950  1.00  0.00     0.016 A 
ATOM     24  C   UNL A   1      31.360  26.710  26.118  1.00  0.00     0.008 A 
ATOM     25  C   UNL A   1      30.277  25.831  26.112  1.00  0.00     0.001 A 
ENDBRANCH   8   9
ENDBRANCH   5   8
ENDBRANCH   3   4
ENDBRANCH   2   3
ENDBRANCH   1   2
BRANCH   1  26
ATOM     26  C   UNL A   1      35.945  32.117  29.217  1.00  0.00     0.116 C 
BRANCH  26  27
ATOM     27  N   UNL A   1      35.742  31.158  30.295  1.00  0.00    -0.352 N 
ATOM     28  C   UNL A   1      36.628  30.219  30.775  1.00  0.00     0.251 C 
ATOM     29  H   UNL A   1      34.863  31.185  30.736  1.00  0.00     0.163 HD
ATOM     30  O   UNL A   1      36.275  29.421  31.639  1.00  0.00    -0.269 OA
BRANCH  28  31
ATOM     31  C   UNL A   1      37.988  30.145  30.198  1.00  0.00     0.039 A 
ATOM     32  C   UNL A   1      38.169  30.041  28.818  1.00  0.00     0.014 A 
ATOM     33  C   UNL A   1      39.092  30.109  31.056  1.00  0.00     0.014 A 
ATOM     34  C   UNL A   1      39.424  29.720  28.313  1.00  0.00     0.010 A 
ATOM     35  C   UNL A   1      40.367  29.863  30.536  1.00  0.00     0.010 A 
ATOM     36  C   UNL A   1      40.533  29.607  29.167  1.00  0.00    -0.014 A 
BRANCH  36  37
ATOM     37  C   UNL A   1      41.845  29.185  28.606  1.00  0.00     0.031 A 
ATOM     38  C   UNL A   1      43.016  30.134  28.600  1.00  0.00     0.074 A 
ATOM     39  C   UNL A   1      42.006  27.916  28.182  1.00  0.00     0.049 A 
ATOM     40  N   UNL A   1      44.244  29.917  28.203  1.00  0.00    -0.248 NA
ATOM     41  C   UNL A   1      42.786  31.498  29.107  1.00  0.00     0.031 C 
ATOM     42  C   UNL A   1      40.955  26.895  28.170  1.00  0.00     0.029 A 
ATOM     43  N   UNL A   1      43.117  27.256  27.720  1.00  0.00    -0.354 N 
ATOM     44  C   UNL A   1      44.927  31.113  28.400  1.00  0.00     0.074 A 
ATOM     45  C   UNL A   1      43.973  32.063  28.925  1.00  0.00     0.031 C 
ATOM     46  C   UNL A   1      41.488  25.725  27.790  1.00  0.00     0.029 A 
ATOM     47  C   UNL A   1      42.899  25.921  27.471  1.00  0.00     0.049 A 
ATOM     48  H   UNL A   1      43.987  27.696  27.581  1.00  0.00     0.167 HD
ATOM     49  C   UNL A   1      46.234  31.388  28.178  1.00  0.00     0.031 A 
ATOM     50  C   UNL A   1      43.735  24.958  27.036  1.00  0.00     0.031 A 
ATOM     51  C   UNL A   1      47.187  30.435  27.673  1.00  0.00     0.049 A 
ATOM     52  C   UNL A   1      45.170  25.299  26.755  1.00  0.00     0.074 A 
ATOM     53  C   UNL A   1      48.533  30.629  27.412  1.00  0.00     0.029 A 
ATOM     54  N   UNL A   1      46.906  29.114  27.364  1.00  0.00    -0.354 N 
ATOM     55  N   UNL A   1      45.788  26.442  26.927  1.00  0.00    -0.248 NA
ATOM     56  C   UNL A   1      46.020  24.228  26.217  1.00  0.00     0.031 C 
ATOM     57  C   UNL A   1      49.055  29.439  26.901  1.00  0.00     0.029 A 
ATOM     58  C   UNL A   1      48.049  28.485  26.900  1.00  0.00     0.049 A 
ATOM     59  H   UNL A   1      46.024  28.686  27.460  1.00  0.00     0.167 HD
ATOM     60  C   UNL A   1      47.102  26.227  26.527  1.00  0.00     0.074 A 
ATOM     61  C   UNL A   1      47.194  24.840  26.122  1.00  0.00     0.031 C 
ATOM     62  C   UNL A   1      48.133  27.105  26.496  1.00  0.00     0.031 A 
BRANCH  49  63
ATOM     63  C   UNL A   1      46.734  32.777  28.479  1.00  0.00    -0.014 A 
ATOM     64  C   UNL A   1      46.729  33.755  27.469  1.00  0.00     0.010 A 
ATOM     65  C   UNL A   1      47.324  33.076  29.720  1.00  0.00     0.010 A 
ATOM     66  C   UNL A   1      47.331  34.997  27.681  1.00  0.00     0.020 A 
ATOM     67  C   UNL A   1      47.906  34.327  29.944  1.00  0.00     0.020 A 
ATOM     68  C   UNL A   1      47.926  35.272  28.915  1.00  0.00     0.054 A 
BRANCH  68  69
ATOM     69  S   UNL A   1      48.725  36.882  29.166  1.00  0.00     0.124 S 
ATOM     70  O   UNL A   1      49.871  36.801  28.266  1.00  0.00    -0.237 OA
ATOM     71  O   UNL A   1      47.679  37.825  28.776  1.00  0.00    -0.237 OA
ATOM     72  O   UNL A   1      49.047  36.882  30.592  1.00  0.00    -0.744 OA
ENDBRANCH  68  69
ENDBRANCH  49  63
BRANCH  50  73
ATOM     73  C   UNL A   1      43.218  23.573  26.865  1.00  0.00    -0.014 A 
ATOM     74  C   UNL A   1      43.188  22.685  27.955  1.00  0.00     0.010 A 
ATOM     75  C   UNL A   1      42.833  23.109  25.594  1.00  0.00     0.010 A 
ATOM     76  C   UNL A   1      42.838  21.346  27.770  1.00  0.00     0.020 A 
ATOM     77  C   UNL A   1      42.455  21.776  25.410  1.00  0.00     0.020 A 
ATOM     78  C   UNL A   1      42.490  20.896  26.495  1.00  0.00     0.054 A 
BRANCH  78  79
ATOM     79  S   UNL A   1      42.085  19.142  26.265  1.00  0.00     0.124 S 
ATOM     80  O   UNL A   1      42.298  18.609  27.608  1.00  0.00    -0.237 OA
ATOM     81  O   UNL A   1      40.695  19.188  25.819  1.00  0.00    -0.237 OA
ATOM     82  O   UNL A   1      43.045  18.701  25.257  1.00  0.00    -0.744 OA
ENDBRANCH  78  79
ENDBRANCH  50  73
BRANCH  62  83
ATOM     83  C   UNL A   1      49.469  26.615  26.010  1.00  0.00    -0.014 A 
ATOM     84  C   UNL A   1      50.319  25.921  26.890  1.00  0.00     0.010 A 
ATOM     85  C   UNL A   1      49.939  26.964  24.732  1.00  0.00     0.010 A 
ATOM     86  C   UNL A   1      51.629  25.614  26.514  1.00  0.00     0.020 A 
ATOM     87  C   UNL A   1      51.241  26.636  24.344  1.00  0.00     0.020 A 
ATOM     88  C   UNL A   1      52.086  25.987  25.248  1.00  0.00     0.054 A 
BRANCH  88  89
ATOM     89  S   UNL A   1      53.801  25.616  24.789  1.00  0.00     0.124 S 
ATOM     90  O   UNL A   1      54.555  26.406  25.758  1.00  0.00    -0.237 OA
ATOM     91  O   UNL A   1      53.877  24.167  24.964  1.00  0.00    -0.237 OA
ATOM     92  O   UNL A   1      53.890  26.072  23.404  1.00  0.00    -0.744 OA
ENDBRANCH  88  89
ENDBRANCH  62  83
ENDBRANCH  36  37
ENDBRANCH  28  31
ENDBRANCH  26  27
ENDBRANCH   1  26
TORSDOF 15
ENDMDL
MODEL 2
REMARK VINA RESULT:     -12.5      3.857      5.023
REMARK SMILES Cc1ccc2c(=O)c3cccc(CC(=O)NCCCCNC(=O)c4ccc(-c5c6nc(c(-c7ccc(S(=O)(=O)[O-])cc7)c7ccc([nH]7)c(-c7ccc(S(=O)(=O)[O-])cc7)c7nc(c(-c8ccc(S(=O)(=O)[O-])cc8)c8ccc5[nH]8)C=C7)C=C6)cc4)c3oc2c1C
REMARK SMILES IDX 19 1 18 2 17 3 16 4 14 5 15 6 13 8 12 9 1 10 2 11 3 12 87 13
REMARK SMILES IDX 4 14 86 15 88 16 5 17 85 18 6 19 84 20 7 21 8 22 9 23 11 24
REMARK SMILES IDX 10 25 20 26 21 27 22 28 23 30 24 31 25 32 83 33 26 34 82 35
REMARK SMILES IDX 27 36 28 37 29 38 76 39 30 40 81 41 75 42 77 43 31 44 80 45
REMARK SMILES IDX 74 46 73 47 32 49 62 50 43 51 61 52 44 53 47 54 60 55 78 56
REMARK SMILES IDX 45 57 46 58 59 60 79 61 48 62 33 63 34 64 42 65 35 66 41 67
REMARK SMILES IDX 36 68 37 69 38 70 39 71 40 72 63 73 64 74 72 75 65 76 71 77
REMARK SMILES IDX 66 78 67 79 68 80 69 81 70 82 49 83 50 84 58 85 51 86 57 87
REMARK SMILES IDX 52 88 53 89 54 90 55 91 56 92
REMARK H PARENT 16 7 21 29 77 48 47 59
REMARK Flexibility Score: inf
ROOT
ATOM      1  C   UNL A   1      33.455  28.050  26.917  1.00  0.00     0.023 C 
ENDROOT
BRANCH   1   2
ATOM      2  C   UNL A   1      31.976  27.684  27.057  1.00  0.00     0.023 C 
BRANCH   2   3
ATOM      3  C   UNL A   1      31.484  26.596  26.101  1.00  0.00     0.116 C 
BRANCH   3   4
ATOM      4  N   UNL A   1      31.204  25.348  26.782  1.00  0.00    -0.356 N 
ATOM      5  C   UNL A   1      31.536  24.072  26.422  1.00  0.00     0.224 C 
ATOM      6  O   UNL A   1      31.223  23.152  27.182  1.00  0.00    -0.275 OA
ATOM      7  H   UNL A   1      30.702  25.431  27.624  1.00  0.00     0.163 HD
BRANCH   5   8
ATOM      8  C   UNL A   1      32.340  23.810  25.159  1.00  0.00     0.139 C 
BRANCH   8   9
ATOM      9  C   UNL A   1      33.837  23.719  25.358  1.00  0.00     0.005 A 
ATOM     10  C   UNL A   1      33.411  16.521  24.161  1.00  0.00     0.045 C 
ATOM     11  C   UNL A   1      34.210  17.769  24.429  1.00  0.00    -0.044 A 
ATOM     12  C   UNL A   1      35.607  17.652  24.527  1.00  0.00     0.005 A 
ATOM     13  C   UNL A   1      33.601  19.030  24.625  1.00  0.00    -0.005 A 
ATOM     14  C   UNL A   1      36.402  18.768  24.781  1.00  0.00     0.016 A 
ATOM     15  C   UNL A   1      34.417  20.159  24.856  1.00  0.00     0.141 A 
ATOM     16  C   UNL A   1      32.105  19.210  24.534  1.00  0.00     0.049 C 
ATOM     17  C   UNL A   1      35.801  20.016  24.940  1.00  0.00     0.066 A 
ATOM     18  O   UNL A   1      33.783  21.374  24.989  1.00  0.00    -0.455 OA
ATOM     19  C   UNL A   1      36.624  21.201  25.215  1.00  0.00     0.200 A 
ATOM     20  C   UNL A   1      34.529  22.501  25.233  1.00  0.00     0.142 A 
ATOM     21  O   UNL A   1      37.841  21.130  25.329  1.00  0.00    -0.288 OA
ATOM     22  C   UNL A   1      35.918  22.479  25.365  1.00  0.00     0.066 A 
ATOM     23  C   UNL A   1      36.633  23.650  25.636  1.00  0.00     0.016 A 
ATOM     24  C   UNL A   1      34.563  24.884  25.671  1.00  0.00     0.008 A 
ATOM     25  C   UNL A   1      35.951  24.852  25.798  1.00  0.00     0.001 A 
ENDBRANCH   8   9
ENDBRANCH   5   8
ENDBRANCH   3   4
ENDBRANCH   2   3
ENDBRANCH   1   2
BRANCH   1  26
ATOM     26  C   UNL A   1      33.742  29.353  26.180  1.00  0.00     0.116 C 
BRANCH  26  27
ATOM     27  N   UNL A   1      33.609  30.541  27.013  1.00  0.00    -0.352 N 
ATOM     28  C   UNL A   1      34.486  31.015  27.963  1.00  0.00     0.251 C 
ATOM     29  H   UNL A   1      32.791  31.072  26.880  1.00  0.00     0.163 HD
ATOM     30  O   UNL A   1      34.189  31.992  28.646  1.00  0.00    -0.269 OA
BRANCH  28  31
ATOM     31  C   UNL A   1      35.762  30.302  28.191  1.00  0.00     0.039 A 
ATOM     32  C   UNL A   1      35.991  29.622  29.387  1.00  0.00     0.014 A 
ATOM     33  C   UNL A   1      36.766  30.376  27.220  1.00  0.00     0.014 A 
ATOM     34  C   UNL A   1      37.274  29.176  29.688  1.00  0.00     0.010 A 
ATOM     35  C   UNL A   1      38.036  29.857  27.495  1.00  0.00     0.010 A 
ATOM     36  C   UNL A   1      38.316  29.307  28.755  1.00  0.00    -0.014 A 
BRANCH  36  37
ATOM     37  C   UNL A   1      39.692  28.893  29.137  1.00  0.00     0.031 A 
ATOM     38  C   UNL A   1      40.526  29.757  30.048  1.00  0.00     0.074 A 
ATOM     39  C   UNL A   1      40.159  27.695  28.734  1.00  0.00     0.049 A 
ATOM     40  N   UNL A   1      41.722  29.526  30.528  1.00  0.00    -0.248 NA
ATOM     41  C   UNL A   1      39.949  31.041  30.481  1.00  0.00     0.031 C 
ATOM     42  C   UNL A   1      39.431  26.755  27.878  1.00  0.00     0.029 A 
ATOM     43  N   UNL A   1      41.332  27.043  29.021  1.00  0.00    -0.354 N 
ATOM     44  C   UNL A   1      42.043  30.633  31.306  1.00  0.00     0.074 A 
ATOM     45  C   UNL A   1      40.931  31.551  31.213  1.00  0.00     0.031 C 
ATOM     46  C   UNL A   1      40.142  25.624  27.767  1.00  0.00     0.029 A 
ATOM     47  C   UNL A   1      41.403  25.777  28.488  1.00  0.00     0.049 A 
ATOM     48  H   UNL A   1      42.054  27.444  29.557  1.00  0.00     0.167 HD
ATOM     49  C   UNL A   1      43.157  30.856  32.043  1.00  0.00     0.031 A 
ATOM     50  C   UNL A   1      42.367  24.840  28.567  1.00  0.00     0.031 A 
ATOM     51  C   UNL A   1      44.256  29.932  32.148  1.00  0.00     0.049 A 
ATOM     52  C   UNL A   1      43.612  25.129  29.355  1.00  0.00     0.074 A 
ATOM     53  C   UNL A   1      45.428  30.079  32.870  1.00  0.00     0.029 A 
ATOM     54  N   UNL A   1      44.317  28.693  31.532  1.00  0.00    -0.354 N 
ATOM     55  N   UNL A   1      43.904  26.193  30.064  1.00  0.00    -0.248 NA
ATOM     56  C   UNL A   1      44.661  24.100  29.351  1.00  0.00     0.031 C 
ATOM     57  C   UNL A   1      46.219  28.948  32.652  1.00  0.00     0.029 A 
ATOM     58  C   UNL A   1      45.514  28.071  31.843  1.00  0.00     0.049 A 
ATOM     59  H   UNL A   1      43.613  28.311  30.958  1.00  0.00     0.167 HD
ATOM     60  C   UNL A   1      45.165  25.958  30.598  1.00  0.00     0.074 A 
ATOM     61  C   UNL A   1      45.575  24.644  30.146  1.00  0.00     0.031 C 
ATOM     62  C   UNL A   1      45.915  26.764  31.387  1.00  0.00     0.031 A 
BRANCH  49  63
ATOM     63  C   UNL A   1      43.262  32.150  32.808  1.00  0.00    -0.014 A 
ATOM     64  C   UNL A   1      42.734  32.236  34.109  1.00  0.00     0.010 A 
ATOM     65  C   UNL A   1      43.766  33.310  32.194  1.00  0.00     0.010 A 
ATOM     66  C   UNL A   1      42.681  33.464  34.773  1.00  0.00     0.020 A 
ATOM     67  C   UNL A   1      43.737  34.536  32.865  1.00  0.00     0.020 A 
ATOM     68  C   UNL A   1      43.173  34.610  34.142  1.00  0.00     0.054 A 
BRANCH  68  69
ATOM     69  S   UNL A   1      43.075  36.201  35.007  1.00  0.00     0.124 S 
ATOM     70  O   UNL A   1      43.623  37.124  34.019  1.00  0.00    -0.237 OA
ATOM     71  O   UNL A   1      41.644  36.335  35.272  1.00  0.00    -0.237 OA
ATOM     72  O   UNL A   1      43.900  35.993  36.196  1.00  0.00    -0.744 OA
ENDBRANCH  68  69
ENDBRANCH  49  63
BRANCH  50  73
ATOM     73  C   UNL A   1      42.164  23.532  27.888  1.00  0.00    -0.014 A 
ATOM     74  C   UNL A   1      41.601  22.448  28.585  1.00  0.00     0.010 A 
ATOM     75  C   UNL A   1      42.611  23.338  26.568  1.00  0.00     0.010 A 
ATOM     76  C   UNL A   1      41.538  21.182  27.999  1.00  0.00     0.020 A 
ATOM     77  C   UNL A   1      42.524  22.079  25.968  1.00  0.00     0.020 A 
ATOM     78  C   UNL A   1      42.016  21.002  26.699  1.00  0.00     0.054 A 
BRANCH  78  79
ATOM     79  S   UNL A   1      41.970  19.341  25.972  1.00  0.00     0.124 S 
ATOM     80  O   UNL A   1      42.819  19.507  24.795  1.00  0.00    -0.237 OA
ATOM     81  O   UNL A   1      42.525  18.508  27.036  1.00  0.00    -0.237 OA
ATOM     82  O   UNL A   1      40.552  19.129  25.696  1.00  0.00    -0.744 OA
ENDBRANCH  78  79
ENDBRANCH  50  73
BRANCH  62  83
ATOM     83  C   UNL A   1      47.265  26.271  31.831  1.00  0.00    -0.014 A 
ATOM     84  C   UNL A   1      48.354  26.328  30.941  1.00  0.00     0.010 A 
ATOM     85  C   UNL A   1      47.421  25.627  33.069  1.00  0.00     0.010 A 
ATOM     86  C   UNL A   1      49.568  25.718  31.268  1.00  0.00     0.020 A 
ATOM     87  C   UNL A   1      48.642  25.036  33.410  1.00  0.00     0.020 A 
ATOM     88  C   UNL A   1      49.698  25.063  32.495  1.00  0.00     0.054 A 
BRANCH  88  89
ATOM     89  S   UNL A   1      51.267  24.242  32.889  1.00  0.00     0.124 S 
ATOM     90  O   UNL A   1      51.210  24.154  34.345  1.00  0.00    -0.237 OA
ATOM     91  O   UNL A   1      51.155  22.970  32.177  1.00  0.00    -0.237 OA
ATOM     92  O   UNL A   1      52.274  25.157  32.356  1.00  0.00    -0.744 OA
ENDBRANCH  88  89
ENDBRANCH  62  83
ENDBRANCH  36  37
ENDBRANCH  28  31
ENDBRANCH  26  27
ENDBRANCH   1  26
TORSDOF 15
ENDMDL
MODEL 3
REMARK VINA RESULT:     -12.2      6.215     11.587
REMARK SMILES Cc1ccc2c(=O)c3cccc(CC(=O)NCCCCNC(=O)c4ccc(-c5c6nc(c(-c7ccc(S(=O)(=O)[O-])cc7)c7ccc([nH]7)c(-c7ccc(S(=O)(=O)[O-])cc7)c7nc(c(-c8ccc(S(=O)(=O)[O-])cc8)c8ccc5[nH]8)C=C7)C=C6)cc4)c3oc2c1C
REMARK SMILES IDX 19 1 18 2 17 3 16 4 14 5 15 6 13 8 12 9 1 10 2 11 3 12 87 13
REMARK SMILES IDX 4 14 86 15 88 16 5 17 85 18 6 19 84 20 7 21 8 22 9 23 11 24
REMARK SMILES IDX 10 25 20 26 21 27 22 28 23 30 24 31 25 32 83 33 26 34 82 35
REMARK SMILES IDX 27 36 28 37 29 38 76 39 30 40 81 41 75 42 77 43 31 44 80 45
REMARK SMILES IDX 74 46 73 47 32 49 62 50 43 51 61 52 44 53 47 54 60 55 78 56
REMARK SMILES IDX 45 57 46 58 59 60 79 61 48 62 33 63 34 64 42 65 35 66 41 67
REMARK SMILES IDX 36 68 37 69 38 70 39 71 40 72 63 73 64 74 72 75 65 76 71 77
REMARK SMILES IDX 66 78 67 79 68 80 69 81 70 82 49 83 50 84 58 85 51 86 57 87
REMARK SMILES IDX 52 88 53 89 54 90 55 91 56 92
REMARK H PARENT 16 7 21 29 77 48 47 59
REMARK Flexibility Score: inf
ROOT
ATOM      1  C   UNL A   1      40.768  22.236  27.526  1.00  0.00     0.023 C 
ENDROOT
BRANCH   1   2
ATOM      2  C   UNL A   1      39.867  21.819  26.362  1.00  0.00     0.023 C 
BRANCH   2   3
ATOM      3  C   UNL A   1      38.562  22.607  26.238  1.00  0.00     0.116 C 
BRANCH   3   4
ATOM      4  N   UNL A   1      37.905  22.392  24.965  1.00  0.00    -0.356 N 
ATOM      5  C   UNL A   1      36.791  22.994  24.452  1.00  0.00     0.224 C 
ATOM      6  O   UNL A   1      36.427  22.677  23.317  1.00  0.00    -0.275 OA
ATOM      7  H   UNL A   1      38.321  21.713  24.385  1.00  0.00     0.163 HD
BRANCH   5   8
ATOM      8  C   UNL A   1      36.073  24.083  25.233  1.00  0.00     0.139 C 
BRANCH   8   9
ATOM      9  C   UNL A   1      34.872  23.618  26.026  1.00  0.00     0.005 A 
ATOM     10  C   UNL A   1      30.822  28.602  22.537  1.00  0.00     0.045 C 
ATOM     11  C   UNL A   1      30.960  27.462  23.510  1.00  0.00    -0.044 A 
ATOM     12  C   UNL A   1      29.804  27.007  24.166  1.00  0.00     0.005 A 
ATOM     13  C   UNL A   1      32.210  26.871  23.811  1.00  0.00    -0.005 A 
ATOM     14  C   UNL A   1      29.867  25.960  25.083  1.00  0.00     0.016 A 
ATOM     15  C   UNL A   1      32.259  25.794  24.722  1.00  0.00     0.141 A 
ATOM     16  C   UNL A   1      33.482  27.323  23.137  1.00  0.00     0.049 C 
ATOM     17  C   UNL A   1      31.095  25.358  25.353  1.00  0.00     0.066 A 
ATOM     18  O   UNL A   1      33.489  25.216  24.944  1.00  0.00    -0.455 OA
ATOM     19  C   UNL A   1      31.180  24.257  26.322  1.00  0.00     0.200 A 
ATOM     20  C   UNL A   1      33.595  24.177  25.836  1.00  0.00     0.142 A 
ATOM     21  O   UNL A   1      30.195  23.853  26.928  1.00  0.00    -0.288 OA
ATOM     22  C   UNL A   1      32.507  23.672  26.548  1.00  0.00     0.066 A 
ATOM     23  C   UNL A   1      32.668  22.627  27.462  1.00  0.00     0.016 A 
ATOM     24  C   UNL A   1      35.029  22.594  26.980  1.00  0.00     0.008 A 
ATOM     25  C   UNL A   1      33.934  22.094  27.684  1.00  0.00     0.001 A 
ENDBRANCH   8   9
ENDBRANCH   5   8
ENDBRANCH   3   4
ENDBRANCH   2   3
ENDBRANCH   1   2
BRANCH   1  26
ATOM     26  C   UNL A   1      41.980  23.078  27.148  1.00  0.00     0.116 C 
BRANCH  26  27
ATOM     27  N   UNL A   1      41.747  23.968  26.018  1.00  0.00    -0.352 N 
ATOM     28  C   UNL A   1      41.526  25.328  26.038  1.00  0.00     0.251 C 
ATOM     29  H   UNL A   1      41.749  23.546  25.129  1.00  0.00     0.163 HD
ATOM     30  O   UNL A   1      41.260  25.926  24.998  1.00  0.00    -0.269 OA
BRANCH  28  31
ATOM     31  C   UNL A   1      41.556  26.047  27.331  1.00  0.00     0.039 A 
ATOM     32  C   UNL A   1      40.496  25.932  28.231  1.00  0.00     0.014 A 
ATOM     33  C   UNL A   1      42.628  26.901  27.610  1.00  0.00     0.014 A 
ATOM     34  C   UNL A   1      40.420  26.801  29.314  1.00  0.00     0.010 A 
ATOM     35  C   UNL A   1      42.585  27.718  28.744  1.00  0.00     0.010 A 
ATOM     36  C   UNL A   1      41.452  27.718  29.573  1.00  0.00    -0.014 A 
BRANCH  36  37
ATOM     37  C   UNL A   1      41.303  28.685  30.692  1.00  0.00     0.031 A 
ATOM     38  C   UNL A   1      40.176  29.686  30.694  1.00  0.00     0.074 A 
ATOM     39  C   UNL A   1      42.133  28.606  31.751  1.00  0.00     0.049 A 
ATOM     40  N   UNL A   1      39.863  30.565  31.612  1.00  0.00    -0.248 NA
ATOM     41  C   UNL A   1      39.282  29.704  29.524  1.00  0.00     0.031 C 
ATOM     42  C   UNL A   1      43.242  27.656  31.879  1.00  0.00     0.029 A 
ATOM     43  N   UNL A   1      42.152  29.300  32.935  1.00  0.00    -0.354 N 
ATOM     44  C   UNL A   1      38.749  31.244  31.129  1.00  0.00     0.074 A 
ATOM     45  C   UNL A   1      38.456  30.698  29.823  1.00  0.00     0.031 C 
ATOM     46  C   UNL A   1      43.785  27.781  33.098  1.00  0.00     0.029 A 
ATOM     47  C   UNL A   1      43.110  28.859  33.816  1.00  0.00     0.049 A 
ATOM     48  H   UNL A   1      41.537  30.043  33.133  1.00  0.00     0.167 HD
ATOM     49  C   UNL A   1      38.028  32.222  31.726  1.00  0.00     0.031 A 
ATOM     50  C   UNL A   1      43.417  29.268  35.063  1.00  0.00     0.031 A 
ATOM     51  C   UNL A   1      38.311  32.752  33.034  1.00  0.00     0.049 A 
ATOM     52  C   UNL A   1      42.630  30.385  35.685  1.00  0.00     0.074 A 
ATOM     53  C   UNL A   1      37.635  33.749  33.716  1.00  0.00     0.029 A 
ATOM     54  N   UNL A   1      39.337  32.326  33.861  1.00  0.00    -0.354 N 
ATOM     55  N   UNL A   1      41.596  31.027  35.200  1.00  0.00    -0.248 NA
ATOM     56  C   UNL A   1      43.051  30.838  37.018  1.00  0.00     0.031 C 
ATOM     57  C   UNL A   1      38.281  33.959  34.936  1.00  0.00     0.029 A 
ATOM     58  C   UNL A   1      39.324  33.051  35.041  1.00  0.00     0.049 A 
ATOM     59  H   UNL A   1      39.982  31.613  33.643  1.00  0.00     0.167 HD
ATOM     60  C   UNL A   1      41.236  31.955  36.170  1.00  0.00     0.074 A 
ATOM     61  C   UNL A   1      42.151  31.778  37.279  1.00  0.00     0.031 C 
ATOM     62  C   UNL A   1      40.239  32.871  36.138  1.00  0.00     0.031 A 
BRANCH  49  63
ATOM     63  C   UNL A   1      36.851  32.798  30.984  1.00  0.00    -0.014 A 
ATOM     64  C   UNL A   1      37.063  33.733  29.955  1.00  0.00     0.010 A 
ATOM     65  C   UNL A   1      35.535  32.510  31.388  1.00  0.00     0.010 A 
ATOM     66  C   UNL A   1      35.985  34.394  29.363  1.00  0.00     0.020 A 
ATOM     67  C   UNL A   1      34.452  33.152  30.780  1.00  0.00     0.020 A 
ATOM     68  C   UNL A   1      34.685  34.107  29.787  1.00  0.00     0.054 A 
BRANCH  68  69
ATOM     69  S   UNL A   1      33.296  34.992  29.025  1.00  0.00     0.124 S 
ATOM     70  O   UNL A   1      33.956  36.153  28.436  1.00  0.00    -0.237 OA
ATOM     71  O   UNL A   1      32.773  34.012  28.075  1.00  0.00    -0.237 OA
ATOM     72  O   UNL A   1      32.414  35.279  30.155  1.00  0.00    -0.744 OA
ENDBRANCH  68  69
ENDBRANCH  49  63
BRANCH  50  73
ATOM     73  C   UNL A   1      44.517  28.588  35.799  1.00  0.00    -0.014 A 
ATOM     74  C   UNL A   1      45.824  29.105  35.762  1.00  0.00     0.010 A 
ATOM     75  C   UNL A   1      44.280  27.374  36.468  1.00  0.00     0.010 A 
ATOM     76  C   UNL A   1      46.885  28.396  36.331  1.00  0.00     0.020 A 
ATOM     77  C   UNL A   1      45.335  26.675  37.064  1.00  0.00     0.020 A 
ATOM     78  C   UNL A   1      46.635  27.177  36.964  1.00  0.00     0.054 A 
BRANCH  78  79
ATOM     79  S   UNL A   1      48.031  26.247  37.655  1.00  0.00     0.124 S 
ATOM     80  O   UNL A   1      48.683  25.748  36.448  1.00  0.00    -0.237 OA
ATOM     81  O   UNL A   1      48.768  27.272  38.391  1.00  0.00    -0.237 OA
ATOM     82  O   UNL A   1      47.387  25.232  38.484  1.00  0.00    -0.744 OA
ENDBRANCH  78  79
ENDBRANCH  50  73
BRANCH  62  83
ATOM     83  C   UNL A   1      40.061  33.772  37.331  1.00  0.00    -0.014 A 
ATOM     84  C   UNL A   1      39.060  33.485  38.276  1.00  0.00     0.010 A 
ATOM     85  C   UNL A   1      40.788  34.969  37.439  1.00  0.00     0.010 A 
ATOM     86  C   UNL A   1      38.763  34.399  39.291  1.00  0.00     0.020 A 
ATOM     87  C   UNL A   1      40.509  35.875  38.467  1.00  0.00     0.020 A 
ATOM     88  C   UNL A   1      39.480  35.595  39.370  1.00  0.00     0.054 A 
BRANCH  88  89
ATOM     89  S   UNL A   1      39.056  36.788  40.669  1.00  0.00     0.124 S 
ATOM     90  O   UNL A   1      40.371  37.262  41.090  1.00  0.00    -0.237 OA
ATOM     91  O   UNL A   1      38.233  37.763  39.957  1.00  0.00    -0.237 OA
ATOM     92  O   UNL A   1      38.338  35.980  41.652  1.00  0.00    -0.744 OA
ENDBRANCH  88  89
ENDBRANCH  62  83
ENDBRANCH  36  37
ENDBRANCH  28  31
ENDBRANCH  26  27
ENDBRANCH   1  26
TORSDOF 15
ENDMDL
