MODEL 1
REMARK VINA RESULT:     -11.4      0.000      0.000
REMARK SMILES O=C(NCCCCNC(=O)c1ccc([C@H]2CCC[N@@H+](CCN3CCCC3=O)C2)cc1)c1ccc(-c2c3nc(c(-c4ccc(S(=O)(=O)[O-])cc4)c4ccc([nH]4)c(-c4ccc(S(=O)(=O)[O-])cc4)c4nc(c(-c5ccc(S(=O)(=O)[O-])cc5)c5ccc2[nH]5)C=C4)C=C3)cc1
REMARK SMILES IDX 6 1 5 2 4 3 3 4 1 5 2 6 31 8 32 9 90 10 33 11 89 12 34 13
REMARK SMILES IDX 35 14 36 15 83 16 37 17 88 18 82 19 84 20 38 21 87 22 81 23
REMARK SMILES IDX 80 24 39 26 69 27 50 28 68 29 51 30 54 31 67 32 85 33 52 34
REMARK SMILES IDX 53 35 66 37 86 38 55 39 40 40 41 41 49 42 42 43 48 44 43 45
REMARK SMILES IDX 44 46 45 47 46 48 47 49 70 50 71 51 79 52 72 53 78 54 73 55
REMARK SMILES IDX 74 56 75 57 76 58 77 59 56 60 57 61 65 62 58 63 64 64 59 65
REMARK SMILES IDX 60 66 61 67 62 68 63 69 7 70 8 71 9 72 10 74 11 75 12 76
REMARK SMILES IDX 30 77 13 78 29 79 14 80 15 81 16 82 28 83 17 84 19 85 18 86
REMARK SMILES IDX 20 88 21 89 22 90 23 91 26 92 24 93 25 94 27 95
REMARK H PARENT 3 7 84 25 54 36 8 73 19 87
REMARK Flexibility Score: inf
ROOT
ATOM      1  C   UNL A   1      37.423  20.782  24.547  1.00  0.00     0.023 C 
ENDROOT
BRANCH   1   2
ATOM      2  C   UNL A   1      38.297  19.669  25.127  1.00  0.00     0.023 C 
BRANCH   2   3
ATOM      3  C   UNL A   1      39.387  20.130  26.086  1.00  0.00     0.116 C 
BRANCH   3   4
ATOM      4  N   UNL A   1      40.517  19.215  26.135  1.00  0.00    -0.352 N 
ATOM      5  O   UNL A   1      42.681  18.586  26.104  1.00  0.00    -0.269 OA
ATOM      6  C   UNL A   1      41.862  19.493  26.230  1.00  0.00     0.251 C 
ATOM      7  H   UNL A   1      40.287  18.258  26.094  1.00  0.00     0.163 HD
BRANCH   6   8
ATOM      8  C   UNL A   1      42.323  20.881  26.469  1.00  0.00     0.039 A 
ATOM      9  C   UNL A   1      42.578  21.336  27.765  1.00  0.00     0.014 A 
ATOM     10  C   UNL A   1      42.538  21.731  25.379  1.00  0.00     0.014 A 
ATOM     11  C   UNL A   1      42.928  22.666  27.980  1.00  0.00     0.010 A 
ATOM     12  C   UNL A   1      42.972  23.045  25.591  1.00  0.00     0.010 A 
ATOM     13  C   UNL A   1      43.160  23.528  26.895  1.00  0.00    -0.014 A 
BRANCH  13  14
ATOM     14  C   UNL A   1      43.729  24.877  27.148  1.00  0.00     0.031 A 
ATOM     15  C   UNL A   1      45.185  25.177  26.921  1.00  0.00     0.074 A 
ATOM     16  C   UNL A   1      42.898  25.841  27.595  1.00  0.00     0.049 A 
ATOM     17  N   UNL A   1      45.823  26.307  27.102  1.00  0.00    -0.248 NA
ATOM     18  C   UNL A   1      46.038  24.081  26.434  1.00  0.00     0.031 C 
ATOM     19  C   UNL A   1      41.467  25.658  27.868  1.00  0.00     0.029 A 
ATOM     20  N   UNL A   1      43.122  27.160  27.895  1.00  0.00    -0.354 N 
ATOM     21  C   UNL A   1      47.151  26.056  26.775  1.00  0.00     0.074 A 
ATOM     22  C   UNL A   1      47.231  24.663  26.392  1.00  0.00     0.031 C 
ATOM     23  C   UNL A   1      40.940  26.825  28.265  1.00  0.00     0.029 A 
ATOM     24  C   UNL A   1      42.002  27.819  28.346  1.00  0.00     0.049 A 
ATOM     25  H   UNL A   1      44.001  27.593  27.797  1.00  0.00     0.167 HD
ATOM     26  C   UNL A   1      48.200  26.912  26.800  1.00  0.00     0.031 A 
ATOM     27  C   UNL A   1      41.847  29.072  28.814  1.00  0.00     0.031 A 
ATOM     28  C   UNL A   1      48.105  28.300  27.178  1.00  0.00     0.049 A 
ATOM     29  C   UNL A   1      43.042  29.979  28.868  1.00  0.00     0.074 A 
ATOM     30  C   UNL A   1      49.103  29.261  27.165  1.00  0.00     0.029 A 
ATOM     31  N   UNL A   1      46.961  28.920  27.654  1.00  0.00    -0.354 N 
ATOM     32  N   UNL A   1      44.269  29.746  28.470  1.00  0.00    -0.248 NA
ATOM     33  C   UNL A   1      42.834  31.318  29.436  1.00  0.00     0.031 C 
ATOM     34  C   UNL A   1      48.582  30.441  27.704  1.00  0.00     0.029 A 
ATOM     35  C   UNL A   1      47.242  30.236  27.988  1.00  0.00     0.049 A 
ATOM     36  H   UNL A   1      46.080  28.490  27.743  1.00  0.00     0.167 HD
ATOM     37  C   UNL A   1      44.978  30.910  28.735  1.00  0.00     0.074 A 
ATOM     38  C   UNL A   1      44.036  31.858  29.291  1.00  0.00     0.031 C 
ATOM     39  C   UNL A   1      46.295  31.167  28.546  1.00  0.00     0.031 A 
BRANCH  26  40
ATOM     40  C   UNL A   1      49.568  26.389  26.437  1.00  0.00    -0.014 A 
ATOM     41  C   UNL A   1      50.083  26.526  25.137  1.00  0.00     0.010 A 
ATOM     42  C   UNL A   1      50.399  25.874  27.451  1.00  0.00     0.010 A 
ATOM     43  C   UNL A   1      51.402  26.153  24.857  1.00  0.00     0.020 A 
ATOM     44  C   UNL A   1      51.724  25.520  27.180  1.00  0.00     0.020 A 
ATOM     45  C   UNL A   1      52.216  25.659  25.882  1.00  0.00     0.054 A 
BRANCH  45  46
ATOM     46  S   UNL A   1      53.946  25.259  25.504  1.00  0.00     0.124 S 
ATOM     47  O   UNL A   1      53.806  24.044  24.705  1.00  0.00    -0.237 OA
ATOM     48  O   UNL A   1      54.395  26.442  24.773  1.00  0.00    -0.237 OA
ATOM     49  O   UNL A   1      54.556  25.072  26.818  1.00  0.00    -0.744 OA
ENDBRANCH  45  46
ENDBRANCH  26  40
BRANCH  27  50
ATOM     50  C   UNL A   1      40.524  29.515  29.334  1.00  0.00    -0.014 A 
ATOM     51  C   UNL A   1      39.552  30.056  28.475  1.00  0.00     0.010 A 
ATOM     52  C   UNL A   1      40.241  29.415  30.710  1.00  0.00     0.010 A 
ATOM     53  C   UNL A   1      38.338  30.523  28.988  1.00  0.00     0.020 A 
ATOM     54  C   UNL A   1      39.014  29.844  31.220  1.00  0.00     0.020 A 
ATOM     55  C   UNL A   1      38.079  30.416  30.358  1.00  0.00     0.054 A 
BRANCH  55  56
ATOM     56  S   UNL A   1      36.496  31.020  31.002  1.00  0.00     0.124 S 
ATOM     57  O   UNL A   1      35.690  31.110  29.788  1.00  0.00    -0.237 OA
ATOM     58  O   UNL A   1      36.113  29.967  31.939  1.00  0.00    -0.237 OA
ATOM     59  O   UNL A   1      36.843  32.297  31.621  1.00  0.00    -0.744 OA
ENDBRANCH  55  56
ENDBRANCH  27  50
BRANCH  39  60
ATOM     60  C   UNL A   1      46.794  32.532  28.938  1.00  0.00    -0.014 A 
ATOM     61  C   UNL A   1      47.300  32.773  30.228  1.00  0.00     0.010 A 
ATOM     62  C   UNL A   1      46.805  33.571  27.990  1.00  0.00     0.010 A 
ATOM     63  C   UNL A   1      47.786  34.037  30.570  1.00  0.00     0.020 A 
ATOM     64  C   UNL A   1      47.320  34.828  28.320  1.00  0.00     0.020 A 
ATOM     65  C   UNL A   1      47.797  35.055  29.613  1.00  0.00     0.054 A 
BRANCH  65  66
ATOM     66  S   UNL A   1      48.486  36.669  30.067  1.00  0.00     0.124 S 
ATOM     67  O   UNL A   1      49.083  36.390  31.371  1.00  0.00    -0.237 OA
ATOM     68  O   UNL A   1      49.433  36.929  28.985  1.00  0.00    -0.237 OA
ATOM     69  O   UNL A   1      47.322  37.550  30.093  1.00  0.00    -0.744 OA
ENDBRANCH  65  66
ENDBRANCH  39  60
ENDBRANCH  13  14
ENDBRANCH   6   8
ENDBRANCH   3   4
ENDBRANCH   2   3
ENDBRANCH   1   2
BRANCH   1  70
ATOM     70  C   UNL A   1      36.127  21.070  25.312  1.00  0.00     0.116 C 
BRANCH  70  71
ATOM     71  N   UNL A   1      35.115  20.041  25.114  1.00  0.00    -0.352 N 
ATOM     72  C   UNL A   1      33.751  20.131  25.249  1.00  0.00     0.251 C 
ATOM     73  H   UNL A   1      35.457  19.157  24.848  1.00  0.00     0.163 HD
ATOM     74  O   UNL A   1      33.039  19.136  25.172  1.00  0.00    -0.269 OA
BRANCH  72  75
ATOM     75  C   UNL A   1      33.138  21.448  25.491  1.00  0.00     0.039 A 
ATOM     76  C   UNL A   1      33.303  22.070  26.726  1.00  0.00     0.014 A 
ATOM     77  C   UNL A   1      32.411  22.072  24.483  1.00  0.00     0.014 A 
ATOM     78  C   UNL A   1      32.873  23.390  26.892  1.00  0.00     0.005 A 
ATOM     79  C   UNL A   1      31.971  23.385  24.663  1.00  0.00     0.005 A 
ATOM     80  C   UNL A   1      32.292  24.108  25.828  1.00  0.00    -0.039 A 
BRANCH  80  81
ATOM     81  C   UNL A   1      32.114  25.641  25.916  1.00  0.00     0.074 C 
ATOM     82  C   UNL A   1      33.491  26.334  26.024  1.00  0.00     0.020 C 
ATOM     83  C   UNL A   1      31.293  26.222  24.720  1.00  0.00     0.270 C 
ATOM     84  C   UNL A   1      33.402  27.835  25.814  1.00  0.00     0.062 C 
ATOM     85  N   UNL A   1      31.461  27.623  24.311  1.00  0.00    -0.333 N 
ATOM     86  C   UNL A   1      32.828  28.124  24.438  1.00  0.00     0.262 C 
ATOM     87  H   UNL A   1      30.915  28.168  24.977  1.00  0.00     0.348 HD
BRANCH  85  88
ATOM     88  C   UNL A   1      30.915  27.859  22.948  1.00  0.00     0.284 C 
BRANCH  88  89
ATOM     89  C   UNL A   1      29.383  28.070  22.708  1.00  0.00     0.180 C 
BRANCH  89  90
ATOM     90  N   UNL A   1      28.914  29.453  22.668  1.00  0.00    -0.337 N 
ATOM     91  C   UNL A   1      29.558  30.450  21.854  1.00  0.00     0.120 C 
ATOM     92  C   UNL A   1      27.642  29.874  23.032  1.00  0.00     0.222 C 
ATOM     93  C   UNL A   1      28.942  31.756  22.309  1.00  0.00     0.031 C 
ATOM     94  C   UNL A   1      27.569  31.369  22.842  1.00  0.00     0.102 C 
ATOM     95  O   UNL A   1      26.724  29.182  23.438  1.00  0.00    -0.275 OA
ENDBRANCH  89  90
ENDBRANCH  88  89
ENDBRANCH  85  88
ENDBRANCH  80  81
ENDBRANCH  72  75
ENDBRANCH  70  71
ENDBRANCH   1  70
TORSDOF 18
ENDMDL
MODEL 2
REMARK VINA RESULT:     -11.3      5.826     10.499
REMARK SMILES O=C(NCCCCNC(=O)c1ccc([C@H]2CCC[N@@H+](CCN3CCCC3=O)C2)cc1)c1ccc(-c2c3nc(c(-c4ccc(S(=O)(=O)[O-])cc4)c4ccc([nH]4)c(-c4ccc(S(=O)(=O)[O-])cc4)c4nc(c(-c5ccc(S(=O)(=O)[O-])cc5)c5ccc2[nH]5)C=C4)C=C3)cc1
REMARK SMILES IDX 6 1 5 2 4 3 3 4 1 5 2 6 31 8 32 9 90 10 33 11 89 12 34 13
REMARK SMILES IDX 35 14 36 15 83 16 37 17 88 18 82 19 84 20 38 21 87 22 81 23
REMARK SMILES IDX 80 24 39 26 69 27 50 28 68 29 51 30 54 31 67 32 85 33 52 34
REMARK SMILES IDX 53 35 66 37 86 38 55 39 40 40 41 41 49 42 42 43 48 44 43 45
REMARK SMILES IDX 44 46 45 47 46 48 47 49 70 50 71 51 79 52 72 53 78 54 73 55
REMARK SMILES IDX 74 56 75 57 76 58 77 59 56 60 57 61 65 62 58 63 64 64 59 65
REMARK SMILES IDX 60 66 61 67 62 68 63 69 7 70 8 71 9 72 10 74 11 75 12 76
REMARK SMILES IDX 30 77 13 78 29 79 14 80 15 81 16 82 28 83 17 84 19 85 18 86
REMARK SMILES IDX 20 88 21 89 22 90 23 91 26 92 24 93 25 94 27 95
REMARK H PARENT 3 7 84 25 54 36 8 73 19 87
REMARK Flexibility Score: inf
ROOT
ATOM      1  C   UNL A   1      37.901  22.843  26.111  1.00  0.00     0.023 C 
ENDROOT
BRANCH   1   2
ATOM      2  C   UNL A   1      39.315  22.395  26.488  1.00  0.00     0.023 C 
BRANCH   2   3
ATOM      3  C   UNL A   1      40.207  23.481  27.077  1.00  0.00     0.116 C 
BRANCH   3   4
ATOM      4  N   UNL A   1      40.908  24.248  26.059  1.00  0.00    -0.352 N 
ATOM      5  O   UNL A   1      41.721  26.084  25.036  1.00  0.00    -0.269 OA
ATOM      6  C   UNL A   1      41.264  25.577  26.058  1.00  0.00     0.251 C 
ATOM      7  H   UNL A   1      41.165  23.743  25.253  1.00  0.00     0.163 HD
BRANCH   6   8
ATOM      8  C   UNL A   1      41.085  26.400  27.278  1.00  0.00     0.039 A 
ATOM      9  C   UNL A   1      41.925  27.485  27.537  1.00  0.00     0.014 A 
ATOM     10  C   UNL A   1      40.040  26.104  28.159  1.00  0.00     0.014 A 
ATOM     11  C   UNL A   1      41.799  28.195  28.728  1.00  0.00     0.010 A 
ATOM     12  C   UNL A   1      39.861  26.871  29.316  1.00  0.00     0.010 A 
ATOM     13  C   UNL A   1      40.747  27.917  29.616  1.00  0.00    -0.014 A 
BRANCH  13  14
ATOM     14  C   UNL A   1      40.516  28.822  30.773  1.00  0.00     0.031 A 
ATOM     15  C   UNL A   1      39.424  29.856  30.764  1.00  0.00     0.074 A 
ATOM     16  C   UNL A   1      41.321  28.693  31.847  1.00  0.00     0.049 A 
ATOM     17  N   UNL A   1      39.108  30.716  31.699  1.00  0.00    -0.248 NA
ATOM     18  C   UNL A   1      38.583  29.946  29.560  1.00  0.00     0.031 C 
ATOM     19  C   UNL A   1      42.426  27.733  31.961  1.00  0.00     0.029 A 
ATOM     20  N   UNL A   1      41.341  29.357  33.047  1.00  0.00    -0.354 N 
ATOM     21  C   UNL A   1      38.050  31.463  31.194  1.00  0.00     0.074 A 
ATOM     22  C   UNL A   1      37.781  30.961  29.863  1.00  0.00     0.031 C 
ATOM     23  C   UNL A   1      42.993  27.852  33.169  1.00  0.00     0.029 A 
ATOM     24  C   UNL A   1      42.346  28.940  33.890  1.00  0.00     0.049 A 
ATOM     25  H   UNL A   1      40.698  30.065  33.282  1.00  0.00     0.167 HD
ATOM     26  C   UNL A   1      37.373  32.475  31.789  1.00  0.00     0.031 A 
ATOM     27  C   UNL A   1      42.735  29.404  35.092  1.00  0.00     0.031 A 
ATOM     28  C   UNL A   1      37.646  32.961  33.119  1.00  0.00     0.049 A 
ATOM     29  C   UNL A   1      41.989  30.555  35.701  1.00  0.00     0.074 A 
ATOM     30  C   UNL A   1      36.966  33.935  33.830  1.00  0.00     0.029 A 
ATOM     31  N   UNL A   1      38.687  32.532  33.926  1.00  0.00    -0.354 N 
ATOM     32  N   UNL A   1      40.935  31.187  35.242  1.00  0.00    -0.248 NA
ATOM     33  C   UNL A   1      42.484  31.061  36.988  1.00  0.00     0.031 C 
ATOM     34  C   UNL A   1      37.640  34.148  35.036  1.00  0.00     0.029 A 
ATOM     35  C   UNL A   1      38.700  33.259  35.106  1.00  0.00     0.049 A 
ATOM     36  H   UNL A   1      39.324  31.818  33.696  1.00  0.00     0.167 HD
ATOM     37  C   UNL A   1      40.639  32.160  36.188  1.00  0.00     0.074 A 
ATOM     38  C   UNL A   1      41.599  32.010  37.260  1.00  0.00     0.031 C 
ATOM     39  C   UNL A   1      39.665  33.102  36.163  1.00  0.00     0.031 A 
BRANCH  26  40
ATOM     40  C   UNL A   1      36.278  33.165  31.015  1.00  0.00    -0.014 A 
ATOM     41  C   UNL A   1      34.950  33.171  31.472  1.00  0.00     0.010 A 
ATOM     42  C   UNL A   1      36.614  33.931  29.881  1.00  0.00     0.010 A 
ATOM     43  C   UNL A   1      33.977  33.927  30.809  1.00  0.00     0.020 A 
ATOM     44  C   UNL A   1      35.650  34.705  29.228  1.00  0.00     0.020 A 
ATOM     45  C   UNL A   1      34.335  34.695  29.695  1.00  0.00     0.054 A 
BRANCH  45  46
ATOM     46  S   UNL A   1      33.068  35.727  28.905  1.00  0.00     0.124 S 
ATOM     47  O   UNL A   1      32.324  36.226  30.058  1.00  0.00    -0.237 OA
ATOM     48  O   UNL A   1      33.866  36.722  28.193  1.00  0.00    -0.237 OA
ATOM     49  O   UNL A   1      32.339  34.791  28.053  1.00  0.00    -0.744 OA
ENDBRANCH  45  46
ENDBRANCH  26  40
BRANCH  27  50
ATOM     50  C   UNL A   1      43.931  28.824  35.763  1.00  0.00    -0.014 A 
ATOM     51  C   UNL A   1      45.219  29.323  35.504  1.00  0.00     0.010 A 
ATOM     52  C   UNL A   1      43.782  27.746  36.656  1.00  0.00     0.010 A 
ATOM     53  C   UNL A   1      46.338  28.729  36.097  1.00  0.00     0.020 A 
ATOM     54  C   UNL A   1      44.894  27.175  37.279  1.00  0.00     0.020 A 
ATOM     55  C   UNL A   1      46.167  27.657  36.978  1.00  0.00     0.054 A 
BRANCH  55  56
ATOM     56  S   UNL A   1      47.630  26.907  37.741  1.00  0.00     0.124 S 
ATOM     57  O   UNL A   1      47.123  26.523  39.055  1.00  0.00    -0.237 OA
ATOM     58  O   UNL A   1      47.930  25.804  36.831  1.00  0.00    -0.237 OA
ATOM     59  O   UNL A   1      48.610  27.990  37.739  1.00  0.00    -0.744 OA
ENDBRANCH  55  56
ENDBRANCH  27  50
BRANCH  39  60
ATOM     60  C   UNL A   1      39.586  34.041  37.337  1.00  0.00    -0.014 A 
ATOM     61  C   UNL A   1      38.851  33.699  38.487  1.00  0.00     0.010 A 
ATOM     62  C   UNL A   1      40.295  35.255  37.311  1.00  0.00     0.010 A 
ATOM     63  C   UNL A   1      38.807  34.567  39.581  1.00  0.00     0.020 A 
ATOM     64  C   UNL A   1      40.280  36.111  38.416  1.00  0.00     0.020 A 
ATOM     65  C   UNL A   1      39.526  35.765  39.540  1.00  0.00     0.054 A 
BRANCH  65  66
ATOM     66  S   UNL A   1      39.498  36.846  40.995  1.00  0.00     0.124 S 
ATOM     67  O   UNL A   1      38.806  36.017  41.977  1.00  0.00    -0.237 OA
ATOM     68  O   UNL A   1      40.919  37.071  41.253  1.00  0.00    -0.237 OA
ATOM     69  O   UNL A   1      38.760  38.022  40.542  1.00  0.00    -0.744 OA
ENDBRANCH  65  66
ENDBRANCH  39  60
ENDBRANCH  13  14
ENDBRANCH   6   8
ENDBRANCH   3   4
ENDBRANCH   2   3
ENDBRANCH   1   2
BRANCH   1  70
ATOM     70  C   UNL A   1      37.412  22.391  24.731  1.00  0.00     0.116 C 
BRANCH  70  71
ATOM     71  N   UNL A   1      36.449  21.300  24.804  1.00  0.00    -0.352 N 
ATOM     72  C   UNL A   1      35.082  21.360  24.937  1.00  0.00     0.251 C 
ATOM     73  H   UNL A   1      36.830  20.395  24.752  1.00  0.00     0.163 HD
ATOM     74  O   UNL A   1      34.418  20.345  25.114  1.00  0.00    -0.269 OA
BRANCH  72  75
ATOM     75  C   UNL A   1      34.410  22.668  24.867  1.00  0.00     0.039 A 
ATOM     76  C   UNL A   1      34.071  23.335  26.042  1.00  0.00     0.014 A 
ATOM     77  C   UNL A   1      34.130  23.239  23.630  1.00  0.00     0.014 A 
ATOM     78  C   UNL A   1      33.597  24.648  25.972  1.00  0.00     0.005 A 
ATOM     79  C   UNL A   1      33.641  24.546  23.570  1.00  0.00     0.005 A 
ATOM     80  C   UNL A   1      33.472  25.316  24.738  1.00  0.00    -0.039 A 
BRANCH  80  81
ATOM     81  C   UNL A   1      33.257  26.846  24.687  1.00  0.00     0.074 C 
ATOM     82  C   UNL A   1      34.064  27.461  23.523  1.00  0.00     0.020 C 
ATOM     83  C   UNL A   1      31.749  27.239  24.585  1.00  0.00     0.270 C 
ATOM     84  C   UNL A   1      33.665  28.897  23.237  1.00  0.00     0.062 C 
ATOM     85  N   UNL A   1      31.351  28.524  23.994  1.00  0.00    -0.333 N 
ATOM     86  C   UNL A   1      32.191  28.956  22.879  1.00  0.00     0.262 C 
ATOM     87  H   UNL A   1      31.503  29.218  24.726  1.00  0.00     0.348 HD
BRANCH  85  88
ATOM     88  C   UNL A   1      29.910  28.531  23.630  1.00  0.00     0.284 C 
BRANCH  88  89
ATOM     89  C   UNL A   1      29.426  29.007  22.219  1.00  0.00     0.180 C 
BRANCH  89  90
ATOM     90  N   UNL A   1      28.997  30.399  22.113  1.00  0.00    -0.337 N 
ATOM     91  C   UNL A   1      28.030  30.824  21.135  1.00  0.00     0.120 C 
ATOM     92  C   UNL A   1      29.115  31.348  23.121  1.00  0.00     0.222 C 
ATOM     93  C   UNL A   1      28.083  32.336  21.193  1.00  0.00     0.031 C 
ATOM     94  C   UNL A   1      28.553  32.651  22.606  1.00  0.00     0.102 C 
ATOM     95  O   UNL A   1      29.585  31.188  24.233  1.00  0.00    -0.275 OA
ENDBRANCH  89  90
ENDBRANCH  88  89
ENDBRANCH  85  88
ENDBRANCH  80  81
ENDBRANCH  72  75
ENDBRANCH  70  71
ENDBRANCH   1  70
TORSDOF 18
ENDMDL
MODEL 3
REMARK VINA RESULT:     -11.0      5.581     11.366
REMARK SMILES O=C(NCCCCNC(=O)c1ccc([C@H]2CCC[N@@H+](CCN3CCCC3=O)C2)cc1)c1ccc(-c2c3nc(c(-c4ccc(S(=O)(=O)[O-])cc4)c4ccc([nH]4)c(-c4ccc(S(=O)(=O)[O-])cc4)c4nc(c(-c5ccc(S(=O)(=O)[O-])cc5)c5ccc2[nH]5)C=C4)C=C3)cc1
REMARK SMILES IDX 6 1 5 2 4 3 3 4 1 5 2 6 31 8 32 9 90 10 33 11 89 12 34 13
REMARK SMILES IDX 35 14 36 15 83 16 37 17 88 18 82 19 84 20 38 21 87 22 81 23
REMARK SMILES IDX 80 24 39 26 69 27 50 28 68 29 51 30 54 31 67 32 85 33 52 34
REMARK SMILES IDX 53 35 66 37 86 38 55 39 40 40 41 41 49 42 42 43 48 44 43 45
REMARK SMILES IDX 44 46 45 47 46 48 47 49 70 50 71 51 79 52 72 53 78 54 73 55
REMARK SMILES IDX 74 56 75 57 76 58 77 59 56 60 57 61 65 62 58 63 64 64 59 65
REMARK SMILES IDX 60 66 61 67 62 68 63 69 7 70 8 71 9 72 10 74 11 75 12 76
REMARK SMILES IDX 30 77 13 78 29 79 14 80 15 81 16 82 28 83 17 84 19 85 18 86
REMARK SMILES IDX 20 88 21 89 22 90 23 91 26 92 24 93 25 94 27 95
REMARK H PARENT 3 7 84 25 54 36 8 73 19 87
REMARK Flexibility Score: inf
ROOT
ATOM      1  C   UNL A   1      43.164  23.531  25.827  1.00  0.00     0.023 C 
ENDROOT
BRANCH   1   2
ATOM      2  C   UNL A   1      42.417  24.778  25.348  1.00  0.00     0.023 C 
BRANCH   2   3
ATOM      3  C   UNL A   1      43.264  26.039  25.232  1.00  0.00     0.116 C 
BRANCH   3   4
ATOM      4  N   UNL A   1      44.662  25.811  25.566  1.00  0.00    -0.352 N 
ATOM      5  O   UNL A   1      46.611  26.116  26.656  1.00  0.00    -0.269 OA
ATOM      6  C   UNL A   1      45.396  26.298  26.624  1.00  0.00     0.251 C 
ATOM      7  H   UNL A   1      45.154  25.225  24.946  1.00  0.00     0.163 HD
BRANCH   6   8
ATOM      8  C   UNL A   1      44.731  27.049  27.715  1.00  0.00     0.039 A 
ATOM      9  C   UNL A   1      43.964  26.385  28.675  1.00  0.00     0.014 A 
ATOM     10  C   UNL A   1      44.904  28.434  27.799  1.00  0.00     0.014 A 
ATOM     11  C   UNL A   1      43.277  27.113  29.642  1.00  0.00     0.010 A 
ATOM     12  C   UNL A   1      44.279  29.156  28.823  1.00  0.00     0.010 A 
ATOM     13  C   UNL A   1      43.450  28.503  29.747  1.00  0.00    -0.014 A 
BRANCH  13  14
ATOM     14  C   UNL A   1      42.868  29.221  30.911  1.00  0.00     0.031 A 
ATOM     15  C   UNL A   1      41.548  29.936  30.821  1.00  0.00     0.074 A 
ATOM     16  C   UNL A   1      43.562  29.218  32.067  1.00  0.00     0.049 A 
ATOM     17  N   UNL A   1      40.919  30.608  31.752  1.00  0.00    -0.248 NA
ATOM     18  C   UNL A   1      40.843  29.902  29.529  1.00  0.00     0.031 C 
ATOM     19  C   UNL A   1      44.864  28.570  32.267  1.00  0.00     0.029 A 
ATOM     20  N   UNL A   1      43.279  29.767  33.292  1.00  0.00    -0.354 N 
ATOM     21  C   UNL A   1      39.759  31.094  31.160  1.00  0.00     0.074 A 
ATOM     22  C   UNL A   1      39.774  30.648  29.783  1.00  0.00     0.031 C 
ATOM     23  C   UNL A   1      45.250  28.734  33.540  1.00  0.00     0.029 A 
ATOM     24  C   UNL A   1      44.265  29.557  34.229  1.00  0.00     0.049 A 
ATOM     25  H   UNL A   1      42.451  30.264  33.482  1.00  0.00     0.167 HD
ATOM     26  C   UNL A   1      38.780  31.846  31.718  1.00  0.00     0.031 A 
ATOM     27  C   UNL A   1      44.389  30.007  35.492  1.00  0.00     0.031 A 
ATOM     28  C   UNL A   1      38.774  32.278  33.093  1.00  0.00     0.049 A 
ATOM     29  C   UNL A   1      43.305  30.875  36.063  1.00  0.00     0.074 A 
ATOM     30  C   UNL A   1      37.789  32.983  33.764  1.00  0.00     0.029 A 
ATOM     31  N   UNL A   1      39.801  32.069  33.999  1.00  0.00    -0.354 N 
ATOM     32  N   UNL A   1      42.175  31.247  35.511  1.00  0.00    -0.248 NA
ATOM     33  C   UNL A   1      43.511  31.386  37.424  1.00  0.00     0.031 C 
ATOM     34  C   UNL A   1      38.253  33.266  35.053  1.00  0.00     0.029 A 
ATOM     35  C   UNL A   1      39.497  32.677  35.207  1.00  0.00     0.049 A 
ATOM     36  H   UNL A   1      40.625  31.563  33.813  1.00  0.00     0.167 HD
ATOM     37  C   UNL A   1      41.534  32.032  36.460  1.00  0.00     0.074 A 
ATOM     38  C   UNL A   1      42.382  32.049  37.633  1.00  0.00     0.031 C 
ATOM     39  C   UNL A   1      40.354  32.690  36.365  1.00  0.00     0.031 A 
BRANCH  26  40
ATOM     40  C   UNL A   1      37.628  32.290  30.851  1.00  0.00    -0.014 A 
ATOM     41  C   UNL A   1      36.386  31.634  30.891  1.00  0.00     0.010 A 
ATOM     42  C   UNL A   1      37.756  33.466  30.086  1.00  0.00     0.010 A 
ATOM     43  C   UNL A   1      35.295  32.144  30.179  1.00  0.00     0.020 A 
ATOM     44  C   UNL A   1      36.663  33.990  29.391  1.00  0.00     0.020 A 
ATOM     45  C   UNL A   1      35.438  33.322  29.439  1.00  0.00     0.054 A 
BRANCH  45  46
ATOM     46  S   UNL A   1      33.984  34.000  28.590  1.00  0.00     0.124 S 
ATOM     47  O   UNL A   1      33.482  32.831  27.872  1.00  0.00    -0.237 OA
ATOM     48  O   UNL A   1      33.152  34.460  29.701  1.00  0.00    -0.237 OA
ATOM     49  O   UNL A   1      34.534  35.059  27.747  1.00  0.00    -0.744 OA
ENDBRANCH  45  46
ENDBRANCH  26  40
BRANCH  27  50
ATOM     50  C   UNL A   1      45.619  29.704  36.274  1.00  0.00    -0.014 A 
ATOM     51  C   UNL A   1      46.748  30.539  36.201  1.00  0.00     0.010 A 
ATOM     52  C   UNL A   1      45.671  28.554  37.085  1.00  0.00     0.010 A 
ATOM     53  C   UNL A   1      47.916  30.208  36.895  1.00  0.00     0.020 A 
ATOM     54  C   UNL A   1      46.823  28.241  37.809  1.00  0.00     0.020 A 
ATOM     55  C   UNL A   1      47.946  29.059  37.692  1.00  0.00     0.054 A 
BRANCH  55  56
ATOM     56  S   UNL A   1      49.467  28.653  38.590  1.00  0.00     0.124 S 
ATOM     57  O   UNL A   1      50.475  29.377  37.820  1.00  0.00    -0.237 OA
ATOM     58  O   UNL A   1      49.194  29.174  39.926  1.00  0.00    -0.237 OA
ATOM     59  O   UNL A   1      49.538  27.196  38.500  1.00  0.00    -0.744 OA
ENDBRANCH  55  56
ENDBRANCH  27  50
BRANCH  39  60
ATOM     60  C   UNL A   1      39.905  33.479  37.565  1.00  0.00    -0.014 A 
ATOM     61  C   UNL A   1      39.197  32.862  38.612  1.00  0.00     0.010 A 
ATOM     62  C   UNL A   1      40.241  34.841  37.673  1.00  0.00     0.010 A 
ATOM     63  C   UNL A   1      38.811  33.599  39.734  1.00  0.00     0.020 A 
ATOM     64  C   UNL A   1      39.885  35.573  38.808  1.00  0.00     0.020 A 
ATOM     65  C   UNL A   1      39.161  34.949  39.827  1.00  0.00     0.054 A 
BRANCH  65  66
ATOM     66  S   UNL A   1      38.697  35.867  41.319  1.00  0.00     0.124 S 
ATOM     67  O   UNL A   1      38.624  37.239  40.823  1.00  0.00    -0.237 OA
ATOM     68  O   UNL A   1      37.418  35.261  41.683  1.00  0.00    -0.237 OA
ATOM     69  O   UNL A   1      39.792  35.599  42.248  1.00  0.00    -0.744 OA
ENDBRANCH  65  66
ENDBRANCH  39  60
ENDBRANCH  13  14
ENDBRANCH   6   8
ENDBRANCH   3   4
ENDBRANCH   2   3
ENDBRANCH   1   2
BRANCH   1  70
ATOM     70  C   UNL A   1      42.491  22.194  25.500  1.00  0.00     0.116 C 
BRANCH  70  71
ATOM     71  N   UNL A   1      42.068  21.470  26.691  1.00  0.00    -0.352 N 
ATOM     72  C   UNL A   1      40.815  21.382  27.251  1.00  0.00     0.251 C 
ATOM     73  H   UNL A   1      42.777  20.976  27.161  1.00  0.00     0.163 HD
ATOM     74  O   UNL A   1      40.642  20.834  28.334  1.00  0.00    -0.269 OA
BRANCH  72  75
ATOM     75  C   UNL A   1      39.666  21.958  26.533  1.00  0.00     0.039 A 
ATOM     76  C   UNL A   1      38.952  21.174  25.630  1.00  0.00     0.014 A 
ATOM     77  C   UNL A   1      39.288  23.276  26.770  1.00  0.00     0.014 A 
ATOM     78  C   UNL A   1      37.761  21.666  25.088  1.00  0.00     0.005 A 
ATOM     79  C   UNL A   1      38.106  23.764  26.211  1.00  0.00     0.005 A 
ATOM     80  C   UNL A   1      37.261  22.933  25.450  1.00  0.00    -0.039 A 
BRANCH  80  81
ATOM     81  C   UNL A   1      35.809  23.335  25.104  1.00  0.00     0.074 C 
ATOM     82  C   UNL A   1      35.668  23.571  23.584  1.00  0.00     0.020 C 
ATOM     83  C   UNL A   1      34.759  22.291  25.603  1.00  0.00     0.270 C 
ATOM     84  C   UNL A   1      34.218  23.674  23.146  1.00  0.00     0.062 C 
ATOM     85  N   UNL A   1      33.451  22.176  24.945  1.00  0.00    -0.333 N 
ATOM     86  C   UNL A   1      33.486  22.392  23.500  1.00  0.00     0.262 C 
ATOM     87  H   UNL A   1      32.892  22.945  25.316  1.00  0.00     0.348 HD
BRANCH  85  88
ATOM     88  C   UNL A   1      32.779  20.896  25.292  1.00  0.00     0.284 C 
BRANCH  88  89
ATOM     89  C   UNL A   1      32.379  19.859  24.190  1.00  0.00     0.180 C 
BRANCH  89  90
ATOM     90  N   UNL A   1      32.845  18.488  24.385  1.00  0.00    -0.337 N 
ATOM     91  C   UNL A   1      32.743  17.826  25.659  1.00  0.00     0.120 C 
ATOM     92  C   UNL A   1      33.035  17.560  23.370  1.00  0.00     0.222 C 
ATOM     93  C   UNL A   1      33.566  16.566  25.489  1.00  0.00     0.031 C 
ATOM     94  C   UNL A   1      33.518  16.274  23.996  1.00  0.00     0.102 C 
ATOM     95  O   UNL A   1      32.853  17.724  22.177  1.00  0.00    -0.275 OA
ENDBRANCH  89  90
ENDBRANCH  88  89
ENDBRANCH  85  88
ENDBRANCH  80  81
ENDBRANCH  72  75
ENDBRANCH  70  71
ENDBRANCH   1  70
TORSDOF 18
ENDMDL
