MODEL 1
REMARK VINA RESULT:     -11.7      0.000      0.000
REMARK SMILES COc1ccc(OC)c(Nc2c(-c3ccc(C(=O)NCCCCNC(=O)c4ccc(-c5c6nc(c(-c7ccc(S(=O)(=O)[O-])cc7)c7ccc([nH]7)c(-c7ccc(S(=O)(=O)[O-])cc7)c7nc(c(-c8ccc(S(=O)(=O)[O-])cc8)c8ccc5[nH]8)C=C7)C=C6)cc4)cc3)nc3cnccn23)c1
REMARK SMILES IDX 21 1 20 2 19 3 17 4 18 5 16 7 13 8 14 9 88 10 15 11 87 12
REMARK SMILES IDX 12 13 11 14 95 15 89 16 90 17 94 18 91 19 93 20 92 21 10 22
REMARK SMILES IDX 9 24 3 25 4 26 96 27 5 28 6 29 2 30 1 31 7 32 8 33 22 34
REMARK SMILES IDX 23 35 24 36 25 37 26 39 27 40 28 41 86 42 29 43 85 44 30 45
REMARK SMILES IDX 31 46 32 47 79 48 33 49 84 50 78 51 80 52 34 53 83 54 77 55
REMARK SMILES IDX 76 56 35 58 65 59 46 60 64 61 47 62 50 63 63 64 81 65 48 66
REMARK SMILES IDX 49 67 62 69 82 70 51 71 36 72 37 73 45 74 38 75 44 76 39 77
REMARK SMILES IDX 40 78 41 79 42 80 43 81 66 82 67 83 75 84 68 85 74 86 69 87
REMARK SMILES IDX 70 88 71 89 72 90 73 91 52 92 53 93 61 94 54 95 60 96 55 97
REMARK SMILES IDX 56 98 57 99 58 100 59 101
REMARK H PARENT 19 6 10 23 24 38 80 57 50 68
REMARK Flexibility Score: inf
ROOT
ATOM      1  C   UNL A   1      31.463  27.990  26.112  1.00  0.00     0.023 C 
ENDROOT
BRANCH   1   2
ATOM      2  C   UNL A   1      32.372  28.086  24.885  1.00  0.00     0.116 C 
BRANCH   2   3
ATOM      3  N   UNL A   1      31.589  28.189  23.669  1.00  0.00    -0.352 N 
ATOM      4  C   UNL A   1      31.206  27.243  22.752  1.00  0.00     0.251 C 
ATOM      5  O   UNL A   1      30.485  27.603  21.821  1.00  0.00    -0.269 OA
ATOM      6  H   UNL A   1      31.277  29.100  23.465  1.00  0.00     0.163 HD
BRANCH   4   7
ATOM      7  C   UNL A   1      31.586  25.803  22.850  1.00  0.00     0.039 A 
ATOM      8  C   UNL A   1      32.138  23.048  23.108  1.00  0.00     0.004 A 
ATOM      9  C   UNL A   1      30.934  23.572  23.588  1.00  0.00     0.011 A 
ATOM     10  C   UNL A   1      33.051  23.898  22.484  1.00  0.00     0.011 A 
ATOM     11  C   UNL A   1      30.664  24.941  23.463  1.00  0.00     0.014 A 
ATOM     12  C   UNL A   1      32.761  25.255  22.330  1.00  0.00     0.014 A 
BRANCH   8  13
ATOM     13  C   UNL A   1      32.455  21.639  23.207  1.00  0.00     0.114 A 
ATOM     14  C   UNL A   1      33.233  21.060  24.203  1.00  0.00     0.143 A 
ATOM     15  N   UNL A   1      33.104  19.705  23.984  1.00  0.00    -0.283 N 
ATOM     16  N   UNL A   1      31.990  20.703  22.312  1.00  0.00    -0.225 NA
ATOM     17  C   UNL A   1      32.429  19.564  22.795  1.00  0.00     0.157 A 
ATOM     18  C   UNL A   1      33.513  18.581  24.680  1.00  0.00     0.115 A 
ATOM     19  C   UNL A   1      32.268  18.245  22.252  1.00  0.00     0.158 A 
ATOM     20  C   UNL A   1      33.286  17.375  24.126  1.00  0.00     0.129 A 
ATOM     21  N   UNL A   1      32.684  17.183  22.891  1.00  0.00    -0.259 NA
BRANCH  14  22
ATOM     22  N   UNL A   1      33.829  21.602  25.287  1.00  0.00    -0.336 N 
ATOM     23  H   UNL A   1      33.329  21.466  26.125  1.00  0.00     0.168 HD
BRANCH  22  24
ATOM     24  C   UNL A   1      35.040  22.333  25.451  1.00  0.00     0.086 A 
ATOM     25  C   UNL A   1      37.497  21.919  25.600  1.00  0.00     0.121 A 
ATOM     26  C   UNL A   1      37.708  23.271  25.777  1.00  0.00     0.050 A 
ATOM     27  C   UNL A   1      36.188  21.468  25.431  1.00  0.00     0.076 A 
ATOM     28  C   UNL A   1      36.624  24.143  25.746  1.00  0.00     0.052 A 
ATOM     29  C   UNL A   1      35.286  23.713  25.575  1.00  0.00     0.142 A 
BRANCH  25  30
ATOM     30  O   UNL A   1      38.629  21.156  25.635  1.00  0.00    -0.497 OA
ATOM     31  C   UNL A   1      39.780  21.719  26.249  1.00  0.00     0.278 C 
ENDBRANCH  25  30
BRANCH  29  32
ATOM     32  O   UNL A   1      34.517  24.833  25.571  1.00  0.00    -0.495 OA
ATOM     33  C   UNL A   1      33.243  24.954  26.146  1.00  0.00     0.278 C 
ENDBRANCH  29  32
ENDBRANCH  22  24
ENDBRANCH  14  22
ENDBRANCH   8  13
ENDBRANCH   4   7
ENDBRANCH   2   3
ENDBRANCH   1   2
BRANCH   1  34
ATOM     34  C   UNL A   1      32.171  28.219  27.447  1.00  0.00     0.023 C 
BRANCH  34  35
ATOM     35  C   UNL A   1      33.539  28.878  27.337  1.00  0.00     0.116 C 
BRANCH  35  36
ATOM     36  N   UNL A   1      33.490  30.328  27.432  1.00  0.00    -0.352 N 
ATOM     37  C   UNL A   1      34.421  31.175  27.991  1.00  0.00     0.251 C 
ATOM     38  H   UNL A   1      32.691  30.759  27.049  1.00  0.00     0.163 HD
ATOM     39  O   UNL A   1      34.193  32.370  28.089  1.00  0.00    -0.269 OA
BRANCH  37  40
ATOM     40  C   UNL A   1      35.679  30.599  28.511  1.00  0.00     0.039 A 
ATOM     41  C   UNL A   1      36.888  30.994  27.934  1.00  0.00     0.014 A 
ATOM     42  C   UNL A   1      35.663  29.722  29.599  1.00  0.00     0.014 A 
ATOM     43  C   UNL A   1      38.090  30.557  28.494  1.00  0.00     0.010 A 
ATOM     44  C   UNL A   1      36.859  29.347  30.197  1.00  0.00     0.010 A 
ATOM     45  C   UNL A   1      38.084  29.760  29.651  1.00  0.00    -0.014 A 
BRANCH  45  46
ATOM     46  C   UNL A   1      39.348  29.346  30.306  1.00  0.00     0.031 A 
ATOM     47  C   UNL A   1      39.822  30.058  31.542  1.00  0.00     0.074 A 
ATOM     48  C   UNL A   1      40.103  28.379  29.748  1.00  0.00     0.049 A 
ATOM     49  N   UNL A   1      40.923  29.880  32.225  1.00  0.00    -0.248 NA
ATOM     50  C   UNL A   1      38.957  31.130  32.064  1.00  0.00     0.031 C 
ATOM     51  C   UNL A   1      39.775  27.646  28.523  1.00  0.00     0.029 A 
ATOM     52  N   UNL A   1      41.308  27.851  30.136  1.00  0.00    -0.354 N 
ATOM     53  C   UNL A   1      40.893  30.829  33.241  1.00  0.00     0.074 A 
ATOM     54  C   UNL A   1      39.691  31.611  33.056  1.00  0.00     0.031 C 
ATOM     55  C   UNL A   1      40.739  26.746  28.278  1.00  0.00     0.029 A 
ATOM     56  C   UNL A   1      41.771  26.861  29.303  1.00  0.00     0.049 A 
ATOM     57  H   UNL A   1      41.796  28.153  30.936  1.00  0.00     0.167 HD
ATOM     58  C   UNL A   1      41.778  31.019  34.249  1.00  0.00     0.031 A 
ATOM     59  C   UNL A   1      42.899  26.127  29.358  1.00  0.00     0.031 A 
ATOM     60  C   UNL A   1      42.965  30.230  34.437  1.00  0.00     0.049 A 
ATOM     61  C   UNL A   1      43.864  26.351  30.490  1.00  0.00     0.074 A 
ATOM     62  C   UNL A   1      43.893  30.301  35.461  1.00  0.00     0.029 A 
ATOM     63  N   UNL A   1      43.390  29.225  33.580  1.00  0.00    -0.354 N 
ATOM     64  N   UNL A   1      43.785  27.206  31.481  1.00  0.00    -0.248 NA
ATOM     65  C   UNL A   1      45.064  25.503  30.516  1.00  0.00     0.031 C 
ATOM     66  C   UNL A   1      44.904  29.369  35.199  1.00  0.00     0.029 A 
ATOM     67  C   UNL A   1      44.578  28.682  34.041  1.00  0.00     0.049 A 
ATOM     68  H   UNL A   1      42.917  28.940  32.765  1.00  0.00     0.167 HD
ATOM     69  C   UNL A   1      44.912  26.982  32.264  1.00  0.00     0.074 A 
ATOM     70  C   UNL A   1      45.649  25.904  31.637  1.00  0.00     0.031 C 
ATOM     71  C   UNL A   1      45.300  27.610  33.402  1.00  0.00     0.031 A 
BRANCH  58  72
ATOM     72  C   UNL A   1      41.490  32.135  35.218  1.00  0.00    -0.014 A 
ATOM     73  C   UNL A   1      40.820  31.889  36.431  1.00  0.00     0.010 A 
ATOM     74  C   UNL A   1      41.902  33.446  34.918  1.00  0.00     0.010 A 
ATOM     75  C   UNL A   1      40.521  32.940  37.300  1.00  0.00     0.020 A 
ATOM     76  C   UNL A   1      41.630  34.497  35.799  1.00  0.00     0.020 A 
ATOM     77  C   UNL A   1      40.920  34.240  36.975  1.00  0.00     0.054 A 
BRANCH  77  78
ATOM     78  S   UNL A   1      40.519  35.588  38.120  1.00  0.00     0.124 S 
ATOM     79  O   UNL A   1      41.689  35.595  38.995  1.00  0.00    -0.237 OA
ATOM     80  O   UNL A   1      40.395  36.739  37.231  1.00  0.00    -0.237 OA
ATOM     81  O   UNL A   1      39.274  35.151  38.747  1.00  0.00    -0.744 OA
ENDBRANCH  77  78
ENDBRANCH  58  72
BRANCH  59  82
ATOM     82  C   UNL A   1      43.158  25.089  28.324  1.00  0.00    -0.014 A 
ATOM     83  C   UNL A   1      43.780  25.436  27.112  1.00  0.00     0.010 A 
ATOM     84  C   UNL A   1      42.811  23.746  28.557  1.00  0.00     0.010 A 
ATOM     85  C   UNL A   1      44.042  24.460  26.146  1.00  0.00     0.020 A 
ATOM     86  C   UNL A   1      43.095  22.763  27.602  1.00  0.00     0.020 A 
ATOM     87  C   UNL A   1      43.701  23.128  26.399  1.00  0.00     0.054 A 
BRANCH  87  88
ATOM     88  S   UNL A   1      44.112  21.869  25.159  1.00  0.00     0.124 S 
ATOM     89  O   UNL A   1      45.476  21.511  25.530  1.00  0.00    -0.237 OA
ATOM     90  O   UNL A   1      43.099  20.845  25.401  1.00  0.00    -0.237 OA
ATOM     91  O   UNL A   1      43.972  22.582  23.891  1.00  0.00    -0.744 OA
ENDBRANCH  87  88
ENDBRANCH  59  82
BRANCH  71  92
ATOM     92  C   UNL A   1      46.563  27.129  34.061  1.00  0.00    -0.014 A 
ATOM     93  C   UNL A   1      47.807  27.711  33.761  1.00  0.00     0.010 A 
ATOM     94  C   UNL A   1      46.494  26.120  35.037  1.00  0.00     0.010 A 
ATOM     95  C   UNL A   1      48.966  27.270  34.407  1.00  0.00     0.020 A 
ATOM     96  C   UNL A   1      47.644  25.694  35.704  1.00  0.00     0.020 A 
ATOM     97  C   UNL A   1      48.877  26.264  35.374  1.00  0.00     0.054 A 
BRANCH  97  98
ATOM     98  S   UNL A   1      50.386  25.740  36.234  1.00  0.00     0.124 S 
ATOM     99  O   UNL A   1      51.321  26.805  35.881  1.00  0.00    -0.237 OA
ATOM    100  O   UNL A   1      49.965  25.711  37.633  1.00  0.00    -0.237 OA
ATOM    101  O   UNL A   1      50.680  24.432  35.651  1.00  0.00    -0.744 OA
ENDBRANCH  97  98
ENDBRANCH  71  92
ENDBRANCH  45  46
ENDBRANCH  37  40
ENDBRANCH  35  36
ENDBRANCH  34  35
ENDBRANCH   1  34
TORSDOF 19
ENDMDL
MODEL 2
REMARK VINA RESULT:     -11.3      4.819      5.921
REMARK SMILES COc1ccc(OC)c(Nc2c(-c3ccc(C(=O)NCCCCNC(=O)c4ccc(-c5c6nc(c(-c7ccc(S(=O)(=O)[O-])cc7)c7ccc([nH]7)c(-c7ccc(S(=O)(=O)[O-])cc7)c7nc(c(-c8ccc(S(=O)(=O)[O-])cc8)c8ccc5[nH]8)C=C7)C=C6)cc4)cc3)nc3cnccn23)c1
REMARK SMILES IDX 21 1 20 2 19 3 17 4 18 5 16 7 13 8 14 9 88 10 15 11 87 12
REMARK SMILES IDX 12 13 11 14 95 15 89 16 90 17 94 18 91 19 93 20 92 21 10 22
REMARK SMILES IDX 9 24 3 25 4 26 96 27 5 28 6 29 2 30 1 31 7 32 8 33 22 34
REMARK SMILES IDX 23 35 24 36 25 37 26 39 27 40 28 41 86 42 29 43 85 44 30 45
REMARK SMILES IDX 31 46 32 47 79 48 33 49 84 50 78 51 80 52 34 53 83 54 77 55
REMARK SMILES IDX 76 56 35 58 65 59 46 60 64 61 47 62 50 63 63 64 81 65 48 66
REMARK SMILES IDX 49 67 62 69 82 70 51 71 36 72 37 73 45 74 38 75 44 76 39 77
REMARK SMILES IDX 40 78 41 79 42 80 43 81 66 82 67 83 75 84 68 85 74 86 69 87
REMARK SMILES IDX 70 88 71 89 72 90 73 91 52 92 53 93 61 94 54 95 60 96 55 97
REMARK SMILES IDX 56 98 57 99 58 100 59 101
REMARK H PARENT 19 6 10 23 24 38 80 57 50 68
REMARK Flexibility Score: inf
ROOT
ATOM      1  C   UNL A   1      33.829  28.360  25.736  1.00  0.00     0.023 C 
ENDROOT
BRANCH   1   2
ATOM      2  C   UNL A   1      33.145  27.082  25.243  1.00  0.00     0.116 C 
BRANCH   2   3
ATOM      3  N   UNL A   1      31.803  26.975  25.780  1.00  0.00    -0.352 N 
ATOM      4  C   UNL A   1      31.039  25.883  26.105  1.00  0.00     0.251 C 
ATOM      5  O   UNL A   1      29.929  26.084  26.601  1.00  0.00    -0.269 OA
ATOM      6  H   UNL A   1      31.361  27.840  25.939  1.00  0.00     0.163 HD
BRANCH   4   7
ATOM      7  C   UNL A   1      31.499  24.475  25.924  1.00  0.00     0.039 A 
ATOM      8  C   UNL A   1      32.295  21.816  25.415  1.00  0.00     0.004 A 
ATOM      9  C   UNL A   1      31.528  22.513  24.477  1.00  0.00     0.011 A 
ATOM     10  C   UNL A   1      32.677  22.456  26.594  1.00  0.00     0.011 A 
ATOM     11  C   UNL A   1      31.130  23.831  24.734  1.00  0.00     0.014 A 
ATOM     12  C   UNL A   1      32.308  23.782  26.828  1.00  0.00     0.014 A 
BRANCH   8  13
ATOM     13  C   UNL A   1      32.736  20.456  25.188  1.00  0.00     0.114 A 
ATOM     14  C   UNL A   1      33.901  20.091  24.524  1.00  0.00     0.143 A 
ATOM     15  N   UNL A   1      33.982  18.728  24.713  1.00  0.00    -0.283 N 
ATOM     16  N   UNL A   1      32.037  19.358  25.636  1.00  0.00    -0.225 NA
ATOM     17  C   UNL A   1      32.800  18.344  25.302  1.00  0.00     0.157 A 
ATOM     18  C   UNL A   1      34.945  17.778  24.424  1.00  0.00     0.115 A 
ATOM     19  C   UNL A   1      32.556  16.943  25.496  1.00  0.00     0.158 A 
ATOM     20  C   UNL A   1      34.660  16.487  24.676  1.00  0.00     0.129 A 
ATOM     21  N   UNL A   1      33.451  16.041  25.192  1.00  0.00    -0.259 NA
BRANCH  14  22
ATOM     22  N   UNL A   1      34.883  20.844  23.982  1.00  0.00    -0.336 N 
ATOM     23  H   UNL A   1      35.071  20.633  23.039  1.00  0.00     0.168 HD
BRANCH  22  24
ATOM     24  C   UNL A   1      35.699  21.883  24.514  1.00  0.00     0.086 A 
ATOM     25  C   UNL A   1      37.909  22.168  25.639  1.00  0.00     0.121 A 
ATOM     26  C   UNL A   1      37.680  23.526  25.730  1.00  0.00     0.050 A 
ATOM     27  C   UNL A   1      36.938  21.371  25.033  1.00  0.00     0.076 A 
ATOM     28  C   UNL A   1      36.515  24.062  25.190  1.00  0.00     0.052 A 
ATOM     29  C   UNL A   1      35.515  23.276  24.568  1.00  0.00     0.142 A 
BRANCH  25  30
ATOM     30  O   UNL A   1      39.086  21.751  26.191  1.00  0.00    -0.497 OA
ATOM     31  C   UNL A   1      39.745  22.640  27.081  1.00  0.00     0.278 C 
ENDBRANCH  25  30
BRANCH  29  32
ATOM     32  O   UNL A   1      34.553  24.139  24.144  1.00  0.00    -0.495 OA
ATOM     33  C   UNL A   1      34.209  24.389  22.808  1.00  0.00     0.278 C 
ENDBRANCH  29  32
ENDBRANCH  22  24
ENDBRANCH  14  22
ENDBRANCH   8  13
ENDBRANCH   4   7
ENDBRANCH   2   3
ENDBRANCH   1   2
BRANCH   1  34
ATOM     34  C   UNL A   1      34.459  28.248  27.124  1.00  0.00     0.023 C 
BRANCH  34  35
ATOM     35  C   UNL A   1      35.483  29.327  27.447  1.00  0.00     0.116 C 
BRANCH  35  36
ATOM     36  N   UNL A   1      35.289  29.934  28.755  1.00  0.00    -0.352 N 
ATOM     37  C   UNL A   1      36.243  30.251  29.695  1.00  0.00     0.251 C 
ATOM     38  H   UNL A   1      34.357  30.144  28.999  1.00  0.00     0.163 HD
ATOM     39  O   UNL A   1      35.917  30.665  30.796  1.00  0.00    -0.269 OA
BRANCH  37  40
ATOM     40  C   UNL A   1      37.667  30.036  29.358  1.00  0.00     0.039 A 
ATOM     41  C   UNL A   1      38.585  29.874  30.397  1.00  0.00     0.014 A 
ATOM     42  C   UNL A   1      38.075  29.938  28.026  1.00  0.00     0.014 A 
ATOM     43  C   UNL A   1      39.909  29.545  30.097  1.00  0.00     0.010 A 
ATOM     44  C   UNL A   1      39.373  29.541  27.732  1.00  0.00     0.010 A 
ATOM     45  C   UNL A   1      40.303  29.341  28.765  1.00  0.00    -0.014 A 
BRANCH  45  46
ATOM     46  C   UNL A   1      41.684  28.919  28.427  1.00  0.00     0.031 A 
ATOM     47  C   UNL A   1      42.790  29.936  28.381  1.00  0.00     0.074 A 
ATOM     48  C   UNL A   1      41.926  27.636  28.093  1.00  0.00     0.049 A 
ATOM     49  N   UNL A   1      44.046  29.773  28.054  1.00  0.00    -0.248 NA
ATOM     50  C   UNL A   1      42.432  31.323  28.721  1.00  0.00     0.031 C 
ATOM     51  C   UNL A   1      40.926  26.566  28.053  1.00  0.00     0.029 A 
ATOM     52  N   UNL A   1      43.089  27.016  27.715  1.00  0.00    -0.354 N 
ATOM     53  C   UNL A   1      44.621  31.036  28.128  1.00  0.00     0.074 A 
ATOM     54  C   UNL A   1      43.567  31.961  28.482  1.00  0.00     0.031 C 
ATOM     55  C   UNL A   1      41.525  25.418  27.702  1.00  0.00     0.029 A 
ATOM     56  C   UNL A   1      42.941  25.675  27.454  1.00  0.00     0.049 A 
ATOM     57  H   UNL A   1      43.951  27.487  27.637  1.00  0.00     0.167 HD
ATOM     58  C   UNL A   1      45.914  31.391  27.936  1.00  0.00     0.031 A 
ATOM     59  C   UNL A   1      43.842  24.754  27.060  1.00  0.00     0.031 A 
ATOM     60  C   UNL A   1      46.961  30.466  27.598  1.00  0.00     0.049 A 
ATOM     61  C   UNL A   1      45.273  25.170  26.859  1.00  0.00     0.074 A 
ATOM     62  C   UNL A   1      48.313  30.714  27.443  1.00  0.00     0.029 A 
ATOM     63  N   UNL A   1      46.772  29.112  27.358  1.00  0.00    -0.354 N 
ATOM     64  N   UNL A   1      45.813  26.357  27.002  1.00  0.00    -0.248 NA
ATOM     65  C   UNL A   1      46.218  24.120  26.457  1.00  0.00     0.031 C 
ATOM     66  C   UNL A   1      48.936  29.519  27.066  1.00  0.00     0.029 A 
ATOM     67  C   UNL A   1      47.980  28.516  27.037  1.00  0.00     0.049 A 
ATOM     68  H   UNL A   1      45.907  28.645  27.409  1.00  0.00     0.167 HD
ATOM     69  C   UNL A   1      47.166  26.191  26.731  1.00  0.00     0.074 A 
ATOM     70  C   UNL A   1      47.364  24.788  26.429  1.00  0.00     0.031 C 
ATOM     71  C   UNL A   1      48.157  27.117  26.736  1.00  0.00     0.031 A 
BRANCH  58  72
ATOM     72  C   UNL A   1      46.258  32.850  28.084  1.00  0.00    -0.014 A 
ATOM     73  C   UNL A   1      46.697  33.372  29.315  1.00  0.00     0.010 A 
ATOM     74  C   UNL A   1      46.150  33.709  26.975  1.00  0.00     0.010 A 
ATOM     75  C   UNL A   1      46.970  34.735  29.447  1.00  0.00     0.020 A 
ATOM     76  C   UNL A   1      46.451  35.069  27.097  1.00  0.00     0.020 A 
ATOM     77  C   UNL A   1      46.837  35.577  28.340  1.00  0.00     0.054 A 
BRANCH  77  78
ATOM     78  S   UNL A   1      47.198  37.344  28.539  1.00  0.00     0.124 S 
ATOM     79  O   UNL A   1      48.511  37.454  27.907  1.00  0.00    -0.237 OA
ATOM     80  O   UNL A   1      46.100  37.980  27.815  1.00  0.00    -0.237 OA
ATOM     81  O   UNL A   1      47.183  37.540  29.986  1.00  0.00    -0.744 OA
ENDBRANCH  77  78
ENDBRANCH  58  72
BRANCH  59  82
ATOM     82  C   UNL A   1      43.418  23.342  26.861  1.00  0.00    -0.014 A 
ATOM     83  C   UNL A   1      43.322  22.806  25.565  1.00  0.00     0.010 A 
ATOM     84  C   UNL A   1      43.139  22.517  27.966  1.00  0.00     0.010 A 
ATOM     85  C   UNL A   1      42.943  21.474  25.375  1.00  0.00     0.020 A 
ATOM     86  C   UNL A   1      42.783  21.177  27.780  1.00  0.00     0.020 A 
ATOM     87  C   UNL A   1      42.679  20.666  26.485  1.00  0.00     0.054 A 
BRANCH  87  88
ATOM     88  S   UNL A   1      42.255  18.923  26.217  1.00  0.00     0.124 S 
ATOM     89  O   UNL A   1      40.830  19.000  25.917  1.00  0.00    -0.237 OA
ATOM     90  O   UNL A   1      43.120  18.556  25.099  1.00  0.00    -0.237 OA
ATOM     91  O   UNL A   1      42.596  18.290  27.489  1.00  0.00    -0.744 OA
ENDBRANCH  87  88
ENDBRANCH  59  82
BRANCH  71  92
ATOM     92  C   UNL A   1      49.551  26.640  26.434  1.00  0.00    -0.014 A 
ATOM     93  C   UNL A   1      50.361  26.079  27.437  1.00  0.00     0.010 A 
ATOM     94  C   UNL A   1      50.035  26.702  25.115  1.00  0.00     0.010 A 
ATOM     95  C   UNL A   1      51.643  25.614  27.129  1.00  0.00     0.020 A 
ATOM     96  C   UNL A   1      51.304  26.215  24.798  1.00  0.00     0.020 A 
ATOM     97  C   UNL A   1      52.107  25.685  25.812  1.00  0.00     0.054 A 
BRANCH  97  98
ATOM     98  S   UNL A   1      53.755  25.032  25.428  1.00  0.00     0.124 S 
ATOM     99  O   UNL A   1      54.066  25.712  24.174  1.00  0.00    -0.237 OA
ATOM    100  O   UNL A   1      54.544  25.453  26.584  1.00  0.00    -0.237 OA
ATOM    101  O   UNL A   1      53.539  23.591  25.321  1.00  0.00    -0.744 OA
ENDBRANCH  97  98
ENDBRANCH  71  92
ENDBRANCH  45  46
ENDBRANCH  37  40
ENDBRANCH  35  36
ENDBRANCH  34  35
ENDBRANCH   1  34
TORSDOF 19
ENDMDL
MODEL 3
REMARK VINA RESULT:     -10.9      5.109      9.401
REMARK SMILES COc1ccc(OC)c(Nc2c(-c3ccc(C(=O)NCCCCNC(=O)c4ccc(-c5c6nc(c(-c7ccc(S(=O)(=O)[O-])cc7)c7ccc([nH]7)c(-c7ccc(S(=O)(=O)[O-])cc7)c7nc(c(-c8ccc(S(=O)(=O)[O-])cc8)c8ccc5[nH]8)C=C7)C=C6)cc4)cc3)nc3cnccn23)c1
REMARK SMILES IDX 21 1 20 2 19 3 17 4 18 5 16 7 13 8 14 9 88 10 15 11 87 12
REMARK SMILES IDX 12 13 11 14 95 15 89 16 90 17 94 18 91 19 93 20 92 21 10 22
REMARK SMILES IDX 9 24 3 25 4 26 96 27 5 28 6 29 2 30 1 31 7 32 8 33 22 34
REMARK SMILES IDX 23 35 24 36 25 37 26 39 27 40 28 41 86 42 29 43 85 44 30 45
REMARK SMILES IDX 31 46 32 47 79 48 33 49 84 50 78 51 80 52 34 53 83 54 77 55
REMARK SMILES IDX 76 56 35 58 65 59 46 60 64 61 47 62 50 63 63 64 81 65 48 66
REMARK SMILES IDX 49 67 62 69 82 70 51 71 36 72 37 73 45 74 38 75 44 76 39 77
REMARK SMILES IDX 40 78 41 79 42 80 43 81 66 82 67 83 75 84 68 85 74 86 69 87
REMARK SMILES IDX 70 88 71 89 72 90 73 91 52 92 53 93 61 94 54 95 60 96 55 97
REMARK SMILES IDX 56 98 57 99 58 100 59 101
REMARK H PARENT 19 6 10 23 24 38 80 57 50 68
REMARK Flexibility Score: inf
ROOT
ATOM      1  C   UNL A   1      37.257  33.258  29.119  1.00  0.00     0.023 C 
ENDROOT
BRANCH   1   2
ATOM      2  C   UNL A   1      37.999  34.269  29.997  1.00  0.00     0.116 C 
BRANCH   2   3
ATOM      3  N   UNL A   1      37.207  34.625  31.157  1.00  0.00    -0.352 N 
ATOM      4  C   UNL A   1      37.179  34.117  32.431  1.00  0.00     0.251 C 
ATOM      5  O   UNL A   1      36.431  34.652  33.249  1.00  0.00    -0.269 OA
ATOM      6  H   UNL A   1      36.574  35.364  31.003  1.00  0.00     0.163 HD
BRANCH   4   7
ATOM      7  C   UNL A   1      38.036  32.980  32.879  1.00  0.00     0.039 A 
ATOM      8  C   UNL A   1      39.779  30.953  33.784  1.00  0.00     0.004 A 
ATOM      9  C   UNL A   1      40.165  32.295  33.851  1.00  0.00     0.011 A 
ATOM     10  C   UNL A   1      38.517  30.631  33.284  1.00  0.00     0.011 A 
ATOM     11  C   UNL A   1      39.300  33.298  33.397  1.00  0.00     0.014 A 
ATOM     12  C   UNL A   1      37.646  31.638  32.867  1.00  0.00     0.014 A 
BRANCH   8  13
ATOM     13  C   UNL A   1      40.636  29.883  34.250  1.00  0.00     0.114 A 
ATOM     14  C   UNL A   1      41.258  29.836  35.492  1.00  0.00     0.143 A 
ATOM     15  N   UNL A   1      41.806  28.573  35.545  1.00  0.00    -0.283 N 
ATOM     16  N   UNL A   1      40.913  28.765  33.496  1.00  0.00    -0.225 NA
ATOM     17  C   UNL A   1      41.643  28.023  34.296  1.00  0.00     0.157 A 
ATOM     18  C   UNL A   1      42.441  27.847  36.538  1.00  0.00     0.115 A 
ATOM     19  C   UNL A   1      42.243  26.748  34.026  1.00  0.00     0.158 A 
ATOM     20  C   UNL A   1      42.939  26.638  36.219  1.00  0.00     0.129 A 
ATOM     21  N   UNL A   1      42.874  26.075  34.953  1.00  0.00    -0.259 NA
BRANCH  14  22
ATOM     22  N   UNL A   1      41.208  30.689  36.538  1.00  0.00    -0.336 N 
ATOM     23  H   UNL A   1      40.535  30.449  37.216  1.00  0.00     0.168 HD
BRANCH  22  24
ATOM     24  C   UNL A   1      41.942  31.870  36.849  1.00  0.00     0.086 A 
ATOM     25  C   UNL A   1      44.273  32.748  36.689  1.00  0.00     0.121 A 
ATOM     26  C   UNL A   1      43.863  33.926  37.282  1.00  0.00     0.050 A 
ATOM     27  C   UNL A   1      43.324  31.750  36.472  1.00  0.00     0.076 A 
ATOM     28  C   UNL A   1      42.522  34.096  37.609  1.00  0.00     0.052 A 
ATOM     29  C   UNL A   1      41.538  33.100  37.398  1.00  0.00     0.142 A 
BRANCH  25  30
ATOM     30  O   UNL A   1      45.606  32.691  36.398  1.00  0.00    -0.497 OA
ATOM     31  C   UNL A   1      46.477  32.202  37.408  1.00  0.00     0.278 C 
ENDBRANCH  25  30
BRANCH  29  32
ATOM     32  O   UNL A   1      40.356  33.630  37.810  1.00  0.00    -0.495 OA
ATOM     33  C   UNL A   1      39.083  33.119  37.517  1.00  0.00     0.278 C 
ENDBRANCH  29  32
ENDBRANCH  22  24
ENDBRANCH  14  22
ENDBRANCH   8  13
ENDBRANCH   4   7
ENDBRANCH   2   3
ENDBRANCH   1   2
BRANCH   1  34
ATOM     34  C   UNL A   1      35.747  33.479  29.034  1.00  0.00     0.023 C 
BRANCH  34  35
ATOM     35  C   UNL A   1      34.906  32.394  29.693  1.00  0.00     0.116 C 
BRANCH  35  36
ATOM     36  N   UNL A   1      34.143  31.600  28.743  1.00  0.00    -0.352 N 
ATOM     37  C   UNL A   1      34.555  30.493  28.036  1.00  0.00     0.251 C 
ATOM     38  H   UNL A   1      33.215  31.891  28.585  1.00  0.00     0.163 HD
ATOM     39  O   UNL A   1      33.830  29.989  27.193  1.00  0.00    -0.269 OA
BRANCH  37  40
ATOM     40  C   UNL A   1      35.910  29.957  28.287  1.00  0.00     0.039 A 
ATOM     41  C   UNL A   1      36.869  30.057  27.278  1.00  0.00     0.014 A 
ATOM     42  C   UNL A   1      36.240  29.415  29.532  1.00  0.00     0.014 A 
ATOM     43  C   UNL A   1      38.184  29.671  27.542  1.00  0.00     0.010 A 
ATOM     44  C   UNL A   1      37.563  29.100  29.814  1.00  0.00     0.010 A 
ATOM     45  C   UNL A   1      38.548  29.224  28.822  1.00  0.00    -0.014 A 
BRANCH  45  46
ATOM     46  C   UNL A   1      39.954  28.880  29.147  1.00  0.00     0.031 A 
ATOM     47  C   UNL A   1      40.847  29.901  29.794  1.00  0.00     0.074 A 
ATOM     48  C   UNL A   1      40.443  27.675  28.795  1.00  0.00     0.049 A 
ATOM     49  N   UNL A   1      42.115  29.809  30.104  1.00  0.00    -0.248 NA
ATOM     50  C   UNL A   1      40.244  31.207  30.110  1.00  0.00     0.031 C 
ATOM     51  C   UNL A   1      39.689  26.616  28.120  1.00  0.00     0.029 A 
ATOM     52  N   UNL A   1      41.697  27.140  28.951  1.00  0.00    -0.354 N 
ATOM     53  C   UNL A   1      42.464  31.048  30.629  1.00  0.00     0.074 A 
ATOM     54  C   UNL A   1      41.289  31.888  30.551  1.00  0.00     0.031 C 
ATOM     55  C   UNL A   1      40.486  25.550  27.946  1.00  0.00     0.029 A 
ATOM     56  C   UNL A   1      41.816  25.861  28.462  1.00  0.00     0.049 A 
ATOM     57  H   UNL A   1      42.442  27.626  29.373  1.00  0.00     0.167 HD
ATOM     58  C   UNL A   1      43.651  31.444  31.148  1.00  0.00     0.031 A 
ATOM     59  C   UNL A   1      42.876  25.030  28.433  1.00  0.00     0.031 A 
ATOM     60  C   UNL A   1      44.812  30.601  31.237  1.00  0.00     0.049 A 
ATOM     61  C   UNL A   1      44.182  25.489  29.020  1.00  0.00     0.074 A 
ATOM     62  C   UNL A   1      46.042  30.885  31.801  1.00  0.00     0.029 A 
ATOM     63  N   UNL A   1      44.887  29.305  30.745  1.00  0.00    -0.354 N 
ATOM     64  N   UNL A   1      44.475  26.640  29.576  1.00  0.00    -0.248 NA
ATOM     65  C   UNL A   1      45.296  24.532  28.987  1.00  0.00     0.031 C 
ATOM     66  C   UNL A   1      46.876  29.778  31.610  1.00  0.00     0.029 A 
ATOM     67  C   UNL A   1      46.149  28.785  30.974  1.00  0.00     0.049 A 
ATOM     68  H   UNL A   1      44.151  28.827  30.299  1.00  0.00     0.167 HD
ATOM     69  C   UNL A   1      45.801  26.537  29.981  1.00  0.00     0.074 A 
ATOM     70  C   UNL A   1      46.248  25.208  29.618  1.00  0.00     0.031 C 
ATOM     71  C   UNL A   1      46.578  27.460  30.603  1.00  0.00     0.031 A 
BRANCH  58  72
ATOM     72  C   UNL A   1      43.745  32.860  31.651  1.00  0.00    -0.014 A 
ATOM     73  C   UNL A   1      43.445  33.178  32.989  1.00  0.00     0.010 A 
ATOM     74  C   UNL A   1      44.150  33.887  30.779  1.00  0.00     0.010 A 
ATOM     75  C   UNL A   1      43.495  34.502  33.429  1.00  0.00     0.020 A 
ATOM     76  C   UNL A   1      44.229  35.209  31.224  1.00  0.00     0.020 A 
ATOM     77  C   UNL A   1      43.879  35.511  32.542  1.00  0.00     0.054 A 
BRANCH  77  78
ATOM     78  S   UNL A   1      43.935  37.223  33.140  1.00  0.00     0.124 S 
ATOM     79  O   UNL A   1      45.237  37.265  33.802  1.00  0.00    -0.237 OA
ATOM     80  O   UNL A   1      43.834  37.998  31.906  1.00  0.00    -0.237 OA
ATOM     81  O   UNL A   1      42.780  37.318  34.028  1.00  0.00    -0.744 OA
ENDBRANCH  77  78
ENDBRANCH  58  72
BRANCH  59  82
ATOM     82  C   UNL A   1      42.732  23.668  27.853  1.00  0.00    -0.014 A 
ATOM     83  C   UNL A   1      42.228  22.613  28.635  1.00  0.00     0.010 A 
ATOM     84  C   UNL A   1      43.069  23.423  26.509  1.00  0.00     0.010 A 
ATOM     85  C   UNL A   1      42.073  21.337  28.087  1.00  0.00     0.020 A 
ATOM     86  C   UNL A   1      42.892  22.153  25.952  1.00  0.00     0.020 A 
ATOM     87  C   UNL A   1      42.403  21.115  26.747  1.00  0.00     0.054 A 
BRANCH  87  88
ATOM     88  S   UNL A   1      42.130  19.467  26.041  1.00  0.00     0.124 S 
ATOM     89  O   UNL A   1      42.958  19.509  24.841  1.00  0.00    -0.237 OA
ATOM     90  O   UNL A   1      42.600  18.585  27.106  1.00  0.00    -0.237 OA
ATOM     91  O   UNL A   1      40.687  19.431  25.808  1.00  0.00    -0.744 OA
ENDBRANCH  87  88
ENDBRANCH  59  82
BRANCH  71  92
ATOM     92  C   UNL A   1      47.982  27.055  30.957  1.00  0.00    -0.014 A 
ATOM     93  C   UNL A   1      48.269  26.410  32.173  1.00  0.00     0.010 A 
ATOM     94  C   UNL A   1      49.020  27.273  30.033  1.00  0.00     0.010 A 
ATOM     95  C   UNL A   1      49.576  26.015  32.470  1.00  0.00     0.020 A 
ATOM     96  C   UNL A   1      50.323  26.857  30.315  1.00  0.00     0.020 A 
ATOM     97  C   UNL A   1      50.595  26.242  31.539  1.00  0.00     0.054 A 
BRANCH  97  98
ATOM     98  S   UNL A   1      52.276  25.678  31.927  1.00  0.00     0.124 S 
ATOM     99  O   UNL A   1      52.646  26.563  33.027  1.00  0.00    -0.237 OA
ATOM    100  O   UNL A   1      52.069  24.278  32.288  1.00  0.00    -0.237 OA
ATOM    101  O   UNL A   1      53.007  25.891  30.680  1.00  0.00    -0.744 OA
ENDBRANCH  97  98
ENDBRANCH  71  92
ENDBRANCH  45  46
ENDBRANCH  37  40
ENDBRANCH  35  36
ENDBRANCH  34  35
ENDBRANCH   1  34
TORSDOF 19
ENDMDL
