MODEL 1
REMARK VINA RESULT:     -11.5      0.000      0.000
REMARK SMILES O=C(NCCCCNC(=O)c1cc(-c2cc(Cl)ccc2Cl)cc([N+](=O)[O-])c1)c1ccc(-c2c3nc(c(-c4ccc(S(=O)(=O)[O-])cc4)c4ccc([nH]4)c(-c4ccc(S(=O)(=O)[O-])cc4)c4nc(c(-c5ccc(S(=O)(=O)[O-])cc5)c5ccc2[nH]5)C=C4)C=C3)cc1
REMARK SMILES IDX 4 1 3 2 1 3 2 4 28 6 29 7 87 8 30 9 86 10 31 11 32 12 33 13
REMARK SMILES IDX 80 14 34 15 85 16 79 17 81 18 35 19 84 20 78 21 77 22 36 24
REMARK SMILES IDX 66 25 47 26 65 27 48 28 51 29 64 30 82 31 49 32 50 33 63 35
REMARK SMILES IDX 83 36 52 37 37 38 38 39 46 40 39 41 45 42 40 43 41 44 42 45
REMARK SMILES IDX 43 46 44 47 67 48 68 49 76 50 69 51 75 52 70 53 71 54 72 55
REMARK SMILES IDX 73 56 74 57 53 58 54 59 62 60 55 61 61 62 56 63 57 64 58 65
REMARK SMILES IDX 59 66 60 67 5 68 6 69 7 70 8 71 9 72 10 74 11 75 12 76 27 77
REMARK SMILES IDX 13 78 23 79 22 80 14 81 15 82 20 83 16 84 19 85 21 86 17 87
REMARK SMILES IDX 18 88 24 89 25 90 26 91
REMARK H PARENT 3 5 81 23 51 34 8 73
REMARK Flexibility Score: inf
ROOT
ATOM      1  C   UNL A   1      33.884  28.553  27.064  1.00  0.00     0.116 C 
ENDROOT
BRANCH   1   2
ATOM      2  N   UNL A   1      33.738  29.894  27.616  1.00  0.00    -0.352 N 
ATOM      3  O   UNL A   1      34.338  31.707  28.831  1.00  0.00    -0.269 OA
ATOM      4  C   UNL A   1      34.658  30.637  28.324  1.00  0.00     0.251 C 
ATOM      5  H   UNL A   1      32.867  30.326  27.464  1.00  0.00     0.163 HD
BRANCH   4   6
ATOM      6  C   UNL A   1      36.027  30.102  28.492  1.00  0.00     0.039 A 
ATOM      7  C   UNL A   1      36.430  29.628  29.740  1.00  0.00     0.014 A 
ATOM      8  C   UNL A   1      36.932  30.151  27.429  1.00  0.00     0.014 A 
ATOM      9  C   UNL A   1      37.775  29.412  29.982  1.00  0.00     0.010 A 
ATOM     10  C   UNL A   1      38.268  29.792  27.644  1.00  0.00     0.010 A 
ATOM     11  C   UNL A   1      38.711  29.458  28.933  1.00  0.00    -0.014 A 
BRANCH  11  12
ATOM     12  C   UNL A   1      40.113  29.061  29.228  1.00  0.00     0.031 A 
ATOM     13  C   UNL A   1      40.662  27.714  28.842  1.00  0.00     0.074 A 
ATOM     14  C   UNL A   1      40.918  29.986  29.788  1.00  0.00     0.049 A 
ATOM     15  N   UNL A   1      41.888  27.268  28.961  1.00  0.00    -0.248 NA
ATOM     16  C   UNL A   1      39.728  26.738  28.258  1.00  0.00     0.031 C 
ATOM     17  C   UNL A   1      40.490  31.322  30.222  1.00  0.00     0.029 A 
ATOM     18  N   UNL A   1      42.263  29.973  30.051  1.00  0.00    -0.354 N 
ATOM     19  C   UNL A   1      41.874  25.965  28.478  1.00  0.00     0.074 A 
ATOM     20  C   UNL A   1      40.508  25.677  28.094  1.00  0.00     0.031 C 
ATOM     21  C   UNL A   1      41.559  32.024  30.617  1.00  0.00     0.029 A 
ATOM     22  C   UNL A   1      42.732  31.163  30.558  1.00  0.00     0.049 A 
ATOM     23  H   UNL A   1      42.837  29.190  29.892  1.00  0.00     0.167 HD
ATOM     24  C   UNL A   1      42.908  25.095  28.357  1.00  0.00     0.031 A 
ATOM     25  C   UNL A   1      43.964  31.524  30.958  1.00  0.00     0.031 A 
ATOM     26  C   UNL A   1      44.263  25.389  28.752  1.00  0.00     0.049 A 
ATOM     27  C   UNL A   1      45.078  30.528  30.843  1.00  0.00     0.074 A 
ATOM     28  C   UNL A   1      45.381  24.574  28.665  1.00  0.00     0.029 A 
ATOM     29  N   UNL A   1      44.689  26.586  29.309  1.00  0.00    -0.354 N 
ATOM     30  N   UNL A   1      45.043  29.307  30.361  1.00  0.00    -0.248 NA
ATOM     31  C   UNL A   1      46.397  30.956  31.319  1.00  0.00     0.031 C 
ATOM     32  C   UNL A   1      46.468  25.259  29.219  1.00  0.00     0.029 A 
ATOM     33  C   UNL A   1      46.045  26.525  29.588  1.00  0.00     0.049 A 
ATOM     34  H   UNL A   1      44.113  27.366  29.479  1.00  0.00     0.167 HD
ATOM     35  C   UNL A   1      46.341  28.825  30.470  1.00  0.00     0.074 A 
ATOM     36  C   UNL A   1      47.141  29.900  31.023  1.00  0.00     0.031 C 
ATOM     37  C   UNL A   1      46.825  27.599  30.152  1.00  0.00     0.031 A 
BRANCH  24  38
ATOM     38  C   UNL A   1      42.619  23.729  27.782  1.00  0.00    -0.014 A 
ATOM     39  C   UNL A   1      42.782  23.469  26.410  1.00  0.00     0.010 A 
ATOM     40  C   UNL A   1      42.255  22.670  28.637  1.00  0.00     0.010 A 
ATOM     41  C   UNL A   1      42.565  22.186  25.899  1.00  0.00     0.020 A 
ATOM     42  C   UNL A   1      42.064  21.378  28.135  1.00  0.00     0.020 A 
ATOM     43  C   UNL A   1      42.210  21.147  26.765  1.00  0.00     0.054 A 
BRANCH  43  44
ATOM     44  S   UNL A   1      41.977  19.483  26.078  1.00  0.00     0.124 S 
ATOM     45  O   UNL A   1      40.533  19.446  25.862  1.00  0.00    -0.237 OA
ATOM     46  O   UNL A   1      42.791  19.523  24.866  1.00  0.00    -0.237 OA
ATOM     47  O   UNL A   1      42.472  18.599  27.130  1.00  0.00    -0.744 OA
ENDBRANCH  43  44
ENDBRANCH  24  38
BRANCH  25  48
ATOM     48  C   UNL A   1      44.184  32.871  31.552  1.00  0.00    -0.014 A 
ATOM     49  C   UNL A   1      44.536  33.970  30.752  1.00  0.00     0.010 A 
ATOM     50  C   UNL A   1      44.029  33.055  32.939  1.00  0.00     0.010 A 
ATOM     51  C   UNL A   1      44.763  35.222  31.335  1.00  0.00     0.020 A 
ATOM     52  C   UNL A   1      44.214  34.310  33.518  1.00  0.00     0.020 A 
ATOM     53  C   UNL A   1      44.600  35.383  32.714  1.00  0.00     0.054 A 
BRANCH  53  54
ATOM     54  S   UNL A   1      44.875  37.017  33.447  1.00  0.00     0.124 S 
ATOM     55  O   UNL A   1      46.141  37.413  32.837  1.00  0.00    -0.237 OA
ATOM     56  O   UNL A   1      43.699  37.763  33.006  1.00  0.00    -0.237 OA
ATOM     57  O   UNL A   1      44.929  36.745  34.882  1.00  0.00    -0.744 OA
ENDBRANCH  53  54
ENDBRANCH  25  48
BRANCH  37  58
ATOM     58  C   UNL A   1      48.297  27.374  30.377  1.00  0.00    -0.014 A 
ATOM     59  C   UNL A   1      49.226  27.515  29.329  1.00  0.00     0.010 A 
ATOM     60  C   UNL A   1      48.758  27.016  31.656  1.00  0.00     0.010 A 
ATOM     61  C   UNL A   1      50.580  27.246  29.544  1.00  0.00     0.020 A 
ATOM     62  C   UNL A   1      50.116  26.781  31.884  1.00  0.00     0.020 A 
ATOM     63  C   UNL A   1      51.016  26.876  30.820  1.00  0.00     0.054 A 
BRANCH  63  64
ATOM     64  S   UNL A   1      52.778  26.538  31.074  1.00  0.00     0.124 S 
ATOM     65  O   UNL A   1      53.178  27.643  31.941  1.00  0.00    -0.237 OA
ATOM     66  O   UNL A   1      52.764  25.219  31.700  1.00  0.00    -0.237 OA
ATOM     67  O   UNL A   1      53.335  26.574  29.723  1.00  0.00    -0.744 OA
ENDBRANCH  63  64
ENDBRANCH  37  58
ENDBRANCH  11  12
ENDBRANCH   4   6
ENDBRANCH   1   2
BRANCH   1  68
ATOM     68  C   UNL A   1      34.045  28.532  25.553  1.00  0.00     0.023 C 
BRANCH  68  69
ATOM     69  C   UNL A   1      33.008  29.345  24.793  1.00  0.00     0.023 C 
BRANCH  69  70
ATOM     70  C   UNL A   1      32.009  28.517  23.996  1.00  0.00     0.116 C 
BRANCH  70  71
ATOM     71  N   UNL A   1      32.594  27.921  22.803  1.00  0.00    -0.352 N 
ATOM     72  C   UNL A   1      33.152  26.681  22.636  1.00  0.00     0.251 C 
ATOM     73  H   UNL A   1      32.589  28.491  22.001  1.00  0.00     0.163 HD
ATOM     74  O   UNL A   1      33.747  26.390  21.601  1.00  0.00    -0.269 OA
BRANCH  72  75
ATOM     75  C   UNL A   1      33.065  25.689  23.724  1.00  0.00     0.047 A 
ATOM     76  C   UNL A   1      34.167  24.863  23.971  1.00  0.00     0.023 A 
ATOM     77  C   UNL A   1      31.897  25.557  24.477  1.00  0.00     0.099 A 
ATOM     78  C   UNL A   1      34.144  23.936  25.024  1.00  0.00    -0.009 A 
ATOM     79  C   UNL A   1      31.899  24.703  25.579  1.00  0.00     0.270 A 
ATOM     80  C   UNL A   1      33.019  23.913  25.869  1.00  0.00     0.094 A 
BRANCH  78  81
ATOM     81  C   UNL A   1      35.240  22.965  25.182  1.00  0.00     0.002 A 
ATOM     82  C   UNL A   1      36.495  23.389  25.662  1.00  0.00     0.030 A 
ATOM     83  C   UNL A   1      35.102  21.610  24.803  1.00  0.00     0.048 A 
ATOM     84  C   UNL A   1      37.565  22.494  25.753  1.00  0.00     0.041 A 
ATOM     85  C   UNL A   1      36.176  20.720  24.906  1.00  0.00     0.023 A 
ATOM     86  Cl  UNL A   1      33.629  20.978  24.143  1.00  0.00    -0.084 Cl
ATOM     87  Cl  UNL A   1      39.094  23.041  26.319  1.00  0.00    -0.084 Cl
ATOM     88  C   UNL A   1      37.410  21.163  25.377  1.00  0.00     0.022 A 
ENDBRANCH  78  81
BRANCH  79  89
ATOM     89  N   UNL A   1      30.715  24.643  26.445  1.00  0.00     0.062 N 
ATOM     90  O   UNL A   1      30.590  23.657  27.184  1.00  0.00    -0.258 OA
ATOM     91  O   UNL A   1      29.923  25.594  26.398  1.00  0.00    -0.258 OA
ENDBRANCH  79  89
ENDBRANCH  72  75
ENDBRANCH  70  71
ENDBRANCH  69  70
ENDBRANCH  68  69
ENDBRANCH   1  68
TORSDOF 16
ENDMDL
MODEL 2
REMARK VINA RESULT:     -11.3      1.798      2.800
REMARK SMILES O=C(NCCCCNC(=O)c1cc(-c2cc(Cl)ccc2Cl)cc([N+](=O)[O-])c1)c1ccc(-c2c3nc(c(-c4ccc(S(=O)(=O)[O-])cc4)c4ccc([nH]4)c(-c4ccc(S(=O)(=O)[O-])cc4)c4nc(c(-c5ccc(S(=O)(=O)[O-])cc5)c5ccc2[nH]5)C=C4)C=C3)cc1
REMARK SMILES IDX 4 1 3 2 1 3 2 4 28 6 29 7 87 8 30 9 86 10 31 11 32 12 33 13
REMARK SMILES IDX 80 14 34 15 85 16 79 17 81 18 35 19 84 20 78 21 77 22 36 24
REMARK SMILES IDX 66 25 47 26 65 27 48 28 51 29 64 30 82 31 49 32 50 33 63 35
REMARK SMILES IDX 83 36 52 37 37 38 38 39 46 40 39 41 45 42 40 43 41 44 42 45
REMARK SMILES IDX 43 46 44 47 67 48 68 49 76 50 69 51 75 52 70 53 71 54 72 55
REMARK SMILES IDX 73 56 74 57 53 58 54 59 62 60 55 61 61 62 56 63 57 64 58 65
REMARK SMILES IDX 59 66 60 67 5 68 6 69 7 70 8 71 9 72 10 74 11 75 12 76 27 77
REMARK SMILES IDX 13 78 23 79 22 80 14 81 15 82 20 83 16 84 19 85 21 86 17 87
REMARK SMILES IDX 18 88 24 89 25 90 26 91
REMARK H PARENT 3 5 81 23 51 34 8 73
REMARK Flexibility Score: inf
ROOT
ATOM      1  C   UNL A   1      33.447  28.088  26.888  1.00  0.00     0.116 C 
ENDROOT
BRANCH   1   2
ATOM      2  N   UNL A   1      33.281  29.499  27.216  1.00  0.00    -0.352 N 
ATOM      3  O   UNL A   1      33.852  31.492  28.123  1.00  0.00    -0.269 OA
ATOM      4  C   UNL A   1      34.188  30.358  27.797  1.00  0.00     0.251 C 
ATOM      5  H   UNL A   1      32.405  29.888  26.992  1.00  0.00     0.163 HD
BRANCH   4   6
ATOM      6  C   UNL A   1      35.562  29.876  28.054  1.00  0.00     0.039 A 
ATOM      7  C   UNL A   1      35.898  29.404  29.322  1.00  0.00     0.014 A 
ATOM      8  C   UNL A   1      36.535  29.972  27.056  1.00  0.00     0.014 A 
ATOM      9  C   UNL A   1      37.231  29.238  29.654  1.00  0.00     0.010 A 
ATOM     10  C   UNL A   1      37.867  29.663  27.359  1.00  0.00     0.010 A 
ATOM     11  C   UNL A   1      38.234  29.332  28.672  1.00  0.00    -0.014 A 
BRANCH  11  12
ATOM     12  C   UNL A   1      39.627  28.987  29.059  1.00  0.00     0.031 A 
ATOM     13  C   UNL A   1      40.250  27.663  28.711  1.00  0.00     0.074 A 
ATOM     14  C   UNL A   1      40.358  29.941  29.671  1.00  0.00     0.049 A 
ATOM     15  N   UNL A   1      41.482  27.263  28.911  1.00  0.00    -0.248 NA
ATOM     16  C   UNL A   1      39.394  26.654  28.067  1.00  0.00     0.031 C 
ATOM     17  C   UNL A   1      39.852  31.259  30.075  1.00  0.00     0.029 A 
ATOM     18  N   UNL A   1      41.682  29.978  30.023  1.00  0.00    -0.354 N 
ATOM     19  C   UNL A   1      41.548  25.961  28.428  1.00  0.00     0.074 A 
ATOM     20  C   UNL A   1      40.223  25.623  27.956  1.00  0.00     0.031 C 
ATOM     21  C   UNL A   1      40.866  31.999  30.540  1.00  0.00     0.029 A 
ATOM     22  C   UNL A   1      42.072  31.183  30.559  1.00  0.00     0.049 A 
ATOM     23  H   UNL A   1      42.294  29.217  29.902  1.00  0.00     0.167 HD
ATOM     24  C   UNL A   1      42.619  25.130  28.376  1.00  0.00     0.031 A 
ATOM     25  C   UNL A   1      43.260  31.589  31.040  1.00  0.00     0.031 A 
ATOM     26  C   UNL A   1      43.934  25.474  28.860  1.00  0.00     0.049 A 
ATOM     27  C   UNL A   1      44.416  30.635  30.998  1.00  0.00     0.074 A 
ATOM     28  C   UNL A   1      45.084  24.702  28.848  1.00  0.00     0.029 A 
ATOM     29  N   UNL A   1      44.277  26.685  29.443  1.00  0.00    -0.354 N 
ATOM     30  N   UNL A   1      44.459  29.416  30.516  1.00  0.00    -0.248 NA
ATOM     31  C   UNL A   1      45.684  31.111  31.561  1.00  0.00     0.031 C 
ATOM     32  C   UNL A   1      46.106  25.426  29.472  1.00  0.00     0.029 A 
ATOM     33  C   UNL A   1      45.613  26.675  29.812  1.00  0.00     0.049 A 
ATOM     34  H   UNL A   1      43.662  27.443  29.575  1.00  0.00     0.167 HD
ATOM     35  C   UNL A   1      45.764  28.982  30.711  1.00  0.00     0.074 A 
ATOM     36  C   UNL A   1      46.484  30.085  31.314  1.00  0.00     0.031 C 
ATOM     37  C   UNL A   1      46.313  27.775  30.426  1.00  0.00     0.031 A 
BRANCH  24  38
ATOM     38  C   UNL A   1      42.420  23.756  27.784  1.00  0.00    -0.014 A 
ATOM     39  C   UNL A   1      42.674  23.508  26.424  1.00  0.00     0.010 A 
ATOM     40  C   UNL A   1      42.050  22.680  28.615  1.00  0.00     0.010 A 
ATOM     41  C   UNL A   1      42.540  22.218  25.900  1.00  0.00     0.020 A 
ATOM     42  C   UNL A   1      41.942  21.384  28.101  1.00  0.00     0.020 A 
ATOM     43  C   UNL A   1      42.177  21.163  26.743  1.00  0.00     0.054 A 
BRANCH  43  44
ATOM     44  S   UNL A   1      42.052  19.493  26.042  1.00  0.00     0.124 S 
ATOM     45  O   UNL A   1      40.615  19.367  25.819  1.00  0.00    -0.237 OA
ATOM     46  O   UNL A   1      42.867  19.595  24.833  1.00  0.00    -0.237 OA
ATOM     47  O   UNL A   1      42.598  18.633  27.088  1.00  0.00    -0.744 OA
ENDBRANCH  43  44
ENDBRANCH  24  38
BRANCH  25  48
ATOM     48  C   UNL A   1      43.390  32.942  31.647  1.00  0.00    -0.014 A 
ATOM     49  C   UNL A   1      43.229  33.138  33.028  1.00  0.00     0.010 A 
ATOM     50  C   UNL A   1      43.686  34.048  30.828  1.00  0.00     0.010 A 
ATOM     51  C   UNL A   1      43.329  34.422  33.574  1.00  0.00     0.020 A 
ATOM     52  C   UNL A   1      43.828  35.323  31.374  1.00  0.00     0.020 A 
ATOM     53  C   UNL A   1      43.628  35.506  32.743  1.00  0.00     0.054 A 
BRANCH  53  54
ATOM     54  S   UNL A   1      43.777  37.158  33.472  1.00  0.00     0.124 S 
ATOM     55  O   UNL A   1      42.573  37.236  34.293  1.00  0.00    -0.237 OA
ATOM     56  O   UNL A   1      45.038  37.068  34.203  1.00  0.00    -0.237 OA
ATOM     57  O   UNL A   1      43.802  38.045  32.310  1.00  0.00    -0.744 OA
ENDBRANCH  53  54
ENDBRANCH  25  48
BRANCH  37  58
ATOM     58  C   UNL A   1      47.774  27.605  30.748  1.00  0.00    -0.014 A 
ATOM     59  C   UNL A   1      48.196  27.157  32.014  1.00  0.00     0.010 A 
ATOM     60  C   UNL A   1      48.741  27.896  29.768  1.00  0.00     0.010 A 
ATOM     61  C   UNL A   1      49.557  27.060  32.311  1.00  0.00     0.020 A 
ATOM     62  C   UNL A   1      50.103  27.765  30.051  1.00  0.00     0.020 A 
ATOM     63  C   UNL A   1      50.502  27.369  31.329  1.00  0.00     0.054 A 
BRANCH  63  64
ATOM     64  S   UNL A   1      52.262  27.230  31.738  1.00  0.00     0.124 S 
ATOM     65  O   UNL A   1      52.217  26.689  33.094  1.00  0.00    -0.237 OA
ATOM     66  O   UNL A   1      52.758  26.316  30.713  1.00  0.00    -0.237 OA
ATOM     67  O   UNL A   1      52.753  28.602  31.631  1.00  0.00    -0.744 OA
ENDBRANCH  63  64
ENDBRANCH  37  58
ENDBRANCH  11  12
ENDBRANCH   4   6
ENDBRANCH   1   2
BRANCH   1  68
ATOM     68  C   UNL A   1      32.486  27.596  25.819  1.00  0.00     0.023 C 
BRANCH  68  69
ATOM     69  C   UNL A   1      31.140  27.121  26.344  1.00  0.00     0.023 C 
BRANCH  69  70
ATOM     70  C   UNL A   1      30.571  25.902  25.630  1.00  0.00     0.116 C 
BRANCH  70  71
ATOM     71  N   UNL A   1      29.944  24.956  26.541  1.00  0.00    -0.352 N 
ATOM     72  C   UNL A   1      30.281  23.656  26.812  1.00  0.00     0.251 C 
ATOM     73  H   UNL A   1      29.165  25.300  27.036  1.00  0.00     0.163 HD
ATOM     74  O   UNL A   1      29.549  22.942  27.494  1.00  0.00    -0.269 OA
BRANCH  72  75
ATOM     75  C   UNL A   1      31.525  23.094  26.253  1.00  0.00     0.047 A 
ATOM     76  C   UNL A   1      31.467  21.862  25.593  1.00  0.00     0.023 A 
ATOM     77  C   UNL A   1      32.740  23.763  26.400  1.00  0.00     0.099 A 
ATOM     78  C   UNL A   1      32.618  21.310  25.007  1.00  0.00    -0.009 A 
ATOM     79  C   UNL A   1      33.867  23.267  25.746  1.00  0.00     0.270 A 
ATOM     80  C   UNL A   1      33.807  22.062  25.034  1.00  0.00     0.094 A 
BRANCH  78  81
ATOM     81  C   UNL A   1      32.587  19.946  24.451  1.00  0.00     0.002 A 
ATOM     82  C   UNL A   1      32.917  18.844  25.264  1.00  0.00     0.030 A 
ATOM     83  C   UNL A   1      32.295  19.699  23.090  1.00  0.00     0.048 A 
ATOM     84  C   UNL A   1      32.959  17.552  24.733  1.00  0.00     0.041 A 
ATOM     85  C   UNL A   1      32.331  18.402  22.570  1.00  0.00     0.023 A 
ATOM     86  Cl  UNL A   1      31.932  20.974  21.973  1.00  0.00    -0.084 Cl
ATOM     87  Cl  UNL A   1      33.389  16.225  25.740  1.00  0.00    -0.084 Cl
ATOM     88  C   UNL A   1      32.667  17.327  23.391  1.00  0.00     0.022 A 
ENDBRANCH  78  81
BRANCH  79  89
ATOM     89  N   UNL A   1      35.122  24.025  25.801  1.00  0.00     0.062 N 
ATOM     90  O   UNL A   1      35.099  25.207  25.432  1.00  0.00    -0.258 OA
ATOM     91  O   UNL A   1      36.126  23.441  26.233  1.00  0.00    -0.258 OA
ENDBRANCH  79  89
ENDBRANCH  72  75
ENDBRANCH  70  71
ENDBRANCH  69  70
ENDBRANCH  68  69
ENDBRANCH   1  68
TORSDOF 16
ENDMDL
MODEL 3
REMARK VINA RESULT:     -11.2      2.751      8.372
REMARK SMILES O=C(NCCCCNC(=O)c1cc(-c2cc(Cl)ccc2Cl)cc([N+](=O)[O-])c1)c1ccc(-c2c3nc(c(-c4ccc(S(=O)(=O)[O-])cc4)c4ccc([nH]4)c(-c4ccc(S(=O)(=O)[O-])cc4)c4nc(c(-c5ccc(S(=O)(=O)[O-])cc5)c5ccc2[nH]5)C=C4)C=C3)cc1
REMARK SMILES IDX 4 1 3 2 1 3 2 4 28 6 29 7 87 8 30 9 86 10 31 11 32 12 33 13
REMARK SMILES IDX 80 14 34 15 85 16 79 17 81 18 35 19 84 20 78 21 77 22 36 24
REMARK SMILES IDX 66 25 47 26 65 27 48 28 51 29 64 30 82 31 49 32 50 33 63 35
REMARK SMILES IDX 83 36 52 37 37 38 38 39 46 40 39 41 45 42 40 43 41 44 42 45
REMARK SMILES IDX 43 46 44 47 67 48 68 49 76 50 69 51 75 52 70 53 71 54 72 55
REMARK SMILES IDX 73 56 74 57 53 58 54 59 62 60 55 61 61 62 56 63 57 64 58 65
REMARK SMILES IDX 59 66 60 67 5 68 6 69 7 70 8 71 9 72 10 74 11 75 12 76 27 77
REMARK SMILES IDX 13 78 23 79 22 80 14 81 15 82 20 83 16 84 19 85 21 86 17 87
REMARK SMILES IDX 18 88 24 89 25 90 26 91
REMARK H PARENT 3 5 81 23 51 34 8 73
REMARK Flexibility Score: inf
ROOT
ATOM      1  C   UNL A   1      34.526  28.900  26.359  1.00  0.00     0.116 C 
ENDROOT
BRANCH   1   2
ATOM      2  N   UNL A   1      33.944  30.208  26.635  1.00  0.00    -0.352 N 
ATOM      3  O   UNL A   1      33.650  32.142  27.772  1.00  0.00    -0.269 OA
ATOM      4  C   UNL A   1      34.323  31.135  27.581  1.00  0.00     0.251 C 
ATOM      5  H   UNL A   1      33.179  30.462  26.069  1.00  0.00     0.163 HD
BRANCH   4   6
ATOM      6  C   UNL A   1      35.534  30.873  28.388  1.00  0.00     0.039 A 
ATOM      7  C   UNL A   1      36.645  31.704  28.249  1.00  0.00     0.014 A 
ATOM      8  C   UNL A   1      35.592  29.752  29.220  1.00  0.00     0.014 A 
ATOM      9  C   UNL A   1      37.865  31.299  28.760  1.00  0.00     0.010 A 
ATOM     10  C   UNL A   1      36.797  29.424  29.853  1.00  0.00     0.010 A 
ATOM     11  C   UNL A   1      37.956  30.172  29.597  1.00  0.00    -0.014 A 
BRANCH  11  12
ATOM     12  C   UNL A   1      39.263  29.883  30.242  1.00  0.00     0.031 A 
ATOM     13  C   UNL A   1      39.726  30.609  31.476  1.00  0.00     0.074 A 
ATOM     14  C   UNL A   1      40.001  28.877  29.730  1.00  0.00     0.049 A 
ATOM     15  N   UNL A   1      40.803  30.398  32.191  1.00  0.00    -0.248 NA
ATOM     16  C   UNL A   1      38.890  31.714  31.971  1.00  0.00     0.031 C 
ATOM     17  C   UNL A   1      39.660  28.113  28.524  1.00  0.00     0.029 A 
ATOM     18  N   UNL A   1      41.159  28.291  30.171  1.00  0.00    -0.354 N 
ATOM     19  C   UNL A   1      40.781  31.342  33.212  1.00  0.00     0.074 A 
ATOM     20  C   UNL A   1      39.599  32.151  33.004  1.00  0.00     0.031 C 
ATOM     21  C   UNL A   1      40.538  27.114  28.369  1.00  0.00     0.029 A 
ATOM     22  C   UNL A   1      41.556  27.221  29.404  1.00  0.00     0.049 A 
ATOM     23  H   UNL A   1      41.657  28.605  30.960  1.00  0.00     0.167 HD
ATOM     24  C   UNL A   1      41.660  31.508  34.231  1.00  0.00     0.031 A 
ATOM     25  C   UNL A   1      42.634  26.422  29.499  1.00  0.00     0.031 A 
ATOM     26  C   UNL A   1      42.840  30.702  34.422  1.00  0.00     0.049 A 
ATOM     27  C   UNL A   1      43.604  26.654  30.617  1.00  0.00     0.074 A 
ATOM     28  C   UNL A   1      43.790  30.791  35.426  1.00  0.00     0.029 A 
ATOM     29  N   UNL A   1      43.236  29.660  33.595  1.00  0.00    -0.354 N 
ATOM     30  N   UNL A   1      43.549  27.540  31.584  1.00  0.00    -0.248 NA
ATOM     31  C   UNL A   1      44.780  25.777  30.663  1.00  0.00     0.031 C 
ATOM     32  C   UNL A   1      44.786  29.840  35.175  1.00  0.00     0.029 A 
ATOM     33  C   UNL A   1      44.423  29.113  34.054  1.00  0.00     0.049 A 
ATOM     34  H   UNL A   1      42.744  29.353  32.799  1.00  0.00     0.167 HD
ATOM     35  C   UNL A   1      44.681  27.321  32.358  1.00  0.00     0.074 A 
ATOM     36  C   UNL A   1      45.376  26.192  31.771  1.00  0.00     0.031 C 
ATOM     37  C   UNL A   1      45.112  27.999  33.450  1.00  0.00     0.031 A 
BRANCH  24  38
ATOM     38  C   UNL A   1      41.391  32.615  35.222  1.00  0.00    -0.014 A 
ATOM     39  C   UNL A   1      40.667  32.373  36.402  1.00  0.00     0.010 A 
ATOM     40  C   UNL A   1      41.938  33.896  35.010  1.00  0.00     0.010 A 
ATOM     41  C   UNL A   1      40.473  33.393  37.339  1.00  0.00     0.020 A 
ATOM     42  C   UNL A   1      41.770  34.912  35.957  1.00  0.00     0.020 A 
ATOM     43  C   UNL A   1      41.028  34.656  37.112  1.00  0.00     0.054 A 
BRANCH  43  44
ATOM     44  S   UNL A   1      40.795  35.947  38.367  1.00  0.00     0.124 S 
ATOM     45  O   UNL A   1      42.149  36.478  38.506  1.00  0.00    -0.237 OA
ATOM     46  O   UNL A   1      39.834  36.842  37.727  1.00  0.00    -0.237 OA
ATOM     47  O   UNL A   1      40.289  35.219  39.527  1.00  0.00    -0.744 OA
ENDBRANCH  43  44
ENDBRANCH  24  38
BRANCH  25  48
ATOM     48  C   UNL A   1      42.868  25.371  28.472  1.00  0.00    -0.014 A 
ATOM     49  C   UNL A   1      42.343  24.076  28.622  1.00  0.00     0.010 A 
ATOM     50  C   UNL A   1      43.622  25.674  27.322  1.00  0.00     0.010 A 
ATOM     51  C   UNL A   1      42.597  23.096  27.657  1.00  0.00     0.020 A 
ATOM     52  C   UNL A   1      43.843  24.711  26.338  1.00  0.00     0.020 A 
ATOM     53  C   UNL A   1      43.345  23.421  26.521  1.00  0.00     0.054 A 
BRANCH  53  54
ATOM     54  S   UNL A   1      43.644  22.144  25.270  1.00  0.00     0.124 S 
ATOM     55  O   UNL A   1      42.638  21.144  25.614  1.00  0.00    -0.237 OA
ATOM     56  O   UNL A   1      43.418  22.867  24.021  1.00  0.00    -0.237 OA
ATOM     57  O   UNL A   1      45.030  21.747  25.510  1.00  0.00    -0.744 OA
ENDBRANCH  53  54
ENDBRANCH  25  48
BRANCH  37  58
ATOM     58  C   UNL A   1      46.387  27.514  34.088  1.00  0.00    -0.014 A 
ATOM     59  C   UNL A   1      47.639  28.025  33.699  1.00  0.00     0.010 A 
ATOM     60  C   UNL A   1      46.331  26.532  35.093  1.00  0.00     0.010 A 
ATOM     61  C   UNL A   1      48.814  27.522  34.262  1.00  0.00     0.020 A 
ATOM     62  C   UNL A   1      47.502  26.051  35.684  1.00  0.00     0.020 A 
ATOM     63  C   UNL A   1      48.738  26.534  35.248  1.00  0.00     0.054 A 
BRANCH  63  64
ATOM     64  S   UNL A   1      50.277  25.901  35.967  1.00  0.00     0.124 S 
ATOM     65  O   UNL A   1      49.881  25.635  37.347  1.00  0.00    -0.237 OA
ATOM     66  O   UNL A   1      50.550  24.720  35.151  1.00  0.00    -0.237 OA
ATOM     67  O   UNL A   1      51.220  27.003  35.790  1.00  0.00    -0.744 OA
ENDBRANCH  63  64
ENDBRANCH  37  58
ENDBRANCH  11  12
ENDBRANCH   4   6
ENDBRANCH   1   2
BRANCH   1  68
ATOM     68  C   UNL A   1      33.701  28.059  25.399  1.00  0.00     0.023 C 
BRANCH  68  69
ATOM     69  C   UNL A   1      33.679  28.568  23.965  1.00  0.00     0.023 C 
BRANCH  69  70
ATOM     70  C   UNL A   1      32.391  28.279  23.206  1.00  0.00     0.116 C 
BRANCH  70  71
ATOM     71  N   UNL A   1      32.588  27.369  22.087  1.00  0.00    -0.352 N 
ATOM     72  C   UNL A   1      32.951  26.047  22.096  1.00  0.00     0.251 C 
ATOM     73  H   UNL A   1      32.440  27.758  21.195  1.00  0.00     0.163 HD
ATOM     74  O   UNL A   1      33.229  25.462  21.052  1.00  0.00    -0.269 OA
BRANCH  72  75
ATOM     75  C   UNL A   1      33.037  25.323  23.378  1.00  0.00     0.047 A 
ATOM     76  C   UNL A   1      34.259  24.747  23.742  1.00  0.00     0.023 A 
ATOM     77  C   UNL A   1      31.917  25.190  24.200  1.00  0.00     0.099 A 
ATOM     78  C   UNL A   1      34.398  24.087  24.973  1.00  0.00    -0.009 A 
ATOM     79  C   UNL A   1      32.071  24.616  25.460  1.00  0.00     0.270 A 
ATOM     80  C   UNL A   1      33.305  24.087  25.859  1.00  0.00     0.094 A 
BRANCH  78  81
ATOM     81  C   UNL A   1      35.636  23.351  25.284  1.00  0.00     0.002 A 
ATOM     82  C   UNL A   1      36.770  24.042  25.753  1.00  0.00     0.030 A 
ATOM     83  C   UNL A   1      35.755  21.959  25.065  1.00  0.00     0.048 A 
ATOM     84  C   UNL A   1      37.972  23.368  25.987  1.00  0.00     0.041 A 
ATOM     85  C   UNL A   1      36.959  21.292  25.310  1.00  0.00     0.023 A 
ATOM     86  Cl  UNL A   1      34.453  21.005  24.434  1.00  0.00    -0.084 Cl
ATOM     87  Cl  UNL A   1      39.350  24.239  26.536  1.00  0.00    -0.084 Cl
ATOM     88  C   UNL A   1      38.070  21.997  25.768  1.00  0.00     0.022 A 
ENDBRANCH  78  81
BRANCH  79  89
ATOM     89  N   UNL A   1      30.925  24.576  26.377  1.00  0.00     0.062 N 
ATOM     90  O   UNL A   1      30.904  23.684  27.235  1.00  0.00    -0.258 OA
ATOM     91  O   UNL A   1      30.058  25.451  26.248  1.00  0.00    -0.258 OA
ENDBRANCH  79  89
ENDBRANCH  72  75
ENDBRANCH  70  71
ENDBRANCH  69  70
ENDBRANCH  68  69
ENDBRANCH   1  68
TORSDOF 16
ENDMDL
