MODEL 1
REMARK VINA RESULT:     -12.7      0.000      0.000
REMARK SMILES O=C(NCCCCNC(=O)c1cc2c(C(F)(F)F)onc2c2ccccc12)c1ccc(-c2c3nc(c(-c4ccc(S(=O)(=O)[O-])cc4)c4ccc([nH]4)c(-c4ccc(S(=O)(=O)[O-])cc4)c4nc(c(-c5ccc(S(=O)(=O)[O-])cc5)c5ccc2[nH]5)C=C4)C=C3)cc1
REMARK SMILES IDX 4 1 3 2 1 3 2 4 28 6 29 7 87 8 30 9 86 10 31 11 32 12 33 13
REMARK SMILES IDX 80 14 34 15 85 16 79 17 81 18 35 19 84 20 78 21 77 22 36 24
REMARK SMILES IDX 66 25 47 26 65 27 48 28 51 29 64 30 82 31 49 32 50 33 63 35
REMARK SMILES IDX 83 36 52 37 37 38 38 39 46 40 39 41 45 42 40 43 41 44 42 45
REMARK SMILES IDX 43 46 44 47 67 48 68 49 76 50 69 51 75 52 70 53 71 54 72 55
REMARK SMILES IDX 73 56 74 57 53 58 54 59 62 60 55 61 61 62 56 63 57 64 58 65
REMARK SMILES IDX 59 66 60 67 5 68 6 69 7 70 8 71 9 72 10 74 11 75 12 76 27 77
REMARK SMILES IDX 13 78 22 79 26 80 14 81 21 82 23 83 25 84 19 85 20 86 24 87
REMARK SMILES IDX 15 88 16 89 17 90 18 91
REMARK H PARENT 3 5 81 23 51 34 8 73
REMARK Flexibility Score: inf
ROOT
ATOM      1  C   UNL A   1      39.926  22.557  27.208  1.00  0.00     0.116 C 
ENDROOT
BRANCH   1   2
ATOM      2  N   UNL A   1      41.271  22.137  26.785  1.00  0.00    -0.352 N 
ATOM      3  O   UNL A   1      43.220  22.491  25.641  1.00  0.00    -0.269 OA
ATOM      4  C   UNL A   1      42.277  22.955  26.275  1.00  0.00     0.251 C 
ATOM      5  H   UNL A   1      41.481  21.180  26.872  1.00  0.00     0.163 HD
BRANCH   4   6
ATOM      6  C   UNL A   1      42.173  24.401  26.537  1.00  0.00     0.039 A 
ATOM      7  C   UNL A   1      41.426  25.289  25.759  1.00  0.00     0.014 A 
ATOM      8  C   UNL A   1      42.755  24.821  27.721  1.00  0.00     0.014 A 
ATOM      9  C   UNL A   1      41.199  26.575  26.259  1.00  0.00     0.010 A 
ATOM     10  C   UNL A   1      42.263  25.936  28.328  1.00  0.00     0.010 A 
ATOM     11  C   UNL A   1      41.600  26.885  27.569  1.00  0.00    -0.014 A 
BRANCH  11  12
ATOM     12  C   UNL A   1      41.346  28.176  28.200  1.00  0.00     0.031 A 
ATOM     13  C   UNL A   1      42.337  29.244  27.922  1.00  0.00     0.074 A 
ATOM     14  C   UNL A   1      40.205  28.456  28.874  1.00  0.00     0.049 A 
ATOM     15  N   UNL A   1      43.189  29.745  28.752  1.00  0.00    -0.248 NA
ATOM     16  C   UNL A   1      42.487  29.733  26.544  1.00  0.00     0.031 C 
ATOM     17  C   UNL A   1      38.984  27.647  29.037  1.00  0.00     0.029 A 
ATOM     18  N   UNL A   1      39.857  29.615  29.489  1.00  0.00    -0.354 N 
ATOM     19  C   UNL A   1      43.866  30.745  28.064  1.00  0.00     0.074 A 
ATOM     20  C   UNL A   1      43.505  30.588  26.676  1.00  0.00     0.031 C 
ATOM     21  C   UNL A   1      37.965  28.426  29.458  1.00  0.00     0.029 A 
ATOM     22  C   UNL A   1      38.512  29.717  29.816  1.00  0.00     0.049 A 
ATOM     23  H   UNL A   1      40.507  30.328  29.685  1.00  0.00     0.167 HD
ATOM     24  C   UNL A   1      44.525  31.741  28.720  1.00  0.00     0.031 A 
ATOM     25  C   UNL A   1      37.883  30.781  30.370  1.00  0.00     0.031 A 
ATOM     26  C   UNL A   1      44.681  31.439  30.121  1.00  0.00     0.049 A 
ATOM     27  C   UNL A   1      38.936  31.569  31.055  1.00  0.00     0.074 A 
ATOM     28  C   UNL A   1      45.320  30.435  30.822  1.00  0.00     0.029 A 
ATOM     29  N   UNL A   1      43.770  31.988  30.995  1.00  0.00    -0.354 N 
ATOM     30  N   UNL A   1      39.610  31.123  32.080  1.00  0.00    -0.248 NA
ATOM     31  C   UNL A   1      39.562  32.654  30.317  1.00  0.00     0.031 C 
ATOM     32  C   UNL A   1      44.425  30.106  31.881  1.00  0.00     0.029 A 
ATOM     33  C   UNL A   1      43.336  30.980  31.821  1.00  0.00     0.049 A 
ATOM     34  H   UNL A   1      43.484  32.930  31.023  1.00  0.00     0.167 HD
ATOM     35  C   UNL A   1      40.912  31.556  31.863  1.00  0.00     0.074 A 
ATOM     36  C   UNL A   1      40.800  32.566  30.811  1.00  0.00     0.031 C 
ATOM     37  C   UNL A   1      41.989  30.871  32.354  1.00  0.00     0.031 A 
BRANCH  24  38
ATOM     38  C   UNL A   1      44.761  33.118  28.162  1.00  0.00    -0.014 A 
ATOM     39  C   UNL A   1      43.723  34.041  27.929  1.00  0.00     0.010 A 
ATOM     40  C   UNL A   1      46.082  33.607  28.072  1.00  0.00     0.010 A 
ATOM     41  C   UNL A   1      43.976  35.374  27.600  1.00  0.00     0.020 A 
ATOM     42  C   UNL A   1      46.348  34.953  27.784  1.00  0.00     0.020 A 
ATOM     43  C   UNL A   1      45.289  35.826  27.542  1.00  0.00     0.054 A 
BRANCH  43  44
ATOM     44  S   UNL A   1      45.571  37.583  27.215  1.00  0.00     0.124 S 
ATOM     45  O   UNL A   1      44.227  38.044  26.878  1.00  0.00    -0.237 OA
ATOM     46  O   UNL A   1      46.099  38.056  28.491  1.00  0.00    -0.237 OA
ATOM     47  O   UNL A   1      46.526  37.577  26.110  1.00  0.00    -0.744 OA
ENDBRANCH  43  44
ENDBRANCH  24  38
BRANCH  25  48
ATOM     48  C   UNL A   1      36.603  31.371  29.901  1.00  0.00    -0.014 A 
ATOM     49  C   UNL A   1      36.455  31.767  28.554  1.00  0.00     0.010 A 
ATOM     50  C   UNL A   1      35.653  31.832  30.831  1.00  0.00     0.010 A 
ATOM     51  C   UNL A   1      35.458  32.669  28.168  1.00  0.00     0.020 A 
ATOM     52  C   UNL A   1      34.650  32.739  30.450  1.00  0.00     0.020 A 
ATOM     53  C   UNL A   1      34.588  33.183  29.128  1.00  0.00     0.054 A 
BRANCH  53  54
ATOM     54  S   UNL A   1      33.452  34.512  28.634  1.00  0.00     0.124 S 
ATOM     55  O   UNL A   1      34.359  35.466  28.001  1.00  0.00    -0.237 OA
ATOM     56  O   UNL A   1      32.534  33.823  27.731  1.00  0.00    -0.237 OA
ATOM     57  O   UNL A   1      32.864  34.953  29.897  1.00  0.00    -0.744 OA
ENDBRANCH  53  54
ENDBRANCH  25  48
BRANCH  37  58
ATOM     58  C   UNL A   1      41.765  29.739  33.342  1.00  0.00    -0.014 A 
ATOM     59  C   UNL A   1      41.969  30.022  34.706  1.00  0.00     0.010 A 
ATOM     60  C   UNL A   1      41.593  28.391  32.964  1.00  0.00     0.010 A 
ATOM     61  C   UNL A   1      42.051  29.001  35.654  1.00  0.00     0.020 A 
ATOM     62  C   UNL A   1      41.648  27.359  33.917  1.00  0.00     0.020 A 
ATOM     63  C   UNL A   1      41.905  27.671  35.254  1.00  0.00     0.054 A 
BRANCH  63  64
ATOM     64  S   UNL A   1      42.095  26.375  36.510  1.00  0.00     0.124 S 
ATOM     65  O   UNL A   1      42.682  25.279  35.742  1.00  0.00    -0.237 OA
ATOM     66  O   UNL A   1      42.989  26.999  37.484  1.00  0.00    -0.237 OA
ATOM     67  O   UNL A   1      40.735  26.139  36.987  1.00  0.00    -0.744 OA
ENDBRANCH  63  64
ENDBRANCH  37  58
ENDBRANCH  11  12
ENDBRANCH   4   6
ENDBRANCH   1   2
BRANCH   1  68
ATOM     68  C   UNL A   1      38.863  22.479  26.128  1.00  0.00     0.023 C 
BRANCH  68  69
ATOM     69  C   UNL A   1      37.981  23.726  26.010  1.00  0.00     0.023 C 
BRANCH  69  70
ATOM     70  C   UNL A   1      36.479  23.505  25.821  1.00  0.00     0.116 C 
BRANCH  70  71
ATOM     71  N   UNL A   1      36.001  23.733  24.462  1.00  0.00    -0.352 N 
ATOM     72  C   UNL A   1      34.855  24.379  24.047  1.00  0.00     0.251 C 
ATOM     73  H   UNL A   1      36.573  23.377  23.744  1.00  0.00     0.163 HD
ATOM     74  O   UNL A   1      34.568  24.458  22.860  1.00  0.00    -0.269 OA
BRANCH  72  75
ATOM     75  C   UNL A   1      33.909  24.892  25.068  1.00  0.00     0.048 A 
ATOM     76  C   UNL A   1      34.126  26.248  25.418  1.00  0.00     0.029 A 
ATOM     77  C   UNL A   1      32.788  24.075  25.497  1.00  0.00    -0.003 A 
ATOM     78  C   UNL A   1      33.051  26.753  26.134  1.00  0.00     0.056 A 
ATOM     79  C   UNL A   1      31.685  24.667  26.186  1.00  0.00     0.012 A 
ATOM     80  C   UNL A   1      32.686  22.691  25.234  1.00  0.00     0.009 A 
ATOM     81  C   UNL A   1      32.901  28.038  26.579  1.00  0.00     0.248 A 
ATOM     82  C   UNL A   1      31.849  26.049  26.508  1.00  0.00     0.122 A 
ATOM     83  C   UNL A   1      30.515  23.936  26.479  1.00  0.00     0.011 A 
ATOM     84  C   UNL A   1      31.527  21.966  25.531  1.00  0.00     0.001 A 
ATOM     85  O   UNL A   1      31.681  28.129  27.181  1.00  0.00    -0.350 OA
ATOM     86  N   UNL A   1      31.028  26.912  27.134  1.00  0.00    -0.079 NA
ATOM     87  C   UNL A   1      30.436  22.593  26.129  1.00  0.00     0.001 A 
BRANCH  81  88
ATOM     88  C   UNL A   1      33.692  29.276  26.551  1.00  0.00     0.453 C 
ATOM     89  F   UNL A   1      33.552  29.942  25.374  1.00  0.00    -0.163 F 
ATOM     90  F   UNL A   1      33.328  30.139  27.533  1.00  0.00    -0.163 F 
ATOM     91  F   UNL A   1      35.023  29.052  26.705  1.00  0.00    -0.163 F 
ENDBRANCH  81  88
ENDBRANCH  72  75
ENDBRANCH  70  71
ENDBRANCH  69  70
ENDBRANCH  68  69
ENDBRANCH   1  68
TORSDOF 15
ENDMDL
MODEL 2
REMARK VINA RESULT:     -12.5      1.323      1.801
REMARK SMILES O=C(NCCCCNC(=O)c1cc2c(C(F)(F)F)onc2c2ccccc12)c1ccc(-c2c3nc(c(-c4ccc(S(=O)(=O)[O-])cc4)c4ccc([nH]4)c(-c4ccc(S(=O)(=O)[O-])cc4)c4nc(c(-c5ccc(S(=O)(=O)[O-])cc5)c5ccc2[nH]5)C=C4)C=C3)cc1
REMARK SMILES IDX 4 1 3 2 1 3 2 4 28 6 29 7 87 8 30 9 86 10 31 11 32 12 33 13
REMARK SMILES IDX 80 14 34 15 85 16 79 17 81 18 35 19 84 20 78 21 77 22 36 24
REMARK SMILES IDX 66 25 47 26 65 27 48 28 51 29 64 30 82 31 49 32 50 33 63 35
REMARK SMILES IDX 83 36 52 37 37 38 38 39 46 40 39 41 45 42 40 43 41 44 42 45
REMARK SMILES IDX 43 46 44 47 67 48 68 49 76 50 69 51 75 52 70 53 71 54 72 55
REMARK SMILES IDX 73 56 74 57 53 58 54 59 62 60 55 61 61 62 56 63 57 64 58 65
REMARK SMILES IDX 59 66 60 67 5 68 6 69 7 70 8 71 9 72 10 74 11 75 12 76 27 77
REMARK SMILES IDX 13 78 22 79 26 80 14 81 21 82 23 83 25 84 19 85 20 86 24 87
REMARK SMILES IDX 15 88 16 89 17 90 18 91
REMARK H PARENT 3 5 81 23 51 34 8 73
REMARK Flexibility Score: inf
ROOT
ATOM      1  C   UNL A   1      40.802  21.691  26.776  1.00  0.00     0.116 C 
ENDROOT
BRANCH   1   2
ATOM      2  N   UNL A   1      41.977  22.041  25.964  1.00  0.00    -0.352 N 
ATOM      3  O   UNL A   1      43.224  23.549  24.778  1.00  0.00    -0.269 OA
ATOM      4  C   UNL A   1      42.468  23.322  25.718  1.00  0.00     0.251 C 
ATOM      5  H   UNL A   1      42.467  21.294  25.552  1.00  0.00     0.163 HD
BRANCH   4   6
ATOM      6  C   UNL A   1      42.056  24.394  26.640  1.00  0.00     0.039 A 
ATOM      7  C   UNL A   1      42.554  24.551  27.936  1.00  0.00     0.014 A 
ATOM      8  C   UNL A   1      41.232  25.357  26.082  1.00  0.00     0.014 A 
ATOM      9  C   UNL A   1      42.283  25.747  28.608  1.00  0.00     0.010 A 
ATOM     10  C   UNL A   1      41.252  26.613  26.606  1.00  0.00     0.010 A 
ATOM     11  C   UNL A   1      41.649  26.795  27.919  1.00  0.00    -0.014 A 
BRANCH  11  12
ATOM     12  C   UNL A   1      41.385  28.101  28.515  1.00  0.00     0.031 A 
ATOM     13  C   UNL A   1      42.382  29.161  28.228  1.00  0.00     0.074 A 
ATOM     14  C   UNL A   1      40.233  28.397  29.163  1.00  0.00     0.049 A 
ATOM     15  N   UNL A   1      43.221  29.681  29.061  1.00  0.00    -0.248 NA
ATOM     16  C   UNL A   1      42.556  29.617  26.842  1.00  0.00     0.031 C 
ATOM     17  C   UNL A   1      39.008  27.593  29.324  1.00  0.00     0.029 A 
ATOM     18  N   UNL A   1      39.876  29.571  29.744  1.00  0.00    -0.354 N 
ATOM     19  C   UNL A   1      43.910  30.664  28.361  1.00  0.00     0.074 A 
ATOM     20  C   UNL A   1      43.572  30.474  26.971  1.00  0.00     0.031 C 
ATOM     21  C   UNL A   1      37.983  28.383  29.709  1.00  0.00     0.029 A 
ATOM     22  C   UNL A   1      38.526  29.681  30.046  1.00  0.00     0.049 A 
ATOM     23  H   UNL A   1      40.524  30.288  29.935  1.00  0.00     0.167 HD
ATOM     24  C   UNL A   1      44.559  31.674  29.004  1.00  0.00     0.031 A 
ATOM     25  C   UNL A   1      37.889  30.758  30.563  1.00  0.00     0.031 A 
ATOM     26  C   UNL A   1      44.691  31.406  30.415  1.00  0.00     0.049 A 
ATOM     27  C   UNL A   1      38.931  31.562  31.247  1.00  0.00     0.074 A 
ATOM     28  C   UNL A   1      45.317  30.418  31.149  1.00  0.00     0.029 A 
ATOM     29  N   UNL A   1      43.766  31.976  31.260  1.00  0.00    -0.354 N 
ATOM     30  N   UNL A   1      39.587  31.140  32.294  1.00  0.00    -0.248 NA
ATOM     31  C   UNL A   1      39.571  32.628  30.494  1.00  0.00     0.031 C 
ATOM     32  C   UNL A   1      44.403  30.114  32.200  1.00  0.00     0.029 A 
ATOM     33  C   UNL A   1      43.317  30.988  32.102  1.00  0.00     0.049 A 
ATOM     34  H   UNL A   1      43.480  32.919  31.260  1.00  0.00     0.167 HD
ATOM     35  C   UNL A   1      40.893  31.566  32.089  1.00  0.00     0.074 A 
ATOM     36  C   UNL A   1      40.800  32.552  31.012  1.00  0.00     0.031 C 
ATOM     37  C   UNL A   1      41.961  30.893  32.614  1.00  0.00     0.031 A 
BRANCH  24  38
ATOM     38  C   UNL A   1      44.806  33.038  28.418  1.00  0.00    -0.014 A 
ATOM     39  C   UNL A   1      43.770  33.880  27.968  1.00  0.00     0.010 A 
ATOM     40  C   UNL A   1      46.094  33.607  28.518  1.00  0.00     0.010 A 
ATOM     41  C   UNL A   1      43.998  35.210  27.613  1.00  0.00     0.020 A 
ATOM     42  C   UNL A   1      46.327  34.954  28.205  1.00  0.00     0.020 A 
ATOM     43  C   UNL A   1      45.275  35.744  27.746  1.00  0.00     0.054 A 
BRANCH  43  44
ATOM     44  S   UNL A   1      45.507  37.499  27.373  1.00  0.00     0.124 S 
ATOM     45  O   UNL A   1      46.443  37.446  26.253  1.00  0.00    -0.237 OA
ATOM     46  O   UNL A   1      44.152  37.929  27.042  1.00  0.00    -0.237 OA
ATOM     47  O   UNL A   1      46.048  38.045  28.615  1.00  0.00    -0.744 OA
ENDBRANCH  43  44
ENDBRANCH  24  38
BRANCH  25  48
ATOM     48  C   UNL A   1      36.618  31.338  30.059  1.00  0.00    -0.014 A 
ATOM     49  C   UNL A   1      36.495  31.710  28.703  1.00  0.00     0.010 A 
ATOM     50  C   UNL A   1      35.648  31.813  30.962  1.00  0.00     0.010 A 
ATOM     51  C   UNL A   1      35.505  32.604  28.282  1.00  0.00     0.020 A 
ATOM     52  C   UNL A   1      34.652  32.712  30.546  1.00  0.00     0.020 A 
ATOM     53  C   UNL A   1      34.616  33.133  29.215  1.00  0.00     0.054 A 
BRANCH  53  54
ATOM     54  S   UNL A   1      33.488  34.452  28.676  1.00  0.00     0.124 S 
ATOM     55  O   UNL A   1      34.415  35.435  28.124  1.00  0.00    -0.237 OA
ATOM     56  O   UNL A   1      32.644  33.766  27.700  1.00  0.00    -0.237 OA
ATOM     57  O   UNL A   1      32.811  34.853  29.907  1.00  0.00    -0.744 OA
ENDBRANCH  53  54
ENDBRANCH  25  48
BRANCH  37  58
ATOM     58  C   UNL A   1      41.719  29.784  33.625  1.00  0.00    -0.014 A 
ATOM     59  C   UNL A   1      41.951  30.085  34.981  1.00  0.00     0.010 A 
ATOM     60  C   UNL A   1      41.502  28.436  33.272  1.00  0.00     0.010 A 
ATOM     61  C   UNL A   1      42.018  29.077  35.945  1.00  0.00     0.020 A 
ATOM     62  C   UNL A   1      41.541  27.419  34.243  1.00  0.00     0.020 A 
ATOM     63  C   UNL A   1      41.827  27.746  35.570  1.00  0.00     0.054 A 
BRANCH  63  64
ATOM     64  S   UNL A   1      41.999  26.466  36.846  1.00  0.00     0.124 S 
ATOM     65  O   UNL A   1      42.385  25.294  36.063  1.00  0.00    -0.237 OA
ATOM     66  O   UNL A   1      43.047  27.009  37.708  1.00  0.00    -0.237 OA
ATOM     67  O   UNL A   1      40.674  26.394  37.458  1.00  0.00    -0.744 OA
ENDBRANCH  63  64
ENDBRANCH  37  58
ENDBRANCH  11  12
ENDBRANCH   4   6
ENDBRANCH   1   2
BRANCH   1  68
ATOM     68  C   UNL A   1      39.464  21.916  26.096  1.00  0.00     0.023 C 
BRANCH  68  69
ATOM     69  C   UNL A   1      38.673  23.115  26.627  1.00  0.00     0.023 C 
BRANCH  69  70
ATOM     70  C   UNL A   1      37.378  23.477  25.897  1.00  0.00     0.116 C 
BRANCH  70  71
ATOM     71  N   UNL A   1      37.408  23.234  24.458  1.00  0.00    -0.352 N 
ATOM     72  C   UNL A   1      36.351  23.140  23.577  1.00  0.00     0.251 C 
ATOM     73  H   UNL A   1      38.303  23.121  24.064  1.00  0.00     0.163 HD
ATOM     74  O   UNL A   1      36.536  22.892  22.392  1.00  0.00    -0.269 OA
BRANCH  72  75
ATOM     75  C   UNL A   1      34.967  23.239  24.100  1.00  0.00     0.048 A 
ATOM     76  C   UNL A   1      34.420  24.545  24.028  1.00  0.00     0.029 A 
ATOM     77  C   UNL A   1      34.244  22.038  24.478  1.00  0.00    -0.003 A 
ATOM     78  C   UNL A   1      33.051  24.521  24.244  1.00  0.00     0.056 A 
ATOM     79  C   UNL A   1      32.824  22.069  24.634  1.00  0.00     0.012 A 
ATOM     80  C   UNL A   1      34.863  20.782  24.668  1.00  0.00     0.009 A 
ATOM     81  C   UNL A   1      32.199  25.590  24.189  1.00  0.00     0.248 A 
ATOM     82  C   UNL A   1      32.234  23.363  24.514  1.00  0.00     0.122 A 
ATOM     83  C   UNL A   1      32.076  20.892  24.848  1.00  0.00     0.011 A 
ATOM     84  C   UNL A   1      34.120  19.617  24.886  1.00  0.00     0.001 A 
ATOM     85  O   UNL A   1      30.935  25.127  24.401  1.00  0.00    -0.350 OA
ATOM     86  N   UNL A   1      30.949  23.759  24.594  1.00  0.00    -0.079 NA
ATOM     87  C   UNL A   1      32.730  19.669  24.951  1.00  0.00     0.001 A 
BRANCH  81  88
ATOM     88  C   UNL A   1      32.317  27.037  23.956  1.00  0.00     0.453 C 
ATOM     89  F   UNL A   1      31.751  27.761  24.958  1.00  0.00    -0.163 F 
ATOM     90  F   UNL A   1      33.610  27.438  23.868  1.00  0.00    -0.163 F 
ATOM     91  F   UNL A   1      31.709  27.435  22.809  1.00  0.00    -0.163 F 
ENDBRANCH  81  88
ENDBRANCH  72  75
ENDBRANCH  70  71
ENDBRANCH  69  70
ENDBRANCH  68  69
ENDBRANCH   1  68
TORSDOF 15
ENDMDL
MODEL 3
REMARK VINA RESULT:     -12.4      1.172      1.501
REMARK SMILES O=C(NCCCCNC(=O)c1cc2c(C(F)(F)F)onc2c2ccccc12)c1ccc(-c2c3nc(c(-c4ccc(S(=O)(=O)[O-])cc4)c4ccc([nH]4)c(-c4ccc(S(=O)(=O)[O-])cc4)c4nc(c(-c5ccc(S(=O)(=O)[O-])cc5)c5ccc2[nH]5)C=C4)C=C3)cc1
REMARK SMILES IDX 4 1 3 2 1 3 2 4 28 6 29 7 87 8 30 9 86 10 31 11 32 12 33 13
REMARK SMILES IDX 80 14 34 15 85 16 79 17 81 18 35 19 84 20 78 21 77 22 36 24
REMARK SMILES IDX 66 25 47 26 65 27 48 28 51 29 64 30 82 31 49 32 50 33 63 35
REMARK SMILES IDX 83 36 52 37 37 38 38 39 46 40 39 41 45 42 40 43 41 44 42 45
REMARK SMILES IDX 43 46 44 47 67 48 68 49 76 50 69 51 75 52 70 53 71 54 72 55
REMARK SMILES IDX 73 56 74 57 53 58 54 59 62 60 55 61 61 62 56 63 57 64 58 65
REMARK SMILES IDX 59 66 60 67 5 68 6 69 7 70 8 71 9 72 10 74 11 75 12 76 27 77
REMARK SMILES IDX 13 78 22 79 26 80 14 81 21 82 23 83 25 84 19 85 20 86 24 87
REMARK SMILES IDX 15 88 16 89 17 90 18 91
REMARK H PARENT 3 5 81 23 51 34 8 73
REMARK Flexibility Score: inf
ROOT
ATOM      1  C   UNL A   1      39.939  22.606  27.258  1.00  0.00     0.116 C 
ENDROOT
BRANCH   1   2
ATOM      2  N   UNL A   1      41.300  22.172  26.908  1.00  0.00    -0.352 N 
ATOM      3  O   UNL A   1      43.315  22.509  25.879  1.00  0.00    -0.269 OA
ATOM      4  C   UNL A   1      42.343  22.980  26.461  1.00  0.00     0.251 C 
ATOM      5  H   UNL A   1      41.493  21.212  27.000  1.00  0.00     0.163 HD
BRANCH   4   6
ATOM      6  C   UNL A   1      42.242  24.426  26.728  1.00  0.00     0.039 A 
ATOM      7  C   UNL A   1      41.557  25.329  25.911  1.00  0.00     0.014 A 
ATOM      8  C   UNL A   1      42.755  24.830  27.948  1.00  0.00     0.014 A 
ATOM      9  C   UNL A   1      41.316  26.615  26.405  1.00  0.00     0.010 A 
ATOM     10  C   UNL A   1      42.241  25.948  28.532  1.00  0.00     0.010 A 
ATOM     11  C   UNL A   1      41.640  26.911  27.741  1.00  0.00    -0.014 A 
BRANCH  11  12
ATOM     12  C   UNL A   1      41.364  28.201  28.364  1.00  0.00     0.031 A 
ATOM     13  C   UNL A   1      42.353  29.275  28.105  1.00  0.00     0.074 A 
ATOM     14  C   UNL A   1      40.207  28.474  29.014  1.00  0.00     0.049 A 
ATOM     15  N   UNL A   1      43.184  29.783  28.951  1.00  0.00    -0.248 NA
ATOM     16  C   UNL A   1      42.528  29.763  26.729  1.00  0.00     0.031 C 
ATOM     17  C   UNL A   1      38.988  27.657  29.153  1.00  0.00     0.029 A 
ATOM     18  N   UNL A   1      39.839  29.632  29.620  1.00  0.00    -0.354 N 
ATOM     19  C   UNL A   1      43.868  30.787  28.276  1.00  0.00     0.074 A 
ATOM     20  C   UNL A   1      43.537  30.625  26.881  1.00  0.00     0.031 C 
ATOM     21  C   UNL A   1      37.955  28.430  29.552  1.00  0.00     0.029 A 
ATOM     22  C   UNL A   1      38.487  29.725  29.919  1.00  0.00     0.049 A 
ATOM     23  H   UNL A   1      40.480  30.349  29.829  1.00  0.00     0.167 HD
ATOM     24  C   UNL A   1      44.507  31.788  28.944  1.00  0.00     0.031 A 
ATOM     25  C   UNL A   1      37.839  30.785  30.458  1.00  0.00     0.031 A 
ATOM     26  C   UNL A   1      44.636  31.489  30.348  1.00  0.00     0.049 A 
ATOM     27  C   UNL A   1      38.872  31.581  31.163  1.00  0.00     0.074 A 
ATOM     28  C   UNL A   1      45.268  30.490  31.063  1.00  0.00     0.029 A 
ATOM     29  N   UNL A   1      43.704  32.033  31.202  1.00  0.00    -0.354 N 
ATOM     30  N   UNL A   1      39.528  31.141  32.202  1.00  0.00    -0.248 NA
ATOM     31  C   UNL A   1      39.507  32.669  30.437  1.00  0.00     0.031 C 
ATOM     32  C   UNL A   1      44.353  30.156  32.104  1.00  0.00     0.029 A 
ATOM     33  C   UNL A   1      43.259  31.023  32.021  1.00  0.00     0.049 A 
ATOM     34  H   UNL A   1      43.410  32.973  31.223  1.00  0.00     0.167 HD
ATOM     35  C   UNL A   1      40.831  31.582  32.012  1.00  0.00     0.074 A 
ATOM     36  C   UNL A   1      40.734  32.591  30.956  1.00  0.00     0.031 C 
ATOM     37  C   UNL A   1      41.903  30.906  32.526  1.00  0.00     0.031 A 
BRANCH  24  38
ATOM     38  C   UNL A   1      44.746  33.166  28.389  1.00  0.00    -0.014 A 
ATOM     39  C   UNL A   1      43.746  33.915  27.737  1.00  0.00     0.010 A 
ATOM     40  C   UNL A   1      45.939  33.843  28.718  1.00  0.00     0.010 A 
ATOM     41  C   UNL A   1      43.925  35.259  27.405  1.00  0.00     0.020 A 
ATOM     42  C   UNL A   1      46.113  35.204  28.428  1.00  0.00     0.020 A 
ATOM     43  C   UNL A   1      45.104  35.901  27.765  1.00  0.00     0.054 A 
BRANCH  43  44
ATOM     44  S   UNL A   1      45.255  37.668  27.410  1.00  0.00     0.124 S 
ATOM     45  O   UNL A   1      43.890  38.014  27.023  1.00  0.00    -0.237 OA
ATOM     46  O   UNL A   1      45.703  38.205  28.691  1.00  0.00    -0.237 OA
ATOM     47  O   UNL A   1      46.241  37.719  26.334  1.00  0.00    -0.744 OA
ENDBRANCH  43  44
ENDBRANCH  24  38
BRANCH  25  48
ATOM     48  C   UNL A   1      36.565  31.366  29.962  1.00  0.00    -0.014 A 
ATOM     49  C   UNL A   1      36.443  31.761  28.613  1.00  0.00     0.010 A 
ATOM     50  C   UNL A   1      35.592  31.819  30.871  1.00  0.00     0.010 A 
ATOM     51  C   UNL A   1      35.447  32.656  28.205  1.00  0.00     0.020 A 
ATOM     52  C   UNL A   1      34.590  32.719  30.470  1.00  0.00     0.020 A 
ATOM     53  C   UNL A   1      34.554  33.163  29.146  1.00  0.00     0.054 A 
BRANCH  53  54
ATOM     54  S   UNL A   1      33.418  34.484  28.629  1.00  0.00     0.124 S 
ATOM     55  O   UNL A   1      34.337  35.468  28.064  1.00  0.00    -0.237 OA
ATOM     56  O   UNL A   1      32.559  33.802  27.665  1.00  0.00    -0.237 OA
ATOM     57  O   UNL A   1      32.761  34.883  29.871  1.00  0.00    -0.744 OA
ENDBRANCH  53  54
ENDBRANCH  25  48
BRANCH  37  58
ATOM     58  C   UNL A   1      41.666  29.774  33.512  1.00  0.00    -0.014 A 
ATOM     59  C   UNL A   1      41.803  30.070  34.881  1.00  0.00     0.010 A 
ATOM     60  C   UNL A   1      41.546  28.420  33.135  1.00  0.00     0.010 A 
ATOM     61  C   UNL A   1      41.871  29.056  35.839  1.00  0.00     0.020 A 
ATOM     62  C   UNL A   1      41.587  27.394  34.096  1.00  0.00     0.020 A 
ATOM     63  C   UNL A   1      41.778  27.721  35.441  1.00  0.00     0.054 A 
BRANCH  63  64
ATOM     64  S   UNL A   1      41.947  26.437  36.713  1.00  0.00     0.124 S 
ATOM     65  O   UNL A   1      43.089  26.916  37.490  1.00  0.00    -0.237 OA
ATOM     66  O   UNL A   1      40.660  26.495  37.403  1.00  0.00    -0.237 OA
ATOM     67  O   UNL A   1      42.185  25.212  35.954  1.00  0.00    -0.744 OA
ENDBRANCH  63  64
ENDBRANCH  37  58
ENDBRANCH  11  12
ENDBRANCH   4   6
ENDBRANCH   1   2
BRANCH   1  68
ATOM     68  C   UNL A   1      38.965  22.655  26.095  1.00  0.00     0.023 C 
BRANCH  68  69
ATOM     69  C   UNL A   1      37.884  23.734  26.212  1.00  0.00     0.023 C 
BRANCH  69  70
ATOM     70  C   UNL A   1      36.551  23.468  25.511  1.00  0.00     0.116 C 
BRANCH  70  71
ATOM     71  N   UNL A   1      35.488  22.997  26.393  1.00  0.00    -0.352 N 
ATOM     72  C   UNL A   1      34.180  23.429  26.475  1.00  0.00     0.251 C 
ATOM     73  H   UNL A   1      35.739  22.276  27.015  1.00  0.00     0.163 HD
ATOM     74  O   UNL A   1      33.410  22.957  27.301  1.00  0.00    -0.269 OA
BRANCH  72  75
ATOM     75  C   UNL A   1      33.739  24.553  25.614  1.00  0.00     0.048 A 
ATOM     76  C   UNL A   1      33.852  25.824  26.231  1.00  0.00     0.029 A 
ATOM     77  C   UNL A   1      33.394  24.313  24.224  1.00  0.00    -0.003 A 
ATOM     78  C   UNL A   1      33.714  26.840  25.298  1.00  0.00     0.056 A 
ATOM     79  C   UNL A   1      33.321  25.401  23.301  1.00  0.00     0.012 A 
ATOM     80  C   UNL A   1      33.161  23.027  23.689  1.00  0.00     0.009 A 
ATOM     81  C   UNL A   1      33.826  28.183  25.535  1.00  0.00     0.248 A 
ATOM     82  C   UNL A   1      33.484  26.695  23.882  1.00  0.00     0.122 A 
ATOM     83  C   UNL A   1      33.142  25.189  21.918  1.00  0.00     0.011 A 
ATOM     84  C   UNL A   1      32.977  22.818  22.318  1.00  0.00     0.001 A 
ATOM     85  O   UNL A   1      33.684  28.830  24.343  1.00  0.00    -0.350 OA
ATOM     86  N   UNL A   1      33.481  27.920  23.323  1.00  0.00    -0.079 NA
ATOM     87  C   UNL A   1      32.993  23.894  21.433  1.00  0.00     0.001 A 
BRANCH  81  88
ATOM     88  C   UNL A   1      34.062  29.044  26.703  1.00  0.00     0.453 C 
ATOM     89  F   UNL A   1      33.831  30.355  26.423  1.00  0.00    -0.163 F 
ATOM     90  F   UNL A   1      33.260  28.722  27.748  1.00  0.00    -0.163 F 
ATOM     91  F   UNL A   1      35.340  28.974  27.157  1.00  0.00    -0.163 F 
ENDBRANCH  81  88
ENDBRANCH  72  75
ENDBRANCH  70  71
ENDBRANCH  69  70
ENDBRANCH  68  69
ENDBRANCH   1  68
TORSDOF 15
ENDMDL
