MODEL 1
REMARK VINA RESULT:     -13.1      0.000      0.000
REMARK SMILES Cc1ccc(/C=C(\NC(=O)c2cccc(C)c2)C(=O)NCCCCNC(=O)c2ccc(-c3c4nc(c(-c5ccc(S(=O)(=O)[O-])cc5)c5ccc([nH]5)c(-c5ccc(S(=O)(=O)[O-])cc5)c5nc(c(-c6ccc(S(=O)(=O)[O-])cc6)c6ccc3[nH]6)C=C5)C=C4)cc2)cc1
REMARK SMILES IDX 23 1 22 2 21 3 20 4 18 5 19 6 7 8 6 9 5 10 1 11 2 12 3 13
REMARK SMILES IDX 89 14 4 15 88 16 8 17 9 18 10 20 11 21 12 22 17 23 13 24
REMARK SMILES IDX 15 25 14 26 16 27 24 28 25 29 26 30 27 32 28 33 29 34 87 35
REMARK SMILES IDX 30 36 86 37 31 38 32 39 33 40 80 41 34 42 85 43 79 44 81 45
REMARK SMILES IDX 35 46 84 47 78 48 77 49 36 51 66 52 47 53 65 54 48 55 51 56
REMARK SMILES IDX 64 57 82 58 49 59 50 60 63 62 83 63 52 64 37 65 38 66 46 67
REMARK SMILES IDX 39 68 45 69 40 70 41 71 42 72 43 73 44 74 67 75 68 76 76 77
REMARK SMILES IDX 69 78 75 79 70 80 71 81 72 82 73 83 74 84 53 85 54 86 62 87
REMARK SMILES IDX 55 88 61 89 56 90 57 91 58 92 59 93 60 94
REMARK H PARENT 20 7 8 19 25 31 81 50 51 61
REMARK Flexibility Score: inf
ROOT
ATOM      1  C   UNL A   1      32.901  29.878  26.922  1.00  0.00     0.023 C 
ENDROOT
BRANCH   1   2
ATOM      2  C   UNL A   1      31.836  28.804  27.137  1.00  0.00     0.023 C 
BRANCH   2   3
ATOM      3  C   UNL A   1      32.238  27.358  26.847  1.00  0.00     0.116 C 
BRANCH   3   4
ATOM      4  N   UNL A   1      31.159  26.382  26.819  1.00  0.00    -0.351 N 
ATOM      5  C   UNL A   1      31.134  25.065  26.437  1.00  0.00     0.267 C 
ATOM      6  O   UNL A   1      30.082  24.443  26.611  1.00  0.00    -0.268 OA
ATOM      7  H   UNL A   1      30.292  26.730  27.128  1.00  0.00     0.163 HD
BRANCH   5   8
ATOM      8  C   UNL A   1      32.303  24.394  25.728  1.00  0.00     0.107 C 
ATOM      9  C   UNL A   1      33.378  24.082  26.493  1.00  0.00     0.040 C 
BRANCH   9  10
ATOM     10  C   UNL A   1      34.665  23.421  26.126  1.00  0.00    -0.023 A 
ATOM     11  C   UNL A   1      38.608  21.725  25.462  1.00  0.00     0.044 C 
ATOM     12  C   UNL A   1      37.242  22.322  25.615  1.00  0.00    -0.051 A 
ATOM     13  C   UNL A   1      36.156  21.495  25.890  1.00  0.00     0.004 A 
ATOM     14  C   UNL A   1      37.025  23.699  25.530  1.00  0.00     0.004 A 
ATOM     15  C   UNL A   1      34.883  22.036  26.097  1.00  0.00     0.008 A 
ATOM     16  C   UNL A   1      35.754  24.239  25.785  1.00  0.00     0.008 A 
ENDBRANCH   9  10
BRANCH   8  17
ATOM     17  N   UNL A   1      32.301  24.078  24.396  1.00  0.00    -0.317 N 
ATOM     18  C   UNL A   1      32.455  24.861  23.277  1.00  0.00     0.255 C 
ATOM     19  H   UNL A   1      32.163  23.121  24.205  1.00  0.00     0.170 HD
ATOM     20  O   UNL A   1      32.581  24.308  22.185  1.00  0.00    -0.269 OA
BRANCH  18  21
ATOM     21  C   UNL A   1      32.439  26.330  23.363  1.00  0.00     0.040 A 
ATOM     22  C   UNL A   1      33.691  26.930  23.480  1.00  0.00     0.014 A 
ATOM     23  C   UNL A   1      31.283  27.109  23.223  1.00  0.00     0.017 A 
ATOM     24  C   UNL A   1      33.803  28.292  23.271  1.00  0.00     0.001 A 
ATOM     25  C   UNL A   1      31.394  28.498  23.089  1.00  0.00    -0.050 A 
ATOM     26  C   UNL A   1      32.667  29.077  23.090  1.00  0.00     0.003 A 
ATOM     27  C   UNL A   1      30.190  29.381  22.966  1.00  0.00     0.044 C 
ENDBRANCH  18  21
ENDBRANCH   8  17
ENDBRANCH   5   8
ENDBRANCH   3   4
ENDBRANCH   2   3
ENDBRANCH   1   2
BRANCH   1  28
ATOM     28  C   UNL A   1      34.349  29.511  27.236  1.00  0.00     0.116 C 
BRANCH  28  29
ATOM     29  N   UNL A   1      35.337  30.565  27.065  1.00  0.00    -0.352 N 
ATOM     30  C   UNL A   1      36.315  30.812  28.042  1.00  0.00     0.251 C 
ATOM     31  H   UNL A   1      35.320  31.115  26.248  1.00  0.00     0.163 HD
ATOM     32  O   UNL A   1      36.407  31.829  28.665  1.00  0.00    -0.269 OA
BRANCH  30  33
ATOM     33  C   UNL A   1      37.254  29.676  28.272  1.00  0.00     0.039 A 
ATOM     34  C   UNL A   1      37.248  28.982  29.485  1.00  0.00     0.014 A 
ATOM     35  C   UNL A   1      38.224  29.409  27.310  1.00  0.00     0.014 A 
ATOM     36  C   UNL A   1      38.314  28.129  29.796  1.00  0.00     0.010 A 
ATOM     37  C   UNL A   1      39.310  28.628  27.645  1.00  0.00     0.010 A 
ATOM     38  C   UNL A   1      39.383  28.017  28.905  1.00  0.00    -0.014 A 
BRANCH  38  39
ATOM     39  C   UNL A   1      40.679  27.415  29.215  1.00  0.00     0.031 A 
ATOM     40  C   UNL A   1      41.002  26.032  28.799  1.00  0.00     0.074 A 
ATOM     41  C   UNL A   1      41.677  28.214  29.656  1.00  0.00     0.049 A 
ATOM     42  N   UNL A   1      42.059  25.395  29.177  1.00  0.00    -0.248 NA
ATOM     43  C   UNL A   1      40.114  25.218  27.972  1.00  0.00     0.031 C 
ATOM     44  C   UNL A   1      43.118  27.997  29.520  1.00  0.00     0.029 A 
ATOM     45  N   UNL A   1      41.591  29.367  30.427  1.00  0.00    -0.354 N 
ATOM     46  C   UNL A   1      42.155  24.257  28.412  1.00  0.00     0.074 A 
ATOM     47  C   UNL A   1      40.858  24.121  27.792  1.00  0.00     0.031 C 
ATOM     48  C   UNL A   1      43.760  28.810  30.372  1.00  0.00     0.029 A 
ATOM     49  C   UNL A   1      42.753  29.448  31.200  1.00  0.00     0.049 A 
ATOM     50  H   UNL A   1      40.846  30.011  30.429  1.00  0.00     0.167 HD
ATOM     51  C   UNL A   1      43.364  23.643  28.278  1.00  0.00     0.031 A 
ATOM     52  C   UNL A   1      42.739  29.467  32.563  1.00  0.00     0.031 A 
ATOM     53  C   UNL A   1      44.351  24.186  29.219  1.00  0.00     0.049 A 
ATOM     54  C   UNL A   1      43.452  28.263  33.137  1.00  0.00     0.074 A 
ATOM     55  C   UNL A   1      45.464  24.995  29.072  1.00  0.00     0.029 A 
ATOM     56  N   UNL A   1      44.093  24.117  30.587  1.00  0.00    -0.354 N 
ATOM     57  N   UNL A   1      43.797  27.222  32.428  1.00  0.00    -0.248 NA
ATOM     58  C   UNL A   1      43.811  28.115  34.544  1.00  0.00     0.031 C 
ATOM     59  C   UNL A   1      45.800  25.507  30.357  1.00  0.00     0.029 A 
ATOM     60  C   UNL A   1      44.927  24.967  31.288  1.00  0.00     0.049 A 
ATOM     61  H   UNL A   1      43.410  23.540  30.998  1.00  0.00     0.167 HD
ATOM     62  C   UNL A   1      44.388  26.287  33.227  1.00  0.00     0.074 A 
ATOM     63  C   UNL A   1      44.385  26.897  34.546  1.00  0.00     0.031 C 
ATOM     64  C   UNL A   1      44.815  25.085  32.740  1.00  0.00     0.031 A 
BRANCH  51  65
ATOM     65  C   UNL A   1      43.724  22.696  27.145  1.00  0.00    -0.014 A 
ATOM     66  C   UNL A   1      42.955  21.531  26.930  1.00  0.00     0.010 A 
ATOM     67  C   UNL A   1      44.863  22.832  26.325  1.00  0.00     0.010 A 
ATOM     68  C   UNL A   1      43.318  20.559  25.976  1.00  0.00     0.020 A 
ATOM     69  C   UNL A   1      45.223  21.889  25.351  1.00  0.00     0.020 A 
ATOM     70  C   UNL A   1      44.457  20.744  25.194  1.00  0.00     0.054 A 
BRANCH  70  71
ATOM     71  S   UNL A   1      44.953  19.478  23.997  1.00  0.00     0.124 S 
ATOM     72  O   UNL A   1      44.504  20.055  22.731  1.00  0.00    -0.237 OA
ATOM     73  O   UNL A   1      46.399  19.409  24.183  1.00  0.00    -0.237 OA
ATOM     74  O   UNL A   1      44.219  18.288  24.426  1.00  0.00    -0.744 OA
ENDBRANCH  70  71
ENDBRANCH  51  65
BRANCH  52  75
ATOM     75  C   UNL A   1      41.545  30.156  33.136  1.00  0.00    -0.014 A 
ATOM     76  C   UNL A   1      41.621  31.567  33.207  1.00  0.00     0.010 A 
ATOM     77  C   UNL A   1      40.276  29.548  33.081  1.00  0.00     0.010 A 
ATOM     78  C   UNL A   1      40.483  32.351  33.000  1.00  0.00     0.020 A 
ATOM     79  C   UNL A   1      39.132  30.338  32.879  1.00  0.00     0.020 A 
ATOM     80  C   UNL A   1      39.262  31.726  32.755  1.00  0.00     0.054 A 
BRANCH  80  81
ATOM     81  S   UNL A   1      37.912  32.733  32.060  1.00  0.00     0.124 S 
ATOM     82  O   UNL A   1      38.462  33.163  30.780  1.00  0.00    -0.237 OA
ATOM     83  O   UNL A   1      36.815  31.765  31.987  1.00  0.00    -0.237 OA
ATOM     84  O   UNL A   1      37.736  33.786  33.056  1.00  0.00    -0.744 OA
ENDBRANCH  80  81
ENDBRANCH  52  75
BRANCH  64  85
ATOM     85  C   UNL A   1      45.236  23.921  33.597  1.00  0.00    -0.014 A 
ATOM     86  C   UNL A   1      46.544  23.743  34.077  1.00  0.00     0.010 A 
ATOM     87  C   UNL A   1      44.250  23.021  34.066  1.00  0.00     0.010 A 
ATOM     88  C   UNL A   1      46.871  22.676  34.922  1.00  0.00     0.020 A 
ATOM     89  C   UNL A   1      44.556  21.980  34.946  1.00  0.00     0.020 A 
ATOM     90  C   UNL A   1      45.876  21.797  35.347  1.00  0.00     0.054 A 
BRANCH  90  91
ATOM     91  S   UNL A   1      46.293  20.453  36.487  1.00  0.00     0.124 S 
ATOM     92  O   UNL A   1      45.721  20.936  37.741  1.00  0.00    -0.237 OA
ATOM     93  O   UNL A   1      45.619  19.298  35.895  1.00  0.00    -0.237 OA
ATOM     94  O   UNL A   1      47.751  20.406  36.436  1.00  0.00    -0.744 OA
ENDBRANCH  90  91
ENDBRANCH  64  85
ENDBRANCH  38  39
ENDBRANCH  30  33
ENDBRANCH  28  29
ENDBRANCH   1  28
TORSDOF 17
ENDMDL
MODEL 2
REMARK VINA RESULT:     -12.9      1.163      2.671
REMARK SMILES Cc1ccc(/C=C(\NC(=O)c2cccc(C)c2)C(=O)NCCCCNC(=O)c2ccc(-c3c4nc(c(-c5ccc(S(=O)(=O)[O-])cc5)c5ccc([nH]5)c(-c5ccc(S(=O)(=O)[O-])cc5)c5nc(c(-c6ccc(S(=O)(=O)[O-])cc6)c6ccc3[nH]6)C=C5)C=C4)cc2)cc1
REMARK SMILES IDX 23 1 22 2 21 3 20 4 18 5 19 6 7 8 6 9 5 10 1 11 2 12 3 13
REMARK SMILES IDX 89 14 4 15 88 16 8 17 9 18 10 20 11 21 12 22 17 23 13 24
REMARK SMILES IDX 15 25 14 26 16 27 24 28 25 29 26 30 27 32 28 33 29 34 87 35
REMARK SMILES IDX 30 36 86 37 31 38 32 39 33 40 80 41 34 42 85 43 79 44 81 45
REMARK SMILES IDX 35 46 84 47 78 48 77 49 36 51 66 52 47 53 65 54 48 55 51 56
REMARK SMILES IDX 64 57 82 58 49 59 50 60 63 62 83 63 52 64 37 65 38 66 46 67
REMARK SMILES IDX 39 68 45 69 40 70 41 71 42 72 43 73 44 74 67 75 68 76 76 77
REMARK SMILES IDX 69 78 75 79 70 80 71 81 72 82 73 83 74 84 53 85 54 86 62 87
REMARK SMILES IDX 55 88 61 89 56 90 57 91 58 92 59 93 60 94
REMARK H PARENT 20 7 8 19 25 31 81 50 51 61
REMARK Flexibility Score: inf
ROOT
ATOM      1  C   UNL A   1      34.291  28.562  26.250  1.00  0.00     0.023 C 
ENDROOT
BRANCH   1   2
ATOM      2  C   UNL A   1      33.487  28.825  24.978  1.00  0.00     0.023 C 
BRANCH   2   3
ATOM      3  C   UNL A   1      33.750  27.903  23.787  1.00  0.00     0.116 C 
BRANCH   3   4
ATOM      4  N   UNL A   1      32.654  27.029  23.395  1.00  0.00    -0.351 N 
ATOM      5  C   UNL A   1      32.323  25.756  23.782  1.00  0.00     0.267 C 
ATOM      6  O   UNL A   1      31.266  25.288  23.350  1.00  0.00    -0.268 OA
ATOM      7  H   UNL A   1      32.040  27.422  22.733  1.00  0.00     0.163 HD
BRANCH   5   8
ATOM      8  C   UNL A   1      33.248  24.888  24.626  1.00  0.00     0.107 C 
ATOM      9  C   UNL A   1      34.457  24.590  24.091  1.00  0.00     0.040 C 
BRANCH   9  10
ATOM     10  C   UNL A   1      35.586  23.786  24.644  1.00  0.00    -0.023 A 
ATOM     11  C   UNL A   1      39.115  21.547  25.824  1.00  0.00     0.044 C 
ATOM     12  C   UNL A   1      37.854  22.262  25.447  1.00  0.00    -0.051 A 
ATOM     13  C   UNL A   1      37.456  23.384  26.170  1.00  0.00     0.004 A 
ATOM     14  C   UNL A   1      37.077  21.863  24.357  1.00  0.00     0.004 A 
ATOM     15  C   UNL A   1      36.316  24.103  25.798  1.00  0.00     0.008 A 
ATOM     16  C   UNL A   1      35.960  22.617  23.961  1.00  0.00     0.008 A 
ENDBRANCH   9  10
BRANCH   8  17
ATOM     17  N   UNL A   1      32.926  24.434  25.877  1.00  0.00    -0.317 N 
ATOM     18  C   UNL A   1      32.739  23.160  26.361  1.00  0.00     0.255 C 
ATOM     19  H   UNL A   1      32.807  25.143  26.550  1.00  0.00     0.170 HD
ATOM     20  O   UNL A   1      32.618  23.004  27.575  1.00  0.00    -0.269 OA
BRANCH  18  21
ATOM     21  C   UNL A   1      32.651  22.004  25.455  1.00  0.00     0.040 A 
ATOM     22  C   UNL A   1      31.806  22.173  24.360  1.00  0.00     0.014 A 
ATOM     23  C   UNL A   1      33.433  20.848  25.584  1.00  0.00     0.017 A 
ATOM     24  C   UNL A   1      31.882  21.276  23.310  1.00  0.00     0.001 A 
ATOM     25  C   UNL A   1      33.448  19.903  24.551  1.00  0.00    -0.050 A 
ATOM     26  C   UNL A   1      32.685  20.142  23.404  1.00  0.00     0.003 A 
ATOM     27  C   UNL A   1      34.243  18.637  24.649  1.00  0.00     0.044 C 
ENDBRANCH  18  21
ENDBRANCH   8  17
ENDBRANCH   5   8
ENDBRANCH   3   4
ENDBRANCH   2   3
ENDBRANCH   1   2
BRANCH   1  28
ATOM     28  C   UNL A   1      34.352  29.676  27.292  1.00  0.00     0.116 C 
BRANCH  28  29
ATOM     29  N   UNL A   1      35.343  30.717  27.070  1.00  0.00    -0.352 N 
ATOM     30  C   UNL A   1      36.363  30.962  28.003  1.00  0.00     0.251 C 
ATOM     31  H   UNL A   1      35.297  31.261  26.250  1.00  0.00     0.163 HD
ATOM     32  O   UNL A   1      36.493  31.983  28.612  1.00  0.00    -0.269 OA
BRANCH  30  33
ATOM     33  C   UNL A   1      37.299  29.818  28.203  1.00  0.00     0.039 A 
ATOM     34  C   UNL A   1      37.216  29.022  29.349  1.00  0.00     0.014 A 
ATOM     35  C   UNL A   1      38.340  29.642  27.296  1.00  0.00     0.014 A 
ATOM     36  C   UNL A   1      38.268  28.154  29.663  1.00  0.00     0.010 A 
ATOM     37  C   UNL A   1      39.410  28.843  27.642  1.00  0.00     0.010 A 
ATOM     38  C   UNL A   1      39.400  28.127  28.846  1.00  0.00    -0.014 A 
BRANCH  38  39
ATOM     39  C   UNL A   1      40.679  27.511  29.199  1.00  0.00     0.031 A 
ATOM     40  C   UNL A   1      41.002  26.126  28.788  1.00  0.00     0.074 A 
ATOM     41  C   UNL A   1      41.669  28.297  29.676  1.00  0.00     0.049 A 
ATOM     42  N   UNL A   1      42.039  25.476  29.199  1.00  0.00    -0.248 NA
ATOM     43  C   UNL A   1      40.135  25.324  27.928  1.00  0.00     0.031 C 
ATOM     44  C   UNL A   1      43.111  28.066  29.589  1.00  0.00     0.029 A 
ATOM     45  N   UNL A   1      41.568  29.449  30.448  1.00  0.00    -0.354 N 
ATOM     46  C   UNL A   1      42.149  24.341  28.432  1.00  0.00     0.074 A 
ATOM     47  C   UNL A   1      40.873  24.221  27.768  1.00  0.00     0.031 C 
ATOM     48  C   UNL A   1      43.733  28.869  30.466  1.00  0.00     0.029 A 
ATOM     49  C   UNL A   1      42.704  29.515  31.261  1.00  0.00     0.049 A 
ATOM     50  H   UNL A   1      40.830  30.100  30.428  1.00  0.00     0.167 HD
ATOM     51  C   UNL A   1      43.356  23.715  28.338  1.00  0.00     0.031 A 
ATOM     52  C   UNL A   1      42.644  29.528  32.624  1.00  0.00     0.031 A 
ATOM     53  C   UNL A   1      44.315  24.244  29.314  1.00  0.00     0.049 A 
ATOM     54  C   UNL A   1      43.324  28.315  33.217  1.00  0.00     0.074 A 
ATOM     55  C   UNL A   1      45.442  25.042  29.209  1.00  0.00     0.029 A 
ATOM     56  N   UNL A   1      44.011  24.172  30.672  1.00  0.00    -0.354 N 
ATOM     57  N   UNL A   1      43.683  27.274  32.515  1.00  0.00    -0.248 NA
ATOM     58  C   UNL A   1      43.634  28.158  34.633  1.00  0.00     0.031 C 
ATOM     59  C   UNL A   1      45.738  25.546  30.507  1.00  0.00     0.029 A 
ATOM     60  C   UNL A   1      44.828  25.011  31.405  1.00  0.00     0.049 A 
ATOM     61  H   UNL A   1      43.308  23.601  31.057  1.00  0.00     0.167 HD
ATOM     62  C   UNL A   1      44.237  26.329  33.330  1.00  0.00     0.074 A 
ATOM     63  C   UNL A   1      44.195  26.934  34.650  1.00  0.00     0.031 C 
ATOM     64  C   UNL A   1      44.668  25.125  32.852  1.00  0.00     0.031 A 
BRANCH  51  65
ATOM     65  C   UNL A   1      43.745  22.769  27.213  1.00  0.00    -0.014 A 
ATOM     66  C   UNL A   1      42.885  21.705  26.859  1.00  0.00     0.010 A 
ATOM     67  C   UNL A   1      44.982  22.799  26.539  1.00  0.00     0.010 A 
ATOM     68  C   UNL A   1      43.253  20.729  25.912  1.00  0.00     0.020 A 
ATOM     69  C   UNL A   1      45.352  21.852  25.573  1.00  0.00     0.020 A 
ATOM     70  C   UNL A   1      44.491  20.807  25.277  1.00  0.00     0.054 A 
BRANCH  70  71
ATOM     71  S   UNL A   1      44.987  19.531  24.091  1.00  0.00     0.124 S 
ATOM     72  O   UNL A   1      44.491  20.071  22.828  1.00  0.00    -0.237 OA
ATOM     73  O   UNL A   1      46.439  19.500  24.241  1.00  0.00    -0.237 OA
ATOM     74  O   UNL A   1      44.294  18.331  24.562  1.00  0.00    -0.744 OA
ENDBRANCH  70  71
ENDBRANCH  51  65
BRANCH  52  75
ATOM     75  C   UNL A   1      41.438  30.228  33.158  1.00  0.00    -0.014 A 
ATOM     76  C   UNL A   1      41.535  31.635  33.261  1.00  0.00     0.010 A 
ATOM     77  C   UNL A   1      40.162  29.643  33.036  1.00  0.00     0.010 A 
ATOM     78  C   UNL A   1      40.421  32.444  33.021  1.00  0.00     0.020 A 
ATOM     79  C   UNL A   1      39.042  30.458  32.800  1.00  0.00     0.020 A 
ATOM     80  C   UNL A   1      39.201  31.846  32.711  1.00  0.00     0.054 A 
BRANCH  80  81
ATOM     81  S   UNL A   1      37.900  32.890  31.979  1.00  0.00     0.124 S 
ATOM     82  O   UNL A   1      38.487  33.282  30.703  1.00  0.00    -0.237 OA
ATOM     83  O   UNL A   1      36.770  31.961  31.899  1.00  0.00    -0.237 OA
ATOM     84  O   UNL A   1      37.745  33.963  32.957  1.00  0.00    -0.744 OA
ENDBRANCH  80  81
ENDBRANCH  52  75
BRANCH  64  85
ATOM     85  C   UNL A   1      45.047  23.953  33.718  1.00  0.00    -0.014 A 
ATOM     86  C   UNL A   1      44.150  22.936  34.084  1.00  0.00     0.010 A 
ATOM     87  C   UNL A   1      46.403  23.776  34.080  1.00  0.00     0.010 A 
ATOM     88  C   UNL A   1      44.568  21.833  34.841  1.00  0.00     0.020 A 
ATOM     89  C   UNL A   1      46.840  22.658  34.795  1.00  0.00     0.020 A 
ATOM     90  C   UNL A   1      45.910  21.705  35.197  1.00  0.00     0.054 A 
BRANCH  90  91
ATOM     91  S   UNL A   1      46.455  20.249  36.124  1.00  0.00     0.124 S 
ATOM     92  O   UNL A   1      46.048  19.160  35.239  1.00  0.00    -0.237 OA
ATOM     93  O   UNL A   1      47.898  20.454  36.241  1.00  0.00    -0.237 OA
ATOM     94  O   UNL A   1      45.717  20.350  37.379  1.00  0.00    -0.744 OA
ENDBRANCH  90  91
ENDBRANCH  64  85
ENDBRANCH  38  39
ENDBRANCH  30  33
ENDBRANCH  28  29
ENDBRANCH   1  28
TORSDOF 17
ENDMDL
MODEL 3
REMARK VINA RESULT:     -12.8      1.198      1.976
REMARK SMILES Cc1ccc(/C=C(\NC(=O)c2cccc(C)c2)C(=O)NCCCCNC(=O)c2ccc(-c3c4nc(c(-c5ccc(S(=O)(=O)[O-])cc5)c5ccc([nH]5)c(-c5ccc(S(=O)(=O)[O-])cc5)c5nc(c(-c6ccc(S(=O)(=O)[O-])cc6)c6ccc3[nH]6)C=C5)C=C4)cc2)cc1
REMARK SMILES IDX 23 1 22 2 21 3 20 4 18 5 19 6 7 8 6 9 5 10 1 11 2 12 3 13
REMARK SMILES IDX 89 14 4 15 88 16 8 17 9 18 10 20 11 21 12 22 17 23 13 24
REMARK SMILES IDX 15 25 14 26 16 27 24 28 25 29 26 30 27 32 28 33 29 34 87 35
REMARK SMILES IDX 30 36 86 37 31 38 32 39 33 40 80 41 34 42 85 43 79 44 81 45
REMARK SMILES IDX 35 46 84 47 78 48 77 49 36 51 66 52 47 53 65 54 48 55 51 56
REMARK SMILES IDX 64 57 82 58 49 59 50 60 63 62 83 63 52 64 37 65 38 66 46 67
REMARK SMILES IDX 39 68 45 69 40 70 41 71 42 72 43 73 44 74 67 75 68 76 76 77
REMARK SMILES IDX 69 78 75 79 70 80 71 81 72 82 73 83 74 84 53 85 54 86 62 87
REMARK SMILES IDX 55 88 61 89 56 90 57 91 58 92 59 93 60 94
REMARK H PARENT 20 7 8 19 25 31 81 50 51 61
REMARK Flexibility Score: inf
ROOT
ATOM      1  C   UNL A   1      32.842  29.982  27.424  1.00  0.00     0.023 C 
ENDROOT
BRANCH   1   2
ATOM      2  C   UNL A   1      32.131  30.388  26.133  1.00  0.00     0.023 C 
BRANCH   2   3
ATOM      3  C   UNL A   1      32.134  29.373  24.990  1.00  0.00     0.116 C 
BRANCH   3   4
ATOM      4  N   UNL A   1      33.209  29.501  24.017  1.00  0.00    -0.351 N 
ATOM      5  C   UNL A   1      33.938  28.557  23.340  1.00  0.00     0.267 C 
ATOM      6  O   UNL A   1      34.737  28.961  22.489  1.00  0.00    -0.268 OA
ATOM      7  H   UNL A   1      33.458  30.430  23.809  1.00  0.00     0.163 HD
BRANCH   5   8
ATOM      8  C   UNL A   1      33.866  27.072  23.668  1.00  0.00     0.107 C 
ATOM      9  C   UNL A   1      34.032  26.729  24.969  1.00  0.00     0.040 C 
BRANCH   9  10
ATOM     10  C   UNL A   1      34.012  25.389  25.625  1.00  0.00    -0.023 A 
ATOM     11  C   UNL A   1      33.612  21.357  27.188  1.00  0.00     0.044 C 
ATOM     12  C   UNL A   1      33.751  22.773  26.723  1.00  0.00    -0.051 A 
ATOM     13  C   UNL A   1      34.968  23.212  26.206  1.00  0.00     0.004 A 
ATOM     14  C   UNL A   1      32.679  23.668  26.750  1.00  0.00     0.004 A 
ATOM     15  C   UNL A   1      35.103  24.512  25.709  1.00  0.00     0.008 A 
ATOM     16  C   UNL A   1      32.809  24.956  26.206  1.00  0.00     0.008 A 
ENDBRANCH   9  10
BRANCH   8  17
ATOM     17  N   UNL A   1      33.622  26.101  22.734  1.00  0.00    -0.317 N 
ATOM     18  C   UNL A   1      32.459  25.710  22.114  1.00  0.00     0.255 C 
ATOM     19  H   UNL A   1      34.418  25.592  22.457  1.00  0.00     0.170 HD
ATOM     20  O   UNL A   1      32.530  24.915  21.179  1.00  0.00    -0.269 OA
BRANCH  18  21
ATOM     21  C   UNL A   1      31.147  26.198  22.571  1.00  0.00     0.040 A 
ATOM     22  C   UNL A   1      30.491  25.369  23.477  1.00  0.00     0.014 A 
ATOM     23  C   UNL A   1      30.620  27.451  22.235  1.00  0.00     0.017 A 
ATOM     24  C   UNL A   1      29.411  25.869  24.182  1.00  0.00     0.001 A 
ATOM     25  C   UNL A   1      29.479  27.924  22.896  1.00  0.00    -0.050 A 
ATOM     26  C   UNL A   1      28.897  27.131  23.889  1.00  0.00     0.003 A 
ATOM     27  C   UNL A   1      28.857  29.243  22.556  1.00  0.00     0.044 C 
ENDBRANCH  18  21
ENDBRANCH   8  17
ENDBRANCH   5   8
ENDBRANCH   3   4
ENDBRANCH   2   3
ENDBRANCH   1   2
BRANCH   1  28
ATOM     28  C   UNL A   1      34.289  29.510  27.316  1.00  0.00     0.116 C 
BRANCH  28  29
ATOM     29  N   UNL A   1      35.291  30.539  27.078  1.00  0.00    -0.352 N 
ATOM     30  C   UNL A   1      36.304  30.799  28.014  1.00  0.00     0.251 C 
ATOM     31  H   UNL A   1      35.256  31.062  26.244  1.00  0.00     0.163 HD
ATOM     32  O   UNL A   1      36.436  31.834  28.598  1.00  0.00    -0.269 OA
BRANCH  30  33
ATOM     33  C   UNL A   1      37.229  29.653  28.251  1.00  0.00     0.039 A 
ATOM     34  C   UNL A   1      37.237  28.987  29.479  1.00  0.00     0.014 A 
ATOM     35  C   UNL A   1      38.175  29.348  27.276  1.00  0.00     0.014 A 
ATOM     36  C   UNL A   1      38.295  28.124  29.789  1.00  0.00     0.010 A 
ATOM     37  C   UNL A   1      39.255  28.557  27.608  1.00  0.00     0.010 A 
ATOM     38  C   UNL A   1      39.344  27.974  28.879  1.00  0.00    -0.014 A 
BRANCH  38  39
ATOM     39  C   UNL A   1      40.636  27.358  29.178  1.00  0.00     0.031 A 
ATOM     40  C   UNL A   1      40.929  25.961  28.786  1.00  0.00     0.074 A 
ATOM     41  C   UNL A   1      41.655  28.149  29.581  1.00  0.00     0.049 A 
ATOM     42  N   UNL A   1      41.983  25.315  29.157  1.00  0.00    -0.248 NA
ATOM     43  C   UNL A   1      40.012  25.143  27.995  1.00  0.00     0.031 C 
ATOM     44  C   UNL A   1      43.089  27.906  29.423  1.00  0.00     0.029 A 
ATOM     45  N   UNL A   1      41.603  29.321  30.328  1.00  0.00    -0.354 N 
ATOM     46  C   UNL A   1      42.045  24.159  28.416  1.00  0.00     0.074 A 
ATOM     47  C   UNL A   1      40.735  24.031  27.824  1.00  0.00     0.031 C 
ATOM     48  C   UNL A   1      43.762  28.727  30.243  1.00  0.00     0.029 A 
ATOM     49  C   UNL A   1      42.781  29.399  31.076  1.00  0.00     0.049 A 
ATOM     50  H   UNL A   1      40.868  29.976  30.331  1.00  0.00     0.167 HD
ATOM     51  C   UNL A   1      43.242  23.523  28.273  1.00  0.00     0.031 A 
ATOM     52  C   UNL A   1      42.795  29.448  32.439  1.00  0.00     0.031 A 
ATOM     53  C   UNL A   1      44.255  24.070  29.181  1.00  0.00     0.049 A 
ATOM     54  C   UNL A   1      43.499  28.246  33.026  1.00  0.00     0.074 A 
ATOM     55  C   UNL A   1      45.379  24.857  28.995  1.00  0.00     0.029 A 
ATOM     56  N   UNL A   1      44.024  24.035  30.555  1.00  0.00    -0.354 N 
ATOM     57  N   UNL A   1      43.814  27.184  32.333  1.00  0.00    -0.248 NA
ATOM     58  C   UNL A   1      43.884  28.122  34.427  1.00  0.00     0.031 C 
ATOM     59  C   UNL A   1      45.748  25.392  30.262  1.00  0.00     0.029 A 
ATOM     60  C   UNL A   1      44.885  24.887  31.221  1.00  0.00     0.049 A 
ATOM     61  H   UNL A   1      43.340  23.478  30.993  1.00  0.00     0.167 HD
ATOM     62  C   UNL A   1      44.406  26.257  33.140  1.00  0.00     0.074 A 
ATOM     63  C   UNL A   1      44.438  26.896  34.445  1.00  0.00     0.031 C 
ATOM     64  C   UNL A   1      44.803  25.038  32.672  1.00  0.00     0.031 A 
BRANCH  51  65
ATOM     65  C   UNL A   1      43.564  22.546  27.153  1.00  0.00    -0.014 A 
ATOM     66  C   UNL A   1      42.841  21.337  27.044  1.00  0.00     0.010 A 
ATOM     67  C   UNL A   1      44.631  22.699  26.245  1.00  0.00     0.010 A 
ATOM     68  C   UNL A   1      43.181  20.343  26.104  1.00  0.00     0.020 A 
ATOM     69  C   UNL A   1      44.965  21.733  25.285  1.00  0.00     0.020 A 
ATOM     70  C   UNL A   1      44.248  20.548  25.232  1.00  0.00     0.054 A 
BRANCH  70  71
ATOM     71  S   UNL A   1      44.717  19.256  24.051  1.00  0.00     0.124 S 
ATOM     72  O   UNL A   1      44.519  19.922  22.766  1.00  0.00    -0.237 OA
ATOM     73  O   UNL A   1      46.104  18.978  24.413  1.00  0.00    -0.237 OA
ATOM     74  O   UNL A   1      43.778  18.170  24.333  1.00  0.00    -0.744 OA
ENDBRANCH  70  71
ENDBRANCH  51  65
BRANCH  52  75
ATOM     75  C   UNL A   1      41.623  30.169  33.019  1.00  0.00    -0.014 A 
ATOM     76  C   UNL A   1      41.677  31.581  32.962  1.00  0.00     0.010 A 
ATOM     77  C   UNL A   1      40.365  29.541  33.094  1.00  0.00     0.010 A 
ATOM     78  C   UNL A   1      40.515  32.329  32.755  1.00  0.00     0.020 A 
ATOM     79  C   UNL A   1      39.196  30.295  32.892  1.00  0.00     0.020 A 
ATOM     80  C   UNL A   1      39.293  31.668  32.639  1.00  0.00     0.054 A 
BRANCH  80  81
ATOM     81  S   UNL A   1      37.886  32.591  31.941  1.00  0.00     0.124 S 
ATOM     82  O   UNL A   1      36.878  31.552  31.768  1.00  0.00    -0.237 OA
ATOM     83  O   UNL A   1      37.612  33.573  32.994  1.00  0.00    -0.237 OA
ATOM     84  O   UNL A   1      38.433  33.150  30.708  1.00  0.00    -0.744 OA
ENDBRANCH  80  81
ENDBRANCH  52  75
BRANCH  64  85
ATOM     85  C   UNL A   1      45.223  23.886  33.546  1.00  0.00    -0.014 A 
ATOM     86  C   UNL A   1      46.481  23.799  34.164  1.00  0.00     0.010 A 
ATOM     87  C   UNL A   1      44.269  22.897  33.885  1.00  0.00     0.010 A 
ATOM     88  C   UNL A   1      46.801  22.736  35.019  1.00  0.00     0.020 A 
ATOM     89  C   UNL A   1      44.562  21.859  34.771  1.00  0.00     0.020 A 
ATOM     90  C   UNL A   1      45.841  21.769  35.312  1.00  0.00     0.054 A 
BRANCH  90  91
ATOM     91  S   UNL A   1      46.240  20.430  36.463  1.00  0.00     0.124 S 
ATOM     92  O   UNL A   1      45.381  19.352  35.979  1.00  0.00    -0.237 OA
ATOM     93  O   UNL A   1      47.673  20.230  36.254  1.00  0.00    -0.237 OA
ATOM     94  O   UNL A   1      45.881  20.984  37.766  1.00  0.00    -0.744 OA
ENDBRANCH  90  91
ENDBRANCH  64  85
ENDBRANCH  38  39
ENDBRANCH  30  33
ENDBRANCH  28  29
ENDBRANCH   1  28
TORSDOF 17
ENDMDL
