MODEL 1
REMARK VINA RESULT:     -11.1      0.000      0.000
REMARK SMILES CC1(C)COCCN1C(=O)N1CCO[C@@H](CC(=O)NCCCCNC(=O)c2ccc(-c3c4nc(c(-c5ccc(S(=O)(=O)[O-])cc5)c5ccc([nH]5)c(-c5ccc(S(=O)(=O)[O-])cc5)c5nc(c(-c6ccc(S(=O)(=O)[O-])cc6)c6ccc3[nH]6)C=C5)C=C4)cc2)C1
REMARK SMILES IDX 21 1 20 2 19 3 17 4 18 5 16 7 15 8 11 9 12 10 87 11 13 12
REMARK SMILES IDX 14 13 9 14 10 15 8 16 1 17 2 18 3 19 4 20 5 21 7 22 6 23
REMARK SMILES IDX 22 24 23 25 24 26 25 27 26 29 27 30 28 31 86 32 29 33 85 34
REMARK SMILES IDX 30 35 31 36 32 37 79 38 33 39 84 40 78 41 80 42 34 43 83 44
REMARK SMILES IDX 77 45 76 46 35 48 65 49 46 50 64 51 47 52 50 53 63 54 81 55
REMARK SMILES IDX 48 56 49 57 62 59 82 60 51 61 36 62 37 63 45 64 38 65 44 66
REMARK SMILES IDX 39 67 40 68 41 69 42 70 43 71 66 72 67 73 75 74 68 75 74 76
REMARK SMILES IDX 69 77 70 78 71 79 72 80 73 81 52 82 53 83 61 84 54 85 60 86
REMARK SMILES IDX 55 87 56 88 57 89 58 90 59 91
REMARK H PARENT 19 6 24 28 80 47 50 58
REMARK Flexibility Score: inf
ROOT
ATOM      1  C   UNL A   1      39.116  22.832  26.493  1.00  0.00     0.023 C 
ENDROOT
BRANCH   1   2
ATOM      2  C   UNL A   1      38.121  21.887  25.792  1.00  0.00     0.116 C 
BRANCH   2   3
ATOM      3  N   UNL A   1      37.710  22.383  24.485  1.00  0.00    -0.356 N 
ATOM      4  C   UNL A   1      36.568  22.559  23.790  1.00  0.00     0.222 C 
ATOM      5  O   UNL A   1      36.704  23.253  22.769  1.00  0.00    -0.275 OA
ATOM      6  H   UNL A   1      38.489  22.675  23.958  1.00  0.00     0.163 HD
BRANCH   4   7
ATOM      7  C   UNL A   1      35.153  22.121  24.150  1.00  0.00     0.133 C 
BRANCH   7   8
ATOM      8  C   UNL A   1      34.755  21.561  25.515  1.00  0.00     0.147 C 
ATOM      9  N   UNL A   1      32.610  22.747  25.781  1.00  0.00    -0.320 N 
ATOM     10  C   UNL A   1      31.851  21.518  25.561  1.00  0.00     0.150 C 
ATOM     11  C   UNL A   1      33.891  22.438  26.402  1.00  0.00     0.154 C 
ATOM     12  C   UNL A   1      32.701  20.454  24.833  1.00  0.00     0.182 C 
ATOM     13  O   UNL A   1      34.039  20.302  25.355  1.00  0.00    -0.374 OA
BRANCH   9  14
ATOM     14  C   UNL A   1      31.973  23.883  26.232  1.00  0.00     0.320 C 
ATOM     15  O   UNL A   1      31.449  23.868  27.350  1.00  0.00    -0.248 OA
BRANCH  14  16
ATOM     16  N   UNL A   1      32.024  25.040  25.469  1.00  0.00    -0.315 N 
ATOM     17  C   UNL A   1      30.583  26.670  24.233  1.00  0.00     0.037 C 
ATOM     18  C   UNL A   1      31.412  25.375  24.126  1.00  0.00     0.062 C 
ATOM     19  C   UNL A   1      30.518  24.318  23.486  1.00  0.00     0.037 C 
ATOM     20  C   UNL A   1      32.578  25.580  23.103  1.00  0.00     0.188 C 
ATOM     21  O   UNL A   1      33.494  26.592  23.528  1.00  0.00    -0.377 OA
ATOM     22  C   UNL A   1      33.064  26.014  25.870  1.00  0.00     0.150 C 
ATOM     23  C   UNL A   1      34.109  26.221  24.767  1.00  0.00     0.182 C 
ENDBRANCH  14  16
ENDBRANCH   9  14
ENDBRANCH   7   8
ENDBRANCH   4   7
ENDBRANCH   2   3
ENDBRANCH   1   2
BRANCH   1  24
ATOM     24  C   UNL A   1      40.398  22.158  26.976  1.00  0.00     0.023 C 
BRANCH  24  25
ATOM     25  C   UNL A   1      41.630  23.056  26.981  1.00  0.00     0.116 C 
BRANCH  25  26
ATOM     26  N   UNL A   1      41.664  24.038  25.902  1.00  0.00    -0.352 N 
ATOM     27  C   UNL A   1      41.582  25.412  26.009  1.00  0.00     0.251 C 
ATOM     28  H   UNL A   1      41.755  23.678  24.991  1.00  0.00     0.163 HD
ATOM     29  O   UNL A   1      41.514  26.128  25.015  1.00  0.00    -0.269 OA
BRANCH  27  30
ATOM     30  C   UNL A   1      41.549  26.018  27.358  1.00  0.00     0.039 A 
ATOM     31  C   UNL A   1      42.613  26.817  27.779  1.00  0.00     0.014 A 
ATOM     32  C   UNL A   1      40.412  25.872  28.159  1.00  0.00     0.014 A 
ATOM     33  C   UNL A   1      42.492  27.557  28.959  1.00  0.00     0.010 A 
ATOM     34  C   UNL A   1      40.265  26.665  29.293  1.00  0.00     0.010 A 
ATOM     35  C   UNL A   1      41.295  27.531  29.695  1.00  0.00    -0.014 A 
BRANCH  35  36
ATOM     36  C   UNL A   1      41.083  28.432  30.860  1.00  0.00     0.031 A 
ATOM     37  C   UNL A   1      39.999  29.473  30.830  1.00  0.00     0.074 A 
ATOM     38  C   UNL A   1      41.922  28.367  31.915  1.00  0.00     0.049 A 
ATOM     39  N   UNL A   1      39.702  30.380  31.726  1.00  0.00    -0.248 NA
ATOM     40  C   UNL A   1      39.156  29.522  29.624  1.00  0.00     0.031 C 
ATOM     41  C   UNL A   1      43.053  27.444  32.048  1.00  0.00     0.029 A 
ATOM     42  N   UNL A   1      41.959  29.098  33.077  1.00  0.00    -0.354 N 
ATOM     43  C   UNL A   1      38.653  31.115  31.188  1.00  0.00     0.074 A 
ATOM     44  C   UNL A   1      38.398  30.581  29.867  1.00  0.00     0.031 C 
ATOM     45  C   UNL A   1      43.650  27.644  33.233  1.00  0.00     0.029 A 
ATOM     46  C   UNL A   1      42.971  28.730  33.933  1.00  0.00     0.049 A 
ATOM     47  H   UNL A   1      41.319  29.819  33.280  1.00  0.00     0.167 HD
ATOM     48  C   UNL A   1      37.950  32.129  31.747  1.00  0.00     0.031 A 
ATOM     49  C   UNL A   1      43.317  29.210  35.144  1.00  0.00     0.031 A 
ATOM     50  C   UNL A   1      38.190  32.649  33.066  1.00  0.00     0.049 A 
ATOM     51  C   UNL A   1      42.512  30.325  35.752  1.00  0.00     0.074 A 
ATOM     52  C   UNL A   1      37.490  33.633  33.743  1.00  0.00     0.029 A 
ATOM     53  N   UNL A   1      39.208  32.230  33.909  1.00  0.00    -0.354 N 
ATOM     54  N   UNL A   1      41.476  30.957  35.255  1.00  0.00    -0.248 NA
ATOM     55  C   UNL A   1      42.915  30.783  37.089  1.00  0.00     0.031 C 
ATOM     56  C   UNL A   1      38.110  33.836  34.981  1.00  0.00     0.029 A 
ATOM     57  C   UNL A   1      39.165  32.946  35.093  1.00  0.00     0.049 A 
ATOM     58  H   UNL A   1      39.863  31.527  33.697  1.00  0.00     0.167 HD
ATOM     59  C   UNL A   1      41.087  31.869  36.230  1.00  0.00     0.074 A 
ATOM     60  C   UNL A   1      41.991  31.699  37.349  1.00  0.00     0.031 C 
ATOM     61  C   UNL A   1      40.069  32.764  36.201  1.00  0.00     0.031 A 
BRANCH  48  62
ATOM     62  C   UNL A   1      36.846  32.739  30.927  1.00  0.00    -0.014 A 
ATOM     63  C   UNL A   1      35.512  32.318  31.082  1.00  0.00     0.010 A 
ATOM     64  C   UNL A   1      37.137  33.764  30.009  1.00  0.00     0.010 A 
ATOM     65  C   UNL A   1      34.498  32.876  30.301  1.00  0.00     0.020 A 
ATOM     66  C   UNL A   1      36.120  34.344  29.244  1.00  0.00     0.020 A 
ATOM     67  C   UNL A   1      34.810  33.882  29.382  1.00  0.00     0.054 A 
BRANCH  67  68
ATOM     68  S   UNL A   1      33.472  34.598  28.388  1.00  0.00     0.124 S 
ATOM     69  O   UNL A   1      34.205  35.505  27.509  1.00  0.00    -0.237 OA
ATOM     70  O   UNL A   1      32.893  33.426  27.737  1.00  0.00    -0.237 OA
ATOM     71  O   UNL A   1      32.615  35.245  29.377  1.00  0.00    -0.744 OA
ENDBRANCH  67  68
ENDBRANCH  48  62
BRANCH  49  72
ATOM     72  C   UNL A   1      44.467  28.615  35.878  1.00  0.00    -0.014 A 
ATOM     73  C   UNL A   1      44.270  27.530  36.750  1.00  0.00     0.010 A 
ATOM     74  C   UNL A   1      45.767  29.122  35.700  1.00  0.00     0.010 A 
ATOM     75  C   UNL A   1      45.348  26.971  37.443  1.00  0.00     0.020 A 
ATOM     76  C   UNL A   1      46.852  28.551  36.373  1.00  0.00     0.020 A 
ATOM     77  C   UNL A   1      46.633  27.486  37.249  1.00  0.00     0.054 A 
BRANCH  77  78
ATOM     78  S   UNL A   1      48.028  26.712  38.116  1.00  0.00     0.124 S 
ATOM     79  O   UNL A   1      47.730  25.292  37.963  1.00  0.00    -0.237 OA
ATOM     80  O   UNL A   1      49.180  27.203  37.363  1.00  0.00    -0.237 OA
ATOM     81  O   UNL A   1      47.915  27.235  39.476  1.00  0.00    -0.744 OA
ENDBRANCH  77  78
ENDBRANCH  49  72
BRANCH  61  82
ATOM     82  C   UNL A   1      39.854  33.611  37.425  1.00  0.00    -0.014 A 
ATOM     83  C   UNL A   1      40.428  34.889  37.537  1.00  0.00     0.010 A 
ATOM     84  C   UNL A   1      39.011  33.144  38.450  1.00  0.00     0.010 A 
ATOM     85  C   UNL A   1      40.182  35.676  38.664  1.00  0.00     0.020 A 
ATOM     86  C   UNL A   1      38.745  33.938  39.569  1.00  0.00     0.020 A 
ATOM     87  C   UNL A   1      39.342  35.196  39.673  1.00  0.00     0.054 A 
BRANCH  87  88
ATOM     88  S   UNL A   1      38.994  36.258  41.102  1.00  0.00     0.124 S 
ATOM     89  O   UNL A   1      37.825  35.608  41.687  1.00  0.00    -0.237 OA
ATOM     90  O   UNL A   1      40.225  36.161  41.884  1.00  0.00    -0.237 OA
ATOM     91  O   UNL A   1      38.746  37.569  40.506  1.00  0.00    -0.744 OA
ENDBRANCH  87  88
ENDBRANCH  61  82
ENDBRANCH  35  36
ENDBRANCH  27  30
ENDBRANCH  25  26
ENDBRANCH  24  25
ENDBRANCH   1  24
TORSDOF 17
ENDMDL
MODEL 2
REMARK VINA RESULT:     -11.0      0.805      8.167
REMARK SMILES CC1(C)COCCN1C(=O)N1CCO[C@@H](CC(=O)NCCCCNC(=O)c2ccc(-c3c4nc(c(-c5ccc(S(=O)(=O)[O-])cc5)c5ccc([nH]5)c(-c5ccc(S(=O)(=O)[O-])cc5)c5nc(c(-c6ccc(S(=O)(=O)[O-])cc6)c6ccc3[nH]6)C=C5)C=C4)cc2)C1
REMARK SMILES IDX 21 1 20 2 19 3 17 4 18 5 16 7 15 8 11 9 12 10 87 11 13 12
REMARK SMILES IDX 14 13 9 14 10 15 8 16 1 17 2 18 3 19 4 20 5 21 7 22 6 23
REMARK SMILES IDX 22 24 23 25 24 26 25 27 26 29 27 30 28 31 86 32 29 33 85 34
REMARK SMILES IDX 30 35 31 36 32 37 79 38 33 39 84 40 78 41 80 42 34 43 83 44
REMARK SMILES IDX 77 45 76 46 35 48 65 49 46 50 64 51 47 52 50 53 63 54 81 55
REMARK SMILES IDX 48 56 49 57 62 59 82 60 51 61 36 62 37 63 45 64 38 65 44 66
REMARK SMILES IDX 39 67 40 68 41 69 42 70 43 71 66 72 67 73 75 74 68 75 74 76
REMARK SMILES IDX 69 77 70 78 71 79 72 80 73 81 52 82 53 83 61 84 54 85 60 86
REMARK SMILES IDX 55 87 56 88 57 89 58 90 59 91
REMARK H PARENT 19 6 24 28 80 47 50 58
REMARK Flexibility Score: inf
ROOT
ATOM      1  C   UNL A   1      40.297  21.183  26.189  1.00  0.00     0.023 C 
ENDROOT
BRANCH   1   2
ATOM      2  C   UNL A   1      38.832  21.116  25.715  1.00  0.00     0.116 C 
BRANCH   2   3
ATOM      3  N   UNL A   1      38.184  22.421  25.724  1.00  0.00    -0.356 N 
ATOM      4  C   UNL A   1      36.962  22.938  25.480  1.00  0.00     0.222 C 
ATOM      5  O   UNL A   1      36.832  24.114  25.858  1.00  0.00    -0.275 OA
ATOM      6  H   UNL A   1      38.818  23.127  25.983  1.00  0.00     0.163 HD
BRANCH   4   7
ATOM      7  C   UNL A   1      35.725  22.246  24.921  1.00  0.00     0.133 C 
BRANCH   7   8
ATOM      8  C   UNL A   1      34.827  21.317  25.736  1.00  0.00     0.147 C 
ATOM      9  N   UNL A   1      32.832  22.760  25.861  1.00  0.00    -0.320 N 
ATOM     10  C   UNL A   1      32.100  21.908  24.927  1.00  0.00     0.150 C 
ATOM     11  C   UNL A   1      33.781  21.962  26.626  1.00  0.00     0.154 C 
ATOM     12  C   UNL A   1      33.060  21.036  24.089  1.00  0.00     0.182 C 
ATOM     13  O   UNL A   1      34.111  20.404  24.853  1.00  0.00    -0.374 OA
BRANCH   9  14
ATOM     14  C   UNL A   1      32.173  23.753  26.554  1.00  0.00     0.320 C 
ATOM     15  O   UNL A   1      31.541  23.452  27.570  1.00  0.00    -0.248 OA
BRANCH  14  16
ATOM     16  N   UNL A   1      32.320  25.073  26.155  1.00  0.00    -0.315 N 
ATOM     17  C   UNL A   1      31.444  27.381  26.561  1.00  0.00     0.037 C 
ATOM     18  C   UNL A   1      31.299  26.101  25.716  1.00  0.00     0.062 C 
ATOM     19  C   UNL A   1      29.832  25.689  25.767  1.00  0.00     0.037 C 
ATOM     20  C   UNL A   1      31.566  26.432  24.210  1.00  0.00     0.188 C 
ATOM     21  O   UNL A   1      32.901  26.893  23.990  1.00  0.00    -0.377 OA
ATOM     22  C   UNL A   1      33.705  25.481  25.823  1.00  0.00     0.150 C 
ATOM     23  C   UNL A   1      33.846  25.879  24.350  1.00  0.00     0.182 C 
ENDBRANCH  14  16
ENDBRANCH   9  14
ENDBRANCH   7   8
ENDBRANCH   4   7
ENDBRANCH   2   3
ENDBRANCH   1   2
BRANCH   1  24
ATOM     24  C   UNL A   1      40.534  22.102  27.385  1.00  0.00     0.023 C 
BRANCH  24  25
ATOM     25  C   UNL A   1      41.740  23.024  27.253  1.00  0.00     0.116 C 
BRANCH  25  26
ATOM     26  N   UNL A   1      41.683  23.932  26.111  1.00  0.00    -0.352 N 
ATOM     27  C   UNL A   1      41.525  25.303  26.130  1.00  0.00     0.251 C 
ATOM     28  H   UNL A   1      41.767  23.517  25.223  1.00  0.00     0.163 HD
ATOM     29  O   UNL A   1      41.383  25.946  25.095  1.00  0.00    -0.269 OA
BRANCH  27  30
ATOM     30  C   UNL A   1      41.499  25.996  27.438  1.00  0.00     0.039 A 
ATOM     31  C   UNL A   1      42.590  26.778  27.823  1.00  0.00     0.014 A 
ATOM     32  C   UNL A   1      40.347  25.947  28.229  1.00  0.00     0.014 A 
ATOM     33  C   UNL A   1      42.483  27.596  28.951  1.00  0.00     0.010 A 
ATOM     34  C   UNL A   1      40.217  26.818  29.307  1.00  0.00     0.010 A 
ATOM     35  C   UNL A   1      41.277  27.666  29.669  1.00  0.00    -0.014 A 
BRANCH  35  36
ATOM     36  C   UNL A   1      41.087  28.648  30.770  1.00  0.00     0.031 A 
ATOM     37  C   UNL A   1      41.933  28.572  32.011  1.00  0.00     0.074 A 
ATOM     38  C   UNL A   1      40.097  29.562  30.687  1.00  0.00     0.049 A 
ATOM     39  N   UNL A   1      41.875  29.306  33.094  1.00  0.00    -0.248 NA
ATOM     40  C   UNL A   1      42.958  27.517  32.055  1.00  0.00     0.031 C 
ATOM     41  C   UNL A   1      39.166  29.707  29.565  1.00  0.00     0.029 A 
ATOM     42  N   UNL A   1      39.703  30.539  31.568  1.00  0.00    -0.354 N 
ATOM     43  C   UNL A   1      42.840  28.792  33.951  1.00  0.00     0.074 A 
ATOM     44  C   UNL A   1      43.435  27.655  33.283  1.00  0.00     0.031 C 
ATOM     45  C   UNL A   1      38.331  30.729  29.813  1.00  0.00     0.029 A 
ATOM     46  C   UNL A   1      38.642  31.293  31.122  1.00  0.00     0.049 A 
ATOM     47  H   UNL A   1      40.140  30.686  32.439  1.00  0.00     0.167 HD
ATOM     48  C   UNL A   1      43.214  29.238  35.175  1.00  0.00     0.031 A 
ATOM     49  C   UNL A   1      37.991  32.321  31.700  1.00  0.00     0.031 A 
ATOM     50  C   UNL A   1      42.637  30.378  35.832  1.00  0.00     0.049 A 
ATOM     51  C   UNL A   1      38.434  32.809  33.052  1.00  0.00     0.074 A 
ATOM     52  C   UNL A   1      42.992  30.943  37.045  1.00  0.00     0.029 A 
ATOM     53  N   UNL A   1      41.583  31.129  35.335  1.00  0.00    -0.354 N 
ATOM     54  N   UNL A   1      39.400  32.354  33.814  1.00  0.00    -0.248 NA
ATOM     55  C   UNL A   1      37.709  33.956  33.616  1.00  0.00     0.031 C 
ATOM     56  C   UNL A   1      42.126  32.013  37.299  1.00  0.00     0.029 A 
ATOM     57  C   UNL A   1      41.264  32.143  36.222  1.00  0.00     0.049 A 
ATOM     58  H   UNL A   1      41.129  30.967  34.476  1.00  0.00     0.167 HD
ATOM     59  C   UNL A   1      39.415  33.176  34.935  1.00  0.00     0.074 A 
ATOM     60  C   UNL A   1      38.370  34.162  34.748  1.00  0.00     0.031 C 
ATOM     61  C   UNL A   1      40.224  33.120  36.021  1.00  0.00     0.031 A 
BRANCH  48  62
ATOM     62  C   UNL A   1      44.309  28.483  35.879  1.00  0.00    -0.014 A 
ATOM     63  C   UNL A   1      44.070  27.213  36.436  1.00  0.00     0.010 A 
ATOM     64  C   UNL A   1      45.600  29.035  35.963  1.00  0.00     0.010 A 
ATOM     65  C   UNL A   1      45.088  26.530  37.105  1.00  0.00     0.020 A 
ATOM     66  C   UNL A   1      46.629  28.343  36.609  1.00  0.00     0.020 A 
ATOM     67  C   UNL A   1      46.360  27.104  37.193  1.00  0.00     0.054 A 
BRANCH  67  68
ATOM     68  S   UNL A   1      47.668  26.191  38.058  1.00  0.00     0.124 S 
ATOM     69  O   UNL A   1      47.460  24.832  37.566  1.00  0.00    -0.237 OA
ATOM     70  O   UNL A   1      48.884  26.849  37.589  1.00  0.00    -0.237 OA
ATOM     71  O   UNL A   1      47.356  26.396  39.471  1.00  0.00    -0.744 OA
ENDBRANCH  67  68
ENDBRANCH  48  62
BRANCH  49  72
ATOM     72  C   UNL A   1      36.864  32.983  30.986  1.00  0.00    -0.014 A 
ATOM     73  C   UNL A   1      35.534  32.701  31.341  1.00  0.00     0.010 A 
ATOM     74  C   UNL A   1      37.116  33.907  29.956  1.00  0.00     0.010 A 
ATOM     75  C   UNL A   1      34.474  33.318  30.671  1.00  0.00     0.020 A 
ATOM     76  C   UNL A   1      36.059  34.545  29.299  1.00  0.00     0.020 A 
ATOM     77  C   UNL A   1      34.744  34.237  29.653  1.00  0.00     0.054 A 
BRANCH  77  78
ATOM     78  S   UNL A   1      33.356  35.069  28.832  1.00  0.00     0.124 S 
ATOM     79  O   UNL A   1      32.780  33.988  28.039  1.00  0.00    -0.237 OA
ATOM     80  O   UNL A   1      32.549  35.528  29.960  1.00  0.00    -0.237 OA
ATOM     81  O   UNL A   1      34.002  36.134  28.067  1.00  0.00    -0.744 OA
ENDBRANCH  77  78
ENDBRANCH  49  72
BRANCH  61  82
ATOM     82  C   UNL A   1      40.038  34.172  37.081  1.00  0.00    -0.014 A 
ATOM     83  C   UNL A   1      39.152  33.975  38.154  1.00  0.00     0.010 A 
ATOM     84  C   UNL A   1      40.812  35.346  37.034  1.00  0.00     0.010 A 
ATOM     85  C   UNL A   1      39.024  34.947  39.150  1.00  0.00     0.020 A 
ATOM     86  C   UNL A   1      40.704  36.309  38.041  1.00  0.00     0.020 A 
ATOM     87  C   UNL A   1      39.802  36.108  39.087  1.00  0.00     0.054 A 
BRANCH  87  88
ATOM     88  S   UNL A   1      39.658  37.330  40.420  1.00  0.00     0.124 S 
ATOM     89  O   UNL A   1      39.976  36.531  41.600  1.00  0.00    -0.237 OA
ATOM     90  O   UNL A   1      40.657  38.330  40.049  1.00  0.00    -0.237 OA
ATOM     91  O   UNL A   1      38.272  37.781  40.328  1.00  0.00    -0.744 OA
ENDBRANCH  87  88
ENDBRANCH  61  82
ENDBRANCH  35  36
ENDBRANCH  27  30
ENDBRANCH  25  26
ENDBRANCH  24  25
ENDBRANCH   1  24
TORSDOF 17
ENDMDL
MODEL 3
REMARK VINA RESULT:     -10.9      2.345      8.615
REMARK SMILES CC1(C)COCCN1C(=O)N1CCO[C@@H](CC(=O)NCCCCNC(=O)c2ccc(-c3c4nc(c(-c5ccc(S(=O)(=O)[O-])cc5)c5ccc([nH]5)c(-c5ccc(S(=O)(=O)[O-])cc5)c5nc(c(-c6ccc(S(=O)(=O)[O-])cc6)c6ccc3[nH]6)C=C5)C=C4)cc2)C1
REMARK SMILES IDX 21 1 20 2 19 3 17 4 18 5 16 7 15 8 11 9 12 10 87 11 13 12
REMARK SMILES IDX 14 13 9 14 10 15 8 16 1 17 2 18 3 19 4 20 5 21 7 22 6 23
REMARK SMILES IDX 22 24 23 25 24 26 25 27 26 29 27 30 28 31 86 32 29 33 85 34
REMARK SMILES IDX 30 35 31 36 32 37 79 38 33 39 84 40 78 41 80 42 34 43 83 44
REMARK SMILES IDX 77 45 76 46 35 48 65 49 46 50 64 51 47 52 50 53 63 54 81 55
REMARK SMILES IDX 48 56 49 57 62 59 82 60 51 61 36 62 37 63 45 64 38 65 44 66
REMARK SMILES IDX 39 67 40 68 41 69 42 70 43 71 66 72 67 73 75 74 68 75 74 76
REMARK SMILES IDX 69 77 70 78 71 79 72 80 73 81 52 82 53 83 61 84 54 85 60 86
REMARK SMILES IDX 55 87 56 88 57 89 58 90 59 91
REMARK H PARENT 19 6 24 28 80 47 50 58
REMARK Flexibility Score: inf
ROOT
ATOM      1  C   UNL A   1      34.904  30.545  27.802  1.00  0.00     0.023 C 
ENDROOT
BRANCH   1   2
ATOM      2  C   UNL A   1      34.476  29.157  27.288  1.00  0.00     0.116 C 
BRANCH   2   3
ATOM      3  N   UNL A   1      33.138  28.788  27.734  1.00  0.00    -0.356 N 
ATOM      4  C   UNL A   1      32.043  28.181  27.232  1.00  0.00     0.222 C 
ATOM      5  O   UNL A   1      31.201  27.877  28.093  1.00  0.00    -0.275 OA
ATOM      6  H   UNL A   1      32.992  29.057  28.669  1.00  0.00     0.163 HD
BRANCH   4   7
ATOM      7  C   UNL A   1      31.770  27.733  25.802  1.00  0.00     0.133 C 
BRANCH   7   8
ATOM      8  C   UNL A   1      32.238  28.497  24.564  1.00  0.00     0.147 C 
ATOM      9  N   UNL A   1      32.265  26.620  22.967  1.00  0.00    -0.320 N 
ATOM     10  C   UNL A   1      31.082  27.129  22.277  1.00  0.00     0.150 C 
ATOM     11  C   UNL A   1      33.032  27.726  23.527  1.00  0.00     0.154 C 
ATOM     12  C   UNL A   1      30.284  28.102  23.171  1.00  0.00     0.182 C 
ATOM     13  O   UNL A   1      31.097  29.075  23.866  1.00  0.00    -0.374 OA
BRANCH   9  14
ATOM     14  C   UNL A   1      32.997  25.589  22.417  1.00  0.00     0.320 C 
ATOM     15  O   UNL A   1      33.458  25.725  21.280  1.00  0.00    -0.248 OA
BRANCH  14  16
ATOM     16  N   UNL A   1      33.283  24.472  23.188  1.00  0.00    -0.315 N 
ATOM     17  C   UNL A   1      32.807  22.024  23.394  1.00  0.00     0.037 C 
ATOM     18  C   UNL A   1      32.376  23.441  23.824  1.00  0.00     0.062 C 
ATOM     19  C   UNL A   1      30.882  23.563  23.544  1.00  0.00     0.037 C 
ATOM     20  C   UNL A   1      32.502  23.580  25.377  1.00  0.00     0.188 C 
ATOM     21  O   UNL A   1      33.852  23.434  25.822  1.00  0.00    -0.377 OA
ATOM     22  C   UNL A   1      34.661  24.415  23.728  1.00  0.00     0.150 C 
ATOM     23  C   UNL A   1      34.677  24.461  25.260  1.00  0.00     0.182 C 
ENDBRANCH  14  16
ENDBRANCH   9  14
ENDBRANCH   7   8
ENDBRANCH   4   7
ENDBRANCH   2   3
ENDBRANCH   1   2
BRANCH   1  24
ATOM     24  C   UNL A   1      33.779  31.575  27.861  1.00  0.00     0.023 C 
BRANCH  24  25
ATOM     25  C   UNL A   1      34.222  33.020  27.665  1.00  0.00     0.116 C 
BRANCH  25  26
ATOM     26  N   UNL A   1      33.307  34.012  28.222  1.00  0.00    -0.352 N 
ATOM     27  C   UNL A   1      33.323  34.558  29.489  1.00  0.00     0.251 C 
ATOM     28  H   UNL A   1      32.594  34.328  27.622  1.00  0.00     0.163 HD
ATOM     29  O   UNL A   1      32.431  35.307  29.875  1.00  0.00    -0.269 OA
BRANCH  27  30
ATOM     30  C   UNL A   1      34.432  34.201  30.402  1.00  0.00     0.039 A 
ATOM     31  C   UNL A   1      34.213  33.269  31.417  1.00  0.00     0.014 A 
ATOM     32  C   UNL A   1      35.711  34.719  30.178  1.00  0.00     0.014 A 
ATOM     33  C   UNL A   1      35.301  32.775  32.142  1.00  0.00     0.010 A 
ATOM     34  C   UNL A   1      36.800  34.172  30.850  1.00  0.00     0.010 A 
ATOM     35  C   UNL A   1      36.610  33.179  31.826  1.00  0.00    -0.014 A 
BRANCH  35  36
ATOM     36  C   UNL A   1      37.792  32.547  32.470  1.00  0.00     0.031 A 
ATOM     37  C   UNL A   1      38.513  31.415  31.793  1.00  0.00     0.074 A 
ATOM     38  C   UNL A   1      38.169  32.939  33.705  1.00  0.00     0.049 A 
ATOM     39  N   UNL A   1      39.526  30.707  32.226  1.00  0.00    -0.248 NA
ATOM     40  C   UNL A   1      38.014  31.004  30.471  1.00  0.00     0.031 C 
ATOM     41  C   UNL A   1      37.519  33.986  34.500  1.00  0.00     0.029 A 
ATOM     42  N   UNL A   1      39.187  32.498  34.515  1.00  0.00    -0.354 N 
ATOM     43  C   UNL A   1      39.775  29.760  31.240  1.00  0.00     0.074 A 
ATOM     44  C   UNL A   1      38.775  29.951  30.210  1.00  0.00     0.031 C 
ATOM     45  C   UNL A   1      38.172  34.125  35.665  1.00  0.00     0.029 A 
ATOM     46  C   UNL A   1      39.264  33.158  35.720  1.00  0.00     0.049 A 
ATOM     47  H   UNL A   1      39.806  31.776  34.256  1.00  0.00     0.167 HD
ATOM     48  C   UNL A   1      40.756  28.828  31.183  1.00  0.00     0.031 A 
ATOM     49  C   UNL A   1      40.115  33.004  36.753  1.00  0.00     0.031 A 
ATOM     50  C   UNL A   1      41.760  28.649  32.197  1.00  0.00     0.049 A 
ATOM     51  C   UNL A   1      41.207  31.974  36.661  1.00  0.00     0.074 A 
ATOM     52  C   UNL A   1      42.833  27.773  32.199  1.00  0.00     0.029 A 
ATOM     53  N   UNL A   1      41.818  29.355  33.388  1.00  0.00    -0.354 N 
ATOM     54  N   UNL A   1      41.470  31.138  35.686  1.00  0.00    -0.248 NA
ATOM     55  C   UNL A   1      42.127  31.877  37.804  1.00  0.00     0.031 C 
ATOM     56  C   UNL A   1      43.516  27.924  33.411  1.00  0.00     0.029 A 
ATOM     57  C   UNL A   1      42.897  28.925  34.141  1.00  0.00     0.049 A 
ATOM     58  H   UNL A   1      41.185  30.060  33.659  1.00  0.00     0.167 HD
ATOM     59  C   UNL A   1      42.598  30.433  36.086  1.00  0.00     0.074 A 
ATOM     60  C   UNL A   1      42.977  30.948  37.386  1.00  0.00     0.031 C 
ATOM     61  C   UNL A   1      43.264  29.449  35.432  1.00  0.00     0.031 A 
BRANCH  48  62
ATOM     62  C   UNL A   1      40.790  27.933  29.975  1.00  0.00    -0.014 A 
ATOM     63  C   UNL A   1      41.778  28.091  28.985  1.00  0.00     0.010 A 
ATOM     64  C   UNL A   1      39.843  26.903  29.836  1.00  0.00     0.010 A 
ATOM     65  C   UNL A   1      41.789  27.267  27.857  1.00  0.00     0.020 A 
ATOM     66  C   UNL A   1      39.866  26.060  28.722  1.00  0.00     0.020 A 
ATOM     67  C   UNL A   1      40.827  26.260  27.730  1.00  0.00     0.054 A 
BRANCH  67  68
ATOM     68  S   UNL A   1      40.870  25.198  26.260  1.00  0.00     0.124 S 
ATOM     69  O   UNL A   1      39.486  24.737  26.184  1.00  0.00    -0.237 OA
ATOM     70  O   UNL A   1      41.283  26.122  25.207  1.00  0.00    -0.237 OA
ATOM     71  O   UNL A   1      41.850  24.171  26.604  1.00  0.00    -0.744 OA
ENDBRANCH  67  68
ENDBRANCH  48  62
BRANCH  49  72
ATOM     72  C   UNL A   1      39.987  33.870  37.957  1.00  0.00    -0.014 A 
ATOM     73  C   UNL A   1      39.255  33.432  39.074  1.00  0.00     0.010 A 
ATOM     74  C   UNL A   1      40.607  35.133  37.997  1.00  0.00     0.010 A 
ATOM     75  C   UNL A   1      39.131  34.245  40.205  1.00  0.00     0.020 A 
ATOM     76  C   UNL A   1      40.505  35.939  39.135  1.00  0.00     0.020 A 
ATOM     77  C   UNL A   1      39.758  35.494  40.227  1.00  0.00     0.054 A 
BRANCH  77  78
ATOM     78  S   UNL A   1      39.631  36.512  41.725  1.00  0.00     0.124 S 
ATOM     79  O   UNL A   1      40.979  36.416  42.273  1.00  0.00    -0.237 OA
ATOM     80  O   UNL A   1      39.255  37.818  41.189  1.00  0.00    -0.237 OA
ATOM     81  O   UNL A   1      38.588  35.844  42.502  1.00  0.00    -0.744 OA
ENDBRANCH  77  78
ENDBRANCH  49  72
BRANCH  61  82
ATOM     82  C   UNL A   1      44.491  28.882  36.094  1.00  0.00    -0.014 A 
ATOM     83  C   UNL A   1      44.411  27.758  36.934  1.00  0.00     0.010 A 
ATOM     84  C   UNL A   1      45.750  29.446  35.817  1.00  0.00     0.010 A 
ATOM     85  C   UNL A   1      45.568  27.223  37.506  1.00  0.00     0.020 A 
ATOM     86  C   UNL A   1      46.911  28.899  36.369  1.00  0.00     0.020 A 
ATOM     87  C   UNL A   1      46.811  27.796  37.220  1.00  0.00     0.054 A 
BRANCH  87  88
ATOM     88  S   UNL A   1      48.303  27.050  37.931  1.00  0.00     0.124 S 
ATOM     89  O   UNL A   1      48.511  25.897  37.059  1.00  0.00    -0.237 OA
ATOM     90  O   UNL A   1      49.290  28.120  37.805  1.00  0.00    -0.237 OA
ATOM     91  O   UNL A   1      47.912  26.732  39.302  1.00  0.00    -0.744 OA
ENDBRANCH  87  88
ENDBRANCH  61  82
ENDBRANCH  35  36
ENDBRANCH  27  30
ENDBRANCH  25  26
ENDBRANCH  24  25
ENDBRANCH   1  24
TORSDOF 17
ENDMDL
