MODEL 1
REMARK VINA RESULT:     -11.6      0.000      0.000
REMARK SMILES O=C(NCCCCNC(=O)[C@H]1CC=CC[C@@H]1C(=O)NC1CCCCC1)c1ccc(-c2c3nc(c(-c4ccc(S(=O)(=O)[O-])cc4)c4ccc([nH]4)c(-c4ccc(S(=O)(=O)[O-])cc4)c4nc(c(-c5ccc(S(=O)(=O)[O-])cc5)c5ccc2[nH]5)C=C4)C=C3)cc1
REMARK SMILES IDX 5 1 4 2 3 3 1 4 2 5 26 7 27 8 85 9 28 10 84 11 29 12 30 13
REMARK SMILES IDX 31 14 78 15 32 16 83 17 77 18 79 19 33 20 82 21 76 22 75 23
REMARK SMILES IDX 34 25 64 26 45 27 63 28 46 29 49 30 62 31 80 32 47 33 48 34
REMARK SMILES IDX 61 36 81 37 50 38 35 39 36 40 44 41 37 42 43 43 38 44 39 45
REMARK SMILES IDX 40 46 41 47 42 48 65 49 66 50 74 51 67 52 73 53 68 54 69 55
REMARK SMILES IDX 70 56 71 57 72 58 51 59 52 60 60 61 53 62 59 63 54 64 55 65
REMARK SMILES IDX 56 66 57 67 58 68 6 69 7 70 8 71 9 72 10 74 11 75 12 76
REMARK SMILES IDX 16 77 13 78 15 79 14 80 17 81 18 82 19 83 20 85 21 86 25 87
REMARK SMILES IDX 22 88 24 89 23 90
REMARK H PARENT 3 6 79 24 49 35 8 73 19 84
REMARK Flexibility Score: inf
ROOT
ATOM      1  C   UNL A   1      31.981  27.590  27.184  1.00  0.00     0.023 C 
ENDROOT
BRANCH   1   2
ATOM      2  C   UNL A   1      33.303  28.326  27.201  1.00  0.00     0.116 C 
BRANCH   2   3
ATOM      3  N   UNL A   1      33.181  29.743  27.513  1.00  0.00    -0.352 N 
ATOM      4  O   UNL A   1      33.829  31.750  28.314  1.00  0.00    -0.269 OA
ATOM      5  C   UNL A   1      34.130  30.601  28.026  1.00  0.00     0.251 C 
ATOM      6  H   UNL A   1      32.300  30.142  27.333  1.00  0.00     0.163 HD
BRANCH   5   7
ATOM      7  C   UNL A   1      35.502  30.098  28.266  1.00  0.00     0.039 A 
ATOM      8  C   UNL A   1      35.888  29.668  29.537  1.00  0.00     0.014 A 
ATOM      9  C   UNL A   1      36.426  30.116  27.219  1.00  0.00     0.014 A 
ATOM     10  C   UNL A   1      37.230  29.449  29.810  1.00  0.00     0.010 A 
ATOM     11  C   UNL A   1      37.758  29.782  27.471  1.00  0.00     0.010 A 
ATOM     12  C   UNL A   1      38.180  29.488  28.777  1.00  0.00    -0.014 A 
BRANCH  12  13
ATOM     13  C   UNL A   1      39.597  29.165  29.071  1.00  0.00     0.031 A 
ATOM     14  C   UNL A   1      40.515  30.183  29.686  1.00  0.00     0.074 A 
ATOM     15  C   UNL A   1      40.052  27.933  28.772  1.00  0.00     0.049 A 
ATOM     16  N   UNL A   1      41.795  30.090  29.937  1.00  0.00    -0.248 NA
ATOM     17  C   UNL A   1      39.923  31.477  30.063  1.00  0.00     0.031 C 
ATOM     18  C   UNL A   1      39.249  26.856  28.184  1.00  0.00     0.029 A 
ATOM     19  N   UNL A   1      41.295  27.374  28.921  1.00  0.00    -0.354 N 
ATOM     20  C   UNL A   1      42.172  31.320  30.465  1.00  0.00     0.074 A 
ATOM     21  C   UNL A   1      40.986  32.148  30.488  1.00  0.00     0.031 C 
ATOM     22  C   UNL A   1      40.008  25.761  28.055  1.00  0.00     0.029 A 
ATOM     23  C   UNL A   1      41.368  26.079  28.470  1.00  0.00     0.049 A 
ATOM     24  H   UNL A   1      42.059  27.855  29.313  1.00  0.00     0.167 HD
ATOM     25  C   UNL A   1      43.398  31.721  30.885  1.00  0.00     0.031 A 
ATOM     26  C   UNL A   1      42.418  25.244  28.362  1.00  0.00     0.031 A 
ATOM     27  C   UNL A   1      44.571  30.885  30.856  1.00  0.00     0.049 A 
ATOM     28  C   UNL A   1      43.770  25.719  28.801  1.00  0.00     0.074 A 
ATOM     29  C   UNL A   1      45.855  31.187  31.276  1.00  0.00     0.029 A 
ATOM     30  N   UNL A   1      44.605  29.583  30.376  1.00  0.00    -0.354 N 
ATOM     31  N   UNL A   1      44.106  26.884  29.300  1.00  0.00    -0.248 NA
ATOM     32  C   UNL A   1      44.882  24.771  28.663  1.00  0.00     0.031 C 
ATOM     33  C   UNL A   1      46.674  30.086  31.004  1.00  0.00     0.029 A 
ATOM     34  C   UNL A   1      45.890  29.076  30.470  1.00  0.00     0.049 A 
ATOM     35  H   UNL A   1      43.828  29.093  30.020  1.00  0.00     0.167 HD
ATOM     36  C   UNL A   1      45.468  26.805  29.556  1.00  0.00     0.074 A 
ATOM     37  C   UNL A   1      45.890  25.474  29.164  1.00  0.00     0.031 C 
ATOM     38  C   UNL A   1      46.291  27.749  30.074  1.00  0.00     0.031 A 
BRANCH  25  39
ATOM     39  C   UNL A   1      43.538  33.142  31.364  1.00  0.00    -0.014 A 
ATOM     40  C   UNL A   1      43.810  34.196  30.473  1.00  0.00     0.010 A 
ATOM     41  C   UNL A   1      43.383  33.431  32.733  1.00  0.00     0.010 A 
ATOM     42  C   UNL A   1      43.980  35.501  30.949  1.00  0.00     0.020 A 
ATOM     43  C   UNL A   1      43.525  34.738  33.210  1.00  0.00     0.020 A 
ATOM     44  C   UNL A   1      43.848  35.760  32.317  1.00  0.00     0.054 A 
BRANCH  44  45
ATOM     45  S   UNL A   1      44.096  37.456  32.913  1.00  0.00     0.124 S 
ATOM     46  O   UNL A   1      42.918  37.651  33.756  1.00  0.00    -0.237 OA
ATOM     47  O   UNL A   1      45.367  37.365  33.625  1.00  0.00    -0.237 OA
ATOM     48  O   UNL A   1      44.126  38.253  31.689  1.00  0.00    -0.744 OA
ENDBRANCH  44  45
ENDBRANCH  25  39
BRANCH  26  49
ATOM     49  C   UNL A   1      42.206  23.889  27.790  1.00  0.00    -0.014 A 
ATOM     50  C   UNL A   1      42.365  23.663  26.413  1.00  0.00     0.010 A 
ATOM     51  C   UNL A   1      41.935  22.800  28.639  1.00  0.00     0.010 A 
ATOM     52  C   UNL A   1      42.265  22.369  25.896  1.00  0.00     0.020 A 
ATOM     53  C   UNL A   1      41.862  21.501  28.130  1.00  0.00     0.020 A 
ATOM     54  C   UNL A   1      42.024  21.295  26.759  1.00  0.00     0.054 A 
BRANCH  54  55
ATOM     55  S   UNL A   1      41.998  19.614  26.079  1.00  0.00     0.124 S 
ATOM     56  O   UNL A   1      42.950  19.718  24.978  1.00  0.00    -0.237 OA
ATOM     57  O   UNL A   1      42.432  18.806  27.217  1.00  0.00    -0.237 OA
ATOM     58  O   UNL A   1      40.603  19.424  25.687  1.00  0.00    -0.744 OA
ENDBRANCH  54  55
ENDBRANCH  26  49
BRANCH  38  59
ATOM     59  C   UNL A   1      47.729  27.365  30.289  1.00  0.00    -0.014 A 
ATOM     60  C   UNL A   1      48.761  27.947  29.533  1.00  0.00     0.010 A 
ATOM     61  C   UNL A   1      48.053  26.458  31.315  1.00  0.00     0.010 A 
ATOM     62  C   UNL A   1      50.094  27.615  29.789  1.00  0.00     0.020 A 
ATOM     63  C   UNL A   1      49.385  26.142  31.589  1.00  0.00     0.020 A 
ATOM     64  C   UNL A   1      50.397  26.717  30.817  1.00  0.00     0.054 A 
BRANCH  64  65
ATOM     65  S   UNL A   1      52.139  26.354  31.177  1.00  0.00     0.124 S 
ATOM     66  O   UNL A   1      52.033  25.155  32.003  1.00  0.00    -0.237 OA
ATOM     67  O   UNL A   1      52.706  26.153  29.846  1.00  0.00    -0.237 OA
ATOM     68  O   UNL A   1      52.605  27.551  31.871  1.00  0.00    -0.744 OA
ENDBRANCH  64  65
ENDBRANCH  38  59
ENDBRANCH  12  13
ENDBRANCH   5   7
ENDBRANCH   2   3
ENDBRANCH   1   2
BRANCH   1  69
ATOM     69  C   UNL A   1      31.464  27.216  25.807  1.00  0.00     0.023 C 
BRANCH  69  70
ATOM     70  C   UNL A   1      30.606  25.952  25.710  1.00  0.00     0.116 C 
BRANCH  70  71
ATOM     71  N   UNL A   1      30.932  25.003  26.758  1.00  0.00    -0.356 N 
ATOM     72  C   UNL A   1      31.713  23.881  26.728  1.00  0.00     0.224 C 
ATOM     73  H   UNL A   1      30.523  25.198  27.633  1.00  0.00     0.163 HD
ATOM     74  O   UNL A   1      31.833  23.261  27.787  1.00  0.00    -0.275 OA
BRANCH  72  75
ATOM     75  C   UNL A   1      32.410  23.439  25.426  1.00  0.00     0.095 C 
ATOM     76  C   UNL A   1      33.626  24.339  25.111  1.00  0.00     0.041 C 
ATOM     77  C   UNL A   1      32.819  21.949  25.494  1.00  0.00     0.095 C 
ATOM     78  C   UNL A   1      34.915  23.901  25.749  1.00  0.00    -0.030 C 
ATOM     79  C   UNL A   1      33.950  21.741  26.500  1.00  0.00     0.041 C 
ATOM     80  C   UNL A   1      35.057  22.736  26.392  1.00  0.00    -0.030 C 
BRANCH  77  81
ATOM     81  C   UNL A   1      33.014  21.305  24.121  1.00  0.00     0.224 C 
ATOM     82  O   UNL A   1      32.894  21.969  23.086  1.00  0.00    -0.275 OA
ATOM     83  N   UNL A   1      33.185  19.959  23.952  1.00  0.00    -0.353 N 
ATOM     84  H   UNL A   1      33.010  19.681  23.023  1.00  0.00     0.163 HD
BRANCH  83  85
ATOM     85  C   UNL A   1      33.568  18.810  24.806  1.00  0.00     0.082 C 
ATOM     86  C   UNL A   1      32.319  18.019  25.221  1.00  0.00     0.025 C 
ATOM     87  C   UNL A   1      34.781  18.007  24.319  1.00  0.00     0.025 C 
ATOM     88  C   UNL A   1      32.616  16.629  25.763  1.00  0.00     0.002 C 
ATOM     89  C   UNL A   1      34.875  16.539  24.721  1.00  0.00     0.002 C 
ATOM     90  C   UNL A   1      33.527  15.850  24.831  1.00  0.00     0.000 C 
ENDBRANCH  83  85
ENDBRANCH  77  81
ENDBRANCH  72  75
ENDBRANCH  70  71
ENDBRANCH  69  70
ENDBRANCH   1  69
TORSDOF 16
ENDMDL
MODEL 2
REMARK VINA RESULT:     -11.4      1.700      2.523
REMARK SMILES O=C(NCCCCNC(=O)[C@H]1CC=CC[C@@H]1C(=O)NC1CCCCC1)c1ccc(-c2c3nc(c(-c4ccc(S(=O)(=O)[O-])cc4)c4ccc([nH]4)c(-c4ccc(S(=O)(=O)[O-])cc4)c4nc(c(-c5ccc(S(=O)(=O)[O-])cc5)c5ccc2[nH]5)C=C4)C=C3)cc1
REMARK SMILES IDX 5 1 4 2 3 3 1 4 2 5 26 7 27 8 85 9 28 10 84 11 29 12 30 13
REMARK SMILES IDX 31 14 78 15 32 16 83 17 77 18 79 19 33 20 82 21 76 22 75 23
REMARK SMILES IDX 34 25 64 26 45 27 63 28 46 29 49 30 62 31 80 32 47 33 48 34
REMARK SMILES IDX 61 36 81 37 50 38 35 39 36 40 44 41 37 42 43 43 38 44 39 45
REMARK SMILES IDX 40 46 41 47 42 48 65 49 66 50 74 51 67 52 73 53 68 54 69 55
REMARK SMILES IDX 70 56 71 57 72 58 51 59 52 60 60 61 53 62 59 63 54 64 55 65
REMARK SMILES IDX 56 66 57 67 58 68 6 69 7 70 8 71 9 72 10 74 11 75 12 76
REMARK SMILES IDX 16 77 13 78 15 79 14 80 17 81 18 82 19 83 20 85 21 86 25 87
REMARK SMILES IDX 22 88 24 89 23 90
REMARK H PARENT 3 6 79 24 49 35 8 73 19 84
REMARK Flexibility Score: inf
ROOT
ATOM      1  C   UNL A   1      33.909  28.404  24.943  1.00  0.00     0.023 C 
ENDROOT
BRANCH   1   2
ATOM      2  C   UNL A   1      33.710  28.446  26.443  1.00  0.00     0.116 C 
BRANCH   2   3
ATOM      3  N   UNL A   1      33.509  29.789  26.970  1.00  0.00    -0.352 N 
ATOM      4  O   UNL A   1      33.988  31.633  28.178  1.00  0.00    -0.269 OA
ATOM      5  C   UNL A   1      34.357  30.551  27.745  1.00  0.00     0.251 C 
ATOM      6  H   UNL A   1      32.649  30.210  26.741  1.00  0.00     0.163 HD
BRANCH   5   7
ATOM      7  C   UNL A   1      35.697  30.020  28.082  1.00  0.00     0.039 A 
ATOM      8  C   UNL A   1      35.962  29.519  29.358  1.00  0.00     0.014 A 
ATOM      9  C   UNL A   1      36.713  30.083  27.126  1.00  0.00     0.014 A 
ATOM     10  C   UNL A   1      37.272  29.270  29.740  1.00  0.00     0.010 A 
ATOM     11  C   UNL A   1      38.015  29.721  27.481  1.00  0.00     0.010 A 
ATOM     12  C   UNL A   1      38.312  29.353  28.802  1.00  0.00    -0.014 A 
BRANCH  12  13
ATOM     13  C   UNL A   1      39.695  28.998  29.207  1.00  0.00     0.031 A 
ATOM     14  C   UNL A   1      40.559  29.973  29.956  1.00  0.00     0.074 A 
ATOM     15  C   UNL A   1      40.166  27.777  28.887  1.00  0.00     0.049 A 
ATOM     16  N   UNL A   1      41.811  29.851  30.317  1.00  0.00    -0.248 NA
ATOM     17  C   UNL A   1      39.944  31.253  30.343  1.00  0.00     0.031 C 
ATOM     18  C   UNL A   1      39.412  26.742  28.173  1.00  0.00     0.029 A 
ATOM     19  N   UNL A   1      41.386  27.197  29.120  1.00  0.00    -0.354 N 
ATOM     20  C   UNL A   1      42.147  31.048  30.940  1.00  0.00     0.074 A 
ATOM     21  C   UNL A   1      40.969  31.888  30.898  1.00  0.00     0.031 C 
ATOM     22  C   UNL A   1      40.172  25.646  28.057  1.00  0.00     0.029 A 
ATOM     23  C   UNL A   1      41.491  25.926  28.610  1.00  0.00     0.049 A 
ATOM     24  H   UNL A   1      42.114  27.648  29.604  1.00  0.00     0.167 HD
ATOM     25  C   UNL A   1      43.331  31.412  31.491  1.00  0.00     0.031 A 
ATOM     26  C   UNL A   1      42.540  25.085  28.555  1.00  0.00     0.031 A 
ATOM     27  C   UNL A   1      44.496  30.565  31.526  1.00  0.00     0.049 A 
ATOM     28  C   UNL A   1      43.849  25.521  29.139  1.00  0.00     0.074 A 
ATOM     29  C   UNL A   1      45.738  30.830  32.076  1.00  0.00     0.029 A 
ATOM     30  N   UNL A   1      44.564  29.289  30.983  1.00  0.00    -0.354 N 
ATOM     31  N   UNL A   1      44.147  26.655  29.727  1.00  0.00    -0.248 NA
ATOM     32  C   UNL A   1      44.962  24.568  29.054  1.00  0.00     0.031 C 
ATOM     33  C   UNL A   1      46.571  29.734  31.823  1.00  0.00     0.029 A 
ATOM     34  C   UNL A   1      45.832  28.762  31.167  1.00  0.00     0.049 A 
ATOM     35  H   UNL A   1      43.820  28.827  30.532  1.00  0.00     0.167 HD
ATOM     36  C   UNL A   1      45.479  26.546  30.102  1.00  0.00     0.074 A 
ATOM     37  C   UNL A   1      45.926  25.232  29.681  1.00  0.00     0.031 C 
ATOM     38  C   UNL A   1      46.258  27.452  30.741  1.00  0.00     0.031 A 
BRANCH  25  39
ATOM     39  C   UNL A   1      43.438  32.805  32.054  1.00  0.00    -0.014 A 
ATOM     40  C   UNL A   1      43.879  33.886  31.268  1.00  0.00     0.010 A 
ATOM     41  C   UNL A   1      43.077  33.040  33.394  1.00  0.00     0.010 A 
ATOM     42  C   UNL A   1      44.010  35.161  31.827  1.00  0.00     0.020 A 
ATOM     43  C   UNL A   1      43.182  34.319  33.950  1.00  0.00     0.020 A 
ATOM     44  C   UNL A   1      43.673  35.366  33.169  1.00  0.00     0.054 A 
BRANCH  44  45
ATOM     45  S   UNL A   1      43.875  37.025  33.877  1.00  0.00     0.124 S 
ATOM     46  O   UNL A   1      42.847  37.033  34.916  1.00  0.00    -0.237 OA
ATOM     47  O   UNL A   1      45.253  37.003  34.360  1.00  0.00    -0.237 OA
ATOM     48  O   UNL A   1      43.626  37.917  32.748  1.00  0.00    -0.744 OA
ENDBRANCH  44  45
ENDBRANCH  25  39
BRANCH  26  49
ATOM     49  C   UNL A   1      42.371  23.764  27.896  1.00  0.00    -0.014 A 
ATOM     50  C   UNL A   1      42.610  23.617  26.520  1.00  0.00     0.010 A 
ATOM     51  C   UNL A   1      42.061  22.627  28.666  1.00  0.00     0.010 A 
ATOM     52  C   UNL A   1      42.550  22.354  25.926  1.00  0.00     0.020 A 
ATOM     53  C   UNL A   1      42.028  21.359  28.081  1.00  0.00     0.020 A 
ATOM     54  C   UNL A   1      42.269  21.232  26.712  1.00  0.00     0.054 A 
BRANCH  54  55
ATOM     55  S   UNL A   1      42.295  19.592  25.938  1.00  0.00     0.124 S 
ATOM     56  O   UNL A   1      43.318  19.758  24.910  1.00  0.00    -0.237 OA
ATOM     57  O   UNL A   1      42.654  18.721  27.055  1.00  0.00    -0.237 OA
ATOM     58  O   UNL A   1      40.930  19.425  25.443  1.00  0.00    -0.744 OA
ENDBRANCH  54  55
ENDBRANCH  26  49
BRANCH  38  59
ATOM     59  C   UNL A   1      47.668  27.040  31.066  1.00  0.00    -0.014 A 
ATOM     60  C   UNL A   1      47.968  26.332  32.242  1.00  0.00     0.010 A 
ATOM     61  C   UNL A   1      48.693  27.308  30.141  1.00  0.00     0.010 A 
ATOM     62  C   UNL A   1      49.276  25.912  32.496  1.00  0.00     0.020 A 
ATOM     63  C   UNL A   1      49.997  26.869  30.381  1.00  0.00     0.020 A 
ATOM     64  C   UNL A   1      50.281  26.181  31.561  1.00  0.00     0.054 A 
BRANCH  64  65
ATOM     65  S   UNL A   1      51.959  25.565  31.879  1.00  0.00     0.124 S 
ATOM     66  O   UNL A   1      52.354  26.353  33.043  1.00  0.00    -0.237 OA
ATOM     67  O   UNL A   1      51.737  24.143  32.127  1.00  0.00    -0.237 OA
ATOM     68  O   UNL A   1      52.679  25.871  30.646  1.00  0.00    -0.744 OA
ENDBRANCH  64  65
ENDBRANCH  38  59
ENDBRANCH  12  13
ENDBRANCH   5   7
ENDBRANCH   2   3
ENDBRANCH   1   2
BRANCH   1  69
ATOM     69  C   UNL A   1      32.942  29.250  24.136  1.00  0.00     0.023 C 
BRANCH  69  70
ATOM     70  C   UNL A   1      32.039  28.513  23.145  1.00  0.00     0.116 C 
BRANCH  70  71
ATOM     71  N   UNL A   1      32.796  27.601  22.307  1.00  0.00    -0.356 N 
ATOM     72  C   UNL A   1      33.013  26.256  22.431  1.00  0.00     0.224 C 
ATOM     73  H   UNL A   1      33.223  28.018  21.524  1.00  0.00     0.163 HD
ATOM     74  O   UNL A   1      33.691  25.722  21.551  1.00  0.00    -0.275 OA
BRANCH  72  75
ATOM     75  C   UNL A   1      32.420  25.465  23.614  1.00  0.00     0.095 C 
ATOM     76  C   UNL A   1      31.228  24.593  23.159  1.00  0.00     0.041 C 
ATOM     77  C   UNL A   1      33.504  24.612  24.310  1.00  0.00     0.095 C 
ATOM     78  C   UNL A   1      31.603  23.227  22.656  1.00  0.00    -0.030 C 
ATOM     79  C   UNL A   1      33.957  23.465  23.408  1.00  0.00     0.041 C 
ATOM     80  C   UNL A   1      32.840  22.724  22.751  1.00  0.00    -0.030 C 
BRANCH  77  81
ATOM     81  C   UNL A   1      33.155  24.236  25.751  1.00  0.00     0.224 C 
ATOM     82  O   UNL A   1      32.079  24.579  26.253  1.00  0.00    -0.275 OA
ATOM     83  N   UNL A   1      34.047  23.638  26.598  1.00  0.00    -0.353 N 
ATOM     84  H   UNL A   1      33.773  23.726  27.540  1.00  0.00     0.163 HD
BRANCH  83  85
ATOM     85  C   UNL A   1      35.320  22.892  26.463  1.00  0.00     0.082 C 
ATOM     86  C   UNL A   1      35.067  21.524  25.813  1.00  0.00     0.025 C 
ATOM     87  C   UNL A   1      36.508  23.711  25.942  1.00  0.00     0.025 C 
ATOM     88  C   UNL A   1      36.320  20.847  25.281  1.00  0.00     0.002 C 
ATOM     89  C   UNL A   1      37.619  22.970  25.205  1.00  0.00     0.002 C 
ATOM     90  C   UNL A   1      37.126  21.782  24.397  1.00  0.00     0.000 C 
ENDBRANCH  83  85
ENDBRANCH  77  81
ENDBRANCH  72  75
ENDBRANCH  70  71
ENDBRANCH  69  70
ENDBRANCH   1  69
TORSDOF 16
ENDMDL
MODEL 3
REMARK VINA RESULT:     -11.4      2.822      3.956
REMARK SMILES O=C(NCCCCNC(=O)[C@H]1CC=CC[C@@H]1C(=O)NC1CCCCC1)c1ccc(-c2c3nc(c(-c4ccc(S(=O)(=O)[O-])cc4)c4ccc([nH]4)c(-c4ccc(S(=O)(=O)[O-])cc4)c4nc(c(-c5ccc(S(=O)(=O)[O-])cc5)c5ccc2[nH]5)C=C4)C=C3)cc1
REMARK SMILES IDX 5 1 4 2 3 3 1 4 2 5 26 7 27 8 85 9 28 10 84 11 29 12 30 13
REMARK SMILES IDX 31 14 78 15 32 16 83 17 77 18 79 19 33 20 82 21 76 22 75 23
REMARK SMILES IDX 34 25 64 26 45 27 63 28 46 29 49 30 62 31 80 32 47 33 48 34
REMARK SMILES IDX 61 36 81 37 50 38 35 39 36 40 44 41 37 42 43 43 38 44 39 45
REMARK SMILES IDX 40 46 41 47 42 48 65 49 66 50 74 51 67 52 73 53 68 54 69 55
REMARK SMILES IDX 70 56 71 57 72 58 51 59 52 60 60 61 53 62 59 63 54 64 55 65
REMARK SMILES IDX 56 66 57 67 58 68 6 69 7 70 8 71 9 72 10 74 11 75 12 76
REMARK SMILES IDX 16 77 13 78 15 79 14 80 17 81 18 82 19 83 20 85 21 86 25 87
REMARK SMILES IDX 22 88 24 89 23 90
REMARK H PARENT 3 6 79 24 49 35 8 73 19 84
REMARK Flexibility Score: inf
ROOT
ATOM      1  C   UNL A   1      33.853  28.700  27.082  1.00  0.00     0.023 C 
ENDROOT
BRANCH   1   2
ATOM      2  C   UNL A   1      35.177  29.336  27.450  1.00  0.00     0.116 C 
BRANCH   2   3
ATOM      3  N   UNL A   1      35.158  30.029  28.731  1.00  0.00    -0.352 N 
ATOM      4  O   UNL A   1      35.963  30.726  30.720  1.00  0.00    -0.269 OA
ATOM      5  C   UNL A   1      36.179  30.188  29.644  1.00  0.00     0.251 C 
ATOM      6  H   UNL A   1      34.299  30.439  28.978  1.00  0.00     0.163 HD
BRANCH   5   7
ATOM      7  C   UNL A   1      37.522  29.656  29.323  1.00  0.00     0.039 A 
ATOM      8  C   UNL A   1      38.329  29.112  30.324  1.00  0.00     0.014 A 
ATOM      9  C   UNL A   1      38.000  29.761  28.014  1.00  0.00     0.014 A 
ATOM     10  C   UNL A   1      39.669  28.860  30.066  1.00  0.00     0.010 A 
ATOM     11  C   UNL A   1      39.318  29.397  27.732  1.00  0.00     0.010 A 
ATOM     12  C   UNL A   1      40.176  28.985  28.764  1.00  0.00    -0.014 A 
BRANCH  12  13
ATOM     13  C   UNL A   1      41.589  28.628  28.489  1.00  0.00     0.031 A 
ATOM     14  C   UNL A   1      42.681  29.656  28.572  1.00  0.00     0.074 A 
ATOM     15  C   UNL A   1      41.878  27.354  28.160  1.00  0.00     0.049 A 
ATOM     16  N   UNL A   1      43.952  29.529  28.291  1.00  0.00    -0.248 NA
ATOM     17  C   UNL A   1      42.298  31.005  29.021  1.00  0.00     0.031 C 
ATOM     18  C   UNL A   1      40.902  26.264  28.062  1.00  0.00     0.029 A 
ATOM     19  N   UNL A   1      43.073  26.756  27.849  1.00  0.00    -0.354 N 
ATOM     20  C   UNL A   1      44.515  30.785  28.491  1.00  0.00     0.074 A 
ATOM     21  C   UNL A   1      43.444  31.663  28.908  1.00  0.00     0.031 C 
ATOM     22  C   UNL A   1      41.539  25.129  27.749  1.00  0.00     0.029 A 
ATOM     23  C   UNL A   1      42.952  25.423  27.542  1.00  0.00     0.049 A 
ATOM     24  H   UNL A   1      43.932  27.237  27.846  1.00  0.00     0.167 HD
ATOM     25  C   UNL A   1      45.807  31.167  28.335  1.00  0.00     0.031 A 
ATOM     26  C   UNL A   1      43.864  24.536  27.105  1.00  0.00     0.031 A 
ATOM     27  C   UNL A   1      46.863  30.281  27.920  1.00  0.00     0.049 A 
ATOM     28  C   UNL A   1      45.278  24.989  26.907  1.00  0.00     0.074 A 
ATOM     29  C   UNL A   1      48.208  30.563  27.749  1.00  0.00     0.029 A 
ATOM     30  N   UNL A   1      46.695  28.941  27.603  1.00  0.00    -0.354 N 
ATOM     31  N   UNL A   1      45.792  26.178  27.104  1.00  0.00    -0.248 NA
ATOM     32  C   UNL A   1      46.235  23.983  26.428  1.00  0.00     0.031 C 
ATOM     33  C   UNL A   1      48.842  29.406  27.284  1.00  0.00     0.029 A 
ATOM     34  C   UNL A   1      47.905  28.387  27.220  1.00  0.00     0.049 A 
ATOM     35  H   UNL A   1      45.839  28.454  27.644  1.00  0.00     0.167 HD
ATOM     36  C   UNL A   1      47.141  26.062  26.793  1.00  0.00     0.074 A 
ATOM     37  C   UNL A   1      47.362  24.684  26.403  1.00  0.00     0.031 C 
ATOM     38  C   UNL A   1      48.106  27.012  26.834  1.00  0.00     0.031 A 
BRANCH  25  39
ATOM     39  C   UNL A   1      46.135  32.620  28.568  1.00  0.00    -0.014 A 
ATOM     40  C   UNL A   1      46.588  33.081  29.818  1.00  0.00     0.010 A 
ATOM     41  C   UNL A   1      45.999  33.539  27.511  1.00  0.00     0.010 A 
ATOM     42  C   UNL A   1      46.844  34.441  30.020  1.00  0.00     0.020 A 
ATOM     43  C   UNL A   1      46.280  34.895  27.702  1.00  0.00     0.020 A 
ATOM     44  C   UNL A   1      46.676  35.341  28.963  1.00  0.00     0.054 A 
BRANCH  44  45
ATOM     45  S   UNL A   1      46.991  37.104  29.258  1.00  0.00     0.124 S 
ATOM     46  O   UNL A   1      46.109  37.380  30.390  1.00  0.00    -0.237 OA
ATOM     47  O   UNL A   1      48.420  37.130  29.557  1.00  0.00    -0.237 OA
ATOM     48  O   UNL A   1      46.608  37.740  28.000  1.00  0.00    -0.744 OA
ENDBRANCH  44  45
ENDBRANCH  25  39
BRANCH  26  49
ATOM     49  C   UNL A   1      43.432  23.144  26.810  1.00  0.00    -0.014 A 
ATOM     50  C   UNL A   1      43.695  22.566  25.557  1.00  0.00     0.010 A 
ATOM     51  C   UNL A   1      42.839  22.362  27.818  1.00  0.00     0.010 A 
ATOM     52  C   UNL A   1      43.380  21.226  25.321  1.00  0.00     0.020 A 
ATOM     53  C   UNL A   1      42.549  21.014  27.594  1.00  0.00     0.020 A 
ATOM     54  C   UNL A   1      42.817  20.456  26.343  1.00  0.00     0.054 A 
BRANCH  54  55
ATOM     55  S   UNL A   1      42.509  18.693  26.045  1.00  0.00     0.124 S 
ATOM     56  O   UNL A   1      43.429  18.407  24.948  1.00  0.00    -0.237 OA
ATOM     57  O   UNL A   1      42.850  18.091  27.331  1.00  0.00    -0.237 OA
ATOM     58  O   UNL A   1      41.089  18.648  25.702  1.00  0.00    -0.744 OA
ENDBRANCH  54  55
ENDBRANCH  26  49
BRANCH  38  59
ATOM     59  C   UNL A   1      49.506  26.586  26.486  1.00  0.00    -0.014 A 
ATOM     60  C   UNL A   1      50.337  25.968  27.435  1.00  0.00     0.010 A 
ATOM     61  C   UNL A   1      49.965  26.745  25.165  1.00  0.00     0.010 A 
ATOM     62  C   UNL A   1      51.614  25.531  27.074  1.00  0.00     0.020 A 
ATOM     63  C   UNL A   1      51.231  26.288  24.796  1.00  0.00     0.020 A 
ATOM     64  C   UNL A   1      52.052  25.691  25.755  1.00  0.00     0.054 A 
BRANCH  64  65
ATOM     65  S   UNL A   1      53.686  25.053  25.292  1.00  0.00     0.124 S 
ATOM     66  O   UNL A   1      53.479  23.610  25.365  1.00  0.00    -0.237 OA
ATOM     67  O   UNL A   1      53.873  25.595  23.948  1.00  0.00    -0.237 OA
ATOM     68  O   UNL A   1      54.575  25.608  26.309  1.00  0.00    -0.744 OA
ENDBRANCH  64  65
ENDBRANCH  38  59
ENDBRANCH  12  13
ENDBRANCH   5   7
ENDBRANCH   2   3
ENDBRANCH   1   2
BRANCH   1  69
ATOM     69  C   UNL A   1      32.652  29.626  27.138  1.00  0.00     0.023 C 
BRANCH  69  70
ATOM     70  C   UNL A   1      31.803  29.735  25.869  1.00  0.00     0.116 C 
BRANCH  70  71
ATOM     71  N   UNL A   1      32.621  29.673  24.671  1.00  0.00    -0.356 N 
ATOM     72  C   UNL A   1      32.643  28.754  23.658  1.00  0.00     0.224 C 
ATOM     73  H   UNL A   1      33.265  30.412  24.573  1.00  0.00     0.163 HD
ATOM     74  O   UNL A   1      33.439  28.962  22.740  1.00  0.00    -0.275 OA
BRANCH  72  75
ATOM     75  C   UNL A   1      31.701  27.534  23.678  1.00  0.00     0.095 C 
ATOM     76  C   UNL A   1      31.418  27.025  22.247  1.00  0.00     0.041 C 
ATOM     77  C   UNL A   1      32.272  26.407  24.570  1.00  0.00     0.095 C 
ATOM     78  C   UNL A   1      32.416  26.031  21.723  1.00  0.00    -0.030 C 
ATOM     79  C   UNL A   1      33.516  25.788  23.936  1.00  0.00     0.041 C 
ATOM     80  C   UNL A   1      33.376  25.486  22.480  1.00  0.00    -0.030 C 
BRANCH  77  81
ATOM     81  C   UNL A   1      31.211  25.425  25.067  1.00  0.00     0.224 C 
ATOM     82  O   UNL A   1      30.043  25.787  25.242  1.00  0.00    -0.275 OA
ATOM     83  N   UNL A   1      31.511  24.154  25.477  1.00  0.00    -0.353 N 
ATOM     84  H   UNL A   1      30.789  23.765  26.021  1.00  0.00     0.163 HD
BRANCH  83  85
ATOM     85  C   UNL A   1      32.644  23.213  25.311  1.00  0.00     0.082 C 
ATOM     86  C   UNL A   1      33.069  22.649  26.674  1.00  0.00     0.025 C 
ATOM     87  C   UNL A   1      32.506  22.220  24.149  1.00  0.00     0.025 C 
ATOM     88  C   UNL A   1      33.943  21.408  26.587  1.00  0.00     0.002 C 
ATOM     89  C   UNL A   1      33.238  20.886  24.257  1.00  0.00     0.002 C 
ATOM     90  C   UNL A   1      33.331  20.357  25.678  1.00  0.00     0.000 C 
ENDBRANCH  83  85
ENDBRANCH  77  81
ENDBRANCH  72  75
ENDBRANCH  70  71
ENDBRANCH  69  70
ENDBRANCH   1  69
TORSDOF 16
ENDMDL
