MODEL 1
REMARK VINA RESULT:      -9.3      0.000      0.000
REMARK SMILES O=C(NCCCCNC(=O)[C@]1([NH2+]C2CC2)CC[C@@H](SCCCO)C1)c1ccc(-c2c3nc(c(-c4ccc(S(=O)(=O)[O-])cc4)c4ccc([nH]4)c(-c4ccc(S(=O)(=O)[O-])cc4)c4nc(c(-c5ccc(S(=O)(=O)[O-])cc5)c5ccc2[nH]5)C=C4)C=C3)cc1
REMARK SMILES IDX 6 1 5 2 4 3 3 4 1 5 2 6 25 8 26 9 84 10 27 11 83 12 28 13
REMARK SMILES IDX 29 14 30 15 77 16 31 17 82 18 76 19 78 20 32 21 81 22 75 23
REMARK SMILES IDX 74 24 33 26 63 27 44 28 62 29 45 30 48 31 61 32 79 33 46 34
REMARK SMILES IDX 47 35 60 37 80 38 49 39 34 40 35 41 43 42 36 43 42 44 37 45
REMARK SMILES IDX 38 46 39 47 40 48 41 49 64 50 65 51 73 52 66 53 72 54 67 55
REMARK SMILES IDX 68 56 69 57 70 58 71 59 50 60 51 61 59 62 52 63 58 64 53 65
REMARK SMILES IDX 54 66 55 67 56 68 57 69 7 70 8 71 9 72 10 74 11 75 16 76
REMARK SMILES IDX 24 77 17 78 18 79 12 80 13 83 14 84 15 85 19 86 20 87 21 88
REMARK SMILES IDX 22 89 23 90
REMARK H PARENT 3 7 78 25 48 36 8 73 12 81 12 82 23 91
REMARK Flexibility Score: inf
ROOT
ATOM      1  C   UNL A   1      37.391  22.078  24.602  1.00  0.00     0.023 C 
ENDROOT
BRANCH   1   2
ATOM      2  C   UNL A   1      37.940  20.779  25.168  1.00  0.00     0.023 C 
BRANCH   2   3
ATOM      3  C   UNL A   1      39.131  20.983  26.076  1.00  0.00     0.116 C 
BRANCH   3   4
ATOM      4  N   UNL A   1      40.039  19.843  26.052  1.00  0.00    -0.352 N 
ATOM      5  O   UNL A   1      42.057  18.847  25.815  1.00  0.00    -0.269 OA
ATOM      6  C   UNL A   1      41.416  19.854  26.064  1.00  0.00     0.251 C 
ATOM      7  H   UNL A   1      39.616  18.955  26.025  1.00  0.00     0.163 HD
BRANCH   6   8
ATOM      8  C   UNL A   1      42.083  21.130  26.386  1.00  0.00     0.039 A 
ATOM      9  C   UNL A   1      42.317  22.041  25.354  1.00  0.00     0.014 A 
ATOM     10  C   UNL A   1      42.519  21.389  27.686  1.00  0.00     0.014 A 
ATOM     11  C   UNL A   1      43.132  23.131  25.578  1.00  0.00     0.010 A 
ATOM     12  C   UNL A   1      43.213  22.572  27.944  1.00  0.00     0.010 A 
ATOM     13  C   UNL A   1      43.521  23.446  26.888  1.00  0.00    -0.014 A 
BRANCH  13  14
ATOM     14  C   UNL A   1      44.069  24.796  27.131  1.00  0.00     0.031 A 
ATOM     15  C   UNL A   1      45.487  25.143  26.804  1.00  0.00     0.074 A 
ATOM     16  C   UNL A   1      43.217  25.707  27.646  1.00  0.00     0.049 A 
ATOM     17  N   UNL A   1      46.106  26.277  26.992  1.00  0.00    -0.248 NA
ATOM     18  C   UNL A   1      46.325  24.091  26.203  1.00  0.00     0.031 C 
ATOM     19  C   UNL A   1      41.814  25.443  28.001  1.00  0.00     0.029 A 
ATOM     20  N   UNL A   1      43.381  27.032  27.942  1.00  0.00    -0.354 N 
ATOM     21  C   UNL A   1      47.414  26.072  26.573  1.00  0.00     0.074 A 
ATOM     22  C   UNL A   1      47.501  24.703  26.112  1.00  0.00     0.031 C 
ATOM     23  C   UNL A   1      41.235  26.577  28.406  1.00  0.00     0.029 A 
ATOM     24  C   UNL A   1      42.246  27.620  28.450  1.00  0.00     0.049 A 
ATOM     25  H   UNL A   1      44.226  27.517  27.804  1.00  0.00     0.167 HD
ATOM     26  C   UNL A   1      48.440  26.954  26.593  1.00  0.00     0.031 A 
ATOM     27  C   UNL A   1      42.051  28.849  28.957  1.00  0.00     0.031 A 
ATOM     28  C   UNL A   1      48.311  28.314  27.049  1.00  0.00     0.049 A 
ATOM     29  C   UNL A   1      43.219  29.783  28.994  1.00  0.00     0.074 A 
ATOM     30  C   UNL A   1      49.270  29.311  27.055  1.00  0.00     0.029 A 
ATOM     31  N   UNL A   1      47.158  28.863  27.592  1.00  0.00    -0.354 N 
ATOM     32  N   UNL A   1      44.435  29.589  28.541  1.00  0.00    -0.248 NA
ATOM     33  C   UNL A   1      43.001  31.089  29.623  1.00  0.00     0.031 C 
ATOM     34  C   UNL A   1      48.717  30.441  27.664  1.00  0.00     0.029 A 
ATOM     35  C   UNL A   1      47.396  30.170  27.982  1.00  0.00     0.049 A 
ATOM     36  H   UNL A   1      46.298  28.393  27.686  1.00  0.00     0.167 HD
ATOM     37  C   UNL A   1      45.132  30.750  28.836  1.00  0.00     0.074 A 
ATOM     38  C   UNL A   1      44.191  31.653  29.470  1.00  0.00     0.031 C 
ATOM     39  C   UNL A   1      46.437  31.039  28.617  1.00  0.00     0.031 A 
BRANCH  26  40
ATOM     40  C   UNL A   1      49.802  26.482  26.159  1.00  0.00    -0.014 A 
ATOM     41  C   UNL A   1      50.297  26.746  24.870  1.00  0.00     0.010 A 
ATOM     42  C   UNL A   1      50.642  25.857  27.100  1.00  0.00     0.010 A 
ATOM     43  C   UNL A   1      51.606  26.386  24.530  1.00  0.00     0.020 A 
ATOM     44  C   UNL A   1      51.957  25.515  26.771  1.00  0.00     0.020 A 
ATOM     45  C   UNL A   1      52.429  25.778  25.484  1.00  0.00     0.054 A 
BRANCH  45  46
ATOM     46  S   UNL A   1      54.144  25.387  25.036  1.00  0.00     0.124 S 
ATOM     47  O   UNL A   1      54.272  26.043  23.736  1.00  0.00    -0.237 OA
ATOM     48  O   UNL A   1      54.904  25.997  26.123  1.00  0.00    -0.237 OA
ATOM     49  O   UNL A   1      54.172  23.927  25.001  1.00  0.00    -0.744 OA
ENDBRANCH  45  46
ENDBRANCH  26  40
BRANCH  27  50
ATOM     50  C   UNL A   1      40.735  29.207  29.549  1.00  0.00    -0.014 A 
ATOM     51  C   UNL A   1      40.505  29.096  30.929  1.00  0.00     0.010 A 
ATOM     52  C   UNL A   1      39.701  29.687  28.719  1.00  0.00     0.010 A 
ATOM     53  C   UNL A   1      39.257  29.431  31.464  1.00  0.00     0.020 A 
ATOM     54  C   UNL A   1      38.468  30.058  29.255  1.00  0.00     0.020 A 
ATOM     55  C   UNL A   1      38.246  29.906  30.623  1.00  0.00     0.054 A 
BRANCH  55  56
ATOM     56  S   UNL A   1      36.642  30.352  31.341  1.00  0.00     0.124 S 
ATOM     57  O   UNL A   1      36.607  31.795  31.122  1.00  0.00    -0.237 OA
ATOM     58  O   UNL A   1      35.707  29.567  30.540  1.00  0.00    -0.237 OA
ATOM     59  O   UNL A   1      36.762  29.931  32.735  1.00  0.00    -0.744 OA
ENDBRANCH  55  56
ENDBRANCH  27  50
BRANCH  39  60
ATOM     60  C   UNL A   1      46.913  32.389  29.067  1.00  0.00    -0.014 A 
ATOM     61  C   UNL A   1      47.488  32.560  30.339  1.00  0.00     0.010 A 
ATOM     62  C   UNL A   1      46.835  33.484  28.188  1.00  0.00     0.010 A 
ATOM     63  C   UNL A   1      47.961  33.812  30.731  1.00  0.00     0.020 A 
ATOM     64  C   UNL A   1      47.334  34.730  28.568  1.00  0.00     0.020 A 
ATOM     65  C   UNL A   1      47.886  34.887  29.841  1.00  0.00     0.054 A 
BRANCH  65  66
ATOM     66  S   UNL A   1      48.569  36.486  30.352  1.00  0.00     0.124 S 
ATOM     67  O   UNL A   1      49.223  36.942  29.129  1.00  0.00    -0.237 OA
ATOM     68  O   UNL A   1      47.376  37.233  30.743  1.00  0.00    -0.237 OA
ATOM     69  O   UNL A   1      49.470  36.142  31.449  1.00  0.00    -0.744 OA
ENDBRANCH  65  66
ENDBRANCH  39  60
ENDBRANCH  13  14
ENDBRANCH   6   8
ENDBRANCH   3   4
ENDBRANCH   2   3
ENDBRANCH   1   2
BRANCH   1  70
ATOM     70  C   UNL A   1      36.874  23.076  25.635  1.00  0.00     0.116 C 
BRANCH  70  71
ATOM     71  N   UNL A   1      35.972  22.469  26.597  1.00  0.00    -0.351 N 
ATOM     72  C   UNL A   1      34.616  22.392  26.686  1.00  0.00     0.281 C 
ATOM     73  H   UNL A   1      36.436  22.022  27.340  1.00  0.00     0.163 HD
ATOM     74  O   UNL A   1      34.192  21.727  27.644  1.00  0.00    -0.268 OA
BRANCH  72  75
ATOM     75  C   UNL A   1      33.598  23.008  25.665  1.00  0.00     0.176 C 
ATOM     76  C   UNL A   1      32.179  22.579  26.102  1.00  0.00     0.080 C 
ATOM     77  C   UNL A   1      33.804  22.319  24.295  1.00  0.00     0.093 C 
ATOM     78  C   UNL A   1      31.830  21.292  25.360  1.00  0.00     0.022 C 
ATOM     79  C   UNL A   1      32.891  21.094  24.281  1.00  0.00     0.053 C 
BRANCH  75  80
ATOM     80  N   UNL A   1      33.797  24.461  25.510  1.00  0.00    -0.331 N 
ATOM     81  H   UNL A   1      34.742  24.664  25.836  1.00  0.00     0.347 HD
ATOM     82  H   UNL A   1      33.020  24.858  26.036  1.00  0.00     0.347 HD
BRANCH  80  83
ATOM     83  C   UNL A   1      33.663  25.087  24.201  1.00  0.00     0.183 C 
ATOM     84  C   UNL A   1      32.365  25.727  23.803  1.00  0.00     0.071 C 
ATOM     85  C   UNL A   1      33.553  26.583  24.143  1.00  0.00     0.071 C 
ENDBRANCH  80  83
ENDBRANCH  75  80
BRANCH  79  86
ATOM     86  S   UNL A   1      32.166  20.540  22.678  1.00  0.00    -0.158 SA
BRANCH  86  87
ATOM     87  C   UNL A   1      32.273  18.710  22.647  1.00  0.00     0.072 C 
BRANCH  87  88
ATOM     88  C   UNL A   1      32.787  18.040  23.923  1.00  0.00     0.039 C 
BRANCH  88  89
ATOM     89  C   UNL A   1      34.164  17.418  23.809  1.00  0.00     0.157 C 
BRANCH  89  90
ATOM     90  O   UNL A   1      34.113  16.208  23.064  1.00  0.00    -0.396 OA
ATOM     91  H   UNL A   1      34.316  16.393  22.134  1.00  0.00     0.210 HD
ENDBRANCH  89  90
ENDBRANCH  88  89
ENDBRANCH  87  88
ENDBRANCH  86  87
ENDBRANCH  79  86
ENDBRANCH  72  75
ENDBRANCH  70  71
ENDBRANCH   1  70
TORSDOF 21
ENDMDL
MODEL 2
REMARK VINA RESULT:      -9.2      6.171     10.940
REMARK SMILES O=C(NCCCCNC(=O)[C@]1([NH2+]C2CC2)CC[C@@H](SCCCO)C1)c1ccc(-c2c3nc(c(-c4ccc(S(=O)(=O)[O-])cc4)c4ccc([nH]4)c(-c4ccc(S(=O)(=O)[O-])cc4)c4nc(c(-c5ccc(S(=O)(=O)[O-])cc5)c5ccc2[nH]5)C=C4)C=C3)cc1
REMARK SMILES IDX 6 1 5 2 4 3 3 4 1 5 2 6 25 8 26 9 84 10 27 11 83 12 28 13
REMARK SMILES IDX 29 14 30 15 77 16 31 17 82 18 76 19 78 20 32 21 81 22 75 23
REMARK SMILES IDX 74 24 33 26 63 27 44 28 62 29 45 30 48 31 61 32 79 33 46 34
REMARK SMILES IDX 47 35 60 37 80 38 49 39 34 40 35 41 43 42 36 43 42 44 37 45
REMARK SMILES IDX 38 46 39 47 40 48 41 49 64 50 65 51 73 52 66 53 72 54 67 55
REMARK SMILES IDX 68 56 69 57 70 58 71 59 50 60 51 61 59 62 52 63 58 64 53 65
REMARK SMILES IDX 54 66 55 67 56 68 57 69 7 70 8 71 9 72 10 74 11 75 16 76
REMARK SMILES IDX 24 77 17 78 18 79 12 80 13 83 14 84 15 85 19 86 20 87 21 88
REMARK SMILES IDX 22 89 23 90
REMARK H PARENT 3 7 78 25 48 36 8 73 12 81 12 82 23 91
REMARK Flexibility Score: inf
ROOT
ATOM      1  C   UNL A   1      38.236  22.293  25.936  1.00  0.00     0.023 C 
ENDROOT
BRANCH   1   2
ATOM      2  C   UNL A   1      39.409  22.944  26.649  1.00  0.00     0.023 C 
BRANCH   2   3
ATOM      3  C   UNL A   1      39.389  24.454  26.568  1.00  0.00     0.116 C 
BRANCH   3   4
ATOM      4  N   UNL A   1      40.498  24.975  25.778  1.00  0.00    -0.352 N 
ATOM      5  O   UNL A   1      41.935  26.581  25.091  1.00  0.00    -0.269 OA
ATOM      6  C   UNL A   1      41.180  26.158  25.950  1.00  0.00     0.251 C 
ATOM      7  H   UNL A   1      40.796  24.410  25.029  1.00  0.00     0.163 HD
BRANCH   6   8
ATOM      8  C   UNL A   1      40.961  26.893  27.211  1.00  0.00     0.039 A 
ATOM      9  C   UNL A   1      41.533  28.158  27.354  1.00  0.00     0.014 A 
ATOM     10  C   UNL A   1      40.244  26.305  28.253  1.00  0.00     0.014 A 
ATOM     11  C   UNL A   1      41.537  28.769  28.591  1.00  0.00     0.010 A 
ATOM     12  C   UNL A   1      40.118  26.995  29.460  1.00  0.00     0.010 A 
ATOM     13  C   UNL A   1      40.765  28.229  29.630  1.00  0.00    -0.014 A 
BRANCH  13  14
ATOM     14  C   UNL A   1      40.502  29.091  30.802  1.00  0.00     0.031 A 
ATOM     15  C   UNL A   1      39.370  30.068  30.825  1.00  0.00     0.074 A 
ATOM     16  C   UNL A   1      41.327  28.936  31.859  1.00  0.00     0.049 A 
ATOM     17  N   UNL A   1      39.043  30.904  31.773  1.00  0.00    -0.248 NA
ATOM     18  C   UNL A   1      38.499  30.130  29.638  1.00  0.00     0.031 C 
ATOM     19  C   UNL A   1      42.464  28.005  31.911  1.00  0.00     0.029 A 
ATOM     20  N   UNL A   1      41.335  29.526  33.092  1.00  0.00    -0.354 N 
ATOM     21  C   UNL A   1      37.956  31.622  31.289  1.00  0.00     0.074 A 
ATOM     22  C   UNL A   1      37.672  31.118  29.963  1.00  0.00     0.031 C 
ATOM     23  C   UNL A   1      43.018  28.045  33.127  1.00  0.00     0.029 A 
ATOM     24  C   UNL A   1      42.353  29.079  33.902  1.00  0.00     0.049 A 
ATOM     25  H   UNL A   1      40.679  30.203  33.374  1.00  0.00     0.167 HD
ATOM     26  C   UNL A   1      37.279  32.619  31.906  1.00  0.00     0.031 A 
ATOM     27  C   UNL A   1      42.753  29.496  35.115  1.00  0.00     0.031 A 
ATOM     28  C   UNL A   1      37.586  33.086  33.234  1.00  0.00     0.049 A 
ATOM     29  C   UNL A   1      42.001  30.624  35.749  1.00  0.00     0.074 A 
ATOM     30  C   UNL A   1      36.926  34.047  33.978  1.00  0.00     0.029 A 
ATOM     31  N   UNL A   1      38.646  32.636  34.008  1.00  0.00    -0.354 N 
ATOM     32  N   UNL A   1      40.940  31.253  35.300  1.00  0.00    -0.248 NA
ATOM     33  C   UNL A   1      42.503  31.114  37.035  1.00  0.00     0.031 C 
ATOM     34  C   UNL A   1      37.628  34.227  35.174  1.00  0.00     0.029 A 
ATOM     35  C   UNL A   1      38.689  33.336  35.202  1.00  0.00     0.049 A 
ATOM     36  H   UNL A   1      39.275  31.925  33.748  1.00  0.00     0.167 HD
ATOM     37  C   UNL A   1      40.650  32.220  36.250  1.00  0.00     0.074 A 
ATOM     38  C   UNL A   1      41.623  32.065  37.314  1.00  0.00     0.031 C 
ATOM     39  C   UNL A   1      39.677  33.161  36.237  1.00  0.00     0.031 A 
BRANCH  26  40
ATOM     40  C   UNL A   1      36.176  33.312  31.153  1.00  0.00    -0.014 A 
ATOM     41  C   UNL A   1      34.935  33.587  31.752  1.00  0.00     0.010 A 
ATOM     42  C   UNL A   1      36.430  33.792  29.854  1.00  0.00     0.010 A 
ATOM     43  C   UNL A   1      33.965  34.323  31.061  1.00  0.00     0.020 A 
ATOM     44  C   UNL A   1      35.473  34.546  29.169  1.00  0.00     0.020 A 
ATOM     45  C   UNL A   1      34.243  34.803  29.777  1.00  0.00     0.054 A 
BRANCH  45  46
ATOM     46  S   UNL A   1      32.994  35.815  28.935  1.00  0.00     0.124 S 
ATOM     47  O   UNL A   1      33.820  36.817  28.264  1.00  0.00    -0.237 OA
ATOM     48  O   UNL A   1      32.341  34.849  28.055  1.00  0.00    -0.237 OA
ATOM     49  O   UNL A   1      32.163  36.323  30.024  1.00  0.00    -0.744 OA
ENDBRANCH  45  46
ENDBRANCH  26  40
BRANCH  27  50
ATOM     50  C   UNL A   1      43.967  28.908  35.740  1.00  0.00    -0.014 A 
ATOM     51  C   UNL A   1      45.241  29.445  35.496  1.00  0.00     0.010 A 
ATOM     52  C   UNL A   1      43.843  27.805  36.609  1.00  0.00     0.010 A 
ATOM     53  C   UNL A   1      46.371  28.872  36.087  1.00  0.00     0.020 A 
ATOM     54  C   UNL A   1      44.965  27.255  37.230  1.00  0.00     0.020 A 
ATOM     55  C   UNL A   1      46.226  27.779  36.948  1.00  0.00     0.054 A 
BRANCH  55  56
ATOM     56  S   UNL A   1      47.702  27.064  37.718  1.00  0.00     0.124 S 
ATOM     57  O   UNL A   1      47.964  28.009  38.799  1.00  0.00    -0.237 OA
ATOM     58  O   UNL A   1      47.237  25.742  38.131  1.00  0.00    -0.237 OA
ATOM     59  O   UNL A   1      48.685  27.059  36.637  1.00  0.00    -0.744 OA
ENDBRANCH  55  56
ENDBRANCH  27  50
BRANCH  39  60
ATOM     60  C   UNL A   1      39.622  34.090  37.415  1.00  0.00    -0.014 A 
ATOM     61  C   UNL A   1      38.949  33.716  38.591  1.00  0.00     0.010 A 
ATOM     62  C   UNL A   1      40.298  35.321  37.363  1.00  0.00     0.010 A 
ATOM     63  C   UNL A   1      38.936  34.572  39.693  1.00  0.00     0.020 A 
ATOM     64  C   UNL A   1      40.312  36.165  38.474  1.00  0.00     0.020 A 
ATOM     65  C   UNL A   1      39.623  35.789  39.628  1.00  0.00     0.054 A 
BRANCH  65  66
ATOM     66  S   UNL A   1      39.647  36.850  41.097  1.00  0.00     0.124 S 
ATOM     67  O   UNL A   1      41.079  37.035  41.315  1.00  0.00    -0.237 OA
ATOM     68  O   UNL A   1      38.921  38.035  40.647  1.00  0.00    -0.237 OA
ATOM     69  O   UNL A   1      38.960  36.053  42.111  1.00  0.00    -0.744 OA
ENDBRANCH  65  66
ENDBRANCH  39  60
ENDBRANCH  13  14
ENDBRANCH   6   8
ENDBRANCH   3   4
ENDBRANCH   2   3
ENDBRANCH   1   2
BRANCH   1  70
ATOM     70  C   UNL A   1      37.089  23.230  25.570  1.00  0.00     0.116 C 
BRANCH  70  71
ATOM     71  N   UNL A   1      35.974  23.140  26.495  1.00  0.00    -0.351 N 
ATOM     72  C   UNL A   1      34.679  22.741  26.362  1.00  0.00     0.281 C 
ATOM     73  H   UNL A   1      36.201  23.426  27.409  1.00  0.00     0.163 HD
ATOM     74  O   UNL A   1      34.020  22.747  27.413  1.00  0.00    -0.268 OA
BRANCH  72  75
ATOM     75  C   UNL A   1      34.012  22.237  25.035  1.00  0.00     0.176 C 
ATOM     76  C   UNL A   1      32.627  21.658  25.400  1.00  0.00     0.080 C 
ATOM     77  C   UNL A   1      34.816  21.020  24.519  1.00  0.00     0.093 C 
ATOM     78  C   UNL A   1      32.796  20.161  25.644  1.00  0.00     0.022 C 
ATOM     79  C   UNL A   1      34.193  19.782  25.160  1.00  0.00     0.053 C 
BRANCH  75  80
ATOM     80  N   UNL A   1      34.004  23.286  23.999  1.00  0.00    -0.331 N 
ATOM     81  H   UNL A   1      33.711  22.839  23.131  1.00  0.00     0.347 HD
ATOM     82  H   UNL A   1      34.952  23.660  24.041  1.00  0.00     0.347 HD
BRANCH  80  83
ATOM     83  C   UNL A   1      33.173  24.472  24.160  1.00  0.00     0.183 C 
ATOM     84  C   UNL A   1      33.429  25.688  23.318  1.00  0.00     0.071 C 
ATOM     85  C   UNL A   1      32.227  24.827  23.049  1.00  0.00     0.071 C 
ENDBRANCH  80  83
ENDBRANCH  75  80
BRANCH  79  86
ATOM     86  S   UNL A   1      34.204  18.191  24.226  1.00  0.00    -0.158 SA
BRANCH  86  87
ATOM     87  C   UNL A   1      32.567  17.407  24.485  1.00  0.00     0.072 C 
BRANCH  87  88
ATOM     88  C   UNL A   1      32.510  16.284  25.522  1.00  0.00     0.039 C 
BRANCH  88  89
ATOM     89  C   UNL A   1      33.493  15.152  25.295  1.00  0.00     0.157 C 
BRANCH  89  90
ATOM     90  O   UNL A   1      32.919  13.903  25.657  1.00  0.00    -0.396 OA
ATOM     91  H   UNL A   1      33.571  13.376  26.142  1.00  0.00     0.210 HD
ENDBRANCH  89  90
ENDBRANCH  88  89
ENDBRANCH  87  88
ENDBRANCH  86  87
ENDBRANCH  79  86
ENDBRANCH  72  75
ENDBRANCH  70  71
ENDBRANCH   1  70
TORSDOF 21
ENDMDL
MODEL 3
REMARK VINA RESULT:      -9.0      2.804      9.424
REMARK SMILES O=C(NCCCCNC(=O)[C@]1([NH2+]C2CC2)CC[C@@H](SCCCO)C1)c1ccc(-c2c3nc(c(-c4ccc(S(=O)(=O)[O-])cc4)c4ccc([nH]4)c(-c4ccc(S(=O)(=O)[O-])cc4)c4nc(c(-c5ccc(S(=O)(=O)[O-])cc5)c5ccc2[nH]5)C=C4)C=C3)cc1
REMARK SMILES IDX 6 1 5 2 4 3 3 4 1 5 2 6 25 8 26 9 84 10 27 11 83 12 28 13
REMARK SMILES IDX 29 14 30 15 77 16 31 17 82 18 76 19 78 20 32 21 81 22 75 23
REMARK SMILES IDX 74 24 33 26 63 27 44 28 62 29 45 30 48 31 61 32 79 33 46 34
REMARK SMILES IDX 47 35 60 37 80 38 49 39 34 40 35 41 43 42 36 43 42 44 37 45
REMARK SMILES IDX 38 46 39 47 40 48 41 49 64 50 65 51 73 52 66 53 72 54 67 55
REMARK SMILES IDX 68 56 69 57 70 58 71 59 50 60 51 61 59 62 52 63 58 64 53 65
REMARK SMILES IDX 54 66 55 67 56 68 57 69 7 70 8 71 9 72 10 74 11 75 16 76
REMARK SMILES IDX 24 77 17 78 18 79 12 80 13 83 14 84 15 85 19 86 20 87 21 88
REMARK SMILES IDX 22 89 23 90
REMARK H PARENT 3 7 78 25 48 36 8 73 12 81 12 82 23 91
REMARK Flexibility Score: inf
ROOT
ATOM      1  C   UNL A   1      35.473  23.003  23.998  1.00  0.00     0.023 C 
ENDROOT
BRANCH   1   2
ATOM      2  C   UNL A   1      36.673  23.713  24.600  1.00  0.00     0.023 C 
BRANCH   2   3
ATOM      3  C   UNL A   1      36.977  23.273  26.014  1.00  0.00     0.116 C 
BRANCH   3   4
ATOM      4  N   UNL A   1      37.787  22.061  26.048  1.00  0.00    -0.352 N 
ATOM      5  O   UNL A   1      39.734  20.908  26.037  1.00  0.00    -0.269 OA
ATOM      6  C   UNL A   1      39.144  21.952  26.255  1.00  0.00     0.251 C 
ATOM      7  H   UNL A   1      37.304  21.215  25.905  1.00  0.00     0.163 HD
BRANCH   6   8
ATOM      8  C   UNL A   1      39.855  23.147  26.748  1.00  0.00     0.039 A 
ATOM      9  C   UNL A   1      39.852  24.299  25.959  1.00  0.00     0.014 A 
ATOM     10  C   UNL A   1      40.559  23.102  27.952  1.00  0.00     0.014 A 
ATOM     11  C   UNL A   1      40.687  25.349  26.282  1.00  0.00     0.010 A 
ATOM     12  C   UNL A   1      41.282  24.225  28.355  1.00  0.00     0.010 A 
ATOM     13  C   UNL A   1      41.348  25.352  27.518  1.00  0.00    -0.014 A 
BRANCH  13  14
ATOM     14  C   UNL A   1      41.924  26.632  27.980  1.00  0.00     0.031 A 
ATOM     15  C   UNL A   1      41.074  27.718  28.558  1.00  0.00     0.074 A 
ATOM     16  C   UNL A   1      43.263  26.762  27.870  1.00  0.00     0.049 A 
ATOM     17  N   UNL A   1      41.444  28.899  28.975  1.00  0.00    -0.248 NA
ATOM     18  C   UNL A   1      39.628  27.461  28.678  1.00  0.00     0.031 C 
ATOM     19  C   UNL A   1      44.165  25.746  27.307  1.00  0.00     0.029 A 
ATOM     20  N   UNL A   1      44.106  27.773  28.238  1.00  0.00    -0.354 N 
ATOM     21  C   UNL A   1      40.280  29.546  29.368  1.00  0.00     0.074 A 
ATOM     22  C   UNL A   1      39.187  28.623  29.149  1.00  0.00     0.031 C 
ATOM     23  C   UNL A   1      45.431  26.159  27.422  1.00  0.00     0.029 A 
ATOM     24  C   UNL A   1      45.427  27.510  27.958  1.00  0.00     0.049 A 
ATOM     25  H   UNL A   1      43.799  28.607  28.661  1.00  0.00     0.167 HD
ATOM     26  C   UNL A   1      40.152  30.803  29.853  1.00  0.00     0.031 A 
ATOM     27  C   UNL A   1      46.515  28.291  28.062  1.00  0.00     0.031 A 
ATOM     28  C   UNL A   1      41.267  31.689  30.069  1.00  0.00     0.049 A 
ATOM     29  C   UNL A   1      46.328  29.686  28.569  1.00  0.00     0.074 A 
ATOM     30  C   UNL A   1      41.258  32.961  30.613  1.00  0.00     0.029 A 
ATOM     31  N   UNL A   1      42.584  31.402  29.739  1.00  0.00    -0.354 N 
ATOM     32  N   UNL A   1      45.226  30.261  28.990  1.00  0.00    -0.248 NA
ATOM     33  C   UNL A   1      47.516  30.543  28.600  1.00  0.00     0.031 C 
ATOM     34  C   UNL A   1      42.559  33.469  30.549  1.00  0.00     0.029 A 
ATOM     35  C   UNL A   1      43.390  32.493  30.022  1.00  0.00     0.049 A 
ATOM     36  H   UNL A   1      42.900  30.550  29.361  1.00  0.00     0.167 HD
ATOM     37  C   UNL A   1      45.588  31.555  29.331  1.00  0.00     0.074 A 
ATOM     38  C   UNL A   1      47.016  31.663  29.105  1.00  0.00     0.031 C 
ATOM     39  C   UNL A   1      44.808  32.568  29.777  1.00  0.00     0.031 A 
BRANCH  26  40
ATOM     40  C   UNL A   1      38.771  31.326  30.141  1.00  0.00    -0.014 A 
ATOM     41  C   UNL A   1      38.160  31.144  31.394  1.00  0.00     0.010 A 
ATOM     42  C   UNL A   1      38.117  32.108  29.170  1.00  0.00     0.010 A 
ATOM     43  C   UNL A   1      36.919  31.730  31.667  1.00  0.00     0.020 A 
ATOM     44  C   UNL A   1      36.887  32.712  29.445  1.00  0.00     0.020 A 
ATOM     45  C   UNL A   1      36.293  32.515  30.692  1.00  0.00     0.054 A 
BRANCH  45  46
ATOM     46  S   UNL A   1      34.718  33.320  31.099  1.00  0.00     0.124 S 
ATOM     47  O   UNL A   1      34.139  32.382  32.058  1.00  0.00    -0.237 OA
ATOM     48  O   UNL A   1      35.149  34.599  31.656  1.00  0.00    -0.237 OA
ATOM     49  O   UNL A   1      34.027  33.403  29.815  1.00  0.00    -0.744 OA
ENDBRANCH  45  46
ENDBRANCH  26  40
BRANCH  27  50
ATOM     50  C   UNL A   1      47.833  27.794  27.587  1.00  0.00    -0.014 A 
ATOM     51  C   UNL A   1      48.748  27.202  28.473  1.00  0.00     0.010 A 
ATOM     52  C   UNL A   1      48.171  27.898  26.222  1.00  0.00     0.010 A 
ATOM     53  C   UNL A   1      49.986  26.750  28.008  1.00  0.00     0.020 A 
ATOM     54  C   UNL A   1      49.390  27.413  25.749  1.00  0.00     0.020 A 
ATOM     55  C   UNL A   1      50.300  26.861  26.650  1.00  0.00     0.054 A 
BRANCH  55  56
ATOM     56  S   UNL A   1      51.904  26.250  26.064  1.00  0.00     0.124 S 
ATOM     57  O   UNL A   1      52.835  27.024  26.879  1.00  0.00    -0.237 OA
ATOM     58  O   UNL A   1      51.830  24.823  26.367  1.00  0.00    -0.237 OA
ATOM     59  O   UNL A   1      51.895  26.578  24.640  1.00  0.00    -0.744 OA
ENDBRANCH  55  56
ENDBRANCH  27  50
BRANCH  39  60
ATOM     60  C   UNL A   1      45.492  33.876  30.050  1.00  0.00    -0.014 A 
ATOM     61  C   UNL A   1      45.585  34.858  29.048  1.00  0.00     0.010 A 
ATOM     62  C   UNL A   1      45.996  34.144  31.334  1.00  0.00     0.010 A 
ATOM     63  C   UNL A   1      46.190  36.085  29.324  1.00  0.00     0.020 A 
ATOM     64  C   UNL A   1      46.576  35.381  31.620  1.00  0.00     0.020 A 
ATOM     65  C   UNL A   1      46.676  36.339  30.610  1.00  0.00     0.054 A 
BRANCH  65  66
ATOM     66  S   UNL A   1      47.397  37.966  30.959  1.00  0.00     0.124 S 
ATOM     67  O   UNL A   1      46.294  38.864  30.626  1.00  0.00    -0.237 OA
ATOM     68  O   UNL A   1      47.724  37.872  32.379  1.00  0.00    -0.237 OA
ATOM     69  O   UNL A   1      48.548  38.033  30.063  1.00  0.00    -0.744 OA
ENDBRANCH  65  66
ENDBRANCH  39  60
ENDBRANCH  13  14
ENDBRANCH   6   8
ENDBRANCH   3   4
ENDBRANCH   2   3
ENDBRANCH   1   2
BRANCH   1  70
ATOM     70  C   UNL A   1      34.191  23.827  23.929  1.00  0.00     0.116 C 
BRANCH  70  71
ATOM     71  N   UNL A   1      34.206  24.965  24.831  1.00  0.00    -0.351 N 
ATOM     72  C   UNL A   1      33.288  25.918  25.150  1.00  0.00     0.281 C 
ATOM     73  H   UNL A   1      35.058  25.069  25.313  1.00  0.00     0.163 HD
ATOM     74  O   UNL A   1      33.648  26.717  26.028  1.00  0.00    -0.268 OA
BRANCH  72  75
ATOM     75  C   UNL A   1      31.843  26.028  24.551  1.00  0.00     0.176 C 
ATOM     76  C   UNL A   1      31.985  26.290  23.034  1.00  0.00     0.080 C 
ATOM     77  C   UNL A   1      31.183  27.313  25.104  1.00  0.00     0.093 C 
ATOM     78  C   UNL A   1      31.969  27.801  22.818  1.00  0.00     0.022 C 
ATOM     79  C   UNL A   1      31.539  28.439  24.136  1.00  0.00     0.053 C 
BRANCH  75  80
ATOM     80  N   UNL A   1      31.015  24.863  24.914  1.00  0.00    -0.331 N 
ATOM     81  H   UNL A   1      31.118  24.183  24.160  1.00  0.00     0.347 HD
ATOM     82  H   UNL A   1      30.092  25.272  25.058  1.00  0.00     0.347 HD
BRANCH  80  83
ATOM     83  C   UNL A   1      31.258  24.147  26.159  1.00  0.00     0.183 C 
ATOM     84  C   UNL A   1      30.162  23.337  26.786  1.00  0.00     0.071 C 
ATOM     85  C   UNL A   1      31.314  22.647  26.111  1.00  0.00     0.071 C 
ENDBRANCH  80  83
ENDBRANCH  75  80
BRANCH  79  86
ATOM     86  S   UNL A   1      30.339  29.818  23.890  1.00  0.00    -0.158 SA
BRANCH  86  87
ATOM     87  C   UNL A   1      29.806  29.756  22.136  1.00  0.00     0.072 C 
BRANCH  87  88
ATOM     88  C   UNL A   1      28.315  29.976  21.874  1.00  0.00     0.039 C 
BRANCH  88  89
ATOM     89  C   UNL A   1      27.427  29.874  23.098  1.00  0.00     0.157 C 
BRANCH  89  90
ATOM     90  O   UNL A   1      27.089  31.165  23.587  1.00  0.00    -0.396 OA
ATOM     91  H   UNL A   1      27.014  31.135  24.553  1.00  0.00     0.210 HD
ENDBRANCH  89  90
ENDBRANCH  88  89
ENDBRANCH  87  88
ENDBRANCH  86  87
ENDBRANCH  79  86
ENDBRANCH  72  75
ENDBRANCH  70  71
ENDBRANCH   1  70
TORSDOF 21
ENDMDL
