MODEL 1
REMARK VINA RESULT:     -12.7      0.000      0.000
REMARK SMILES Cc1ccccc1NC(=O)C[NH+]1CCC(CC(=O)NCCCCNC(=O)c2ccc(-c3c4nc(c(-c5ccc(S(=O)(=O)[O-])cc5)c5ccc([nH]5)c(-c5ccc(S(=O)(=O)[O-])cc5)c5nc(c(-c6ccc(S(=O)(=O)[O-])cc6)c6ccc3[nH]6)C=C5)C=C4)cc2)CC1
REMARK SMILES IDX 21 1 20 2 19 3 17 4 18 5 16 7 15 8 12 9 13 10 88 11 14 13
REMARK SMILES IDX 87 14 11 15 9 16 8 17 10 19 7 20 1 21 2 22 3 23 4 24 6 25
REMARK SMILES IDX 5 26 22 27 23 28 24 29 25 30 26 32 27 33 28 34 86 35 29 36
REMARK SMILES IDX 85 37 30 38 31 39 32 40 79 41 33 42 84 43 78 44 80 45 34 46
REMARK SMILES IDX 83 47 77 48 76 49 35 51 65 52 46 53 64 54 47 55 50 56 63 57
REMARK SMILES IDX 81 58 48 59 49 60 62 62 82 63 51 64 36 65 37 66 45 67 38 68
REMARK SMILES IDX 44 69 39 70 40 71 41 72 42 73 43 74 66 75 67 76 75 77 68 78
REMARK SMILES IDX 74 79 69 80 70 81 71 82 72 83 73 84 52 85 53 86 61 87 54 88
REMARK SMILES IDX 60 89 55 90 56 91 57 92 58 93 59 94
REMARK H PARENT 19 6 12 12 8 18 24 31 80 50 50 61
REMARK Flexibility Score: inf
ROOT
ATOM      1  C   UNL A   1      37.168  21.833  24.999  1.00  0.00     0.023 C 
ENDROOT
BRANCH   1   2
ATOM      2  C   UNL A   1      35.995  21.163  25.744  1.00  0.00     0.116 C 
BRANCH   2   3
ATOM      3  N   UNL A   1      34.819  20.870  24.925  1.00  0.00    -0.356 N 
ATOM      4  C   UNL A   1      33.875  21.688  24.372  1.00  0.00     0.220 C 
ATOM      5  O   UNL A   1      33.007  21.188  23.650  1.00  0.00    -0.275 OA
ATOM      6  H   UNL A   1      34.683  19.913  24.740  1.00  0.00     0.163 HD
BRANCH   4   7
ATOM      7  C   UNL A   1      33.853  23.173  24.683  1.00  0.00     0.104 C 
BRANCH   7   8
ATOM      8  C   UNL A   1      32.509  23.832  24.322  1.00  0.00     0.009 C 
ATOM      9  N   UNL A   1      31.001  26.322  23.889  1.00  0.00    -0.327 N 
ATOM     10  C   UNL A   1      30.796  25.569  25.120  1.00  0.00     0.262 C 
ATOM     11  C   UNL A   1      31.358  25.459  22.769  1.00  0.00     0.262 C 
ATOM     12  H   UNL A   1      31.830  26.906  24.008  1.00  0.00     0.348 HD
ATOM     13  C   UNL A   1      32.043  24.766  25.431  1.00  0.00     0.066 C 
ATOM     14  C   UNL A   1      32.632  24.650  23.033  1.00  0.00     0.066 C 
BRANCH   9  15
ATOM     15  C   UNL A   1      29.938  27.318  23.643  1.00  0.00     0.363 C 
BRANCH  15  16
ATOM     16  C   UNL A   1      30.394  28.663  23.048  1.00  0.00     0.279 C 
ATOM     17  N   UNL A   1      31.402  29.417  23.581  1.00  0.00    -0.321 N 
ATOM     18  H   UNL A   1      31.643  30.212  23.053  1.00  0.00     0.170 HD
ATOM     19  O   UNL A   1      29.897  29.087  21.996  1.00  0.00    -0.268 OA
BRANCH  17  20
ATOM     20  C   UNL A   1      32.145  29.245  24.752  1.00  0.00     0.044 A 
ATOM     21  C   UNL A   1      34.019  28.095  23.416  1.00  0.00     0.046 C 
ATOM     22  C   UNL A   1      33.377  28.564  24.695  1.00  0.00    -0.027 A 
ATOM     23  C   UNL A   1      34.028  28.248  25.901  1.00  0.00     0.005 A 
ATOM     24  C   UNL A   1      33.484  28.618  27.130  1.00  0.00     0.000 A 
ATOM     25  C   UNL A   1      31.658  29.694  25.986  1.00  0.00     0.026 A 
ATOM     26  C   UNL A   1      32.313  29.365  27.172  1.00  0.00     0.002 A 
ENDBRANCH  17  20
ENDBRANCH  15  16
ENDBRANCH   9  15
ENDBRANCH   7   8
ENDBRANCH   4   7
ENDBRANCH   2   3
ENDBRANCH   1   2
BRANCH   1  27
ATOM     27  C   UNL A   1      38.512  21.820  25.720  1.00  0.00     0.023 C 
BRANCH  27  28
ATOM     28  C   UNL A   1      38.980  23.231  26.001  1.00  0.00     0.116 C 
BRANCH  28  29
ATOM     29  N   UNL A   1      40.342  23.354  26.507  1.00  0.00    -0.352 N 
ATOM     30  C   UNL A   1      41.001  24.534  26.861  1.00  0.00     0.251 C 
ATOM     31  H   UNL A   1      40.851  22.517  26.609  1.00  0.00     0.163 HD
ATOM     32  O   UNL A   1      42.175  24.621  27.099  1.00  0.00    -0.269 OA
BRANCH  30  33
ATOM     33  C   UNL A   1      40.109  25.700  27.082  1.00  0.00     0.039 A 
ATOM     34  C   UNL A   1      40.558  26.901  26.520  1.00  0.00     0.014 A 
ATOM     35  C   UNL A   1      39.251  25.679  28.178  1.00  0.00     0.014 A 
ATOM     36  C   UNL A   1      40.360  28.079  27.224  1.00  0.00     0.010 A 
ATOM     37  C   UNL A   1      39.161  26.832  28.935  1.00  0.00     0.010 A 
ATOM     38  C   UNL A   1      39.780  28.009  28.492  1.00  0.00    -0.014 A 
BRANCH  38  39
ATOM     39  C   UNL A   1      39.878  29.119  29.434  1.00  0.00     0.031 A 
ATOM     40  C   UNL A   1      38.814  30.139  29.411  1.00  0.00     0.074 A 
ATOM     41  C   UNL A   1      40.961  29.291  30.228  1.00  0.00     0.049 A 
ATOM     42  N   UNL A   1      39.019  31.408  29.523  1.00  0.00    -0.248 NA
ATOM     43  C   UNL A   1      37.420  29.789  29.162  1.00  0.00     0.031 C 
ATOM     44  C   UNL A   1      41.138  30.334  31.238  1.00  0.00     0.029 A 
ATOM     45  N   UNL A   1      42.228  28.710  30.116  1.00  0.00    -0.354 N 
ATOM     46  C   UNL A   1      37.783  32.005  29.632  1.00  0.00     0.074 A 
ATOM     47  C   UNL A   1      36.828  30.974  29.301  1.00  0.00     0.031 C 
ATOM     48  C   UNL A   1      42.454  30.543  31.403  1.00  0.00     0.029 A 
ATOM     49  C   UNL A   1      43.161  29.703  30.450  1.00  0.00     0.049 A 
ATOM     50  H   UNL A   1      42.427  27.781  29.855  1.00  0.00     0.167 HD
ATOM     51  C   UNL A   1      37.666  33.261  30.146  1.00  0.00     0.031 A 
ATOM     52  C   UNL A   1      44.170  30.108  29.630  1.00  0.00     0.031 A 
ATOM     53  C   UNL A   1      38.968  33.829  30.484  1.00  0.00     0.049 A 
ATOM     54  C   UNL A   1      44.078  31.579  29.275  1.00  0.00     0.074 A 
ATOM     55  C   UNL A   1      39.664  33.924  31.677  1.00  0.00     0.029 A 
ATOM     56  N   UNL A   1      39.884  34.102  29.473  1.00  0.00    -0.354 N 
ATOM     57  N   UNL A   1      43.029  32.320  29.512  1.00  0.00    -0.248 NA
ATOM     58  C   UNL A   1      45.134  32.322  28.592  1.00  0.00     0.031 C 
ATOM     59  C   UNL A   1      41.027  34.171  31.374  1.00  0.00     0.029 A 
ATOM     60  C   UNL A   1      41.153  34.266  30.000  1.00  0.00     0.049 A 
ATOM     61  H   UNL A   1      39.661  34.170  28.516  1.00  0.00     0.167 HD
ATOM     62  C   UNL A   1      43.237  33.589  29.034  1.00  0.00     0.074 A 
ATOM     63  C   UNL A   1      44.578  33.542  28.479  1.00  0.00     0.031 C 
ATOM     64  C   UNL A   1      42.285  34.567  29.130  1.00  0.00     0.031 A 
BRANCH  51  65
ATOM     65  C   UNL A   1      36.338  33.760  30.672  1.00  0.00    -0.014 A 
ATOM     66  C   UNL A   1      35.312  34.108  29.772  1.00  0.00     0.010 A 
ATOM     67  C   UNL A   1      36.080  34.004  32.035  1.00  0.00     0.010 A 
ATOM     68  C   UNL A   1      34.162  34.794  30.192  1.00  0.00     0.020 A 
ATOM     69  C   UNL A   1      34.965  34.740  32.464  1.00  0.00     0.020 A 
ATOM     70  C   UNL A   1      34.016  35.145  31.532  1.00  0.00     0.054 A 
BRANCH  70  71
ATOM     71  S   UNL A   1      32.596  36.152  32.036  1.00  0.00     0.124 S 
ATOM     72  O   UNL A   1      33.164  37.006  33.077  1.00  0.00    -0.237 OA
ATOM     73  O   UNL A   1      32.238  36.828  30.792  1.00  0.00    -0.237 OA
ATOM     74  O   UNL A   1      31.626  35.169  32.512  1.00  0.00    -0.744 OA
ENDBRANCH  70  71
ENDBRANCH  51  65
BRANCH  52  75
ATOM     75  C   UNL A   1      44.765  29.036  28.786  1.00  0.00    -0.014 A 
ATOM     76  C   UNL A   1      44.064  28.674  27.615  1.00  0.00     0.010 A 
ATOM     77  C   UNL A   1      46.117  28.673  28.902  1.00  0.00     0.010 A 
ATOM     78  C   UNL A   1      44.728  28.093  26.530  1.00  0.00     0.020 A 
ATOM     79  C   UNL A   1      46.789  28.100  27.809  1.00  0.00     0.020 A 
ATOM     80  C   UNL A   1      46.102  27.871  26.612  1.00  0.00     0.054 A 
BRANCH  80  81
ATOM     81  S   UNL A   1      46.996  27.355  25.113  1.00  0.00     0.124 S 
ATOM     82  O   UNL A   1      46.106  27.799  24.044  1.00  0.00    -0.237 OA
ATOM     83  O   UNL A   1      48.249  28.101  25.237  1.00  0.00    -0.237 OA
ATOM     84  O   UNL A   1      47.101  25.909  25.275  1.00  0.00    -0.744 OA
ENDBRANCH  80  81
ENDBRANCH  52  75
BRANCH  64  85
ATOM     85  C   UNL A   1      42.339  35.942  28.499  1.00  0.00    -0.014 A 
ATOM     86  C   UNL A   1      41.555  36.355  27.411  1.00  0.00     0.010 A 
ATOM     87  C   UNL A   1      43.144  36.936  29.113  1.00  0.00     0.010 A 
ATOM     88  C   UNL A   1      41.606  37.675  26.933  1.00  0.00     0.020 A 
ATOM     89  C   UNL A   1      43.168  38.262  28.675  1.00  0.00     0.020 A 
ATOM     90  C   UNL A   1      42.412  38.620  27.568  1.00  0.00     0.054 A 
BRANCH  90  91
ATOM     91  S   UNL A   1      42.406  40.341  27.004  1.00  0.00     0.124 S 
ATOM     92  O   UNL A   1      42.588  41.069  28.257  1.00  0.00    -0.237 OA
ATOM     93  O   UNL A   1      43.539  40.389  26.082  1.00  0.00    -0.237 OA
ATOM     94  O   UNL A   1      41.096  40.489  26.376  1.00  0.00    -0.744 OA
ENDBRANCH  90  91
ENDBRANCH  64  85
ENDBRANCH  38  39
ENDBRANCH  30  33
ENDBRANCH  28  29
ENDBRANCH  27  28
ENDBRANCH   1  27
TORSDOF 18
ENDMDL
MODEL 2
REMARK VINA RESULT:     -12.5      0.988      2.021
REMARK SMILES Cc1ccccc1NC(=O)C[NH+]1CCC(CC(=O)NCCCCNC(=O)c2ccc(-c3c4nc(c(-c5ccc(S(=O)(=O)[O-])cc5)c5ccc([nH]5)c(-c5ccc(S(=O)(=O)[O-])cc5)c5nc(c(-c6ccc(S(=O)(=O)[O-])cc6)c6ccc3[nH]6)C=C5)C=C4)cc2)CC1
REMARK SMILES IDX 21 1 20 2 19 3 17 4 18 5 16 7 15 8 12 9 13 10 88 11 14 13
REMARK SMILES IDX 87 14 11 15 9 16 8 17 10 19 7 20 1 21 2 22 3 23 4 24 6 25
REMARK SMILES IDX 5 26 22 27 23 28 24 29 25 30 26 32 27 33 28 34 86 35 29 36
REMARK SMILES IDX 85 37 30 38 31 39 32 40 79 41 33 42 84 43 78 44 80 45 34 46
REMARK SMILES IDX 83 47 77 48 76 49 35 51 65 52 46 53 64 54 47 55 50 56 63 57
REMARK SMILES IDX 81 58 48 59 49 60 62 62 82 63 51 64 36 65 37 66 45 67 38 68
REMARK SMILES IDX 44 69 39 70 40 71 41 72 42 73 43 74 66 75 67 76 75 77 68 78
REMARK SMILES IDX 74 79 69 80 70 81 71 82 72 83 73 84 52 85 53 86 61 87 54 88
REMARK SMILES IDX 60 89 55 90 56 91 57 92 58 93 59 94
REMARK H PARENT 19 6 12 12 8 18 24 31 80 50 50 61
REMARK Flexibility Score: inf
ROOT
ATOM      1  C   UNL A   1      37.489  21.726  24.994  1.00  0.00     0.023 C 
ENDROOT
BRANCH   1   2
ATOM      2  C   UNL A   1      36.102  21.938  25.634  1.00  0.00     0.116 C 
BRANCH   2   3
ATOM      3  N   UNL A   1      34.979  21.975  24.697  1.00  0.00    -0.356 N 
ATOM      4  C   UNL A   1      33.728  22.509  24.806  1.00  0.00     0.220 C 
ATOM      5  O   UNL A   1      32.978  22.468  23.826  1.00  0.00    -0.275 OA
ATOM      6  H   UNL A   1      35.158  21.536  23.834  1.00  0.00     0.163 HD
BRANCH   4   7
ATOM      7  C   UNL A   1      33.241  23.090  26.121  1.00  0.00     0.104 C 
BRANCH   7   8
ATOM      8  C   UNL A   1      33.302  24.628  26.146  1.00  0.00     0.009 C 
ATOM      9  N   UNL A   1      32.401  27.169  24.964  1.00  0.00    -0.327 N 
ATOM     10  C   UNL A   1      33.748  26.688  24.681  1.00  0.00     0.262 C 
ATOM     11  C   UNL A   1      31.932  26.748  26.278  1.00  0.00     0.262 C 
ATOM     12  H   UNL A   1      31.757  26.704  24.325  1.00  0.00     0.348 HD
ATOM     13  C   UNL A   1      33.780  25.178  24.809  1.00  0.00     0.066 C 
ATOM     14  C   UNL A   1      31.920  25.224  26.438  1.00  0.00     0.066 C 
BRANCH   9  15
ATOM     15  C   UNL A   1      32.220  28.595  24.624  1.00  0.00     0.363 C 
BRANCH  15  16
ATOM     16  C   UNL A   1      32.293  28.948  23.126  1.00  0.00     0.279 C 
ATOM     17  N   UNL A   1      31.191  29.058  22.325  1.00  0.00    -0.321 N 
ATOM     18  H   UNL A   1      31.377  29.368  21.410  1.00  0.00     0.170 HD
ATOM     19  O   UNL A   1      33.378  29.220  22.596  1.00  0.00    -0.268 OA
BRANCH  17  20
ATOM     20  C   UNL A   1      29.842  28.802  22.592  1.00  0.00     0.044 A 
ATOM     21  C   UNL A   1      29.215  31.163  21.785  1.00  0.00     0.046 C 
ATOM     22  C   UNL A   1      28.892  29.822  22.390  1.00  0.00    -0.027 A 
ATOM     23  C   UNL A   1      27.572  29.608  22.823  1.00  0.00     0.005 A 
ATOM     24  C   UNL A   1      27.198  28.406  23.422  1.00  0.00     0.000 A 
ATOM     25  C   UNL A   1      29.433  27.566  23.107  1.00  0.00     0.026 A 
ATOM     26  C   UNL A   1      28.122  27.375  23.540  1.00  0.00     0.002 A 
ENDBRANCH  17  20
ENDBRANCH  15  16
ENDBRANCH   9  15
ENDBRANCH   7   8
ENDBRANCH   4   7
ENDBRANCH   2   3
ENDBRANCH   1   2
BRANCH   1  27
ATOM     27  C   UNL A   1      38.678  21.755  25.950  1.00  0.00     0.023 C 
BRANCH  27  28
ATOM     28  C   UNL A   1      39.038  23.180  26.309  1.00  0.00     0.116 C 
BRANCH  28  29
ATOM     29  N   UNL A   1      40.445  23.419  26.605  1.00  0.00    -0.352 N 
ATOM     30  C   UNL A   1      41.053  24.653  26.848  1.00  0.00     0.251 C 
ATOM     31  H   UNL A   1      41.029  22.627  26.638  1.00  0.00     0.163 HD
ATOM     32  O   UNL A   1      42.239  24.836  26.908  1.00  0.00    -0.269 OA
BRANCH  30  33
ATOM     33  C   UNL A   1      40.113  25.751  27.190  1.00  0.00     0.039 A 
ATOM     34  C   UNL A   1      40.410  26.986  26.603  1.00  0.00     0.014 A 
ATOM     35  C   UNL A   1      39.389  25.657  28.376  1.00  0.00     0.014 A 
ATOM     36  C   UNL A   1      40.212  28.140  27.346  1.00  0.00     0.010 A 
ATOM     37  C   UNL A   1      39.306  26.794  29.159  1.00  0.00     0.010 A 
ATOM     38  C   UNL A   1      39.787  28.016  28.670  1.00  0.00    -0.014 A 
BRANCH  38  39
ATOM     39  C   UNL A   1      39.915  29.120  29.615  1.00  0.00     0.031 A 
ATOM     40  C   UNL A   1      38.865  30.156  29.611  1.00  0.00     0.074 A 
ATOM     41  C   UNL A   1      41.012  29.274  30.394  1.00  0.00     0.049 A 
ATOM     42  N   UNL A   1      39.090  31.421  29.724  1.00  0.00    -0.248 NA
ATOM     43  C   UNL A   1      37.463  29.827  29.381  1.00  0.00     0.031 C 
ATOM     44  C   UNL A   1      41.218  30.309  31.405  1.00  0.00     0.029 A 
ATOM     45  N   UNL A   1      42.267  28.674  30.262  1.00  0.00    -0.354 N 
ATOM     46  C   UNL A   1      37.865  32.036  29.854  1.00  0.00     0.074 A 
ATOM     47  C   UNL A   1      36.890  31.020  29.533  1.00  0.00     0.031 C 
ATOM     48  C   UNL A   1      42.538  30.499  31.552  1.00  0.00     0.029 A 
ATOM     49  C   UNL A   1      43.220  29.653  30.586  1.00  0.00     0.049 A 
ATOM     50  H   UNL A   1      42.450  27.744  29.994  1.00  0.00     0.167 HD
ATOM     51  C   UNL A   1      37.773  33.291  30.375  1.00  0.00     0.031 A 
ATOM     52  C   UNL A   1      44.223  30.046  29.754  1.00  0.00     0.031 A 
ATOM     53  C   UNL A   1      39.088  33.839  30.696  1.00  0.00     0.049 A 
ATOM     54  C   UNL A   1      44.147  31.520  29.406  1.00  0.00     0.074 A 
ATOM     55  C   UNL A   1      39.803  33.918  31.879  1.00  0.00     0.029 A 
ATOM     56  N   UNL A   1      39.994  34.103  29.673  1.00  0.00    -0.354 N 
ATOM     57  N   UNL A   1      43.112  32.275  29.660  1.00  0.00    -0.248 NA
ATOM     58  C   UNL A   1      45.204  32.250  28.711  1.00  0.00     0.031 C 
ATOM     59  C   UNL A   1      41.165  34.147  31.558  1.00  0.00     0.029 A 
ATOM     60  C   UNL A   1      41.273  34.246  30.182  1.00  0.00     0.049 A 
ATOM     61  H   UNL A   1      39.758  34.177  28.720  1.00  0.00     0.167 HD
ATOM     62  C   UNL A   1      43.332  33.543  29.184  1.00  0.00     0.074 A 
ATOM     63  C   UNL A   1      44.665  33.478  28.610  1.00  0.00     0.031 C 
ATOM     64  C   UNL A   1      42.397  34.534  29.297  1.00  0.00     0.031 A 
BRANCH  51  65
ATOM     65  C   UNL A   1      36.460  33.808  30.921  1.00  0.00    -0.014 A 
ATOM     66  C   UNL A   1      35.378  34.036  30.050  1.00  0.00     0.010 A 
ATOM     67  C   UNL A   1      36.268  34.182  32.265  1.00  0.00     0.010 A 
ATOM     68  C   UNL A   1      34.232  34.732  30.462  1.00  0.00     0.020 A 
ATOM     69  C   UNL A   1      35.155  34.929  32.680  1.00  0.00     0.020 A 
ATOM     70  C   UNL A   1      34.146  35.213  31.767  1.00  0.00     0.054 A 
BRANCH  70  71
ATOM     71  S   UNL A   1      32.725  36.231  32.246  1.00  0.00     0.124 S 
ATOM     72  O   UNL A   1      31.700  35.230  32.538  1.00  0.00    -0.237 OA
ATOM     73  O   UNL A   1      33.241  36.960  33.401  1.00  0.00    -0.237 OA
ATOM     74  O   UNL A   1      32.466  37.044  31.060  1.00  0.00    -0.744 OA
ENDBRANCH  70  71
ENDBRANCH  51  65
BRANCH  52  75
ATOM     75  C   UNL A   1      44.790  28.969  28.897  1.00  0.00    -0.014 A 
ATOM     76  C   UNL A   1      44.007  28.532  27.807  1.00  0.00     0.010 A 
ATOM     77  C   UNL A   1      46.162  28.669  28.903  1.00  0.00     0.010 A 
ATOM     78  C   UNL A   1      44.598  27.939  26.688  1.00  0.00     0.020 A 
ATOM     79  C   UNL A   1      46.761  28.084  27.775  1.00  0.00     0.020 A 
ATOM     80  C   UNL A   1      45.983  27.780  26.653  1.00  0.00     0.054 A 
BRANCH  80  81
ATOM     81  S   UNL A   1      46.763  27.246  25.099  1.00  0.00     0.124 S 
ATOM     82  O   UNL A   1      45.895  26.155  24.665  1.00  0.00    -0.237 OA
ATOM     83  O   UNL A   1      46.692  28.464  24.291  1.00  0.00    -0.237 OA
ATOM     84  O   UNL A   1      48.100  26.845  25.523  1.00  0.00    -0.744 OA
ENDBRANCH  80  81
ENDBRANCH  52  75
BRANCH  64  85
ATOM     85  C   UNL A   1      42.462  35.911  28.671  1.00  0.00    -0.014 A 
ATOM     86  C   UNL A   1      41.766  36.298  27.516  1.00  0.00     0.010 A 
ATOM     87  C   UNL A   1      43.174  36.930  29.354  1.00  0.00     0.010 A 
ATOM     88  C   UNL A   1      41.816  37.619  27.041  1.00  0.00     0.020 A 
ATOM     89  C   UNL A   1      43.193  38.257  28.917  1.00  0.00     0.020 A 
ATOM     90  C   UNL A   1      42.529  38.591  27.745  1.00  0.00     0.054 A 
BRANCH  90  91
ATOM     91  S   UNL A   1      42.517  40.311  27.179  1.00  0.00     0.124 S 
ATOM     92  O   UNL A   1      41.103  40.519  26.879  1.00  0.00    -0.237 OA
ATOM     93  O   UNL A   1      43.026  41.043  28.336  1.00  0.00    -0.237 OA
ATOM     94  O   UNL A   1      43.409  40.294  26.022  1.00  0.00    -0.744 OA
ENDBRANCH  90  91
ENDBRANCH  64  85
ENDBRANCH  38  39
ENDBRANCH  30  33
ENDBRANCH  28  29
ENDBRANCH  27  28
ENDBRANCH   1  27
TORSDOF 18
ENDMDL
MODEL 3
REMARK VINA RESULT:     -12.4      4.598     11.456
REMARK SMILES Cc1ccccc1NC(=O)C[NH+]1CCC(CC(=O)NCCCCNC(=O)c2ccc(-c3c4nc(c(-c5ccc(S(=O)(=O)[O-])cc5)c5ccc([nH]5)c(-c5ccc(S(=O)(=O)[O-])cc5)c5nc(c(-c6ccc(S(=O)(=O)[O-])cc6)c6ccc3[nH]6)C=C5)C=C4)cc2)CC1
REMARK SMILES IDX 21 1 20 2 19 3 17 4 18 5 16 7 15 8 12 9 13 10 88 11 14 13
REMARK SMILES IDX 87 14 11 15 9 16 8 17 10 19 7 20 1 21 2 22 3 23 4 24 6 25
REMARK SMILES IDX 5 26 22 27 23 28 24 29 25 30 26 32 27 33 28 34 86 35 29 36
REMARK SMILES IDX 85 37 30 38 31 39 32 40 79 41 33 42 84 43 78 44 80 45 34 46
REMARK SMILES IDX 83 47 77 48 76 49 35 51 65 52 46 53 64 54 47 55 50 56 63 57
REMARK SMILES IDX 81 58 48 59 49 60 62 62 82 63 51 64 36 65 37 66 45 67 38 68
REMARK SMILES IDX 44 69 39 70 40 71 41 72 42 73 43 74 66 75 67 76 75 77 68 78
REMARK SMILES IDX 74 79 69 80 70 81 71 82 72 83 73 84 52 85 53 86 61 87 54 88
REMARK SMILES IDX 60 89 55 90 56 91 57 92 58 93 59 94
REMARK H PARENT 19 6 12 12 8 18 24 31 80 50 50 61
REMARK Flexibility Score: inf
ROOT
ATOM      1  C   UNL A   1      32.890  30.695  27.358  1.00  0.00     0.023 C 
ENDROOT
BRANCH   1   2
ATOM      2  C   UNL A   1      31.923  30.031  26.358  1.00  0.00     0.116 C 
BRANCH   2   3
ATOM      3  N   UNL A   1      32.457  29.829  25.011  1.00  0.00    -0.356 N 
ATOM      4  C   UNL A   1      32.755  28.691  24.317  1.00  0.00     0.220 C 
ATOM      5  O   UNL A   1      33.134  28.793  23.146  1.00  0.00    -0.275 OA
ATOM      6  H   UNL A   1      32.634  30.662  24.517  1.00  0.00     0.163 HD
BRANCH   4   7
ATOM      7  C   UNL A   1      32.681  27.331  24.985  1.00  0.00     0.104 C 
BRANCH   7   8
ATOM      8  C   UNL A   1      33.769  26.366  24.481  1.00  0.00     0.009 C 
ATOM      9  N   UNL A   1      34.766  23.600  24.342  1.00  0.00    -0.327 N 
ATOM     10  C   UNL A   1      35.411  24.546  25.243  1.00  0.00     0.262 C 
ATOM     11  C   UNL A   1      34.209  24.254  23.164  1.00  0.00     0.262 C 
ATOM     12  H   UNL A   1      33.942  23.224  24.813  1.00  0.00     0.348 HD
ATOM     13  C   UNL A   1      34.419  25.620  25.639  1.00  0.00     0.066 C 
ATOM     14  C   UNL A   1      33.176  25.329  23.521  1.00  0.00     0.066 C 
BRANCH   9  15
ATOM     15  C   UNL A   1      35.580  22.390  24.103  1.00  0.00     0.363 C 
BRANCH  15  16
ATOM     16  C   UNL A   1      35.487  21.289  25.174  1.00  0.00     0.279 C 
ATOM     17  N   UNL A   1      34.373  21.074  25.936  1.00  0.00    -0.321 N 
ATOM     18  H   UNL A   1      34.422  20.286  26.524  1.00  0.00     0.170 HD
ATOM     19  O   UNL A   1      36.420  20.491  25.341  1.00  0.00    -0.268 OA
BRANCH  17  20
ATOM     20  C   UNL A   1      33.174  21.789  26.018  1.00  0.00     0.044 A 
ATOM     21  C   UNL A   1      32.330  20.659  23.867  1.00  0.00     0.046 C 
ATOM     22  C   UNL A   1      32.210  21.640  25.002  1.00  0.00    -0.027 A 
ATOM     23  C   UNL A   1      31.090  22.491  25.007  1.00  0.00     0.005 A 
ATOM     24  C   UNL A   1      30.919  23.449  26.006  1.00  0.00     0.000 A 
ATOM     25  C   UNL A   1      32.943  22.688  27.066  1.00  0.00     0.026 A 
ATOM     26  C   UNL A   1      31.832  23.530  27.050  1.00  0.00     0.002 A 
ENDBRANCH  17  20
ENDBRANCH  15  16
ENDBRANCH   9  15
ENDBRANCH   7   8
ENDBRANCH   4   7
ENDBRANCH   2   3
ENDBRANCH   1   2
BRANCH   1  27
ATOM     27  C   UNL A   1      34.227  29.989  27.565  1.00  0.00     0.023 C 
BRANCH  27  28
ATOM     28  C   UNL A   1      35.374  30.964  27.413  1.00  0.00     0.116 C 
BRANCH  28  29
ATOM     29  N   UNL A   1      35.906  31.510  28.656  1.00  0.00    -0.352 N 
ATOM     30  C   UNL A   1      36.696  30.842  29.594  1.00  0.00     0.251 C 
ATOM     31  H   UNL A   1      35.684  32.449  28.855  1.00  0.00     0.163 HD
ATOM     32  O   UNL A   1      36.965  31.259  30.688  1.00  0.00    -0.269 OA
BRANCH  30  33
ATOM     33  C   UNL A   1      37.339  29.601  29.093  1.00  0.00     0.039 A 
ATOM     34  C   UNL A   1      37.683  28.674  30.083  1.00  0.00     0.014 A 
ATOM     35  C   UNL A   1      37.999  29.645  27.868  1.00  0.00     0.014 A 
ATOM     36  C   UNL A   1      38.868  27.967  29.949  1.00  0.00     0.010 A 
ATOM     37  C   UNL A   1      39.236  29.032  27.793  1.00  0.00     0.010 A 
ATOM     38  C   UNL A   1      39.699  28.258  28.864  1.00  0.00    -0.014 A 
BRANCH  38  39
ATOM     39  C   UNL A   1      41.099  27.848  28.850  1.00  0.00     0.031 A 
ATOM     40  C   UNL A   1      41.413  26.483  28.389  1.00  0.00     0.074 A 
ATOM     41  C   UNL A   1      42.081  28.634  29.351  1.00  0.00     0.049 A 
ATOM     42  N   UNL A   1      42.288  25.712  28.941  1.00  0.00    -0.248 NA
ATOM     43  C   UNL A   1      40.675  25.850  27.303  1.00  0.00     0.031 C 
ATOM     44  C   UNL A   1      43.514  28.344  29.340  1.00  0.00     0.029 A 
ATOM     45  N   UNL A   1      41.966  29.743  30.194  1.00  0.00    -0.354 N 
ATOM     46  C   UNL A   1      42.417  24.607  28.128  1.00  0.00     0.074 A 
ATOM     47  C   UNL A   1      41.326  24.694  27.186  1.00  0.00     0.031 C 
ATOM     48  C   UNL A   1      44.086  29.004  30.358  1.00  0.00     0.029 A 
ATOM     49  C   UNL A   1      43.032  29.672  31.104  1.00  0.00     0.049 A 
ATOM     50  H   UNL A   1      41.273  30.441  30.156  1.00  0.00     0.167 HD
ATOM     51  C   UNL A   1      43.518  23.810  28.216  1.00  0.00     0.031 A 
ATOM     52  C   UNL A   1      42.881  29.651  32.457  1.00  0.00     0.031 A 
ATOM     53  C   UNL A   1      44.430  24.263  29.262  1.00  0.00     0.049 A 
ATOM     54  C   UNL A   1      43.439  28.390  33.086  1.00  0.00     0.074 A 
ATOM     55  C   UNL A   1      45.581  25.032  29.228  1.00  0.00     0.029 A 
ATOM     56  N   UNL A   1      44.030  24.215  30.594  1.00  0.00    -0.354 N 
ATOM     57  N   UNL A   1      43.796  27.334  32.405  1.00  0.00    -0.248 NA
ATOM     58  C   UNL A   1      43.601  28.199  34.525  1.00  0.00     0.031 C 
ATOM     59  C   UNL A   1      45.825  25.520  30.538  1.00  0.00     0.029 A 
ATOM     60  C   UNL A   1      44.846  25.016  31.375  1.00  0.00     0.049 A 
ATOM     61  H   UNL A   1      43.273  23.685  30.934  1.00  0.00     0.167 HD
ATOM     62  C   UNL A   1      44.215  26.347  33.262  1.00  0.00     0.074 A 
ATOM     63  C   UNL A   1      44.087  26.945  34.579  1.00  0.00     0.031 C 
ATOM     64  C   UNL A   1      44.625  25.122  32.813  1.00  0.00     0.031 A 
BRANCH  51  65
ATOM     65  C   UNL A   1      43.890  22.878  27.084  1.00  0.00    -0.014 A 
ATOM     66  C   UNL A   1      42.979  21.894  26.656  1.00  0.00     0.010 A 
ATOM     67  C   UNL A   1      45.160  22.859  26.474  1.00  0.00     0.010 A 
ATOM     68  C   UNL A   1      43.360  20.863  25.784  1.00  0.00     0.020 A 
ATOM     69  C   UNL A   1      45.574  21.804  25.648  1.00  0.00     0.020 A 
ATOM     70  C   UNL A   1      44.671  20.799  25.319  1.00  0.00     0.054 A 
BRANCH  70  71
ATOM     71  S   UNL A   1      45.187  19.386  24.308  1.00  0.00     0.124 S 
ATOM     72  O   UNL A   1      44.473  19.613  23.054  1.00  0.00    -0.237 OA
ATOM     73  O   UNL A   1      46.636  19.560  24.249  1.00  0.00    -0.237 OA
ATOM     74  O   UNL A   1      44.729  18.228  25.073  1.00  0.00    -0.744 OA
ENDBRANCH  70  71
ENDBRANCH  51  65
BRANCH  52  75
ATOM     75  C   UNL A   1      41.749  30.466  32.977  1.00  0.00    -0.014 A 
ATOM     76  C   UNL A   1      42.034  31.791  33.369  1.00  0.00     0.010 A 
ATOM     77  C   UNL A   1      40.412  30.109  32.733  1.00  0.00     0.010 A 
ATOM     78  C   UNL A   1      41.036  32.770  33.379  1.00  0.00     0.020 A 
ATOM     79  C   UNL A   1      39.409  31.092  32.731  1.00  0.00     0.020 A 
ATOM     80  C   UNL A   1      39.741  32.425  32.994  1.00  0.00     0.054 A 
BRANCH  80  81
ATOM     81  S   UNL A   1      38.514  33.750  32.767  1.00  0.00     0.124 S 
ATOM     82  O   UNL A   1      39.055  34.829  33.588  1.00  0.00    -0.237 OA
ATOM     83  O   UNL A   1      38.573  33.970  31.321  1.00  0.00    -0.237 OA
ATOM     84  O   UNL A   1      37.282  33.147  33.265  1.00  0.00    -0.744 OA
ENDBRANCH  80  81
ENDBRANCH  52  75
BRANCH  64  85
ATOM     85  C   UNL A   1      44.949  23.913  33.664  1.00  0.00    -0.014 A 
ATOM     86  C   UNL A   1      44.060  22.862  33.934  1.00  0.00     0.010 A 
ATOM     87  C   UNL A   1      46.280  23.752  34.131  1.00  0.00     0.010 A 
ATOM     88  C   UNL A   1      44.462  21.734  34.669  1.00  0.00     0.020 A 
ATOM     89  C   UNL A   1      46.703  22.614  34.822  1.00  0.00     0.020 A 
ATOM     90  C   UNL A   1      45.781  21.617  35.108  1.00  0.00     0.054 A 
BRANCH  90  91
ATOM     91  S   UNL A   1      46.318  20.122  35.977  1.00  0.00     0.124 S 
ATOM     92  O   UNL A   1      45.732  19.068  35.153  1.00  0.00    -0.237 OA
ATOM     93  O   UNL A   1      47.775  20.217  35.928  1.00  0.00    -0.237 OA
ATOM     94  O   UNL A   1      45.737  20.275  37.308  1.00  0.00    -0.744 OA
ENDBRANCH  90  91
ENDBRANCH  64  85
ENDBRANCH  38  39
ENDBRANCH  30  33
ENDBRANCH  28  29
ENDBRANCH  27  28
ENDBRANCH   1  27
TORSDOF 18
ENDMDL
