MODEL 1
REMARK VINA RESULT:     -11.1      0.000      0.000
REMARK SMILES O=C(NCCCCNC(=O)[C@H]1C[C@@H]2CCCC[C@H]2N1C(=O)CN1CSCC1=O)c1ccc(-c2c3nc(c(-c4ccc(S(=O)(=O)[O-])cc4)c4ccc([nH]4)c(-c4ccc(S(=O)(=O)[O-])cc4)c4nc(c(-c5ccc(S(=O)(=O)[O-])cc5)c5ccc2[nH]5)C=C4)C=C3)cc1
REMARK SMILES IDX 5 1 4 2 3 3 1 4 2 5 29 7 30 8 88 9 31 10 87 11 32 12 33 13
REMARK SMILES IDX 34 14 81 15 35 16 86 17 80 18 82 19 36 20 85 21 79 22 78 23
REMARK SMILES IDX 37 25 67 26 48 27 66 28 49 29 52 30 65 31 83 32 50 33 51 34
REMARK SMILES IDX 64 36 84 37 53 38 38 39 39 40 47 41 40 42 46 43 41 44 42 45
REMARK SMILES IDX 43 46 44 47 45 48 68 49 69 50 77 51 70 52 76 53 71 54 72 55
REMARK SMILES IDX 73 56 74 57 75 58 54 59 55 60 63 61 56 62 62 63 57 64 58 65
REMARK SMILES IDX 59 66 60 67 61 68 6 69 7 70 8 71 9 72 10 74 11 75 12 76
REMARK SMILES IDX 19 77 13 78 18 79 14 80 17 81 15 82 16 83 20 84 21 85 22 86
REMARK SMILES IDX 23 87 24 88 27 89 25 90 26 91 28 92
REMARK H PARENT 3 6 82 24 52 35 8 73
REMARK Flexibility Score: inf
ROOT
ATOM      1  C   UNL A   1      32.573  28.084  26.268  1.00  0.00     0.023 C 
ENDROOT
BRANCH   1   2
ATOM      2  C   UNL A   1      33.674  28.518  27.224  1.00  0.00     0.116 C 
BRANCH   2   3
ATOM      3  N   UNL A   1      33.544  29.883  27.722  1.00  0.00    -0.352 N 
ATOM      4  O   UNL A   1      34.310  31.771  28.727  1.00  0.00    -0.269 OA
ATOM      5  C   UNL A   1      34.540  30.648  28.296  1.00  0.00     0.251 C 
ATOM      6  H   UNL A   1      32.657  30.302  27.642  1.00  0.00     0.163 HD
BRANCH   5   7
ATOM      7  C   UNL A   1      35.877  30.033  28.412  1.00  0.00     0.039 A 
ATOM      8  C   UNL A   1      36.289  29.549  29.654  1.00  0.00     0.014 A 
ATOM      9  C   UNL A   1      36.767  30.111  27.339  1.00  0.00     0.014 A 
ATOM     10  C   UNL A   1      37.637  29.314  29.873  1.00  0.00     0.010 A 
ATOM     11  C   UNL A   1      38.106  29.765  27.537  1.00  0.00     0.010 A 
ATOM     12  C   UNL A   1      38.560  29.401  28.815  1.00  0.00    -0.014 A 
BRANCH  12  13
ATOM     13  C   UNL A   1      39.972  29.016  29.065  1.00  0.00     0.031 A 
ATOM     14  C   UNL A   1      40.521  27.683  28.636  1.00  0.00     0.074 A 
ATOM     15  C   UNL A   1      40.770  29.923  29.665  1.00  0.00     0.049 A 
ATOM     16  N   UNL A   1      41.734  27.212  28.788  1.00  0.00    -0.248 NA
ATOM     17  C   UNL A   1      39.603  26.754  27.954  1.00  0.00     0.031 C 
ATOM     18  C   UNL A   1      40.338  31.248  30.127  1.00  0.00     0.029 A 
ATOM     19  N   UNL A   1      42.104  29.889  29.967  1.00  0.00    -0.354 N 
ATOM     20  C   UNL A   1      41.719  25.927  28.257  1.00  0.00     0.074 A 
ATOM     21  C   UNL A   1      40.375  25.687  27.778  1.00  0.00     0.031 C 
ATOM     22  C   UNL A   1      41.397  31.918  30.597  1.00  0.00     0.029 A 
ATOM     23  C   UNL A   1      42.560  31.043  30.557  1.00  0.00     0.049 A 
ATOM     24  H   UNL A   1      42.681  29.113  29.781  1.00  0.00     0.167 HD
ATOM     25  C   UNL A   1      42.736  25.034  28.184  1.00  0.00     0.031 A 
ATOM     26  C   UNL A   1      43.771  31.359  31.049  1.00  0.00     0.031 A 
ATOM     27  C   UNL A   1      44.075  25.294  28.652  1.00  0.00     0.049 A 
ATOM     28  C   UNL A   1      44.867  30.339  30.973  1.00  0.00     0.074 A 
ATOM     29  C   UNL A   1      45.184  24.468  28.584  1.00  0.00     0.029 A 
ATOM     30  N   UNL A   1      44.487  26.462  29.278  1.00  0.00    -0.354 N 
ATOM     31  N   UNL A   1      44.836  29.141  30.442  1.00  0.00    -0.248 NA
ATOM     32  C   UNL A   1      46.155  30.710  31.570  1.00  0.00     0.031 C 
ATOM     33  C   UNL A   1      46.251  25.113  29.218  1.00  0.00     0.029 A 
ATOM     34  C   UNL A   1      45.823  26.364  29.629  1.00  0.00     0.049 A 
ATOM     35  H   UNL A   1      43.914  27.243  29.447  1.00  0.00     0.167 HD
ATOM     36  C   UNL A   1      46.105  28.614  30.636  1.00  0.00     0.074 A 
ATOM     37  C   UNL A   1      46.886  29.636  31.303  1.00  0.00     0.031 C 
ATOM     38  C   UNL A   1      46.579  27.389  30.300  1.00  0.00     0.031 A 
BRANCH  25  39
ATOM     39  C   UNL A   1      42.455  23.671  27.604  1.00  0.00    -0.014 A 
ATOM     40  C   UNL A   1      42.794  23.354  26.277  1.00  0.00     0.010 A 
ATOM     41  C   UNL A   1      41.947  22.657  28.439  1.00  0.00     0.010 A 
ATOM     42  C   UNL A   1      42.617  22.052  25.794  1.00  0.00     0.020 A 
ATOM     43  C   UNL A   1      41.790  21.351  27.967  1.00  0.00     0.020 A 
ATOM     44  C   UNL A   1      42.121  21.057  26.643  1.00  0.00     0.054 A 
BRANCH  44  45
ATOM     45  S   UNL A   1      41.963  19.365  26.006  1.00  0.00     0.124 S 
ATOM     46  O   UNL A   1      40.522  19.258  25.790  1.00  0.00    -0.237 OA
ATOM     47  O   UNL A   1      42.778  19.401  24.795  1.00  0.00    -0.237 OA
ATOM     48  O   UNL A   1      42.493  18.537  27.087  1.00  0.00    -0.744 OA
ENDBRANCH  44  45
ENDBRANCH  25  39
BRANCH  26  49
ATOM     49  C   UNL A   1      43.981  32.676  31.707  1.00  0.00    -0.014 A 
ATOM     50  C   UNL A   1      43.796  32.831  33.089  1.00  0.00     0.010 A 
ATOM     51  C   UNL A   1      44.387  33.785  30.939  1.00  0.00     0.010 A 
ATOM     52  C   UNL A   1      43.988  34.077  33.692  1.00  0.00     0.020 A 
ATOM     53  C   UNL A   1      44.614  35.023  31.543  1.00  0.00     0.020 A 
ATOM     54  C   UNL A   1      44.394  35.165  32.913  1.00  0.00     0.054 A 
BRANCH  54  55
ATOM     55  S   UNL A   1      44.670  36.768  33.715  1.00  0.00     0.124 S 
ATOM     56  O   UNL A   1      44.373  37.700  32.632  1.00  0.00    -0.237 OA
ATOM     57  O   UNL A   1      43.707  36.744  34.813  1.00  0.00    -0.237 OA
ATOM     58  O   UNL A   1      46.071  36.707  34.124  1.00  0.00    -0.744 OA
ENDBRANCH  54  55
ENDBRANCH  26  49
BRANCH  38  59
ATOM     59  C   UNL A   1      48.016  27.104  30.637  1.00  0.00    -0.014 A 
ATOM     60  C   UNL A   1      49.047  27.417  29.735  1.00  0.00     0.010 A 
ATOM     61  C   UNL A   1      48.339  26.535  31.882  1.00  0.00     0.010 A 
ATOM     62  C   UNL A   1      50.376  27.131  30.056  1.00  0.00     0.020 A 
ATOM     63  C   UNL A   1      49.669  26.274  32.219  1.00  0.00     0.020 A 
ATOM     64  C   UNL A   1      50.678  26.559  31.296  1.00  0.00     0.054 A 
BRANCH  64  65
ATOM     65  S   UNL A   1      52.412  26.224  31.704  1.00  0.00     0.124 S 
ATOM     66  O   UNL A   1      52.747  27.358  32.560  1.00  0.00    -0.237 OA
ATOM     67  O   UNL A   1      52.338  24.928  32.375  1.00  0.00    -0.237 OA
ATOM     68  O   UNL A   1      53.076  26.207  30.403  1.00  0.00    -0.744 OA
ENDBRANCH  64  65
ENDBRANCH  38  59
ENDBRANCH  12  13
ENDBRANCH   5   7
ENDBRANCH   2   3
ENDBRANCH   1   2
BRANCH   1  69
ATOM     69  C   UNL A   1      31.536  27.161  26.897  1.00  0.00     0.023 C 
BRANCH  69  70
ATOM     70  C   UNL A   1      31.273  25.876  26.111  1.00  0.00     0.116 C 
BRANCH  70  71
ATOM     71  N   UNL A   1      31.695  24.720  26.863  1.00  0.00    -0.354 N 
ATOM     72  C   UNL A   1      32.482  23.671  26.495  1.00  0.00     0.242 C 
ATOM     73  H   UNL A   1      31.364  24.684  27.790  1.00  0.00     0.163 HD
ATOM     74  O   UNL A   1      32.723  22.849  27.386  1.00  0.00    -0.273 OA
BRANCH  72  75
ATOM     75  C   UNL A   1      33.206  23.606  25.114  1.00  0.00     0.175 C 
ATOM     76  C   UNL A   1      34.511  24.434  25.163  1.00  0.00     0.041 C 
ATOM     77  N   UNL A   1      33.649  22.267  24.637  1.00  0.00    -0.326 N 
ATOM     78  C   UNL A   1      35.516  23.378  25.592  1.00  0.00     0.014 C 
ATOM     79  C   UNL A   1      35.107  22.190  24.716  1.00  0.00     0.089 C 
ATOM     80  C   UNL A   1      36.990  23.686  25.382  1.00  0.00     0.006 C 
ATOM     81  C   UNL A   1      35.809  20.951  25.263  1.00  0.00     0.025 C 
ATOM     82  C   UNL A   1      37.835  22.459  25.749  1.00  0.00     0.000 C 
ATOM     83  C   UNL A   1      37.328  21.149  25.129  1.00  0.00     0.002 C 
BRANCH  77  84
ATOM     84  C   UNL A   1      33.008  21.692  23.530  1.00  0.00     0.243 C 
ATOM     85  O   UNL A   1      32.984  22.230  22.421  1.00  0.00    -0.273 OA
BRANCH  84  86
ATOM     86  C   UNL A   1      32.172  20.432  23.806  1.00  0.00     0.220 C 
BRANCH  86  87
ATOM     87  N   UNL A   1      32.835  19.165  24.049  1.00  0.00    -0.323 N 
ATOM     88  C   UNL A   1      33.102  18.297  22.931  1.00  0.00     0.190 C 
ATOM     89  C   UNL A   1      32.917  18.616  25.310  1.00  0.00     0.233 C 
ATOM     90  S   UNL A   1      33.450  16.660  23.573  1.00  0.00    -0.130 SA
ATOM     91  C   UNL A   1      33.369  17.178  25.296  1.00  0.00     0.171 C 
ATOM     92  O   UNL A   1      32.645  19.212  26.347  1.00  0.00    -0.274 OA
ENDBRANCH  86  87
ENDBRANCH  84  86
ENDBRANCH  77  84
ENDBRANCH  72  75
ENDBRANCH  70  71
ENDBRANCH  69  70
ENDBRANCH   1  69
TORSDOF 17
ENDMDL
MODEL 2
REMARK VINA RESULT:     -10.5      3.156      9.176
REMARK SMILES O=C(NCCCCNC(=O)[C@H]1C[C@@H]2CCCC[C@H]2N1C(=O)CN1CSCC1=O)c1ccc(-c2c3nc(c(-c4ccc(S(=O)(=O)[O-])cc4)c4ccc([nH]4)c(-c4ccc(S(=O)(=O)[O-])cc4)c4nc(c(-c5ccc(S(=O)(=O)[O-])cc5)c5ccc2[nH]5)C=C4)C=C3)cc1
REMARK SMILES IDX 5 1 4 2 3 3 1 4 2 5 29 7 30 8 88 9 31 10 87 11 32 12 33 13
REMARK SMILES IDX 34 14 81 15 35 16 86 17 80 18 82 19 36 20 85 21 79 22 78 23
REMARK SMILES IDX 37 25 67 26 48 27 66 28 49 29 52 30 65 31 83 32 50 33 51 34
REMARK SMILES IDX 64 36 84 37 53 38 38 39 39 40 47 41 40 42 46 43 41 44 42 45
REMARK SMILES IDX 43 46 44 47 45 48 68 49 69 50 77 51 70 52 76 53 71 54 72 55
REMARK SMILES IDX 73 56 74 57 75 58 54 59 55 60 63 61 56 62 62 63 57 64 58 65
REMARK SMILES IDX 59 66 60 67 61 68 6 69 7 70 8 71 9 72 10 74 11 75 12 76
REMARK SMILES IDX 19 77 13 78 18 79 14 80 17 81 15 82 16 83 20 84 21 85 22 86
REMARK SMILES IDX 23 87 24 88 27 89 25 90 26 91 28 92
REMARK H PARENT 3 6 82 24 52 35 8 73
REMARK Flexibility Score: inf
ROOT
ATOM      1  C   UNL A   1      34.018  29.486  26.799  1.00  0.00     0.023 C 
ENDROOT
BRANCH   1   2
ATOM      2  C   UNL A   1      35.355  29.589  27.517  1.00  0.00     0.116 C 
BRANCH   2   3
ATOM      3  N   UNL A   1      35.261  29.897  28.940  1.00  0.00    -0.352 N 
ATOM      4  O   UNL A   1      36.059  30.001  31.064  1.00  0.00    -0.269 OA
ATOM      5  C   UNL A   1      36.261  29.758  29.881  1.00  0.00     0.251 C 
ATOM      6  H   UNL A   1      34.395  30.238  29.263  1.00  0.00     0.163 HD
BRANCH   5   7
ATOM      7  C   UNL A   1      37.565  29.256  29.405  1.00  0.00     0.039 A 
ATOM      8  C   UNL A   1      38.418  28.629  30.314  1.00  0.00     0.014 A 
ATOM      9  C   UNL A   1      37.998  29.577  28.116  1.00  0.00     0.014 A 
ATOM     10  C   UNL A   1      39.759  28.487  29.994  1.00  0.00     0.010 A 
ATOM     11  C   UNL A   1      39.327  29.328  27.761  1.00  0.00     0.010 A 
ATOM     12  C   UNL A   1      40.227  28.817  28.710  1.00  0.00    -0.014 A 
BRANCH  12  13
ATOM     13  C   UNL A   1      41.644  28.529  28.371  1.00  0.00     0.031 A 
ATOM     14  C   UNL A   1      42.707  29.592  28.425  1.00  0.00     0.074 A 
ATOM     15  C   UNL A   1      41.962  27.260  28.044  1.00  0.00     0.049 A 
ATOM     16  N   UNL A   1      43.984  29.484  28.155  1.00  0.00    -0.248 NA
ATOM     17  C   UNL A   1      42.295  30.949  28.824  1.00  0.00     0.031 C 
ATOM     18  C   UNL A   1      41.007  26.149  27.956  1.00  0.00     0.029 A 
ATOM     19  N   UNL A   1      43.167  26.681  27.750  1.00  0.00    -0.354 N 
ATOM     20  C   UNL A   1      44.522  30.756  28.318  1.00  0.00     0.074 A 
ATOM     21  C   UNL A   1      43.432  31.625  28.708  1.00  0.00     0.031 C 
ATOM     22  C   UNL A   1      41.669  25.017  27.690  1.00  0.00     0.029 A 
ATOM     23  C   UNL A   1      43.077  25.333  27.497  1.00  0.00     0.049 A 
ATOM     24  H   UNL A   1      44.014  27.181  27.721  1.00  0.00     0.167 HD
ATOM     25  C   UNL A   1      45.807  31.154  28.150  1.00  0.00     0.031 A 
ATOM     26  C   UNL A   1      44.013  24.446  27.114  1.00  0.00     0.031 A 
ATOM     27  C   UNL A   1      46.884  30.272  27.776  1.00  0.00     0.049 A 
ATOM     28  C   UNL A   1      45.419  24.927  26.916  1.00  0.00     0.074 A 
ATOM     29  C   UNL A   1      48.227  30.574  27.623  1.00  0.00     0.029 A 
ATOM     30  N   UNL A   1      46.745  28.922  27.493  1.00  0.00    -0.354 N 
ATOM     31  N   UNL A   1      45.910  26.129  27.101  1.00  0.00    -0.248 NA
ATOM     32  C   UNL A   1      46.395  23.935  26.448  1.00  0.00     0.031 C 
ATOM     33  C   UNL A   1      48.890  29.420  27.192  1.00  0.00     0.029 A 
ATOM     34  C   UNL A   1      47.971  28.385  27.135  1.00  0.00     0.049 A 
ATOM     35  H   UNL A   1      45.901  28.419  27.540  1.00  0.00     0.167 HD
ATOM     36  C   UNL A   1      47.256  26.037  26.777  1.00  0.00     0.074 A 
ATOM     37  C   UNL A   1      47.507  24.656  26.416  1.00  0.00     0.031 C 
ATOM     38  C   UNL A   1      48.198  27.011  26.770  1.00  0.00     0.031 A 
BRANCH  25  39
ATOM     39  C   UNL A   1      46.135  32.614  28.337  1.00  0.00    -0.014 A 
ATOM     40  C   UNL A   1      46.038  33.530  27.275  1.00  0.00     0.010 A 
ATOM     41  C   UNL A   1      46.436  33.095  29.627  1.00  0.00     0.010 A 
ATOM     42  C   UNL A   1      46.248  34.896  27.497  1.00  0.00     0.020 A 
ATOM     43  C   UNL A   1      46.625  34.461  29.856  1.00  0.00     0.020 A 
ATOM     44  C   UNL A   1      46.536  35.354  28.787  1.00  0.00     0.054 A 
BRANCH  44  45
ATOM     45  S   UNL A   1      46.739  37.137  29.056  1.00  0.00     0.124 S 
ATOM     46  O   UNL A   1      45.381  37.631  28.838  1.00  0.00    -0.237 OA
ATOM     47  O   UNL A   1      47.217  37.202  30.433  1.00  0.00    -0.237 OA
ATOM     48  O   UNL A   1      47.714  37.532  28.041  1.00  0.00    -0.744 OA
ENDBRANCH  44  45
ENDBRANCH  25  39
BRANCH  26  49
ATOM     49  C   UNL A   1      43.629  23.037  26.840  1.00  0.00    -0.014 A 
ATOM     50  C   UNL A   1      44.054  22.387  25.671  1.00  0.00     0.010 A 
ATOM     51  C   UNL A   1      42.839  22.332  27.770  1.00  0.00     0.010 A 
ATOM     52  C   UNL A   1      43.676  21.064  25.423  1.00  0.00     0.020 A 
ATOM     53  C   UNL A   1      42.489  21.001  27.542  1.00  0.00     0.020 A 
ATOM     54  C   UNL A   1      42.895  20.381  26.360  1.00  0.00     0.054 A 
BRANCH  54  55
ATOM     55  S   UNL A   1      42.440  18.656  26.038  1.00  0.00     0.124 S 
ATOM     56  O   UNL A   1      42.783  18.014  27.303  1.00  0.00    -0.237 OA
ATOM     57  O   UNL A   1      41.012  18.752  25.742  1.00  0.00    -0.237 OA
ATOM     58  O   UNL A   1      43.280  18.289  24.900  1.00  0.00    -0.744 OA
ENDBRANCH  54  55
ENDBRANCH  26  49
BRANCH  38  59
ATOM     59  C   UNL A   1      49.590  26.603  26.374  1.00  0.00    -0.014 A 
ATOM     60  C   UNL A   1      50.421  25.904  27.267  1.00  0.00     0.010 A 
ATOM     61  C   UNL A   1      50.063  26.906  25.085  1.00  0.00     0.010 A 
ATOM     62  C   UNL A   1      51.717  25.546  26.890  1.00  0.00     0.020 A 
ATOM     63  C   UNL A   1      51.350  26.525  24.695  1.00  0.00     0.020 A 
ATOM     64  C   UNL A   1      52.173  25.861  25.607  1.00  0.00     0.054 A 
BRANCH  64  65
ATOM     65  S   UNL A   1      53.849  25.361  25.129  1.00  0.00     0.124 S 
ATOM     66  O   UNL A   1      54.669  26.073  26.106  1.00  0.00    -0.237 OA
ATOM     67  O   UNL A   1      53.806  23.909  25.283  1.00  0.00    -0.237 OA
ATOM     68  O   UNL A   1      53.971  25.832  23.751  1.00  0.00    -0.744 OA
ENDBRANCH  64  65
ENDBRANCH  38  59
ENDBRANCH  12  13
ENDBRANCH   5   7
ENDBRANCH   2   3
ENDBRANCH   1   2
BRANCH   1  69
ATOM     69  C   UNL A   1      33.634  28.065  26.406  1.00  0.00     0.023 C 
BRANCH  69  70
ATOM     70  C   UNL A   1      32.294  27.949  25.678  1.00  0.00     0.116 C 
BRANCH  70  71
ATOM     71  N   UNL A   1      31.450  26.966  26.311  1.00  0.00    -0.354 N 
ATOM     72  C   UNL A   1      30.541  26.109  25.770  1.00  0.00     0.242 C 
ATOM     73  H   UNL A   1      31.548  26.904  27.289  1.00  0.00     0.163 HD
ATOM     74  O   UNL A   1      30.006  25.329  26.567  1.00  0.00    -0.273 OA
BRANCH  72  75
ATOM     75  C   UNL A   1      30.333  25.964  24.231  1.00  0.00     0.175 C 
ATOM     76  C   UNL A   1      28.886  26.358  23.854  1.00  0.00     0.041 C 
ATOM     77  N   UNL A   1      31.177  26.812  23.345  1.00  0.00    -0.326 N 
ATOM     78  C   UNL A   1      29.050  27.841  23.560  1.00  0.00     0.014 C 
ATOM     79  C   UNL A   1      30.344  27.852  22.741  1.00  0.00     0.089 C 
ATOM     80  C   UNL A   1      27.941  28.526  22.777  1.00  0.00     0.006 C 
ATOM     81  C   UNL A   1      30.819  29.298  22.650  1.00  0.00     0.025 C 
ATOM     82  C   UNL A   1      28.345  29.975  22.467  1.00  0.00     0.000 C 
ATOM     83  C   UNL A   1      29.760  30.114  21.890  1.00  0.00     0.002 C 
BRANCH  77  84
ATOM     84  C   UNL A   1      32.162  26.202  22.553  1.00  0.00     0.243 C 
ATOM     85  O   UNL A   1      32.025  26.023  21.342  1.00  0.00    -0.273 OA
BRANCH  84  86
ATOM     86  C   UNL A   1      33.359  25.596  23.304  1.00  0.00     0.220 C 
BRANCH  86  87
ATOM     87  N   UNL A   1      33.320  24.209  23.724  1.00  0.00    -0.323 N 
ATOM     88  C   UNL A   1      32.914  23.207  22.771  1.00  0.00     0.190 C 
ATOM     89  C   UNL A   1      33.327  23.850  25.054  1.00  0.00     0.233 C 
ATOM     90  S   UNL A   1      32.490  21.720  23.679  1.00  0.00    -0.130 SA
ATOM     91  C   UNL A   1      32.980  22.400  25.274  1.00  0.00     0.171 C 
ATOM     92  O   UNL A   1      33.578  24.615  25.979  1.00  0.00    -0.274 OA
ENDBRANCH  86  87
ENDBRANCH  84  86
ENDBRANCH  77  84
ENDBRANCH  72  75
ENDBRANCH  70  71
ENDBRANCH  69  70
ENDBRANCH   1  69
TORSDOF 17
ENDMDL
MODEL 3
REMARK VINA RESULT:     -10.5      3.270      8.001
REMARK SMILES O=C(NCCCCNC(=O)[C@H]1C[C@@H]2CCCC[C@H]2N1C(=O)CN1CSCC1=O)c1ccc(-c2c3nc(c(-c4ccc(S(=O)(=O)[O-])cc4)c4ccc([nH]4)c(-c4ccc(S(=O)(=O)[O-])cc4)c4nc(c(-c5ccc(S(=O)(=O)[O-])cc5)c5ccc2[nH]5)C=C4)C=C3)cc1
REMARK SMILES IDX 5 1 4 2 3 3 1 4 2 5 29 7 30 8 88 9 31 10 87 11 32 12 33 13
REMARK SMILES IDX 34 14 81 15 35 16 86 17 80 18 82 19 36 20 85 21 79 22 78 23
REMARK SMILES IDX 37 25 67 26 48 27 66 28 49 29 52 30 65 31 83 32 50 33 51 34
REMARK SMILES IDX 64 36 84 37 53 38 38 39 39 40 47 41 40 42 46 43 41 44 42 45
REMARK SMILES IDX 43 46 44 47 45 48 68 49 69 50 77 51 70 52 76 53 71 54 72 55
REMARK SMILES IDX 73 56 74 57 75 58 54 59 55 60 63 61 56 62 62 63 57 64 58 65
REMARK SMILES IDX 59 66 60 67 61 68 6 69 7 70 8 71 9 72 10 74 11 75 12 76
REMARK SMILES IDX 19 77 13 78 18 79 14 80 17 81 15 82 16 83 20 84 21 85 22 86
REMARK SMILES IDX 23 87 24 88 27 89 25 90 26 91 28 92
REMARK H PARENT 3 6 82 24 52 35 8 73
REMARK Flexibility Score: inf
ROOT
ATOM      1  C   UNL A   1      38.332  19.299  25.292  1.00  0.00     0.023 C 
ENDROOT
BRANCH   1   2
ATOM      2  C   UNL A   1      39.569  19.930  25.914  1.00  0.00     0.116 C 
BRANCH   2   3
ATOM      3  N   UNL A   1      40.693  19.018  26.093  1.00  0.00    -0.352 N 
ATOM      4  O   UNL A   1      42.868  18.516  26.514  1.00  0.00    -0.269 OA
ATOM      5  C   UNL A   1      41.986  19.361  26.437  1.00  0.00     0.251 C 
ATOM      6  H   UNL A   1      40.513  18.059  25.955  1.00  0.00     0.163 HD
BRANCH   5   7
ATOM      7  C   UNL A   1      42.264  20.794  26.656  1.00  0.00     0.039 A 
ATOM      8  C   UNL A   1      42.572  21.595  25.556  1.00  0.00     0.014 A 
ATOM      9  C   UNL A   1      42.395  21.279  27.959  1.00  0.00     0.014 A 
ATOM     10  C   UNL A   1      43.185  22.821  25.765  1.00  0.00     0.010 A 
ATOM     11  C   UNL A   1      42.911  22.562  28.161  1.00  0.00     0.010 A 
ATOM     12  C   UNL A   1      43.346  23.328  27.067  1.00  0.00    -0.014 A 
BRANCH  12  13
ATOM     13  C   UNL A   1      43.890  24.699  27.237  1.00  0.00     0.031 A 
ATOM     14  C   UNL A   1      45.324  25.031  26.924  1.00  0.00     0.074 A 
ATOM     15  C   UNL A   1      43.041  25.661  27.650  1.00  0.00     0.049 A 
ATOM     16  N   UNL A   1      45.936  26.184  27.024  1.00  0.00    -0.248 NA
ATOM     17  C   UNL A   1      46.187  23.938  26.442  1.00  0.00     0.031 C 
ATOM     18  C   UNL A   1      41.628  25.449  27.986  1.00  0.00     0.029 A 
ATOM     19  N   UNL A   1      43.223  27.005  27.836  1.00  0.00    -0.354 N 
ATOM     20  C   UNL A   1      47.256  25.954  26.655  1.00  0.00     0.074 A 
ATOM     21  C   UNL A   1      47.361  24.548  26.328  1.00  0.00     0.031 C 
ATOM     22  C   UNL A   1      41.061  26.625  28.278  1.00  0.00     0.029 A 
ATOM     23  C   UNL A   1      42.085  27.660  28.241  1.00  0.00     0.049 A 
ATOM     24  H   UNL A   1      44.086  27.458  27.694  1.00  0.00     0.167 HD
ATOM     25  C   UNL A   1      48.282  26.839  26.600  1.00  0.00     0.031 A 
ATOM     26  C   UNL A   1      41.885  28.945  28.583  1.00  0.00     0.031 A 
ATOM     27  C   UNL A   1      48.157  28.240  26.914  1.00  0.00     0.049 A 
ATOM     28  C   UNL A   1      43.047  29.891  28.533  1.00  0.00     0.074 A 
ATOM     29  C   UNL A   1      49.129  29.225  26.848  1.00  0.00     0.029 A 
ATOM     30  N   UNL A   1      46.996  28.857  27.356  1.00  0.00    -0.354 N 
ATOM     31  N   UNL A   1      44.280  29.657  28.155  1.00  0.00    -0.248 NA
ATOM     32  C   UNL A   1      42.793  31.270  28.966  1.00  0.00     0.031 C 
ATOM     33  C   UNL A   1      48.571  30.424  27.305  1.00  0.00     0.029 A 
ATOM     34  C   UNL A   1      47.236  30.200  27.598  1.00  0.00     0.049 A 
ATOM     35  H   UNL A   1      46.130  28.407  27.480  1.00  0.00     0.167 HD
ATOM     36  C   UNL A   1      44.951  30.863  28.299  1.00  0.00     0.074 A 
ATOM     37  C   UNL A   1      43.978  31.830  28.767  1.00  0.00     0.031 C 
ATOM     38  C   UNL A   1      46.257  31.143  28.072  1.00  0.00     0.031 A 
BRANCH  25  39
ATOM     39  C   UNL A   1      49.648  26.331  26.215  1.00  0.00    -0.014 A 
ATOM     40  C   UNL A   1      50.122  26.426  24.895  1.00  0.00     0.010 A 
ATOM     41  C   UNL A   1      50.516  25.855  27.218  1.00  0.00     0.010 A 
ATOM     42  C   UNL A   1      51.432  26.043  24.584  1.00  0.00     0.020 A 
ATOM     43  C   UNL A   1      51.831  25.492  26.915  1.00  0.00     0.020 A 
ATOM     44  C   UNL A   1      52.280  25.582  25.596  1.00  0.00     0.054 A 
BRANCH  44  45
ATOM     45  S   UNL A   1      53.992  25.154  25.173  1.00  0.00     0.124 S 
ATOM     46  O   UNL A   1      54.177  25.869  23.912  1.00  0.00    -0.237 OA
ATOM     47  O   UNL A   1      54.744  25.680  26.308  1.00  0.00    -0.237 OA
ATOM     48  O   UNL A   1      53.968  23.697  25.064  1.00  0.00    -0.744 OA
ENDBRANCH  44  45
ENDBRANCH  25  39
BRANCH  26  49
ATOM     49  C   UNL A   1      40.546  29.385  29.056  1.00  0.00    -0.014 A 
ATOM     50  C   UNL A   1      40.287  29.564  30.424  1.00  0.00     0.010 A 
ATOM     51  C   UNL A   1      39.523  29.642  28.123  1.00  0.00     0.010 A 
ATOM     52  C   UNL A   1      39.020  29.969  30.854  1.00  0.00     0.020 A 
ATOM     53  C   UNL A   1      38.267  30.079  28.547  1.00  0.00     0.020 A 
ATOM     54  C   UNL A   1      38.018  30.222  29.912  1.00  0.00     0.054 A 
BRANCH  54  55
ATOM     55  S   UNL A   1      36.390  30.777  30.485  1.00  0.00     0.124 S 
ATOM     56  O   UNL A   1      35.543  30.453  29.341  1.00  0.00    -0.237 OA
ATOM     57  O   UNL A   1      36.179  29.964  31.680  1.00  0.00    -0.237 OA
ATOM     58  O   UNL A   1      36.585  32.202  30.738  1.00  0.00    -0.744 OA
ENDBRANCH  54  55
ENDBRANCH  26  49
BRANCH  38  59
ATOM     59  C   UNL A   1      46.698  32.560  28.313  1.00  0.00    -0.014 A 
ATOM     60  C   UNL A   1      47.201  32.959  29.563  1.00  0.00     0.010 A 
ATOM     61  C   UNL A   1      46.627  33.497  27.267  1.00  0.00     0.010 A 
ATOM     62  C   UNL A   1      47.592  34.283  29.776  1.00  0.00     0.020 A 
ATOM     63  C   UNL A   1      47.044  34.816  27.467  1.00  0.00     0.020 A 
ATOM     64  C   UNL A   1      47.508  35.203  28.726  1.00  0.00     0.054 A 
BRANCH  64  65
ATOM     65  S   UNL A   1      48.049  36.910  29.016  1.00  0.00     0.124 S 
ATOM     66  O   UNL A   1      47.027  37.676  28.308  1.00  0.00    -0.237 OA
ATOM     67  O   UNL A   1      48.015  37.013  30.473  1.00  0.00    -0.237 OA
ATOM     68  O   UNL A   1      49.384  36.955  28.425  1.00  0.00    -0.744 OA
ENDBRANCH  64  65
ENDBRANCH  38  59
ENDBRANCH  12  13
ENDBRANCH   5   7
ENDBRANCH   2   3
ENDBRANCH   1   2
BRANCH   1  69
ATOM     69  C   UNL A   1      37.188  20.279  25.059  1.00  0.00     0.023 C 
BRANCH  69  70
ATOM     70  C   UNL A   1      37.614  21.746  24.994  1.00  0.00     0.116 C 
BRANCH  70  71
ATOM     71  N   UNL A   1      36.966  22.419  23.895  1.00  0.00    -0.354 N 
ATOM     72  C   UNL A   1      35.659  22.756  23.718  1.00  0.00     0.242 C 
ATOM     73  H   UNL A   1      37.564  22.674  23.155  1.00  0.00     0.163 HD
ATOM     74  O   UNL A   1      35.408  23.389  22.686  1.00  0.00    -0.273 OA
BRANCH  72  75
ATOM     75  C   UNL A   1      34.580  22.552  24.827  1.00  0.00     0.175 C 
ATOM     76  C   UNL A   1      34.648  23.709  25.850  1.00  0.00     0.041 C 
ATOM     77  N   UNL A   1      33.155  22.537  24.398  1.00  0.00    -0.326 N 
ATOM     78  C   UNL A   1      33.658  24.693  25.251  1.00  0.00     0.014 C 
ATOM     79  C   UNL A   1      32.506  23.766  24.852  1.00  0.00     0.089 C 
ATOM     80  C   UNL A   1      33.136  25.800  26.154  1.00  0.00     0.006 C 
ATOM     81  C   UNL A   1      31.573  24.556  23.939  1.00  0.00     0.025 C 
ATOM     82  C   UNL A   1      32.056  26.605  25.417  1.00  0.00     0.000 C 
ATOM     83  C   UNL A   1      30.990  25.735  24.737  1.00  0.00     0.002 C 
BRANCH  77  84
ATOM     84  C   UNL A   1      32.434  21.335  24.470  1.00  0.00     0.243 C 
ATOM     85  O   UNL A   1      31.603  21.109  25.351  1.00  0.00    -0.273 OA
BRANCH  84  86
ATOM     86  C   UNL A   1      32.861  20.227  23.494  1.00  0.00     0.220 C 
BRANCH  86  87
ATOM     87  N   UNL A   1      32.952  18.855  23.955  1.00  0.00    -0.323 N 
ATOM     88  C   UNL A   1      33.522  18.596  25.252  1.00  0.00     0.190 C 
ATOM     89  C   UNL A   1      32.833  17.788  23.092  1.00  0.00     0.233 C 
ATOM     90  S   UNL A   1      33.952  16.857  25.330  1.00  0.00    -0.130 SA
ATOM     91  C   UNL A   1      33.255  16.480  23.712  1.00  0.00     0.171 C 
ATOM     92  O   UNL A   1      32.436  17.870  21.934  1.00  0.00    -0.274 OA
ENDBRANCH  86  87
ENDBRANCH  84  86
ENDBRANCH  77  84
ENDBRANCH  72  75
ENDBRANCH  70  71
ENDBRANCH  69  70
ENDBRANCH   1  69
TORSDOF 17
ENDMDL
