MODEL 1
REMARK VINA RESULT:     -11.2      0.000      0.000
REMARK SMILES CS(=O)(=O)c1ccc(N2N=C(C(=O)NCCCCNC(=O)c3ccc(-c4c5nc(c(-c6ccc(S(=O)(=O)[O-])cc6)c6ccc([nH]6)c(-c6ccc(S(=O)(=O)[O-])cc6)c6nc(c(-c7ccc(S(=O)(=O)[O-])cc7)c7ccc4[nH]7)C=C6)C=C5)cc3)C[C@H]2c2ccco2)cc1
REMARK SMILES IDX 17 1 16 2 15 3 14 4 12 5 13 6 11 8 9 9 10 10 83 11 82 12
REMARK SMILES IDX 8 13 5 14 6 15 90 16 7 17 89 18 2 19 1 20 3 21 4 22 84 23
REMARK SMILES IDX 85 24 88 25 86 26 87 27 18 28 19 29 20 30 21 32 22 33 23 34
REMARK SMILES IDX 81 35 24 36 80 37 25 38 26 39 27 40 74 41 28 42 79 43 73 44
REMARK SMILES IDX 75 45 29 46 78 47 72 48 71 49 30 51 60 52 41 53 59 54 42 55
REMARK SMILES IDX 45 56 58 57 76 58 43 59 44 60 57 62 77 63 46 64 31 65 32 66
REMARK SMILES IDX 40 67 33 68 39 69 34 70 35 71 36 72 37 73 38 74 61 75 62 76
REMARK SMILES IDX 70 77 63 78 69 79 64 80 65 81 66 82 67 83 68 84 47 85 48 86
REMARK SMILES IDX 56 87 49 88 55 89 50 90 51 91 52 92 53 93 54 94
REMARK H PARENT 14 7 19 31 75 50 45 61
REMARK Flexibility Score: inf
ROOT
ATOM      1  C   UNL A   1      35.569  22.083  26.175  1.00  0.00     0.023 C 
ENDROOT
BRANCH   1   2
ATOM      2  C   UNL A   1      34.408  22.940  26.683  1.00  0.00     0.023 C 
BRANCH   2   3
ATOM      3  C   UNL A   1      33.283  23.143  25.672  1.00  0.00     0.116 C 
BRANCH   3   4
ATOM      4  N   UNL A   1      33.790  23.632  24.404  1.00  0.00    -0.351 N 
ATOM      5  C   UNL A   1      33.799  24.851  23.773  1.00  0.00     0.267 C 
ATOM      6  O   UNL A   1      34.266  24.900  22.637  1.00  0.00    -0.268 OA
ATOM      7  H   UNL A   1      34.228  22.927  23.873  1.00  0.00     0.163 HD
BRANCH   5   8
ATOM      8  C   UNL A   1      33.299  26.145  24.400  1.00  0.00     0.128 C 
ATOM      9  N   UNL A   1      32.467  28.121  24.494  1.00  0.00    -0.254 N 
ATOM     10  N   UNL A   1      32.667  27.034  23.692  1.00  0.00    -0.171 NA
ATOM     11  C   UNL A   1      32.800  27.858  25.902  1.00  0.00     0.180 C 
ATOM     12  C   UNL A   1      33.502  26.499  25.830  1.00  0.00     0.099 C 
BRANCH   9  13
ATOM     13  C   UNL A   1      31.426  29.004  24.192  1.00  0.00     0.060 A 
ATOM     14  C   UNL A   1      29.393  30.808  23.492  1.00  0.00     0.067 A 
ATOM     15  C   UNL A   1      30.202  31.076  24.597  1.00  0.00     0.022 A 
ATOM     16  C   UNL A   1      29.574  29.647  22.742  1.00  0.00     0.022 A 
ATOM     17  C   UNL A   1      31.203  30.163  24.951  1.00  0.00     0.029 A 
ATOM     18  C   UNL A   1      30.586  28.754  23.099  1.00  0.00     0.029 A 
BRANCH  14  19
ATOM     19  S   UNL A   1      28.136  31.971  23.028  1.00  0.00     0.175 S 
ATOM     20  C   UNL A   1      27.898  31.686  21.296  1.00  0.00     0.163 C 
ATOM     21  O   UNL A   1      28.688  33.306  23.178  1.00  0.00    -0.224 OA
ATOM     22  O   UNL A   1      26.924  31.590  23.728  1.00  0.00    -0.224 OA
ENDBRANCH  14  19
ENDBRANCH   9  13
BRANCH  11  23
ATOM     23  C   UNL A   1      33.612  28.890  26.632  1.00  0.00     0.128 A 
ATOM     24  C   UNL A   1      34.972  29.059  26.812  1.00  0.00     0.048 A 
ATOM     25  O   UNL A   1      32.946  29.916  27.244  1.00  0.00    -0.467 OA
ATOM     26  C   UNL A   1      35.138  30.240  27.577  1.00  0.00     0.042 A 
ATOM     27  C   UNL A   1      33.876  30.730  27.803  1.00  0.00     0.195 A 
ENDBRANCH  11  23
ENDBRANCH   5   8
ENDBRANCH   3   4
ENDBRANCH   2   3
ENDBRANCH   1   2
BRANCH   1  28
ATOM     28  C   UNL A   1      36.928  22.779  26.128  1.00  0.00     0.116 C 
BRANCH  28  29
ATOM     29  N   UNL A   1      38.046  21.858  25.975  1.00  0.00    -0.352 N 
ATOM     30  C   UNL A   1      39.381  22.071  26.225  1.00  0.00     0.251 C 
ATOM     31  H   UNL A   1      37.813  20.958  25.649  1.00  0.00     0.163 HD
ATOM     32  O   UNL A   1      40.205  21.207  25.946  1.00  0.00    -0.269 OA
BRANCH  30  33
ATOM     33  C   UNL A   1      39.815  23.365  26.791  1.00  0.00     0.039 A 
ATOM     34  C   UNL A   1      40.459  23.376  28.030  1.00  0.00     0.014 A 
ATOM     35  C   UNL A   1      39.636  24.552  26.076  1.00  0.00     0.014 A 
ATOM     36  C   UNL A   1      41.004  24.566  28.513  1.00  0.00     0.010 A 
ATOM     37  C   UNL A   1      40.235  25.724  26.527  1.00  0.00     0.010 A 
ATOM     38  C   UNL A   1      40.938  25.739  27.741  1.00  0.00    -0.014 A 
BRANCH  38  39
ATOM     39  C   UNL A   1      41.644  26.976  28.162  1.00  0.00     0.031 A 
ATOM     40  C   UNL A   1      40.873  28.150  28.692  1.00  0.00     0.074 A 
ATOM     41  C   UNL A   1      42.978  27.065  27.987  1.00  0.00     0.049 A 
ATOM     42  N   UNL A   1      41.310  29.331  29.044  1.00  0.00    -0.248 NA
ATOM     43  C   UNL A   1      39.415  27.985  28.823  1.00  0.00     0.031 C 
ATOM     44  C   UNL A   1      43.834  26.012  27.434  1.00  0.00     0.029 A 
ATOM     45  N   UNL A   1      43.847  28.095  28.245  1.00  0.00    -0.354 N 
ATOM     46  C   UNL A   1      40.188  30.055  29.422  1.00  0.00     0.074 A 
ATOM     47  C   UNL A   1      39.042  29.195  29.217  1.00  0.00     0.031 C 
ATOM     48  C   UNL A   1      45.106  26.442  27.417  1.00  0.00     0.029 A 
ATOM     49  C   UNL A   1      45.152  27.812  27.918  1.00  0.00     0.049 A 
ATOM     50  H   UNL A   1      43.563  28.957  28.628  1.00  0.00     0.167 HD
ATOM     51  C   UNL A   1      40.116  31.316  29.911  1.00  0.00     0.031 A 
ATOM     52  C   UNL A   1      46.263  28.570  28.002  1.00  0.00     0.031 A 
ATOM     53  C   UNL A   1      41.257  32.167  30.124  1.00  0.00     0.049 A 
ATOM     54  C   UNL A   1      46.157  29.969  28.540  1.00  0.00     0.074 A 
ATOM     55  C   UNL A   1      41.294  33.434  30.678  1.00  0.00     0.029 A 
ATOM     56  N   UNL A   1      42.562  31.840  29.786  1.00  0.00    -0.354 N 
ATOM     57  N   UNL A   1      45.093  30.610  28.962  1.00  0.00    -0.248 NA
ATOM     58  C   UNL A   1      47.401  30.746  28.617  1.00  0.00     0.031 C 
ATOM     59  C   UNL A   1      42.615  33.893  30.632  1.00  0.00     0.029 A 
ATOM     60  C   UNL A   1      43.408  32.893  30.092  1.00  0.00     0.049 A 
ATOM     61  H   UNL A   1      42.845  30.986  29.386  1.00  0.00     0.167 HD
ATOM     62  C   UNL A   1      45.543  31.861  29.367  1.00  0.00     0.074 A 
ATOM     63  C   UNL A   1      46.976  31.880  29.158  1.00  0.00     0.031 C 
ATOM     64  C   UNL A   1      44.830  32.901  29.865  1.00  0.00     0.031 A 
BRANCH  51  65
ATOM     65  C   UNL A   1      38.751  31.852  30.248  1.00  0.00    -0.014 A 
ATOM     66  C   UNL A   1      37.968  32.502  29.275  1.00  0.00     0.010 A 
ATOM     67  C   UNL A   1      38.227  31.675  31.541  1.00  0.00     0.010 A 
ATOM     68  C   UNL A   1      36.706  33.005  29.603  1.00  0.00     0.020 A 
ATOM     69  C   UNL A   1      36.954  32.153  31.866  1.00  0.00     0.020 A 
ATOM     70  C   UNL A   1      36.210  32.832  30.899  1.00  0.00     0.054 A 
BRANCH  70  71
ATOM     71  S   UNL A   1      34.563  33.482  31.292  1.00  0.00     0.124 S 
ATOM     72  O   UNL A   1      34.885  34.774  31.891  1.00  0.00    -0.237 OA
ATOM     73  O   UNL A   1      33.918  33.540  29.983  1.00  0.00    -0.237 OA
ATOM     74  O   UNL A   1      34.010  32.490  32.212  1.00  0.00    -0.744 OA
ENDBRANCH  70  71
ENDBRANCH  51  65
BRANCH  52  75
ATOM     75  C   UNL A   1      47.573  28.013  27.574  1.00  0.00    -0.014 A 
ATOM     76  C   UNL A   1      48.352  27.258  28.469  1.00  0.00     0.010 A 
ATOM     77  C   UNL A   1      48.040  28.216  26.262  1.00  0.00     0.010 A 
ATOM     78  C   UNL A   1      49.579  26.725  28.063  1.00  0.00     0.020 A 
ATOM     79  C   UNL A   1      49.255  27.664  25.846  1.00  0.00     0.020 A 
ATOM     80  C   UNL A   1      50.022  26.930  26.753  1.00  0.00     0.054 A 
BRANCH  80  81
ATOM     81  S   UNL A   1      51.586  26.175  26.228  1.00  0.00     0.124 S 
ATOM     82  O   UNL A   1      51.500  26.281  24.775  1.00  0.00    -0.237 OA
ATOM     83  O   UNL A   1      52.582  27.033  26.867  1.00  0.00    -0.237 OA
ATOM     84  O   UNL A   1      51.508  24.819  26.764  1.00  0.00    -0.744 OA
ENDBRANCH  80  81
ENDBRANCH  52  75
BRANCH  64  85
ATOM     85  C   UNL A   1      45.592  34.147  30.225  1.00  0.00    -0.014 A 
ATOM     86  C   UNL A   1      46.157  34.304  31.503  1.00  0.00     0.010 A 
ATOM     87  C   UNL A   1      45.788  35.150  29.260  1.00  0.00     0.010 A 
ATOM     88  C   UNL A   1      46.884  35.454  31.818  1.00  0.00     0.020 A 
ATOM     89  C   UNL A   1      46.535  36.292  29.563  1.00  0.00     0.020 A 
ATOM     90  C   UNL A   1      47.067  36.442  30.845  1.00  0.00     0.054 A 
BRANCH  90  91
ATOM     91  S   UNL A   1      48.054  37.906  31.262  1.00  0.00     0.124 S 
ATOM     92  O   UNL A   1      48.640  38.255  29.972  1.00  0.00    -0.237 OA
ATOM     93  O   UNL A   1      47.049  38.838  31.769  1.00  0.00    -0.237 OA
ATOM     94  O   UNL A   1      48.996  37.413  32.264  1.00  0.00    -0.744 OA
ENDBRANCH  90  91
ENDBRANCH  64  85
ENDBRANCH  38  39
ENDBRANCH  30  33
ENDBRANCH  28  29
ENDBRANCH   1  28
TORSDOF 17
ENDMDL
MODEL 2
REMARK VINA RESULT:     -11.1      4.975      8.398
REMARK SMILES CS(=O)(=O)c1ccc(N2N=C(C(=O)NCCCCNC(=O)c3ccc(-c4c5nc(c(-c6ccc(S(=O)(=O)[O-])cc6)c6ccc([nH]6)c(-c6ccc(S(=O)(=O)[O-])cc6)c6nc(c(-c7ccc(S(=O)(=O)[O-])cc7)c7ccc4[nH]7)C=C6)C=C5)cc3)C[C@H]2c2ccco2)cc1
REMARK SMILES IDX 17 1 16 2 15 3 14 4 12 5 13 6 11 8 9 9 10 10 83 11 82 12
REMARK SMILES IDX 8 13 5 14 6 15 90 16 7 17 89 18 2 19 1 20 3 21 4 22 84 23
REMARK SMILES IDX 85 24 88 25 86 26 87 27 18 28 19 29 20 30 21 32 22 33 23 34
REMARK SMILES IDX 81 35 24 36 80 37 25 38 26 39 27 40 74 41 28 42 79 43 73 44
REMARK SMILES IDX 75 45 29 46 78 47 72 48 71 49 30 51 60 52 41 53 59 54 42 55
REMARK SMILES IDX 45 56 58 57 76 58 43 59 44 60 57 62 77 63 46 64 31 65 32 66
REMARK SMILES IDX 40 67 33 68 39 69 34 70 35 71 36 72 37 73 38 74 61 75 62 76
REMARK SMILES IDX 70 77 63 78 69 79 64 80 65 81 66 82 67 83 68 84 47 85 48 86
REMARK SMILES IDX 56 87 49 88 55 89 50 90 51 91 52 92 53 93 54 94
REMARK H PARENT 14 7 19 31 75 50 45 61
REMARK Flexibility Score: inf
ROOT
ATOM      1  C   UNL A   1      33.643  27.617  25.897  1.00  0.00     0.023 C 
ENDROOT
BRANCH   1   2
ATOM      2  C   UNL A   1      32.282  27.417  26.566  1.00  0.00     0.023 C 
BRANCH   2   3
ATOM      3  C   UNL A   1      31.243  26.721  25.690  1.00  0.00     0.116 C 
BRANCH   3   4
ATOM      4  N   UNL A   1      30.544  25.681  26.421  1.00  0.00    -0.351 N 
ATOM      5  C   UNL A   1      30.687  24.321  26.538  1.00  0.00     0.267 C 
ATOM      6  O   UNL A   1      29.851  23.717  27.207  1.00  0.00    -0.268 OA
ATOM      7  H   UNL A   1      29.794  26.031  26.955  1.00  0.00     0.163 HD
BRANCH   5   8
ATOM      8  C   UNL A   1      31.826  23.521  25.921  1.00  0.00     0.128 C 
ATOM      9  N   UNL A   1      33.160  21.869  25.611  1.00  0.00    -0.254 N 
ATOM     10  N   UNL A   1      31.999  22.266  26.210  1.00  0.00    -0.171 NA
ATOM     11  C   UNL A   1      33.691  22.875  24.678  1.00  0.00     0.180 C 
ATOM     12  C   UNL A   1      32.820  24.098  24.977  1.00  0.00     0.099 C 
BRANCH   9  13
ATOM     13  C   UNL A   1      33.351  20.513  25.333  1.00  0.00     0.060 A 
ATOM     14  C   UNL A   1      33.759  17.817  24.666  1.00  0.00     0.067 A 
ATOM     15  C   UNL A   1      32.469  18.272  24.943  1.00  0.00     0.022 A 
ATOM     16  C   UNL A   1      34.849  18.685  24.731  1.00  0.00     0.022 A 
ATOM     17  C   UNL A   1      32.275  19.613  25.292  1.00  0.00     0.029 A 
ATOM     18  C   UNL A   1      34.637  20.023  25.066  1.00  0.00     0.029 A 
BRANCH  14  19
ATOM     19  S   UNL A   1      34.007  16.121  24.205  1.00  0.00     0.175 S 
ATOM     20  C   UNL A   1      35.447  15.630  25.114  1.00  0.00     0.163 C 
ATOM     21  O   UNL A   1      34.351  16.090  22.794  1.00  0.00    -0.224 OA
ATOM     22  O   UNL A   1      32.870  15.374  24.705  1.00  0.00    -0.224 OA
ENDBRANCH  14  19
ENDBRANCH   9  13
BRANCH  11  23
ATOM     23  C   UNL A   1      35.160  23.183  24.745  1.00  0.00     0.128 A 
ATOM     24  C   UNL A   1      36.186  23.067  23.826  1.00  0.00     0.048 A 
ATOM     25  O   UNL A   1      35.653  23.714  25.905  1.00  0.00    -0.467 OA
ATOM     26  C   UNL A   1      37.359  23.542  24.462  1.00  0.00     0.042 A 
ATOM     27  C   UNL A   1      36.978  23.936  25.721  1.00  0.00     0.195 A 
ENDBRANCH  11  23
ENDBRANCH   5   8
ENDBRANCH   3   4
ENDBRANCH   2   3
ENDBRANCH   1   2
BRANCH   1  28
ATOM     28  C   UNL A   1      34.579  28.603  26.594  1.00  0.00     0.116 C 
BRANCH  28  29
ATOM     29  N   UNL A   1      33.999  29.926  26.773  1.00  0.00    -0.352 N 
ATOM     30  C   UNL A   1      34.392  30.933  27.623  1.00  0.00     0.251 C 
ATOM     31  H   UNL A   1      33.219  30.128  26.207  1.00  0.00     0.163 HD
ATOM     32  O   UNL A   1      33.723  31.957  27.714  1.00  0.00    -0.269 OA
BRANCH  30  33
ATOM     33  C   UNL A   1      35.599  30.751  28.454  1.00  0.00     0.039 A 
ATOM     34  C   UNL A   1      35.560  29.836  29.509  1.00  0.00     0.014 A 
ATOM     35  C   UNL A   1      36.779  31.441  28.159  1.00  0.00     0.014 A 
ATOM     36  C   UNL A   1      36.729  29.545  30.212  1.00  0.00     0.010 A 
ATOM     37  C   UNL A   1      37.957  31.103  28.819  1.00  0.00     0.010 A 
ATOM     38  C   UNL A   1      37.946  30.141  29.840  1.00  0.00    -0.014 A 
BRANCH  38  39
ATOM     39  C   UNL A   1      39.226  29.731  30.471  1.00  0.00     0.031 A 
ATOM     40  C   UNL A   1      39.769  30.483  31.652  1.00  0.00     0.074 A 
ATOM     41  C   UNL A   1      39.939  28.726  29.922  1.00  0.00     0.049 A 
ATOM     42  N   UNL A   1      40.899  30.312  32.288  1.00  0.00    -0.248 NA
ATOM     43  C   UNL A   1      38.947  31.589  32.172  1.00  0.00     0.031 C 
ATOM     44  C   UNL A   1      39.544  27.950  28.744  1.00  0.00     0.029 A 
ATOM     45  N   UNL A   1      41.153  28.193  30.277  1.00  0.00    -0.354 N 
ATOM     46  C   UNL A   1      40.933  31.292  33.271  1.00  0.00     0.074 A 
ATOM     47  C   UNL A   1      39.730  32.082  33.120  1.00  0.00     0.031 C 
ATOM     48  C   UNL A   1      40.485  27.026  28.488  1.00  0.00     0.029 A 
ATOM     49  C   UNL A   1      41.567  27.170  29.457  1.00  0.00     0.049 A 
ATOM     50  H   UNL A   1      41.678  28.512  31.046  1.00  0.00     0.167 HD
ATOM     51  C   UNL A   1      41.872  31.506  34.224  1.00  0.00     0.031 A 
ATOM     52  C   UNL A   1      42.695  26.434  29.474  1.00  0.00     0.031 A 
ATOM     53  C   UNL A   1      43.062  30.712  34.378  1.00  0.00     0.049 A 
ATOM     54  C   UNL A   1      43.726  26.695  30.535  1.00  0.00     0.074 A 
ATOM     55  C   UNL A   1      44.039  30.808  35.354  1.00  0.00     0.029 A 
ATOM     56  N   UNL A   1      43.442  29.682  33.531  1.00  0.00    -0.354 N 
ATOM     57  N   UNL A   1      43.705  27.580  31.503  1.00  0.00    -0.248 NA
ATOM     58  C   UNL A   1      44.932  25.856  30.509  1.00  0.00     0.031 C 
ATOM     59  C   UNL A   1      45.034  29.866  35.069  1.00  0.00     0.029 A 
ATOM     60  C   UNL A   1      44.653  29.152  33.944  1.00  0.00     0.049 A 
ATOM     61  H   UNL A   1      42.927  29.373  32.751  1.00  0.00     0.167 HD
ATOM     62  C   UNL A   1      44.887  27.396  32.209  1.00  0.00     0.074 A 
ATOM     63  C   UNL A   1      45.592  26.303  31.571  1.00  0.00     0.031 C 
ATOM     64  C   UNL A   1      45.348  28.074  33.289  1.00  0.00     0.031 A 
BRANCH  51  65
ATOM     65  C   UNL A   1      41.646  32.650  35.174  1.00  0.00    -0.014 A 
ATOM     66  C   UNL A   1      42.095  33.948  34.865  1.00  0.00     0.010 A 
ATOM     67  C   UNL A   1      40.947  32.437  36.375  1.00  0.00     0.010 A 
ATOM     68  C   UNL A   1      41.889  35.000  35.761  1.00  0.00     0.020 A 
ATOM     69  C   UNL A   1      40.714  33.492  37.262  1.00  0.00     0.020 A 
ATOM     70  C   UNL A   1      41.204  34.764  36.957  1.00  0.00     0.054 A 
BRANCH  70  71
ATOM     71  S   UNL A   1      40.938  36.152  38.094  1.00  0.00     0.124 S 
ATOM     72  O   UNL A   1      42.216  36.854  38.014  1.00  0.00    -0.237 OA
ATOM     73  O   UNL A   1      39.801  36.846  37.494  1.00  0.00    -0.237 OA
ATOM     74  O   UNL A   1      40.662  35.502  39.373  1.00  0.00    -0.744 OA
ENDBRANCH  70  71
ENDBRANCH  51  65
BRANCH  52  75
ATOM     75  C   UNL A   1      42.901  25.371  28.454  1.00  0.00    -0.014 A 
ATOM     76  C   UNL A   1      42.604  24.030  28.755  1.00  0.00     0.010 A 
ATOM     77  C   UNL A   1      43.375  25.696  27.170  1.00  0.00     0.010 A 
ATOM     78  C   UNL A   1      42.786  23.031  27.793  1.00  0.00     0.020 A 
ATOM     79  C   UNL A   1      43.536  24.704  26.199  1.00  0.00     0.020 A 
ATOM     80  C   UNL A   1      43.249  23.376  26.520  1.00  0.00     0.054 A 
BRANCH  80  81
ATOM     81  S   UNL A   1      43.418  22.075  25.267  1.00  0.00     0.124 S 
ATOM     82  O   UNL A   1      42.236  21.257  25.519  1.00  0.00    -0.237 OA
ATOM     83  O   UNL A   1      43.408  22.834  24.018  1.00  0.00    -0.237 OA
ATOM     84  O   UNL A   1      44.697  21.449  25.595  1.00  0.00    -0.744 OA
ENDBRANCH  80  81
ENDBRANCH  52  75
BRANCH  64  85
ATOM     85  C   UNL A   1      46.676  27.648  33.853  1.00  0.00    -0.014 A 
ATOM     86  C   UNL A   1      47.871  28.245  33.417  1.00  0.00     0.010 A 
ATOM     87  C   UNL A   1      46.724  26.675  34.867  1.00  0.00     0.010 A 
ATOM     88  C   UNL A   1      49.095  27.859  33.967  1.00  0.00     0.020 A 
ATOM     89  C   UNL A   1      47.944  26.303  35.438  1.00  0.00     0.020 A 
ATOM     90  C   UNL A   1      49.124  26.888  34.975  1.00  0.00     0.054 A 
BRANCH  90  91
ATOM     91  S   UNL A   1      50.721  26.437  35.706  1.00  0.00     0.124 S 
ATOM     92  O   UNL A   1      50.919  25.084  35.194  1.00  0.00    -0.237 OA
ATOM     93  O   UNL A   1      51.622  27.451  35.165  1.00  0.00    -0.237 OA
ATOM     94  O   UNL A   1      50.480  26.531  37.145  1.00  0.00    -0.744 OA
ENDBRANCH  90  91
ENDBRANCH  64  85
ENDBRANCH  38  39
ENDBRANCH  30  33
ENDBRANCH  28  29
ENDBRANCH   1  28
TORSDOF 17
ENDMDL
MODEL 3
REMARK VINA RESULT:     -11.1      2.553      3.109
REMARK SMILES CS(=O)(=O)c1ccc(N2N=C(C(=O)NCCCCNC(=O)c3ccc(-c4c5nc(c(-c6ccc(S(=O)(=O)[O-])cc6)c6ccc([nH]6)c(-c6ccc(S(=O)(=O)[O-])cc6)c6nc(c(-c7ccc(S(=O)(=O)[O-])cc7)c7ccc4[nH]7)C=C6)C=C5)cc3)C[C@H]2c2ccco2)cc1
REMARK SMILES IDX 17 1 16 2 15 3 14 4 12 5 13 6 11 8 9 9 10 10 83 11 82 12
REMARK SMILES IDX 8 13 5 14 6 15 90 16 7 17 89 18 2 19 1 20 3 21 4 22 84 23
REMARK SMILES IDX 85 24 88 25 86 26 87 27 18 28 19 29 20 30 21 32 22 33 23 34
REMARK SMILES IDX 81 35 24 36 80 37 25 38 26 39 27 40 74 41 28 42 79 43 73 44
REMARK SMILES IDX 75 45 29 46 78 47 72 48 71 49 30 51 60 52 41 53 59 54 42 55
REMARK SMILES IDX 45 56 58 57 76 58 43 59 44 60 57 62 77 63 46 64 31 65 32 66
REMARK SMILES IDX 40 67 33 68 39 69 34 70 35 71 36 72 37 73 38 74 61 75 62 76
REMARK SMILES IDX 70 77 63 78 69 79 64 80 65 81 66 82 67 83 68 84 47 85 48 86
REMARK SMILES IDX 56 87 49 88 55 89 50 90 51 91 52 92 53 93 54 94
REMARK H PARENT 14 7 19 31 75 50 45 61
REMARK Flexibility Score: inf
ROOT
ATOM      1  C   UNL A   1      36.230  23.281  23.822  1.00  0.00     0.023 C 
ENDROOT
BRANCH   1   2
ATOM      2  C   UNL A   1      35.104  22.316  24.199  1.00  0.00     0.023 C 
BRANCH   2   3
ATOM      3  C   UNL A   1      33.978  22.946  25.014  1.00  0.00     0.116 C 
BRANCH   3   4
ATOM      4  N   UNL A   1      32.704  22.840  24.328  1.00  0.00    -0.351 N 
ATOM      5  C   UNL A   1      31.629  23.676  24.154  1.00  0.00     0.267 C 
ATOM      6  O   UNL A   1      30.651  23.229  23.557  1.00  0.00    -0.268 OA
ATOM      7  H   UNL A   1      32.581  21.969  23.886  1.00  0.00     0.163 HD
BRANCH   5   8
ATOM      8  C   UNL A   1      31.583  25.124  24.624  1.00  0.00     0.128 C 
ATOM      9  N   UNL A   1      31.371  27.255  24.491  1.00  0.00    -0.254 N 
ATOM     10  N   UNL A   1      31.177  26.073  23.834  1.00  0.00    -0.171 NA
ATOM     11  C   UNL A   1      31.734  27.068  25.903  1.00  0.00     0.180 C 
ATOM     12  C   UNL A   1      32.003  25.563  25.981  1.00  0.00     0.099 C 
BRANCH   9  13
ATOM     13  C   UNL A   1      30.609  28.368  24.124  1.00  0.00     0.060 A 
ATOM     14  C   UNL A   1      29.125  30.596  23.281  1.00  0.00     0.067 A 
ATOM     15  C   UNL A   1      30.167  30.766  24.193  1.00  0.00     0.022 A 
ATOM     16  C   UNL A   1      28.804  29.329  22.796  1.00  0.00     0.022 A 
ATOM     17  C   UNL A   1      30.892  29.649  24.622  1.00  0.00     0.029 A 
ATOM     18  C   UNL A   1      29.546  28.226  23.222  1.00  0.00     0.029 A 
BRANCH  14  19
ATOM     19  S   UNL A   1      28.216  32.013  22.720  1.00  0.00     0.175 S 
ATOM     20  C   UNL A   1      28.028  31.746  20.978  1.00  0.00     0.163 C 
ATOM     21  O   UNL A   1      29.061  33.181  22.892  1.00  0.00    -0.224 OA
ATOM     22  O   UNL A   1      26.906  31.951  23.338  1.00  0.00    -0.224 OA
ENDBRANCH  14  19
ENDBRANCH   9  13
BRANCH  11  23
ATOM     23  C   UNL A   1      32.872  27.886  26.447  1.00  0.00     0.128 A 
ATOM     24  C   UNL A   1      34.240  27.834  26.258  1.00  0.00     0.048 A 
ATOM     25  O   UNL A   1      32.572  28.929  27.279  1.00  0.00    -0.467 OA
ATOM     26  C   UNL A   1      34.797  28.890  27.020  1.00  0.00     0.042 A 
ATOM     27  C   UNL A   1      33.738  29.534  27.613  1.00  0.00     0.195 A 
ENDBRANCH  11  23
ENDBRANCH   5   8
ENDBRANCH   3   4
ENDBRANCH   2   3
ENDBRANCH   1   2
BRANCH   1  28
ATOM     28  C   UNL A   1      37.126  23.729  24.975  1.00  0.00     0.116 C 
BRANCH  28  29
ATOM     29  N   UNL A   1      38.157  22.761  25.318  1.00  0.00    -0.352 N 
ATOM     30  C   UNL A   1      39.274  22.930  26.101  1.00  0.00     0.251 C 
ATOM     31  H   UNL A   1      38.036  21.860  24.939  1.00  0.00     0.163 HD
ATOM     32  O   UNL A   1      40.096  22.024  26.205  1.00  0.00    -0.269 OA
BRANCH  30  33
ATOM     33  C   UNL A   1      39.498  24.224  26.776  1.00  0.00     0.039 A 
ATOM     34  C   UNL A   1      38.954  24.425  28.046  1.00  0.00     0.014 A 
ATOM     35  C   UNL A   1      40.286  25.213  26.179  1.00  0.00     0.014 A 
ATOM     36  C   UNL A   1      39.274  25.581  28.758  1.00  0.00     0.010 A 
ATOM     37  C   UNL A   1      40.656  26.335  26.915  1.00  0.00     0.010 A 
ATOM     38  C   UNL A   1      40.166  26.521  28.217  1.00  0.00    -0.014 A 
BRANCH  38  39
ATOM     39  C   UNL A   1      40.641  27.679  29.017  1.00  0.00     0.031 A 
ATOM     40  C   UNL A   1      39.769  28.887  29.201  1.00  0.00     0.074 A 
ATOM     41  C   UNL A   1      41.897  27.669  29.509  1.00  0.00     0.049 A 
ATOM     42  N   UNL A   1      40.040  30.013  29.808  1.00  0.00    -0.248 NA
ATOM     43  C   UNL A   1      38.423  28.834  28.605  1.00  0.00     0.031 C 
ATOM     44  C   UNL A   1      42.860  26.575  29.355  1.00  0.00     0.029 A 
ATOM     45  N   UNL A   1      42.583  28.614  30.229  1.00  0.00    -0.354 N 
ATOM     46  C   UNL A   1      38.912  30.808  29.657  1.00  0.00     0.074 A 
ATOM     47  C   UNL A   1      37.967  30.051  28.863  1.00  0.00     0.031 C 
ATOM     48  C   UNL A   1      44.002  26.903  29.981  1.00  0.00     0.029 A 
ATOM     49  C   UNL A   1      43.868  28.242  30.546  1.00  0.00     0.049 A 
ATOM     50  H   UNL A   1      42.193  29.479  30.494  1.00  0.00     0.167 HD
ATOM     51  C   UNL A   1      38.675  32.048  30.147  1.00  0.00     0.031 A 
ATOM     52  C   UNL A   1      44.836  28.904  31.208  1.00  0.00     0.031 A 
ATOM     53  C   UNL A   1      39.612  32.795  30.943  1.00  0.00     0.049 A 
ATOM     54  C   UNL A   1      44.553  30.283  31.735  1.00  0.00     0.074 A 
ATOM     55  C   UNL A   1      39.439  34.031  31.542  1.00  0.00     0.029 A 
ATOM     56  N   UNL A   1      40.900  32.381  31.247  1.00  0.00    -0.354 N 
ATOM     57  N   UNL A   1      43.451  30.988  31.644  1.00  0.00    -0.248 NA
ATOM     58  C   UNL A   1      45.643  30.954  32.456  1.00  0.00     0.031 C 
ATOM     59  C   UNL A   1      40.639  34.384  32.169  1.00  0.00     0.029 A 
ATOM     60  C   UNL A   1      41.544  33.348  32.000  1.00  0.00     0.049 A 
ATOM     61  H   UNL A   1      41.299  31.524  30.968  1.00  0.00     0.167 HD
ATOM     62  C   UNL A   1      43.710  32.181  32.308  1.00  0.00     0.074 A 
ATOM     63  C   UNL A   1      45.066  32.094  32.813  1.00  0.00     0.031 C 
ATOM     64  C   UNL A   1      42.898  33.252  32.482  1.00  0.00     0.031 A 
BRANCH  51  65
ATOM     65  C   UNL A   1      37.345  32.677  29.828  1.00  0.00    -0.014 A 
ATOM     66  C   UNL A   1      36.210  32.405  30.614  1.00  0.00     0.010 A 
ATOM     67  C   UNL A   1      37.234  33.576  28.753  1.00  0.00     0.010 A 
ATOM     68  C   UNL A   1      34.978  32.987  30.302  1.00  0.00     0.020 A 
ATOM     69  C   UNL A   1      36.010  34.181  28.453  1.00  0.00     0.020 A 
ATOM     70  C   UNL A   1      34.886  33.867  29.219  1.00  0.00     0.054 A 
BRANCH  70  71
ATOM     71  S   UNL A   1      33.278  34.619  28.846  1.00  0.00     0.124 S 
ATOM     72  O   UNL A   1      33.673  35.884  28.232  1.00  0.00    -0.237 OA
ATOM     73  O   UNL A   1      32.668  33.646  27.943  1.00  0.00    -0.237 OA
ATOM     74  O   UNL A   1      32.639  34.735  30.155  1.00  0.00    -0.744 OA
ENDBRANCH  70  71
ENDBRANCH  51  65
BRANCH  52  75
ATOM     75  C   UNL A   1      46.161  28.264  31.418  1.00  0.00    -0.014 A 
ATOM     76  C   UNL A   1      46.390  27.456  32.547  1.00  0.00     0.010 A 
ATOM     77  C   UNL A   1      47.195  28.439  30.480  1.00  0.00     0.010 A 
ATOM     78  C   UNL A   1      47.633  26.844  32.738  1.00  0.00     0.020 A 
ATOM     79  C   UNL A   1      48.431  27.810  30.657  1.00  0.00     0.020 A 
ATOM     80  C   UNL A   1      48.645  27.024  31.791  1.00  0.00     0.054 A 
BRANCH  80  81
ATOM     81  S   UNL A   1      50.228  26.169  32.026  1.00  0.00     0.124 S 
ATOM     82  O   UNL A   1      50.657  25.945  30.650  1.00  0.00    -0.237 OA
ATOM     83  O   UNL A   1      51.007  27.148  32.781  1.00  0.00    -0.237 OA
ATOM     84  O   UNL A   1      49.860  24.969  32.773  1.00  0.00    -0.744 OA
ENDBRANCH  80  81
ENDBRANCH  52  75
BRANCH  64  85
ATOM     85  C   UNL A   1      43.452  34.417  33.257  1.00  0.00    -0.014 A 
ATOM     86  C   UNL A   1      44.087  35.485  32.599  1.00  0.00     0.010 A 
ATOM     87  C   UNL A   1      43.291  34.468  34.653  1.00  0.00     0.010 A 
ATOM     88  C   UNL A   1      44.574  36.572  33.328  1.00  0.00     0.020 A 
ATOM     89  C   UNL A   1      43.755  35.565  35.382  1.00  0.00     0.020 A 
ATOM     90  C   UNL A   1      44.406  36.605  34.716  1.00  0.00     0.054 A 
BRANCH  90  91
ATOM     91  S   UNL A   1      45.006  38.050  35.634  1.00  0.00     0.124 S 
ATOM     92  O   UNL A   1      46.407  38.106  35.230  1.00  0.00    -0.237 OA
ATOM     93  O   UNL A   1      44.161  39.128  35.126  1.00  0.00    -0.237 OA
ATOM     94  O   UNL A   1      44.772  37.691  37.032  1.00  0.00    -0.744 OA
ENDBRANCH  90  91
ENDBRANCH  64  85
ENDBRANCH  38  39
ENDBRANCH  30  33
ENDBRANCH  28  29
ENDBRANCH   1  28
TORSDOF 17
ENDMDL
