MODEL 1
REMARK VINA RESULT:     -12.7      0.000      0.000
REMARK SMILES COc1ccccc1-n1nnc(C(=O)NCCCCNC(=O)c2ccc(-c3c4nc(c(-c5ccc(S(=O)(=O)[O-])cc5)c5ccc([nH]5)c(-c5ccc(S(=O)(=O)[O-])cc5)c5nc(c(-c6ccc(S(=O)(=O)[O-])cc6)c6ccc3[nH]6)C=C5)C=C4)cc2)c1-c1ccc(Cl)cc1
REMARK SMILES IDX 18 1 17 2 16 3 15 4 13 5 14 6 12 8 9 9 10 10 83 11 11 12
REMARK SMILES IDX 8 13 3 14 4 15 5 16 7 17 6 18 2 19 1 20 84 21 85 22 90 23
REMARK SMILES IDX 86 24 89 25 87 26 88 27 19 28 20 29 21 30 22 32 23 33 24 34
REMARK SMILES IDX 82 35 25 36 81 37 26 38 27 39 28 40 75 41 29 42 80 43 74 44
REMARK SMILES IDX 76 45 30 46 79 47 73 48 72 49 31 51 61 52 42 53 60 54 43 55
REMARK SMILES IDX 46 56 59 57 77 58 44 59 45 60 58 62 78 63 47 64 32 65 33 66
REMARK SMILES IDX 41 67 34 68 40 69 35 70 36 71 37 72 38 73 39 74 62 75 63 76
REMARK SMILES IDX 71 77 64 78 70 79 65 80 66 81 67 82 68 83 69 84 48 85 49 86
REMARK SMILES IDX 57 87 50 88 56 89 51 90 52 91 53 92 54 93 55 94
REMARK H PARENT 15 7 20 31 76 50 46 61
REMARK Flexibility Score: inf
ROOT
ATOM      1  C   UNL A   1      32.166  29.646  26.884  1.00  0.00     0.023 C 
ENDROOT
BRANCH   1   2
ATOM      2  C   UNL A   1      32.234  28.626  25.749  1.00  0.00     0.023 C 
BRANCH   2   3
ATOM      3  C   UNL A   1      33.593  28.133  25.267  1.00  0.00     0.116 C 
BRANCH   3   4
ATOM      4  N   UNL A   1      33.941  28.216  23.876  1.00  0.00    -0.351 N 
ATOM      5  C   UNL A   1      33.637  27.316  22.861  1.00  0.00     0.274 C 
ATOM      6  O   UNL A   1      34.032  27.632  21.736  1.00  0.00    -0.267 OA
ATOM      7  H   UNL A   1      34.460  29.008  23.608  1.00  0.00     0.163 HD
BRANCH   5   8
ATOM      8  C   UNL A   1      32.951  26.022  23.074  1.00  0.00     0.178 A 
ATOM      9  N   UNL A   1      32.170  24.004  23.487  1.00  0.00    -0.208 N 
ATOM     10  N   UNL A   1      31.229  24.664  22.788  1.00  0.00    -0.061 NA
ATOM     11  C   UNL A   1      33.321  24.786  23.612  1.00  0.00     0.108 A 
ATOM     12  N   UNL A   1      31.641  25.911  22.633  1.00  0.00    -0.124 NA
BRANCH   9  13
ATOM     13  C   UNL A   1      32.029  22.630  23.804  1.00  0.00     0.109 A 
ATOM     14  C   UNL A   1      32.038  22.173  25.130  1.00  0.00     0.144 A 
ATOM     15  C   UNL A   1      32.319  20.827  25.381  1.00  0.00     0.049 A 
ATOM     16  C   UNL A   1      32.528  19.934  24.329  1.00  0.00     0.004 A 
ATOM     17  C   UNL A   1      32.154  21.716  22.742  1.00  0.00     0.032 A 
ATOM     18  C   UNL A   1      32.421  20.373  23.011  1.00  0.00     0.003 A 
BRANCH  14  19
ATOM     19  O   UNL A   1      31.894  22.937  26.256  1.00  0.00    -0.494 OA
ATOM     20  C   UNL A   1      32.744  22.596  27.349  1.00  0.00     0.278 C 
ENDBRANCH  14  19
ENDBRANCH   9  13
BRANCH  11  21
ATOM     21  C   UNL A   1      34.584  24.195  24.057  1.00  0.00     0.003 A 
ATOM     22  C   UNL A   1      35.332  23.343  23.243  1.00  0.00     0.012 A 
ATOM     23  C   UNL A   1      35.048  24.500  25.354  1.00  0.00     0.012 A 
ATOM     24  C   UNL A   1      36.534  22.812  23.720  1.00  0.00     0.021 A 
ATOM     25  C   UNL A   1      36.223  23.935  25.841  1.00  0.00     0.021 A 
ATOM     26  C   UNL A   1      36.964  23.096  25.017  1.00  0.00     0.041 A 
ATOM     27  Cl  UNL A   1      38.419  22.406  25.613  1.00  0.00    -0.084 Cl
ENDBRANCH  11  21
ENDBRANCH   5   8
ENDBRANCH   3   4
ENDBRANCH   2   3
ENDBRANCH   1   2
BRANCH   1  28
ATOM     28  C   UNL A   1      33.486  30.036  27.538  1.00  0.00     0.116 C 
BRANCH  28  29
ATOM     29  N   UNL A   1      34.030  31.339  27.146  1.00  0.00    -0.352 N 
ATOM     30  C   UNL A   1      35.201  31.923  27.637  1.00  0.00     0.251 C 
ATOM     31  H   UNL A   1      33.524  31.850  26.475  1.00  0.00     0.163 HD
ATOM     32  O   UNL A   1      35.360  33.128  27.627  1.00  0.00    -0.269 OA
BRANCH  30  33
ATOM     33  C   UNL A   1      36.239  31.021  28.188  1.00  0.00     0.039 A 
ATOM     34  C   UNL A   1      36.430  29.722  27.715  1.00  0.00     0.014 A 
ATOM     35  C   UNL A   1      37.103  31.561  29.131  1.00  0.00     0.014 A 
ATOM     36  C   UNL A   1      37.585  29.036  28.097  1.00  0.00     0.010 A 
ATOM     37  C   UNL A   1      38.308  30.954  29.381  1.00  0.00     0.010 A 
ATOM     38  C   UNL A   1      38.552  29.678  28.892  1.00  0.00    -0.014 A 
BRANCH  38  39
ATOM     39  C   UNL A   1      39.882  29.100  29.084  1.00  0.00     0.031 A 
ATOM     40  C   UNL A   1      40.266  28.870  30.505  1.00  0.00     0.074 A 
ATOM     41  C   UNL A   1      40.646  28.591  28.093  1.00  0.00     0.049 A 
ATOM     42  N   UNL A   1      41.115  29.549  31.201  1.00  0.00    -0.248 NA
ATOM     43  C   UNL A   1      39.529  27.864  31.287  1.00  0.00     0.031 C 
ATOM     44  C   UNL A   1      40.325  28.432  26.670  1.00  0.00     0.029 A 
ATOM     45  N   UNL A   1      41.866  27.997  28.186  1.00  0.00    -0.354 N 
ATOM     46  C   UNL A   1      41.190  28.926  32.441  1.00  0.00     0.074 A 
ATOM     47  C   UNL A   1      40.067  28.023  32.499  1.00  0.00     0.031 C 
ATOM     48  C   UNL A   1      41.202  27.579  26.097  1.00  0.00     0.029 A 
ATOM     49  C   UNL A   1      42.253  27.291  27.053  1.00  0.00     0.049 A 
ATOM     50  H   UNL A   1      42.430  28.061  28.991  1.00  0.00     0.167 HD
ATOM     51  C   UNL A   1      42.302  29.029  33.225  1.00  0.00     0.031 A 
ATOM     52  C   UNL A   1      43.361  26.523  26.910  1.00  0.00     0.031 A 
ATOM     53  C   UNL A   1      43.206  30.037  32.728  1.00  0.00     0.049 A 
ATOM     54  C   UNL A   1      44.335  26.982  27.929  1.00  0.00     0.074 A 
ATOM     55  C   UNL A   1      43.115  31.393  32.484  1.00  0.00     0.029 A 
ATOM     56  N   UNL A   1      44.291  29.594  32.006  1.00  0.00    -0.354 N 
ATOM     57  N   UNL A   1      44.878  28.168  27.912  1.00  0.00    -0.248 NA
ATOM     58  C   UNL A   1      44.362  26.304  29.216  1.00  0.00     0.031 C 
ATOM     59  C   UNL A   1      43.825  31.592  31.264  1.00  0.00     0.029 A 
ATOM     60  C   UNL A   1      44.375  30.367  30.876  1.00  0.00     0.049 A 
ATOM     61  H   UNL A   1      44.895  28.858  32.253  1.00  0.00     0.167 HD
ATOM     62  C   UNL A   1      44.906  28.564  29.242  1.00  0.00     0.074 A 
ATOM     63  C   UNL A   1      44.679  27.335  30.003  1.00  0.00     0.031 C 
ATOM     64  C   UNL A   1      44.835  29.883  29.590  1.00  0.00     0.031 A 
BRANCH  51  65
ATOM     65  C   UNL A   1      42.767  27.968  34.193  1.00  0.00    -0.014 A 
ATOM     66  C   UNL A   1      42.858  28.294  35.563  1.00  0.00     0.010 A 
ATOM     67  C   UNL A   1      43.378  26.767  33.782  1.00  0.00     0.010 A 
ATOM     68  C   UNL A   1      43.594  27.502  36.455  1.00  0.00     0.020 A 
ATOM     69  C   UNL A   1      44.077  25.946  34.671  1.00  0.00     0.020 A 
ATOM     70  C   UNL A   1      44.213  26.341  35.996  1.00  0.00     0.054 A 
BRANCH  70  71
ATOM     71  S   UNL A   1      45.259  25.389  37.123  1.00  0.00     0.124 S 
ATOM     72  O   UNL A   1      45.014  24.021  36.676  1.00  0.00    -0.237 OA
ATOM     73  O   UNL A   1      46.588  25.923  36.837  1.00  0.00    -0.237 OA
ATOM     74  O   UNL A   1      44.730  25.722  38.444  1.00  0.00    -0.744 OA
ENDBRANCH  70  71
ENDBRANCH  51  65
BRANCH  52  75
ATOM     75  C   UNL A   1      43.517  25.263  26.144  1.00  0.00    -0.014 A 
ATOM     76  C   UNL A   1      44.682  25.010  25.397  1.00  0.00     0.010 A 
ATOM     77  C   UNL A   1      42.645  24.181  26.386  1.00  0.00     0.010 A 
ATOM     78  C   UNL A   1      45.003  23.707  24.976  1.00  0.00     0.020 A 
ATOM     79  C   UNL A   1      42.954  22.882  25.963  1.00  0.00     0.020 A 
ATOM     80  C   UNL A   1      44.147  22.647  25.284  1.00  0.00     0.054 A 
BRANCH  80  81
ATOM     81  S   UNL A   1      44.668  20.943  24.918  1.00  0.00     0.124 S 
ATOM     82  O   UNL A   1      46.042  20.926  25.410  1.00  0.00    -0.237 OA
ATOM     83  O   UNL A   1      43.713  20.147  25.682  1.00  0.00    -0.237 OA
ATOM     84  O   UNL A   1      44.528  20.846  23.466  1.00  0.00    -0.744 OA
ENDBRANCH  80  81
ENDBRANCH  52  75
BRANCH  64  85
ATOM     85  C   UNL A   1      45.019  30.928  28.510  1.00  0.00    -0.014 A 
ATOM     86  C   UNL A   1      43.999  31.339  27.628  1.00  0.00     0.010 A 
ATOM     87  C   UNL A   1      46.238  31.629  28.491  1.00  0.00     0.010 A 
ATOM     88  C   UNL A   1      44.207  32.404  26.736  1.00  0.00     0.020 A 
ATOM     89  C   UNL A   1      46.445  32.702  27.621  1.00  0.00     0.020 A 
ATOM     90  C   UNL A   1      45.431  33.079  26.739  1.00  0.00     0.054 A 
BRANCH  90  91
ATOM     91  S   UNL A   1      45.683  34.483  25.616  1.00  0.00     0.124 S 
ATOM     92  O   UNL A   1      45.198  35.612  26.405  1.00  0.00    -0.237 OA
ATOM     93  O   UNL A   1      47.123  34.455  25.376  1.00  0.00    -0.237 OA
ATOM     94  O   UNL A   1      44.863  34.147  24.451  1.00  0.00    -0.744 OA
ENDBRANCH  90  91
ENDBRANCH  64  85
ENDBRANCH  38  39
ENDBRANCH  30  33
ENDBRANCH  28  29
ENDBRANCH   1  28
TORSDOF 17
ENDMDL
MODEL 2
REMARK VINA RESULT:     -12.1      2.873      7.381
REMARK SMILES COc1ccccc1-n1nnc(C(=O)NCCCCNC(=O)c2ccc(-c3c4nc(c(-c5ccc(S(=O)(=O)[O-])cc5)c5ccc([nH]5)c(-c5ccc(S(=O)(=O)[O-])cc5)c5nc(c(-c6ccc(S(=O)(=O)[O-])cc6)c6ccc3[nH]6)C=C5)C=C4)cc2)c1-c1ccc(Cl)cc1
REMARK SMILES IDX 18 1 17 2 16 3 15 4 13 5 14 6 12 8 9 9 10 10 83 11 11 12
REMARK SMILES IDX 8 13 3 14 4 15 5 16 7 17 6 18 2 19 1 20 84 21 85 22 90 23
REMARK SMILES IDX 86 24 89 25 87 26 88 27 19 28 20 29 21 30 22 32 23 33 24 34
REMARK SMILES IDX 82 35 25 36 81 37 26 38 27 39 28 40 75 41 29 42 80 43 74 44
REMARK SMILES IDX 76 45 30 46 79 47 73 48 72 49 31 51 61 52 42 53 60 54 43 55
REMARK SMILES IDX 46 56 59 57 77 58 44 59 45 60 58 62 78 63 47 64 32 65 33 66
REMARK SMILES IDX 41 67 34 68 40 69 35 70 36 71 37 72 38 73 39 74 62 75 63 76
REMARK SMILES IDX 71 77 64 78 70 79 65 80 66 81 67 82 68 83 69 84 48 85 49 86
REMARK SMILES IDX 57 87 50 88 56 89 51 90 52 91 53 92 54 93 55 94
REMARK H PARENT 15 7 20 31 76 50 46 61
REMARK Flexibility Score: inf
ROOT
ATOM      1  C   UNL A   1      31.877  30.078  26.895  1.00  0.00     0.023 C 
ENDROOT
BRANCH   1   2
ATOM      2  C   UNL A   1      31.868  29.507  25.479  1.00  0.00     0.023 C 
BRANCH   2   3
ATOM      3  C   UNL A   1      32.788  28.341  25.138  1.00  0.00     0.116 C 
BRANCH   3   4
ATOM      4  N   UNL A   1      33.473  28.305  23.875  1.00  0.00    -0.351 N 
ATOM      5  C   UNL A   1      33.468  27.289  22.927  1.00  0.00     0.274 C 
ATOM      6  O   UNL A   1      34.122  27.514  21.905  1.00  0.00    -0.267 OA
ATOM      7  H   UNL A   1      34.013  29.098  23.655  1.00  0.00     0.163 HD
BRANCH   5   8
ATOM      8  C   UNL A   1      32.799  25.982  23.110  1.00  0.00     0.178 A 
ATOM      9  N   UNL A   1      32.044  23.945  23.482  1.00  0.00    -0.208 N 
ATOM     10  N   UNL A   1      31.102  24.602  22.780  1.00  0.00    -0.061 NA
ATOM     11  C   UNL A   1      33.181  24.743  23.634  1.00  0.00     0.108 A 
ATOM     12  N   UNL A   1      31.497  25.858  22.649  1.00  0.00    -0.124 NA
BRANCH   9  13
ATOM     13  C   UNL A   1      31.920  22.565  23.775  1.00  0.00     0.109 A 
ATOM     14  C   UNL A   1      31.892  22.090  25.095  1.00  0.00     0.144 A 
ATOM     15  C   UNL A   1      32.191  20.746  25.338  1.00  0.00     0.049 A 
ATOM     16  C   UNL A   1      32.455  19.872  24.282  1.00  0.00     0.004 A 
ATOM     17  C   UNL A   1      32.101  21.669  22.706  1.00  0.00     0.032 A 
ATOM     18  C   UNL A   1      32.385  20.327  22.967  1.00  0.00     0.003 A 
BRANCH  14  19
ATOM     19  O   UNL A   1      31.693  22.835  26.225  1.00  0.00    -0.494 OA
ATOM     20  C   UNL A   1      32.649  22.649  27.266  1.00  0.00     0.278 C 
ENDBRANCH  14  19
ENDBRANCH   9  13
BRANCH  11  21
ATOM     21  C   UNL A   1      34.447  24.164  24.087  1.00  0.00     0.003 A 
ATOM     22  C   UNL A   1      34.998  24.468  25.333  1.00  0.00     0.012 A 
ATOM     23  C   UNL A   1      35.125  23.276  23.226  1.00  0.00     0.012 A 
ATOM     24  C   UNL A   1      36.208  23.882  25.713  1.00  0.00     0.021 A 
ATOM     25  C   UNL A   1      36.350  22.726  23.592  1.00  0.00     0.021 A 
ATOM     26  C   UNL A   1      36.885  23.029  24.839  1.00  0.00     0.041 A 
ATOM     27  Cl  UNL A   1      38.392  22.345  25.295  1.00  0.00    -0.084 Cl
ENDBRANCH  11  21
ENDBRANCH   5   8
ENDBRANCH   3   4
ENDBRANCH   2   3
ENDBRANCH   1   2
BRANCH   1  28
ATOM     28  C   UNL A   1      32.952  31.111  27.215  1.00  0.00     0.116 C 
BRANCH  28  29
ATOM     29  N   UNL A   1      32.520  32.510  27.180  1.00  0.00    -0.352 N 
ATOM     30  C   UNL A   1      32.974  33.533  28.017  1.00  0.00     0.251 C 
ATOM     31  H   UNL A   1      31.848  32.753  26.503  1.00  0.00     0.163 HD
ATOM     32  O   UNL A   1      32.295  34.515  28.242  1.00  0.00    -0.269 OA
BRANCH  30  33
ATOM     33  C   UNL A   1      34.310  33.370  28.637  1.00  0.00     0.039 A 
ATOM     34  C   UNL A   1      34.505  32.654  29.819  1.00  0.00     0.014 A 
ATOM     35  C   UNL A   1      35.395  33.868  27.927  1.00  0.00     0.014 A 
ATOM     36  C   UNL A   1      35.810  32.325  30.192  1.00  0.00     0.010 A 
ATOM     37  C   UNL A   1      36.660  33.414  28.206  1.00  0.00     0.010 A 
ATOM     38  C   UNL A   1      36.886  32.663  29.351  1.00  0.00    -0.014 A 
BRANCH  38  39
ATOM     39  C   UNL A   1      38.221  32.105  29.567  1.00  0.00     0.031 A 
ATOM     40  C   UNL A   1      38.368  30.668  29.201  1.00  0.00     0.074 A 
ATOM     41  C   UNL A   1      39.319  32.838  29.859  1.00  0.00     0.049 A 
ATOM     42  N   UNL A   1      38.471  29.667  30.008  1.00  0.00    -0.248 NA
ATOM     43  C   UNL A   1      38.249  30.281  27.786  1.00  0.00     0.031 C 
ATOM     44  C   UNL A   1      39.456  34.296  29.953  1.00  0.00     0.029 A 
ATOM     45  N   UNL A   1      40.599  32.411  30.029  1.00  0.00    -0.354 N 
ATOM     46  C   UNL A   1      38.653  28.542  29.211  1.00  0.00     0.074 A 
ATOM     47  C   UNL A   1      38.321  28.950  27.868  1.00  0.00     0.031 C 
ATOM     48  C   UNL A   1      40.764  34.634  29.917  1.00  0.00     0.029 A 
ATOM     49  C   UNL A   1      41.553  33.421  29.998  1.00  0.00     0.049 A 
ATOM     50  H   UNL A   1      40.831  31.464  30.164  1.00  0.00     0.167 HD
ATOM     51  C   UNL A   1      39.288  27.430  29.682  1.00  0.00     0.031 A 
ATOM     52  C   UNL A   1      42.901  33.270  30.037  1.00  0.00     0.031 A 
ATOM     53  C   UNL A   1      39.477  27.496  31.111  1.00  0.00     0.049 A 
ATOM     54  C   UNL A   1      43.167  31.946  30.648  1.00  0.00     0.074 A 
ATOM     55  C   UNL A   1      38.637  27.615  32.200  1.00  0.00     0.029 A 
ATOM     56  N   UNL A   1      40.727  27.864  31.554  1.00  0.00    -0.354 N 
ATOM     57  N   UNL A   1      42.872  31.661  31.886  1.00  0.00    -0.248 NA
ATOM     58  C   UNL A   1      43.336  30.800  29.769  1.00  0.00     0.031 C 
ATOM     59  C   UNL A   1      39.312  28.506  33.084  1.00  0.00     0.029 A 
ATOM     60  C   UNL A   1      40.554  28.817  32.525  1.00  0.00     0.049 A 
ATOM     61  H   UNL A   1      41.587  27.509  31.234  1.00  0.00     0.167 HD
ATOM     62  C   UNL A   1      42.384  30.363  31.844  1.00  0.00     0.074 A 
ATOM     63  C   UNL A   1      42.797  29.849  30.539  1.00  0.00     0.031 C 
ATOM     64  C   UNL A   1      41.462  29.923  32.752  1.00  0.00     0.031 A 
BRANCH  51  65
ATOM     65  C   UNL A   1      40.091  26.478  28.829  1.00  0.00    -0.014 A 
ATOM     66  C   UNL A   1      39.447  25.343  28.291  1.00  0.00     0.010 A 
ATOM     67  C   UNL A   1      41.499  26.502  28.766  1.00  0.00     0.010 A 
ATOM     68  C   UNL A   1      40.179  24.255  27.797  1.00  0.00     0.020 A 
ATOM     69  C   UNL A   1      42.237  25.443  28.234  1.00  0.00     0.020 A 
ATOM     70  C   UNL A   1      41.572  24.308  27.788  1.00  0.00     0.054 A 
BRANCH  70  71
ATOM     71  S   UNL A   1      42.511  22.855  27.259  1.00  0.00     0.124 S 
ATOM     72  O   UNL A   1      43.883  23.350  27.313  1.00  0.00    -0.237 OA
ATOM     73  O   UNL A   1      42.151  21.869  28.274  1.00  0.00    -0.237 OA
ATOM     74  O   UNL A   1      41.994  22.582  25.920  1.00  0.00    -0.744 OA
ENDBRANCH  70  71
ENDBRANCH  51  65
BRANCH  52  75
ATOM     75  C   UNL A   1      43.938  34.069  29.339  1.00  0.00    -0.014 A 
ATOM     76  C   UNL A   1      43.972  34.141  27.935  1.00  0.00     0.010 A 
ATOM     77  C   UNL A   1      44.715  34.997  30.063  1.00  0.00     0.010 A 
ATOM     78  C   UNL A   1      44.694  35.154  27.281  1.00  0.00     0.020 A 
ATOM     79  C   UNL A   1      45.442  36.005  29.418  1.00  0.00     0.020 A 
ATOM     80  C   UNL A   1      45.405  36.096  28.029  1.00  0.00     0.054 A 
BRANCH  80  81
ATOM     81  S   UNL A   1      46.163  37.519  27.186  1.00  0.00     0.124 S 
ATOM     82  O   UNL A   1      46.983  38.104  28.243  1.00  0.00    -0.237 OA
ATOM     83  O   UNL A   1      46.896  36.887  26.094  1.00  0.00    -0.237 OA
ATOM     84  O   UNL A   1      45.016  38.324  26.773  1.00  0.00    -0.744 OA
ENDBRANCH  80  81
ENDBRANCH  52  75
BRANCH  64  85
ATOM     85  C   UNL A   1      41.192  30.769  33.978  1.00  0.00    -0.014 A 
ATOM     86  C   UNL A   1      40.196  31.765  34.046  1.00  0.00     0.010 A 
ATOM     87  C   UNL A   1      41.878  30.432  35.159  1.00  0.00     0.010 A 
ATOM     88  C   UNL A   1      39.917  32.420  35.256  1.00  0.00     0.020 A 
ATOM     89  C   UNL A   1      41.592  31.066  36.370  1.00  0.00     0.020 A 
ATOM     90  C   UNL A   1      40.620  32.065  36.412  1.00  0.00     0.054 A 
BRANCH  90  91
ATOM     91  S   UNL A   1      40.228  32.883  37.985  1.00  0.00     0.124 S 
ATOM     92  O   UNL A   1      41.283  32.396  38.868  1.00  0.00    -0.237 OA
ATOM     93  O   UNL A   1      40.300  34.301  37.641  1.00  0.00    -0.237 OA
ATOM     94  O   UNL A   1      38.884  32.400  38.303  1.00  0.00    -0.744 OA
ENDBRANCH  90  91
ENDBRANCH  64  85
ENDBRANCH  38  39
ENDBRANCH  30  33
ENDBRANCH  28  29
ENDBRANCH   1  28
TORSDOF 17
ENDMDL
MODEL 3
REMARK VINA RESULT:     -11.5      2.905      9.100
REMARK SMILES COc1ccccc1-n1nnc(C(=O)NCCCCNC(=O)c2ccc(-c3c4nc(c(-c5ccc(S(=O)(=O)[O-])cc5)c5ccc([nH]5)c(-c5ccc(S(=O)(=O)[O-])cc5)c5nc(c(-c6ccc(S(=O)(=O)[O-])cc6)c6ccc3[nH]6)C=C5)C=C4)cc2)c1-c1ccc(Cl)cc1
REMARK SMILES IDX 18 1 17 2 16 3 15 4 13 5 14 6 12 8 9 9 10 10 83 11 11 12
REMARK SMILES IDX 8 13 3 14 4 15 5 16 7 17 6 18 2 19 1 20 84 21 85 22 90 23
REMARK SMILES IDX 86 24 89 25 87 26 88 27 19 28 20 29 21 30 22 32 23 33 24 34
REMARK SMILES IDX 82 35 25 36 81 37 26 38 27 39 28 40 75 41 29 42 80 43 74 44
REMARK SMILES IDX 76 45 30 46 79 47 73 48 72 49 31 51 61 52 42 53 60 54 43 55
REMARK SMILES IDX 46 56 59 57 77 58 44 59 45 60 58 62 78 63 47 64 32 65 33 66
REMARK SMILES IDX 41 67 34 68 40 69 35 70 36 71 37 72 38 73 39 74 62 75 63 76
REMARK SMILES IDX 71 77 64 78 70 79 65 80 66 81 67 82 68 83 69 84 48 85 49 86
REMARK SMILES IDX 57 87 50 88 56 89 51 90 52 91 53 92 54 93 55 94
REMARK H PARENT 15 7 20 31 76 50 46 61
REMARK Flexibility Score: inf
ROOT
ATOM      1  C   UNL A   1      41.469  19.997  26.510  1.00  0.00     0.023 C 
ENDROOT
BRANCH   1   2
ATOM      2  C   UNL A   1      40.828  21.299  26.983  1.00  0.00     0.023 C 
BRANCH   2   3
ATOM      3  C   UNL A   1      39.683  21.903  26.179  1.00  0.00     0.116 C 
BRANCH   3   4
ATOM      4  N   UNL A   1      39.084  23.143  26.591  1.00  0.00    -0.351 N 
ATOM      5  C   UNL A   1      37.776  23.569  26.396  1.00  0.00     0.274 C 
ATOM      6  O   UNL A   1      37.501  24.673  26.872  1.00  0.00    -0.267 OA
ATOM      7  H   UNL A   1      39.674  23.768  27.071  1.00  0.00     0.163 HD
BRANCH   5   8
ATOM      8  C   UNL A   1      36.764  22.821  25.618  1.00  0.00     0.178 A 
ATOM      9  N   UNL A   1      35.088  21.918  24.507  1.00  0.00    -0.208 N 
ATOM     10  N   UNL A   1      36.048  20.982  24.619  1.00  0.00    -0.061 NA
ATOM     11  C   UNL A   1      35.451  23.072  25.207  1.00  0.00     0.108 A 
ATOM     12  N   UNL A   1      37.101  21.547  25.184  1.00  0.00    -0.124 NA
BRANCH   9  13
ATOM     13  C   UNL A   1      33.820  21.616  23.951  1.00  0.00     0.109 A 
ATOM     14  C   UNL A   1      33.162  20.408  24.226  1.00  0.00     0.144 A 
ATOM     15  C   UNL A   1      32.156  19.973  23.358  1.00  0.00     0.049 A 
ATOM     16  C   UNL A   1      31.766  20.753  22.269  1.00  0.00     0.004 A 
ATOM     17  C   UNL A   1      33.371  22.443  22.905  1.00  0.00     0.032 A 
ATOM     18  C   UNL A   1      32.356  21.998  22.057  1.00  0.00     0.003 A 
BRANCH  14  19
ATOM     19  O   UNL A   1      33.465  19.525  25.226  1.00  0.00    -0.494 OA
ATOM     20  C   UNL A   1      32.843  18.245  25.131  1.00  0.00     0.278 C 
ENDBRANCH  14  19
ENDBRANCH   9  13
BRANCH  11  21
ATOM     21  C   UNL A   1      34.465  24.114  25.497  1.00  0.00     0.003 A 
ATOM     22  C   UNL A   1      34.521  25.375  24.900  1.00  0.00     0.012 A 
ATOM     23  C   UNL A   1      33.432  23.825  26.413  1.00  0.00     0.012 A 
ATOM     24  C   UNL A   1      33.549  26.330  25.213  1.00  0.00     0.021 A 
ATOM     25  C   UNL A   1      32.491  24.792  26.752  1.00  0.00     0.021 A 
ATOM     26  C   UNL A   1      32.551  26.041  26.145  1.00  0.00     0.041 A 
ATOM     27  Cl  UNL A   1      31.384  27.232  26.556  1.00  0.00    -0.084 Cl
ENDBRANCH  11  21
ENDBRANCH   5   8
ENDBRANCH   3   4
ENDBRANCH   2   3
ENDBRANCH   1   2
BRANCH   1  28
ATOM     28  C   UNL A   1      42.906  19.737  26.949  1.00  0.00     0.116 C 
BRANCH  28  29
ATOM     29  N   UNL A   1      43.836  19.347  25.886  1.00  0.00    -0.352 N 
ATOM     30  C   UNL A   1      44.349  20.185  24.893  1.00  0.00     0.251 C 
ATOM     31  H   UNL A   1      44.126  18.407  25.870  1.00  0.00     0.163 HD
ATOM     32  O   UNL A   1      44.730  19.745  23.827  1.00  0.00    -0.269 OA
BRANCH  30  33
ATOM     33  C   UNL A   1      44.397  21.638  25.179  1.00  0.00     0.039 A 
ATOM     34  C   UNL A   1      43.493  22.542  24.618  1.00  0.00     0.014 A 
ATOM     35  C   UNL A   1      45.317  22.060  26.130  1.00  0.00     0.014 A 
ATOM     36  C   UNL A   1      43.438  23.839  25.137  1.00  0.00     0.010 A 
ATOM     37  C   UNL A   1      45.158  23.277  26.743  1.00  0.00     0.010 A 
ATOM     38  C   UNL A   1      44.239  24.187  26.239  1.00  0.00    -0.014 A 
BRANCH  38  39
ATOM     39  C   UNL A   1      44.015  25.432  26.975  1.00  0.00     0.031 A 
ATOM     40  C   UNL A   1      44.981  26.525  26.667  1.00  0.00     0.074 A 
ATOM     41  C   UNL A   1      42.914  25.699  27.712  1.00  0.00     0.049 A 
ATOM     42  N   UNL A   1      45.939  26.951  27.420  1.00  0.00    -0.248 NA
ATOM     43  C   UNL A   1      44.974  27.120  25.321  1.00  0.00     0.031 C 
ATOM     44  C   UNL A   1      41.705  24.887  27.890  1.00  0.00     0.029 A 
ATOM     45  N   UNL A   1      42.605  26.838  28.386  1.00  0.00    -0.354 N 
ATOM     46  C   UNL A   1      46.520  28.017  26.743  1.00  0.00     0.074 A 
ATOM     47  C   UNL A   1      46.016  27.953  25.394  1.00  0.00     0.031 C 
ATOM     48  C   UNL A   1      40.716  25.649  28.406  1.00  0.00     0.029 A 
ATOM     49  C   UNL A   1      41.275  26.934  28.778  1.00  0.00     0.049 A 
ATOM     50  H   UNL A   1      43.268  27.539  28.582  1.00  0.00     0.167 HD
ATOM     51  C   UNL A   1      47.186  29.005  27.408  1.00  0.00     0.031 A 
ATOM     52  C   UNL A   1      40.673  27.997  29.367  1.00  0.00     0.031 A 
ATOM     53  C   UNL A   1      47.415  28.652  28.787  1.00  0.00     0.049 A 
ATOM     54  C   UNL A   1      41.746  28.800  30.001  1.00  0.00     0.074 A 
ATOM     55  C   UNL A   1      48.069  27.621  29.434  1.00  0.00     0.029 A 
ATOM     56  N   UNL A   1      46.562  29.202  29.717  1.00  0.00    -0.354 N 
ATOM     57  N   UNL A   1      42.464  28.366  30.999  1.00  0.00    -0.248 NA
ATOM     58  C   UNL A   1      42.330  29.896  29.244  1.00  0.00     0.031 C 
ATOM     59  C   UNL A   1      47.230  27.295  30.540  1.00  0.00     0.029 A 
ATOM     60  C   UNL A   1      46.158  28.192  30.552  1.00  0.00     0.049 A 
ATOM     61  H   UNL A   1      46.292  30.147  29.773  1.00  0.00     0.167 HD
ATOM     62  C   UNL A   1      43.751  28.809  30.728  1.00  0.00     0.074 A 
ATOM     63  C   UNL A   1      43.585  29.834  29.698  1.00  0.00     0.031 C 
ATOM     64  C   UNL A   1      44.845  28.114  31.161  1.00  0.00     0.031 A 
BRANCH  51  65
ATOM     65  C   UNL A   1      47.279  30.438  26.941  1.00  0.00    -0.014 A 
ATOM     66  C   UNL A   1      48.522  31.101  27.032  1.00  0.00     0.010 A 
ATOM     67  C   UNL A   1      46.148  31.236  26.680  1.00  0.00     0.010 A 
ATOM     68  C   UNL A   1      48.611  32.497  26.953  1.00  0.00     0.020 A 
ATOM     69  C   UNL A   1      46.232  32.625  26.554  1.00  0.00     0.020 A 
ATOM     70  C   UNL A   1      47.459  33.250  26.731  1.00  0.00     0.054 A 
BRANCH  70  71
ATOM     71  S   UNL A   1      47.564  35.056  26.749  1.00  0.00     0.124 S 
ATOM     72  O   UNL A   1      48.792  35.292  25.996  1.00  0.00    -0.237 OA
ATOM     73  O   UNL A   1      46.324  35.444  26.081  1.00  0.00    -0.237 OA
ATOM     74  O   UNL A   1      47.627  35.381  28.172  1.00  0.00    -0.744 OA
ENDBRANCH  70  71
ENDBRANCH  51  65
BRANCH  52  75
ATOM     75  C   UNL A   1      39.287  28.493  29.181  1.00  0.00    -0.014 A 
ATOM     76  C   UNL A   1      38.495  28.857  30.284  1.00  0.00     0.010 A 
ATOM     77  C   UNL A   1      38.848  28.887  27.899  1.00  0.00     0.010 A 
ATOM     78  C   UNL A   1      37.348  29.653  30.120  1.00  0.00     0.020 A 
ATOM     79  C   UNL A   1      37.702  29.673  27.727  1.00  0.00     0.020 A 
ATOM     80  C   UNL A   1      36.973  30.077  28.843  1.00  0.00     0.054 A 
BRANCH  80  81
ATOM     81  S   UNL A   1      35.613  31.271  28.661  1.00  0.00     0.124 S 
ATOM     82  O   UNL A   1      35.205  31.490  30.046  1.00  0.00    -0.237 OA
ATOM     83  O   UNL A   1      36.268  32.401  28.009  1.00  0.00    -0.237 OA
ATOM     84  O   UNL A   1      34.641  30.561  27.832  1.00  0.00    -0.744 OA
ENDBRANCH  80  81
ENDBRANCH  52  75
BRANCH  64  85
ATOM     85  C   UNL A   1      44.648  27.017  32.186  1.00  0.00    -0.014 A 
ATOM     86  C   UNL A   1      44.395  27.250  33.553  1.00  0.00     0.010 A 
ATOM     87  C   UNL A   1      44.565  25.696  31.708  1.00  0.00     0.010 A 
ATOM     88  C   UNL A   1      44.095  26.186  34.419  1.00  0.00     0.020 A 
ATOM     89  C   UNL A   1      44.247  24.636  32.561  1.00  0.00     0.020 A 
ATOM     90  C   UNL A   1      44.024  24.884  33.915  1.00  0.00     0.054 A 
BRANCH  90  91
ATOM     91  S   UNL A   1      43.593  23.515  35.028  1.00  0.00     0.124 S 
ATOM     92  O   UNL A   1      43.862  22.340  34.205  1.00  0.00    -0.237 OA
ATOM     93  O   UNL A   1      44.499  23.715  36.155  1.00  0.00    -0.237 OA
ATOM     94  O   UNL A   1      42.181  23.746  35.332  1.00  0.00    -0.744 OA
ENDBRANCH  90  91
ENDBRANCH  64  85
ENDBRANCH  38  39
ENDBRANCH  30  33
ENDBRANCH  28  29
ENDBRANCH   1  28
TORSDOF 17
ENDMDL
