MODEL 1
REMARK VINA RESULT:     -11.5      0.000      0.000
REMARK SMILES CCN(C(=O)Cc1c(C(=O)NCCCCNC(=O)c2ccc(-c3c4nc(c(-c5ccc(S(=O)(=O)[O-])cc5)c5ccc([nH]5)c(-c5ccc(S(=O)(=O)[O-])cc5)c5nc(c(-c6ccc(S(=O)(=O)[O-])cc6)c6ccc3[nH]6)C=C5)C=C4)cc2)[nH]c2ccc(Cl)cc12)c1ccc(C)c(C)c1
REMARK SMILES IDX 13 1 12 2 11 3 9 4 10 5 8 7 7 8 86 9 79 10 80 11 85 12 81 14
REMARK SMILES IDX 83 15 82 16 84 17 6 18 4 19 5 20 3 21 2 22 1 23 87 24 88 25
REMARK SMILES IDX 94 26 89 27 92 28 90 29 93 30 91 31 14 32 15 33 16 34 17 35
REMARK SMILES IDX 18 37 19 38 20 39 78 40 21 41 77 42 22 43 23 44 24 45 71 46
REMARK SMILES IDX 25 47 76 48 70 49 72 50 26 51 75 52 69 53 68 54 27 56 57 57
REMARK SMILES IDX 38 58 56 59 39 60 42 61 55 62 73 63 40 64 41 65 54 67 74 68
REMARK SMILES IDX 43 69 28 70 29 71 37 72 30 73 36 74 31 75 32 76 33 77 34 78
REMARK SMILES IDX 35 79 58 80 59 81 67 82 60 83 66 84 61 85 62 86 63 87 64 88
REMARK SMILES IDX 65 89 44 90 45 91 53 92 46 93 52 94 47 95 48 96 49 97 50 98
REMARK SMILES IDX 51 99
REMARK H PARENT 11 6 79 13 16 36 72 55 42 66
REMARK Flexibility Score: inf
ROOT
ATOM      1  C   UNL A   1      37.059  20.337  25.050  1.00  0.00     0.023 C 
ENDROOT
BRANCH   1   2
ATOM      2  C   UNL A   1      35.616  20.838  25.125  1.00  0.00     0.116 C 
BRANCH   2   3
ATOM      3  N   UNL A   1      34.604  19.817  24.968  1.00  0.00    -0.351 N 
ATOM      4  C   UNL A   1      33.268  19.891  24.655  1.00  0.00     0.268 C 
ATOM      5  O   UNL A   1      32.738  18.854  24.245  1.00  0.00    -0.268 OA
ATOM      6  H   UNL A   1      34.933  18.900  25.114  1.00  0.00     0.163 HD
BRANCH   4   7
ATOM      7  C   UNL A   1      32.503  21.131  24.700  1.00  0.00     0.109 A 
ATOM      8  C   UNL A   1      32.188  22.146  23.792  1.00  0.00    -0.000 A 
ATOM      9  C   UNL A   1      31.336  23.079  24.466  1.00  0.00     0.005 A 
ATOM     10  N   UNL A   1      32.123  21.627  25.936  1.00  0.00    -0.350 N 
ATOM     11  C   UNL A   1      31.429  22.805  25.822  1.00  0.00     0.046 A 
ATOM     12  C   UNL A   1      30.591  24.200  24.043  1.00  0.00     0.031 A 
ATOM     13  H   UNL A   1      32.325  21.187  26.792  1.00  0.00     0.167 HD
ATOM     14  C   UNL A   1      30.908  23.659  26.800  1.00  0.00     0.028 A 
ATOM     15  C   UNL A   1      30.020  25.033  25.005  1.00  0.00     0.041 A 
ATOM     16  C   UNL A   1      30.204  24.788  26.362  1.00  0.00     0.022 A 
ATOM     17  Cl  UNL A   1      29.103  26.398  24.494  1.00  0.00    -0.084 Cl
BRANCH   8  18
ATOM     18  C   UNL A   1      32.688  22.389  22.406  1.00  0.00     0.139 C 
BRANCH  18  19
ATOM     19  C   UNL A   1      33.722  23.522  22.355  1.00  0.00     0.231 C 
ATOM     20  O   UNL A   1      34.930  23.292  22.463  1.00  0.00    -0.274 OA
BRANCH  19  21
ATOM     21  N   UNL A   1      33.271  24.820  22.122  1.00  0.00    -0.312 N 
BRANCH  21  22
ATOM     22  C   UNL A   1      32.239  25.102  21.131  1.00  0.00     0.122 C 
ATOM     23  C   UNL A   1      32.805  25.517  19.777  1.00  0.00     0.028 C 
ENDBRANCH  21  22
BRANCH  21  24
ATOM     24  C   UNL A   1      33.450  25.720  23.210  1.00  0.00     0.044 A 
ATOM     25  C   UNL A   1      34.079  25.252  24.367  1.00  0.00     0.026 A 
ATOM     26  C   UNL A   1      32.776  26.941  23.240  1.00  0.00     0.030 A 
ATOM     27  C   UNL A   1      34.051  26.014  25.536  1.00  0.00     0.006 A 
ATOM     28  C   UNL A   1      32.699  27.692  24.425  1.00  0.00    -0.046 A 
ATOM     29  C   UNL A   1      33.365  27.238  25.581  1.00  0.00    -0.048 A 
ATOM     30  C   UNL A   1      31.844  28.929  24.435  1.00  0.00     0.044 C 
ATOM     31  C   UNL A   1      33.283  27.955  26.901  1.00  0.00     0.044 C 
ENDBRANCH  21  24
ENDBRANCH  19  21
ENDBRANCH  18  19
ENDBRANCH   8  18
ENDBRANCH   4   7
ENDBRANCH   2   3
ENDBRANCH   1   2
BRANCH   1  32
ATOM     32  C   UNL A   1      38.163  21.378  24.996  1.00  0.00     0.023 C 
BRANCH  32  33
ATOM     33  C   UNL A   1      39.148  21.252  26.134  1.00  0.00     0.116 C 
BRANCH  33  34
ATOM     34  N   UNL A   1      39.974  20.047  26.046  1.00  0.00    -0.352 N 
ATOM     35  C   UNL A   1      41.340  19.926  26.111  1.00  0.00     0.251 C 
ATOM     36  H   UNL A   1      39.481  19.204  25.923  1.00  0.00     0.163 HD
ATOM     37  O   UNL A   1      41.878  18.840  25.916  1.00  0.00    -0.269 OA
BRANCH  35  38
ATOM     38  C   UNL A   1      42.144  21.134  26.367  1.00  0.00     0.039 A 
ATOM     39  C   UNL A   1      42.437  21.996  25.310  1.00  0.00     0.014 A 
ATOM     40  C   UNL A   1      42.521  21.451  27.672  1.00  0.00     0.014 A 
ATOM     41  C   UNL A   1      43.050  23.218  25.580  1.00  0.00     0.010 A 
ATOM     42  C   UNL A   1      43.003  22.715  27.952  1.00  0.00     0.010 A 
ATOM     43  C   UNL A   1      43.299  23.601  26.908  1.00  0.00    -0.014 A 
BRANCH  43  44
ATOM     44  C   UNL A   1      43.922  24.900  27.244  1.00  0.00     0.031 A 
ATOM     45  C   UNL A   1      43.056  26.007  27.783  1.00  0.00     0.074 A 
ATOM     46  C   UNL A   1      45.228  25.104  26.985  1.00  0.00     0.049 A 
ATOM     47  N   UNL A   1      43.370  27.249  28.040  1.00  0.00    -0.248 NA
ATOM     48  C   UNL A   1      41.635  25.690  28.016  1.00  0.00     0.031 C 
ATOM     49  C   UNL A   1      46.146  24.122  26.400  1.00  0.00     0.029 A 
ATOM     50  N   UNL A   1      46.011  26.213  27.178  1.00  0.00    -0.354 N 
ATOM     51  C   UNL A   1      42.183  27.863  28.423  1.00  0.00     0.074 A 
ATOM     52  C   UNL A   1      41.133  26.880  28.299  1.00  0.00     0.031 C 
ATOM     53  C   UNL A   1      47.374  24.659  26.322  1.00  0.00     0.029 A 
ATOM     54  C   UNL A   1      47.323  26.032  26.811  1.00  0.00     0.049 A 
ATOM     55  H   UNL A   1      45.665  27.058  27.544  1.00  0.00     0.167 HD
ATOM     56  C   UNL A   1      41.990  29.124  28.872  1.00  0.00     0.031 A 
ATOM     57  C   UNL A   1      48.366  26.882  26.868  1.00  0.00     0.031 A 
ATOM     58  C   UNL A   1      43.054  30.074  29.040  1.00  0.00     0.049 A 
ATOM     59  C   UNL A   1      48.139  28.263  27.420  1.00  0.00     0.074 A 
ATOM     60  C   UNL A   1      42.992  31.353  29.560  1.00  0.00     0.029 A 
ATOM     61  N   UNL A   1      44.377  29.837  28.703  1.00  0.00    -0.354 N 
ATOM     62  N   UNL A   1      47.021  28.807  27.841  1.00  0.00    -0.248 NA
ATOM     63  C   UNL A   1      49.313  29.139  27.517  1.00  0.00     0.031 C 
ATOM     64  C   UNL A   1      44.276  31.904  29.502  1.00  0.00     0.029 A 
ATOM     65  C   UNL A   1      45.144  30.949  28.994  1.00  0.00     0.049 A 
ATOM     66  H   UNL A   1      44.722  29.000  28.315  1.00  0.00     0.167 HD
ATOM     67  C   UNL A   1      47.362  30.082  28.278  1.00  0.00     0.074 A 
ATOM     68  C   UNL A   1      48.792  30.219  28.084  1.00  0.00     0.031 C 
ATOM     69  C   UNL A   1      46.567  31.052  28.793  1.00  0.00     0.031 A 
BRANCH  56  70
ATOM     70  C   UNL A   1      40.583  29.527  29.223  1.00  0.00    -0.014 A 
ATOM     71  C   UNL A   1      39.625  29.774  28.221  1.00  0.00     0.010 A 
ATOM     72  C   UNL A   1      40.206  29.656  30.573  1.00  0.00     0.010 A 
ATOM     73  C   UNL A   1      38.335  30.191  28.559  1.00  0.00     0.020 A 
ATOM     74  C   UNL A   1      38.907  30.041  30.916  1.00  0.00     0.020 A 
ATOM     75  C   UNL A   1      37.986  30.326  29.905  1.00  0.00     0.054 A 
BRANCH  75  76
ATOM     76  S   UNL A   1      36.299  30.851  30.316  1.00  0.00     0.124 S 
ATOM     77  O   UNL A   1      35.946  29.920  31.385  1.00  0.00    -0.237 OA
ATOM     78  O   UNL A   1      36.488  32.239  30.729  1.00  0.00    -0.237 OA
ATOM     79  O   UNL A   1      35.567  30.671  29.065  1.00  0.00    -0.744 OA
ENDBRANCH  75  76
ENDBRANCH  56  70
BRANCH  57  80
ATOM     80  C   UNL A   1      49.717  26.435  26.433  1.00  0.00    -0.014 A 
ATOM     81  C   UNL A   1      50.150  26.659  25.114  1.00  0.00     0.010 A 
ATOM     82  C   UNL A   1      50.590  25.807  27.340  1.00  0.00     0.010 A 
ATOM     83  C   UNL A   1      51.420  26.246  24.703  1.00  0.00     0.020 A 
ATOM     84  C   UNL A   1      51.872  25.416  26.940  1.00  0.00     0.020 A 
ATOM     85  C   UNL A   1      52.275  25.628  25.620  1.00  0.00     0.054 A 
BRANCH  85  86
ATOM     86  S   UNL A   1      53.940  25.150  25.080  1.00  0.00     0.124 S 
ATOM     87  O   UNL A   1      54.755  25.540  26.227  1.00  0.00    -0.237 OA
ATOM     88  O   UNL A   1      53.801  23.712  24.861  1.00  0.00    -0.237 OA
ATOM     89  O   UNL A   1      54.144  25.939  23.868  1.00  0.00    -0.744 OA
ENDBRANCH  85  86
ENDBRANCH  57  80
BRANCH  69  90
ATOM     90  C   UNL A   1      47.231  32.333  29.213  1.00  0.00    -0.014 A 
ATOM     91  C   UNL A   1      47.797  32.471  30.492  1.00  0.00     0.010 A 
ATOM     92  C   UNL A   1      47.348  33.386  28.289  1.00  0.00     0.010 A 
ATOM     93  C   UNL A   1      48.442  33.657  30.851  1.00  0.00     0.020 A 
ATOM     94  C   UNL A   1      48.015  34.561  28.634  1.00  0.00     0.020 A 
ATOM     95  C   UNL A   1      48.546  34.695  29.918  1.00  0.00     0.054 A 
BRANCH  95  96
ATOM     96  S   UNL A   1      49.431  36.205  30.391  1.00  0.00     0.124 S 
ATOM     97  O   UNL A   1      49.836  35.903  31.761  1.00  0.00    -0.237 OA
ATOM     98  O   UNL A   1      50.515  36.262  29.413  1.00  0.00    -0.237 OA
ATOM     99  O   UNL A   1      48.423  37.253  30.255  1.00  0.00    -0.744 OA
ENDBRANCH  95  96
ENDBRANCH  69  90
ENDBRANCH  43  44
ENDBRANCH  35  38
ENDBRANCH  33  34
ENDBRANCH  32  33
ENDBRANCH   1  32
TORSDOF 19
ENDMDL
MODEL 2
REMARK VINA RESULT:     -11.5      3.852      9.248
REMARK SMILES CCN(C(=O)Cc1c(C(=O)NCCCCNC(=O)c2ccc(-c3c4nc(c(-c5ccc(S(=O)(=O)[O-])cc5)c5ccc([nH]5)c(-c5ccc(S(=O)(=O)[O-])cc5)c5nc(c(-c6ccc(S(=O)(=O)[O-])cc6)c6ccc3[nH]6)C=C5)C=C4)cc2)[nH]c2ccc(Cl)cc12)c1ccc(C)c(C)c1
REMARK SMILES IDX 13 1 12 2 11 3 9 4 10 5 8 7 7 8 86 9 79 10 80 11 85 12 81 14
REMARK SMILES IDX 83 15 82 16 84 17 6 18 4 19 5 20 3 21 2 22 1 23 87 24 88 25
REMARK SMILES IDX 94 26 89 27 92 28 90 29 93 30 91 31 14 32 15 33 16 34 17 35
REMARK SMILES IDX 18 37 19 38 20 39 78 40 21 41 77 42 22 43 23 44 24 45 71 46
REMARK SMILES IDX 25 47 76 48 70 49 72 50 26 51 75 52 69 53 68 54 27 56 57 57
REMARK SMILES IDX 38 58 56 59 39 60 42 61 55 62 73 63 40 64 41 65 54 67 74 68
REMARK SMILES IDX 43 69 28 70 29 71 37 72 30 73 36 74 31 75 32 76 33 77 34 78
REMARK SMILES IDX 35 79 58 80 59 81 67 82 60 83 66 84 61 85 62 86 63 87 64 88
REMARK SMILES IDX 65 89 44 90 45 91 53 92 46 93 52 94 47 95 48 96 49 97 50 98
REMARK SMILES IDX 51 99
REMARK H PARENT 11 6 79 13 16 36 72 55 42 66
REMARK Flexibility Score: inf
ROOT
ATOM      1  C   UNL A   1      34.583  21.886  26.277  1.00  0.00     0.023 C 
ENDROOT
BRANCH   1   2
ATOM      2  C   UNL A   1      34.220  22.588  27.586  1.00  0.00     0.116 C 
BRANCH   2   3
ATOM      3  N   UNL A   1      32.807  22.824  27.784  1.00  0.00    -0.351 N 
ATOM      4  C   UNL A   1      31.873  23.483  27.020  1.00  0.00     0.268 C 
ATOM      5  O   UNL A   1      30.688  23.226  27.253  1.00  0.00    -0.268 OA
ATOM      6  H   UNL A   1      32.448  22.444  28.618  1.00  0.00     0.163 HD
BRANCH   4   7
ATOM      7  C   UNL A   1      32.221  24.375  25.921  1.00  0.00     0.109 A 
ATOM      8  C   UNL A   1      32.808  25.638  25.805  1.00  0.00    -0.000 A 
ATOM      9  C   UNL A   1      32.916  25.937  24.409  1.00  0.00     0.005 A 
ATOM     10  N   UNL A   1      31.710  24.102  24.663  1.00  0.00    -0.350 N 
ATOM     11  C   UNL A   1      32.104  25.035  23.738  1.00  0.00     0.046 A 
ATOM     12  C   UNL A   1      33.541  26.970  23.679  1.00  0.00     0.031 A 
ATOM     13  H   UNL A   1      31.134  23.331  24.457  1.00  0.00     0.167 HD
ATOM     14  C   UNL A   1      31.788  25.170  22.382  1.00  0.00     0.028 A 
ATOM     15  C   UNL A   1      33.278  27.087  22.314  1.00  0.00     0.041 A 
ATOM     16  C   UNL A   1      32.389  26.224  21.681  1.00  0.00     0.022 A 
ATOM     17  Cl  UNL A   1      34.044  28.341  21.417  1.00  0.00    -0.084 Cl
BRANCH   8  18
ATOM     18  C   UNL A   1      33.172  26.632  26.858  1.00  0.00     0.139 C 
BRANCH  18  19
ATOM     19  C   UNL A   1      32.171  27.793  26.928  1.00  0.00     0.231 C 
ATOM     20  O   UNL A   1      31.024  27.626  27.353  1.00  0.00    -0.274 OA
BRANCH  19  21
ATOM     21  N   UNL A   1      32.604  29.065  26.556  1.00  0.00    -0.312 N 
BRANCH  21  22
ATOM     22  C   UNL A   1      34.008  29.450  26.652  1.00  0.00     0.122 C 
ATOM     23  C   UNL A   1      34.250  30.590  27.635  1.00  0.00     0.028 C 
ENDBRANCH  21  22
BRANCH  21  24
ATOM     24  C   UNL A   1      31.766  29.732  25.619  1.00  0.00     0.044 A 
ATOM     25  C   UNL A   1      31.291  31.007  25.938  1.00  0.00     0.026 A 
ATOM     26  C   UNL A   1      31.204  29.037  24.547  1.00  0.00     0.030 A 
ATOM     27  C   UNL A   1      30.278  31.588  25.174  1.00  0.00     0.006 A 
ATOM     28  C   UNL A   1      30.149  29.591  23.803  1.00  0.00    -0.046 A 
ATOM     29  C   UNL A   1      29.696  30.892  24.102  1.00  0.00    -0.048 A 
ATOM     30  C   UNL A   1      29.491  28.742  22.752  1.00  0.00     0.044 C 
ATOM     31  C   UNL A   1      28.536  31.532  23.390  1.00  0.00     0.044 C 
ENDBRANCH  21  24
ENDBRANCH  19  21
ENDBRANCH  18  19
ENDBRANCH   8  18
ENDBRANCH   4   7
ENDBRANCH   2   3
ENDBRANCH   1   2
BRANCH   1  32
ATOM     32  C   UNL A   1      35.330  22.694  25.231  1.00  0.00     0.023 C 
BRANCH  32  33
ATOM     33  C   UNL A   1      36.541  23.404  25.790  1.00  0.00     0.116 C 
BRANCH  33  34
ATOM     34  N   UNL A   1      37.738  22.562  25.816  1.00  0.00    -0.352 N 
ATOM     35  C   UNL A   1      39.001  22.865  26.258  1.00  0.00     0.251 C 
ATOM     36  H   UNL A   1      37.620  21.649  25.467  1.00  0.00     0.163 HD
ATOM     37  O   UNL A   1      39.920  22.064  26.112  1.00  0.00    -0.269 OA
BRANCH  35  38
ATOM     38  C   UNL A   1      39.239  24.188  26.861  1.00  0.00     0.039 A 
ATOM     39  C   UNL A   1      38.876  24.407  28.190  1.00  0.00     0.014 A 
ATOM     40  C   UNL A   1      39.906  25.173  26.132  1.00  0.00     0.014 A 
ATOM     41  C   UNL A   1      39.252  25.598  28.809  1.00  0.00     0.010 A 
ATOM     42  C   UNL A   1      40.394  26.288  26.784  1.00  0.00     0.010 A 
ATOM     43  C   UNL A   1      40.049  26.527  28.121  1.00  0.00    -0.014 A 
BRANCH  43  44
ATOM     44  C   UNL A   1      40.495  27.791  28.747  1.00  0.00     0.031 A 
ATOM     45  C   UNL A   1      41.887  27.872  29.313  1.00  0.00     0.074 A 
ATOM     46  C   UNL A   1      39.630  28.815  28.880  1.00  0.00     0.049 A 
ATOM     47  N   UNL A   1      42.444  28.838  29.997  1.00  0.00    -0.248 NA
ATOM     48  C   UNL A   1      42.752  26.692  29.133  1.00  0.00     0.031 C 
ATOM     49  C   UNL A   1      38.236  28.819  28.427  1.00  0.00     0.029 A 
ATOM     50  N   UNL A   1      39.799  30.054  29.441  1.00  0.00    -0.354 N 
ATOM     51  C   UNL A   1      43.700  28.363  30.357  1.00  0.00     0.074 A 
ATOM     52  C   UNL A   1      43.798  27.003  29.879  1.00  0.00     0.031 C 
ATOM     53  C   UNL A   1      37.691  30.018  28.691  1.00  0.00     0.029 A 
ATOM     54  C   UNL A   1      38.680  30.850  29.366  1.00  0.00     0.049 A 
ATOM     55  H   UNL A   1      40.641  30.346  29.858  1.00  0.00     0.167 HD
ATOM     56  C   UNL A   1      44.698  29.014  30.998  1.00  0.00     0.031 A 
ATOM     57  C   UNL A   1      38.482  32.112  29.793  1.00  0.00     0.031 A 
ATOM     58  C   UNL A   1      44.605  30.383  31.419  1.00  0.00     0.049 A 
ATOM     59  C   UNL A   1      39.622  32.834  30.457  1.00  0.00     0.074 A 
ATOM     60  C   UNL A   1      45.576  31.171  32.007  1.00  0.00     0.029 A 
ATOM     61  N   UNL A   1      43.472  31.170  31.282  1.00  0.00    -0.354 N 
ATOM     62  N   UNL A   1      40.828  32.393  30.731  1.00  0.00    -0.248 NA
ATOM     63  C   UNL A   1      39.381  34.227  30.857  1.00  0.00     0.031 C 
ATOM     64  C   UNL A   1      45.017  32.428  32.260  1.00  0.00     0.029 A 
ATOM     65  C   UNL A   1      43.715  32.435  31.782  1.00  0.00     0.049 A 
ATOM     66  H   UNL A   1      42.621  30.873  30.886  1.00  0.00     0.167 HD
ATOM     67  C   UNL A   1      41.499  33.462  31.312  1.00  0.00     0.074 A 
ATOM     68  C   UNL A   1      40.569  34.574  31.335  1.00  0.00     0.031 C 
ATOM     69  C   UNL A   1      42.768  33.522  31.785  1.00  0.00     0.031 A 
BRANCH  56  70
ATOM     70  C   UNL A   1      45.969  28.250  31.259  1.00  0.00    -0.014 A 
ATOM     71  C   UNL A   1      46.224  27.670  32.517  1.00  0.00     0.010 A 
ATOM     72  C   UNL A   1      46.920  28.101  30.233  1.00  0.00     0.010 A 
ATOM     73  C   UNL A   1      47.427  27.002  32.759  1.00  0.00     0.020 A 
ATOM     74  C   UNL A   1      48.111  27.405  30.462  1.00  0.00     0.020 A 
ATOM     75  C   UNL A   1      48.365  26.877  31.730  1.00  0.00     0.054 A 
BRANCH  75  76
ATOM     76  S   UNL A   1      49.910  25.989  32.068  1.00  0.00     0.124 S 
ATOM     77  O   UNL A   1      49.454  24.915  32.948  1.00  0.00    -0.237 OA
ATOM     78  O   UNL A   1      50.336  25.570  30.736  1.00  0.00    -0.237 OA
ATOM     79  O   UNL A   1      50.756  26.997  32.702  1.00  0.00    -0.744 OA
ENDBRANCH  75  76
ENDBRANCH  56  70
BRANCH  57  80
ATOM     80  C   UNL A   1      37.171  32.778  29.565  1.00  0.00    -0.014 A 
ATOM     81  C   UNL A   1      36.162  32.717  30.543  1.00  0.00     0.010 A 
ATOM     82  C   UNL A   1      36.931  33.502  28.382  1.00  0.00     0.010 A 
ATOM     83  C   UNL A   1      34.932  33.347  30.335  1.00  0.00     0.020 A 
ATOM     84  C   UNL A   1      35.711  34.155  28.182  1.00  0.00     0.020 A 
ATOM     85  C   UNL A   1      34.715  34.064  29.155  1.00  0.00     0.054 A 
BRANCH  85  86
ATOM     86  S   UNL A   1      33.130  34.920  28.931  1.00  0.00     0.124 S 
ATOM     87  O   UNL A   1      32.607  34.951  30.293  1.00  0.00    -0.237 OA
ATOM     88  O   UNL A   1      33.541  36.209  28.381  1.00  0.00    -0.237 OA
ATOM     89  O   UNL A   1      32.406  34.058  28.000  1.00  0.00    -0.744 OA
ENDBRANCH  85  86
ENDBRANCH  57  80
BRANCH  69  90
ATOM     90  C   UNL A   1      43.234  34.840  32.336  1.00  0.00    -0.014 A 
ATOM     91  C   UNL A   1      43.082  35.152  33.698  1.00  0.00     0.010 A 
ATOM     92  C   UNL A   1      43.892  35.749  31.488  1.00  0.00     0.010 A 
ATOM     93  C   UNL A   1      43.555  36.367  34.198  1.00  0.00     0.020 A 
ATOM     94  C   UNL A   1      44.390  36.952  31.990  1.00  0.00     0.020 A 
ATOM     95  C   UNL A   1      44.205  37.260  33.339  1.00  0.00     0.054 A 
BRANCH  95  96
ATOM     96  S   UNL A   1      44.853  38.810  34.021  1.00  0.00     0.124 S 
ATOM     97  O   UNL A   1      44.431  39.783  33.017  1.00  0.00    -0.237 OA
ATOM     98  O   UNL A   1      44.173  38.903  35.311  1.00  0.00    -0.237 OA
ATOM     99  O   UNL A   1      46.293  38.578  34.098  1.00  0.00    -0.744 OA
ENDBRANCH  95  96
ENDBRANCH  69  90
ENDBRANCH  43  44
ENDBRANCH  35  38
ENDBRANCH  33  34
ENDBRANCH  32  33
ENDBRANCH   1  32
TORSDOF 19
ENDMDL
MODEL 3
REMARK VINA RESULT:     -11.3      0.668      7.876
REMARK SMILES CCN(C(=O)Cc1c(C(=O)NCCCCNC(=O)c2ccc(-c3c4nc(c(-c5ccc(S(=O)(=O)[O-])cc5)c5ccc([nH]5)c(-c5ccc(S(=O)(=O)[O-])cc5)c5nc(c(-c6ccc(S(=O)(=O)[O-])cc6)c6ccc3[nH]6)C=C5)C=C4)cc2)[nH]c2ccc(Cl)cc12)c1ccc(C)c(C)c1
REMARK SMILES IDX 13 1 12 2 11 3 9 4 10 5 8 7 7 8 86 9 79 10 80 11 85 12 81 14
REMARK SMILES IDX 83 15 82 16 84 17 6 18 4 19 5 20 3 21 2 22 1 23 87 24 88 25
REMARK SMILES IDX 94 26 89 27 92 28 90 29 93 30 91 31 14 32 15 33 16 34 17 35
REMARK SMILES IDX 18 37 19 38 20 39 78 40 21 41 77 42 22 43 23 44 24 45 71 46
REMARK SMILES IDX 25 47 76 48 70 49 72 50 26 51 75 52 69 53 68 54 27 56 57 57
REMARK SMILES IDX 38 58 56 59 39 60 42 61 55 62 73 63 40 64 41 65 54 67 74 68
REMARK SMILES IDX 43 69 28 70 29 71 37 72 30 73 36 74 31 75 32 76 33 77 34 78
REMARK SMILES IDX 35 79 58 80 59 81 67 82 60 83 66 84 61 85 62 86 63 87 64 88
REMARK SMILES IDX 65 89 44 90 45 91 53 92 46 93 52 94 47 95 48 96 49 97 50 98
REMARK SMILES IDX 51 99
REMARK H PARENT 11 6 79 13 16 36 72 55 42 66
REMARK Flexibility Score: inf
ROOT
ATOM      1  C   UNL A   1      37.155  20.357  25.167  1.00  0.00     0.023 C 
ENDROOT
BRANCH   1   2
ATOM      2  C   UNL A   1      35.700  20.815  25.282  1.00  0.00     0.116 C 
BRANCH   2   3
ATOM      3  N   UNL A   1      34.713  19.799  24.989  1.00  0.00    -0.351 N 
ATOM      4  C   UNL A   1      33.402  19.884  24.590  1.00  0.00     0.268 C 
ATOM      5  O   UNL A   1      32.913  18.872  24.077  1.00  0.00    -0.268 OA
ATOM      6  H   UNL A   1      35.042  18.877  25.097  1.00  0.00     0.163 HD
BRANCH   4   7
ATOM      7  C   UNL A   1      32.620  21.112  24.662  1.00  0.00     0.109 A 
ATOM      8  C   UNL A   1      32.262  22.125  23.768  1.00  0.00    -0.000 A 
ATOM      9  C   UNL A   1      31.418  23.044  24.471  1.00  0.00     0.005 A 
ATOM     10  N   UNL A   1      32.271  21.599  25.911  1.00  0.00    -0.350 N 
ATOM     11  C   UNL A   1      31.557  22.767  25.823  1.00  0.00     0.046 A 
ATOM     12  C   UNL A   1      30.645  24.155  24.075  1.00  0.00     0.031 A 
ATOM     13  H   UNL A   1      32.506  21.160  26.760  1.00  0.00     0.167 HD
ATOM     14  C   UNL A   1      31.054  23.611  26.820  1.00  0.00     0.028 A 
ATOM     15  C   UNL A   1      30.091  24.977  25.057  1.00  0.00     0.041 A 
ATOM     16  C   UNL A   1      30.321  24.731  26.407  1.00  0.00     0.022 A 
ATOM     17  Cl  UNL A   1      29.140  26.330  24.580  1.00  0.00    -0.084 Cl
BRANCH   8  18
ATOM     18  C   UNL A   1      32.716  22.379  22.369  1.00  0.00     0.139 C 
BRANCH  18  19
ATOM     19  C   UNL A   1      33.750  23.511  22.292  1.00  0.00     0.231 C 
ATOM     20  O   UNL A   1      34.960  23.281  22.373  1.00  0.00    -0.274 OA
BRANCH  19  21
ATOM     21  N   UNL A   1      33.295  24.810  22.068  1.00  0.00    -0.312 N 
BRANCH  21  22
ATOM     22  C   UNL A   1      32.245  25.093  21.096  1.00  0.00     0.122 C 
ATOM     23  C   UNL A   1      32.787  25.510  19.733  1.00  0.00     0.028 C 
ENDBRANCH  21  22
BRANCH  21  24
ATOM     24  C   UNL A   1      33.494  25.709  23.153  1.00  0.00     0.044 A 
ATOM     25  C   UNL A   1      34.168  25.249  24.287  1.00  0.00     0.026 A 
ATOM     26  C   UNL A   1      32.801  26.919  23.209  1.00  0.00     0.030 A 
ATOM     27  C   UNL A   1      34.165  26.006  25.459  1.00  0.00     0.006 A 
ATOM     28  C   UNL A   1      32.749  27.665  24.399  1.00  0.00    -0.046 A 
ATOM     29  C   UNL A   1      33.459  27.218  25.530  1.00  0.00    -0.048 A 
ATOM     30  C   UNL A   1      31.873  28.886  24.441  1.00  0.00     0.044 C 
ATOM     31  C   UNL A   1      33.409  27.930  26.855  1.00  0.00     0.044 C 
ENDBRANCH  21  24
ENDBRANCH  19  21
ENDBRANCH  18  19
ENDBRANCH   8  18
ENDBRANCH   4   7
ENDBRANCH   2   3
ENDBRANCH   1   2
BRANCH   1  32
ATOM     32  C   UNL A   1      38.219  21.430  25.019  1.00  0.00     0.023 C 
BRANCH  32  33
ATOM     33  C   UNL A   1      39.217  21.430  26.153  1.00  0.00     0.116 C 
BRANCH  33  34
ATOM     34  N   UNL A   1      40.133  20.290  26.110  1.00  0.00    -0.352 N 
ATOM     35  C   UNL A   1      41.502  20.273  26.210  1.00  0.00     0.251 C 
ATOM     36  H   UNL A   1      39.708  19.409  25.992  1.00  0.00     0.163 HD
ATOM     37  O   UNL A   1      42.125  19.228  26.052  1.00  0.00    -0.269 OA
BRANCH  35  38
ATOM     38  C   UNL A   1      42.206  21.543  26.461  1.00  0.00     0.039 A 
ATOM     39  C   UNL A   1      42.415  22.428  25.404  1.00  0.00     0.014 A 
ATOM     40  C   UNL A   1      42.572  21.887  27.763  1.00  0.00     0.014 A 
ATOM     41  C   UNL A   1      42.929  23.696  25.671  1.00  0.00     0.010 A 
ATOM     42  C   UNL A   1      42.951  23.186  28.042  1.00  0.00     0.010 A 
ATOM     43  C   UNL A   1      43.160  24.095  26.997  1.00  0.00    -0.014 A 
BRANCH  43  44
ATOM     44  C   UNL A   1      43.678  25.441  27.329  1.00  0.00     0.031 A 
ATOM     45  C   UNL A   1      45.132  25.744  27.085  1.00  0.00     0.074 A 
ATOM     46  C   UNL A   1      42.870  26.342  27.921  1.00  0.00     0.049 A 
ATOM     47  N   UNL A   1      45.815  26.813  27.400  1.00  0.00    -0.248 NA
ATOM     48  C   UNL A   1      45.937  24.686  26.447  1.00  0.00     0.031 C 
ATOM     49  C   UNL A   1      41.462  26.130  28.266  1.00  0.00     0.029 A 
ATOM     50  N   UNL A   1      43.124  27.622  28.343  1.00  0.00    -0.354 N 
ATOM     51  C   UNL A   1      47.129  26.536  27.036  1.00  0.00     0.074 A 
ATOM     52  C   UNL A   1      47.160  25.179  26.543  1.00  0.00     0.031 C 
ATOM     53  C   UNL A   1      40.966  27.254  28.808  1.00  0.00     0.029 A 
ATOM     54  C   UNL A   1      42.029  28.250  28.886  1.00  0.00     0.049 A 
ATOM     55  H   UNL A   1      44.007  28.049  28.266  1.00  0.00     0.167 HD
ATOM     56  C   UNL A   1      48.207  27.352  27.076  1.00  0.00     0.031 A 
ATOM     57  C   UNL A   1      41.900  29.494  29.386  1.00  0.00     0.031 A 
ATOM     58  C   UNL A   1      48.148  28.716  27.520  1.00  0.00     0.049 A 
ATOM     59  C   UNL A   1      43.100  30.401  29.373  1.00  0.00     0.074 A 
ATOM     60  C   UNL A   1      49.156  29.662  27.532  1.00  0.00     0.029 A 
ATOM     61  N   UNL A   1      47.010  29.331  28.017  1.00  0.00    -0.354 N 
ATOM     62  N   UNL A   1      44.321  30.146  28.963  1.00  0.00    -0.248 NA
ATOM     63  C   UNL A   1      42.903  31.767  29.876  1.00  0.00     0.031 C 
ATOM     64  C   UNL A   1      48.634  30.842  28.073  1.00  0.00     0.029 A 
ATOM     65  C   UNL A   1      47.290  30.643  28.348  1.00  0.00     0.049 A 
ATOM     66  H   UNL A   1      46.131  28.899  28.117  1.00  0.00     0.167 HD
ATOM     67  C   UNL A   1      45.032  31.328  29.135  1.00  0.00     0.074 A 
ATOM     68  C   UNL A   1      44.100  32.300  29.670  1.00  0.00     0.031 C 
ATOM     69  C   UNL A   1      46.337  31.587  28.875  1.00  0.00     0.031 A 
BRANCH  56  70
ATOM     70  C   UNL A   1      49.523  26.786  26.613  1.00  0.00    -0.014 A 
ATOM     71  C   UNL A   1      49.932  26.899  25.271  1.00  0.00     0.010 A 
ATOM     72  C   UNL A   1      50.368  26.137  27.532  1.00  0.00     0.010 A 
ATOM     73  C   UNL A   1      51.135  26.330  24.845  1.00  0.00     0.020 A 
ATOM     74  C   UNL A   1      51.588  25.595  27.116  1.00  0.00     0.020 A 
ATOM     75  C   UNL A   1      51.954  25.678  25.771  1.00  0.00     0.054 A 
BRANCH  75  76
ATOM     76  S   UNL A   1      53.518  24.964  25.194  1.00  0.00     0.124 S 
ATOM     77  O   UNL A   1      54.453  25.418  26.221  1.00  0.00    -0.237 OA
ATOM     78  O   UNL A   1      53.235  23.532  25.191  1.00  0.00    -0.237 OA
ATOM     79  O   UNL A   1      53.705  25.562  23.874  1.00  0.00    -0.744 OA
ENDBRANCH  75  76
ENDBRANCH  56  70
BRANCH  57  80
ATOM     80  C   UNL A   1      40.583  29.960  29.896  1.00  0.00    -0.014 A 
ATOM     81  C   UNL A   1      39.614  30.462  29.009  1.00  0.00     0.010 A 
ATOM     82  C   UNL A   1      40.277  29.882  31.267  1.00  0.00     0.010 A 
ATOM     83  C   UNL A   1      38.372  30.895  29.483  1.00  0.00     0.020 A 
ATOM     84  C   UNL A   1      39.026  30.290  31.742  1.00  0.00     0.020 A 
ATOM     85  C   UNL A   1      38.085  30.805  30.848  1.00  0.00     0.054 A 
BRANCH  85  86
ATOM     86  S   UNL A   1      36.448  31.322  31.434  1.00  0.00     0.124 S 
ATOM     87  O   UNL A   1      35.631  31.157  30.236  1.00  0.00    -0.237 OA
ATOM     88  O   UNL A   1      36.185  30.376  32.515  1.00  0.00    -0.237 OA
ATOM     89  O   UNL A   1      36.660  32.703  31.863  1.00  0.00    -0.744 OA
ENDBRANCH  85  86
ENDBRANCH  57  80
BRANCH  69  90
ATOM     90  C   UNL A   1      46.824  32.985  29.134  1.00  0.00    -0.014 A 
ATOM     91  C   UNL A   1      46.752  33.975  28.138  1.00  0.00     0.010 A 
ATOM     92  C   UNL A   1      47.297  33.327  30.414  1.00  0.00     0.010 A 
ATOM     93  C   UNL A   1      47.176  35.277  28.410  1.00  0.00     0.020 A 
ATOM     94  C   UNL A   1      47.696  34.633  30.697  1.00  0.00     0.020 A 
ATOM     95  C   UNL A   1      47.646  35.598  29.688  1.00  0.00     0.054 A 
BRANCH  95  96
ATOM     96  S   UNL A   1      48.144  37.307  30.031  1.00  0.00     0.124 S 
ATOM     97  O   UNL A   1      48.693  37.726  28.744  1.00  0.00    -0.237 OA
ATOM     98  O   UNL A   1      46.883  37.939  30.412  1.00  0.00    -0.237 OA
ATOM     99  O   UNL A   1      49.118  37.173  31.110  1.00  0.00    -0.744 OA
ENDBRANCH  95  96
ENDBRANCH  69  90
ENDBRANCH  43  44
ENDBRANCH  35  38
ENDBRANCH  33  34
ENDBRANCH  32  33
ENDBRANCH   1  32
TORSDOF 19
ENDMDL
