MODEL 1
REMARK VINA RESULT:     -12.8      0.000      0.000
REMARK SMILES CC1=C[C@@H]([C@@H]2N=N[C@H](S)N2/N=C/c2ccc(C(=O)NCCCCNC(=O)c3ccc(-c4c5nc(c(-c6ccc(S(=O)(=O)[O-])cc6)c6ccc([nH]6)c(-c6ccc(S(=O)(=O)[O-])cc6)c6nc(c(-c7ccc(S(=O)(=O)[O-])cc7)c7ccc4[nH]7)C=C6)C=C5)cc3)cc2)N=N1
REMARK SMILES IDX 21 1 20 2 19 3 17 4 18 5 16 7 13 8 14 9 88 10 15 11 87 12
REMARK SMILES IDX 12 13 11 14 10 15 5 16 6 17 7 18 8 19 4 20 1 21 2 22 3 23
REMARK SMILES IDX 90 24 89 25 9 26 22 28 23 29 24 30 25 31 26 33 27 34 28 35
REMARK SMILES IDX 86 36 29 37 85 38 30 39 31 40 32 41 79 42 33 43 84 44 78 45
REMARK SMILES IDX 80 46 34 47 83 48 77 49 76 50 35 52 65 53 46 54 64 55 47 56
REMARK SMILES IDX 50 57 63 58 81 59 48 60 49 61 62 63 82 64 51 65 36 66 37 67
REMARK SMILES IDX 45 68 38 69 44 70 39 71 40 72 41 73 42 74 43 75 66 76 67 77
REMARK SMILES IDX 75 78 68 79 74 80 69 81 70 82 71 83 72 84 73 85 52 86 53 87
REMARK SMILES IDX 61 88 54 89 60 90 55 91 56 92 57 93 58 94 59 95
REMARK H PARENT 19 6 9 27 24 32 80 51 50 62
REMARK Flexibility Score: inf
ROOT
ATOM      1  C   UNL A   1      35.597  21.320  26.053  1.00  0.00     0.023 C 
ENDROOT
BRANCH   1   2
ATOM      2  C   UNL A   1      35.590  20.247  24.956  1.00  0.00     0.116 C 
BRANCH   2   3
ATOM      3  N   UNL A   1      34.372  19.460  25.004  1.00  0.00    -0.352 N 
ATOM      4  C   UNL A   1      33.043  19.781  24.905  1.00  0.00     0.251 C 
ATOM      5  O   UNL A   1      32.231  18.861  25.009  1.00  0.00    -0.269 OA
ATOM      6  H   UNL A   1      34.534  18.497  25.133  1.00  0.00     0.163 HD
BRANCH   4   7
ATOM      7  C   UNL A   1      32.530  21.159  24.649  1.00  0.00     0.039 A 
ATOM      8  C   UNL A   1      31.462  23.740  24.347  1.00  0.00    -0.005 A 
ATOM      9  C   UNL A   1      31.521  23.166  25.615  1.00  0.00     0.010 A 
ATOM     10  C   UNL A   1      31.972  23.060  23.242  1.00  0.00     0.010 A 
ATOM     11  C   UNL A   1      32.040  21.874  25.759  1.00  0.00     0.014 A 
ATOM     12  C   UNL A   1      32.534  21.792  23.404  1.00  0.00     0.014 A 
BRANCH   8  13
ATOM     13  C   UNL A   1      30.872  25.079  24.179  1.00  0.00     0.141 C 
ATOM     14  N   UNL A   1      31.606  26.146  24.225  1.00  0.00    -0.180 NA
BRANCH  14  15
ATOM     15  N   UNL A   1      30.992  27.337  24.085  1.00  0.00    -0.233 NA
ATOM     16  C   UNL A   1      31.572  28.597  24.546  1.00  0.00     0.274 C 
ATOM     17  N   UNL A   1      30.789  29.693  23.909  1.00  0.00    -0.161 NA
ATOM     18  N   UNL A   1      29.845  29.224  23.227  1.00  0.00    -0.153 NA
ATOM     19  C   UNL A   1      29.877  27.746  23.245  1.00  0.00     0.298 C 
BRANCH  16  20
ATOM     20  C   UNL A   1      31.555  28.758  26.092  1.00  0.00     0.201 C 
ATOM     21  C   UNL A   1      33.925  31.151  27.625  1.00  0.00     0.068 C 
ATOM     22  C   UNL A   1      33.070  30.028  27.166  1.00  0.00     0.058 C 
ATOM     23  C   UNL A   1      31.886  30.132  26.567  1.00  0.00     0.031 C 
ATOM     24  N   UNL A   1      33.501  28.729  27.252  1.00  0.00    -0.160 NA
ATOM     25  N   UNL A   1      32.662  27.954  26.703  1.00  0.00    -0.177 NA
ENDBRANCH  16  20
BRANCH  19  26
ATOM     26  S   UNL A   1      28.338  26.952  23.828  1.00  0.00    -0.128 SA
ATOM     27  H   UNL A   1      28.148  25.783  23.160  1.00  0.00     0.106 HD
ENDBRANCH  19  26
ENDBRANCH  14  15
ENDBRANCH   8  13
ENDBRANCH   4   7
ENDBRANCH   2   3
ENDBRANCH   1   2
BRANCH   1  28
ATOM     28  C   UNL A   1      35.951  22.737  25.575  1.00  0.00     0.023 C 
BRANCH  28  29
ATOM     29  C   UNL A   1      37.442  22.990  25.377  1.00  0.00     0.116 C 
BRANCH  29  30
ATOM     30  N   UNL A   1      38.282  22.033  26.098  1.00  0.00    -0.352 N 
ATOM     31  C   UNL A   1      39.512  22.254  26.694  1.00  0.00     0.251 C 
ATOM     32  H   UNL A   1      37.929  21.116  26.166  1.00  0.00     0.163 HD
ATOM     33  O   UNL A   1      40.290  21.333  26.890  1.00  0.00    -0.269 OA
BRANCH  31  34
ATOM     34  C   UNL A   1      39.850  23.628  27.110  1.00  0.00     0.039 A 
ATOM     35  C   UNL A   1      38.978  24.700  26.907  1.00  0.00     0.014 A 
ATOM     36  C   UNL A   1      41.069  23.810  27.754  1.00  0.00     0.014 A 
ATOM     37  C   UNL A   1      39.312  25.945  27.439  1.00  0.00     0.010 A 
ATOM     38  C   UNL A   1      41.319  24.983  28.414  1.00  0.00     0.010 A 
ATOM     39  C   UNL A   1      40.478  26.072  28.211  1.00  0.00    -0.014 A 
BRANCH  39  40
ATOM     40  C   UNL A   1      40.791  27.298  28.935  1.00  0.00     0.031 A 
ATOM     41  C   UNL A   1      41.858  28.124  28.313  1.00  0.00     0.074 A 
ATOM     42  C   UNL A   1      40.007  27.770  29.930  1.00  0.00     0.049 A 
ATOM     43  N   UNL A   1      43.051  28.316  28.764  1.00  0.00    -0.248 NA
ATOM     44  C   UNL A   1      41.640  28.672  26.964  1.00  0.00     0.031 C 
ATOM     45  C   UNL A   1      38.755  27.199  30.445  1.00  0.00     0.029 A 
ATOM     46  N   UNL A   1      40.088  28.948  30.602  1.00  0.00    -0.354 N 
ATOM     47  C   UNL A   1      43.648  29.216  27.891  1.00  0.00     0.074 A 
ATOM     48  C   UNL A   1      42.830  29.222  26.705  1.00  0.00     0.031 C 
ATOM     49  C   UNL A   1      38.078  28.143  31.135  1.00  0.00     0.029 A 
ATOM     50  C   UNL A   1      38.916  29.323  31.253  1.00  0.00     0.049 A 
ATOM     51  H   UNL A   1      40.908  29.492  30.627  1.00  0.00     0.167 HD
ATOM     52  C   UNL A   1      44.603  30.091  28.323  1.00  0.00     0.031 A 
ATOM     53  C   UNL A   1      38.639  30.529  31.816  1.00  0.00     0.031 A 
ATOM     54  C   UNL A   1      45.054  29.764  29.654  1.00  0.00     0.049 A 
ATOM     55  C   UNL A   1      39.944  31.187  32.077  1.00  0.00     0.074 A 
ATOM     56  C   UNL A   1      45.602  28.641  30.244  1.00  0.00     0.029 A 
ATOM     57  N   UNL A   1      44.553  30.528  30.684  1.00  0.00    -0.354 N 
ATOM     58  N   UNL A   1      40.803  30.727  32.945  1.00  0.00    -0.248 NA
ATOM     59  C   UNL A   1      40.507  32.039  31.040  1.00  0.00     0.031 C 
ATOM     60  C   UNL A   1      44.964  28.551  31.515  1.00  0.00     0.029 A 
ATOM     61  C   UNL A   1      44.144  29.671  31.673  1.00  0.00     0.049 A 
ATOM     62  H   UNL A   1      44.500  31.511  30.707  1.00  0.00     0.167 HD
ATOM     63  C   UNL A   1      42.032  30.827  32.309  1.00  0.00     0.074 A 
ATOM     64  C   UNL A   1      41.804  31.740  31.187  1.00  0.00     0.031 C 
ATOM     65  C   UNL A   1      43.036  29.935  32.567  1.00  0.00     0.031 A 
BRANCH  52  66
ATOM     66  C   UNL A   1      44.813  31.469  27.744  1.00  0.00    -0.014 A 
ATOM     67  C   UNL A   1      46.082  31.791  27.219  1.00  0.00     0.010 A 
ATOM     68  C   UNL A   1      43.919  32.537  27.955  1.00  0.00     0.010 A 
ATOM     69  C   UNL A   1      46.464  33.120  27.000  1.00  0.00     0.020 A 
ATOM     70  C   UNL A   1      44.272  33.862  27.696  1.00  0.00     0.020 A 
ATOM     71  C   UNL A   1      45.557  34.148  27.257  1.00  0.00     0.054 A 
BRANCH  71  72
ATOM     72  S   UNL A   1      46.094  35.866  27.074  1.00  0.00     0.124 S 
ATOM     73  O   UNL A   1      47.303  35.889  27.891  1.00  0.00    -0.237 OA
ATOM     74  O   UNL A   1      46.299  35.972  25.632  1.00  0.00    -0.237 OA
ATOM     75  O   UNL A   1      44.967  36.632  27.598  1.00  0.00    -0.744 OA
ENDBRANCH  71  72
ENDBRANCH  52  66
BRANCH  53  76
ATOM     76  C   UNL A   1      37.336  31.243  31.886  1.00  0.00    -0.014 A 
ATOM     77  C   UNL A   1      36.837  31.745  33.104  1.00  0.00     0.010 A 
ATOM     78  C   UNL A   1      36.708  31.680  30.701  1.00  0.00     0.010 A 
ATOM     79  C   UNL A   1      35.802  32.701  33.129  1.00  0.00     0.020 A 
ATOM     80  C   UNL A   1      35.673  32.626  30.718  1.00  0.00     0.020 A 
ATOM     81  C   UNL A   1      35.244  33.154  31.932  1.00  0.00     0.054 A 
BRANCH  81  82
ATOM     82  S   UNL A   1      34.057  34.533  31.952  1.00  0.00     0.124 S 
ATOM     83  O   UNL A   1      34.870  35.640  32.445  1.00  0.00    -0.237 OA
ATOM     84  O   UNL A   1      33.648  34.622  30.553  1.00  0.00    -0.237 OA
ATOM     85  O   UNL A   1      33.013  34.075  32.868  1.00  0.00    -0.744 OA
ENDBRANCH  81  82
ENDBRANCH  53  76
BRANCH  65  86
ATOM     86  C   UNL A   1      42.886  28.996  33.745  1.00  0.00    -0.014 A 
ATOM     87  C   UNL A   1      43.289  29.307  35.059  1.00  0.00     0.010 A 
ATOM     88  C   UNL A   1      42.172  27.805  33.532  1.00  0.00     0.010 A 
ATOM     89  C   UNL A   1      43.024  28.425  36.120  1.00  0.00     0.020 A 
ATOM     90  C   UNL A   1      41.886  26.934  34.586  1.00  0.00     0.020 A 
ATOM     91  C   UNL A   1      42.328  27.240  35.873  1.00  0.00     0.054 A 
BRANCH  91  92
ATOM     92  S   UNL A   1      41.978  26.103  37.244  1.00  0.00     0.124 S 
ATOM     93  O   UNL A   1      40.620  26.480  37.628  1.00  0.00    -0.237 OA
ATOM     94  O   UNL A   1      42.114  24.789  36.620  1.00  0.00    -0.237 OA
ATOM     95  O   UNL A   1      43.009  26.421  38.231  1.00  0.00    -0.744 OA
ENDBRANCH  91  92
ENDBRANCH  65  86
ENDBRANCH  39  40
ENDBRANCH  31  34
ENDBRANCH  29  30
ENDBRANCH  28  29
ENDBRANCH   1  28
TORSDOF 18
ENDMDL
MODEL 2
REMARK VINA RESULT:     -12.4      3.136      9.545
REMARK SMILES CC1=C[C@@H]([C@@H]2N=N[C@H](S)N2/N=C/c2ccc(C(=O)NCCCCNC(=O)c3ccc(-c4c5nc(c(-c6ccc(S(=O)(=O)[O-])cc6)c6ccc([nH]6)c(-c6ccc(S(=O)(=O)[O-])cc6)c6nc(c(-c7ccc(S(=O)(=O)[O-])cc7)c7ccc4[nH]7)C=C6)C=C5)cc3)cc2)N=N1
REMARK SMILES IDX 21 1 20 2 19 3 17 4 18 5 16 7 13 8 14 9 88 10 15 11 87 12
REMARK SMILES IDX 12 13 11 14 10 15 5 16 6 17 7 18 8 19 4 20 1 21 2 22 3 23
REMARK SMILES IDX 90 24 89 25 9 26 22 28 23 29 24 30 25 31 26 33 27 34 28 35
REMARK SMILES IDX 86 36 29 37 85 38 30 39 31 40 32 41 79 42 33 43 84 44 78 45
REMARK SMILES IDX 80 46 34 47 83 48 77 49 76 50 35 52 65 53 46 54 64 55 47 56
REMARK SMILES IDX 50 57 63 58 81 59 48 60 49 61 62 63 82 64 51 65 36 66 37 67
REMARK SMILES IDX 45 68 38 69 44 70 39 71 40 72 41 73 42 74 43 75 66 76 67 77
REMARK SMILES IDX 75 78 68 79 74 80 69 81 70 82 71 83 72 84 73 85 52 86 53 87
REMARK SMILES IDX 61 88 54 89 60 90 55 91 56 92 57 93 58 94 59 95
REMARK H PARENT 19 6 9 27 24 32 80 51 50 62
REMARK Flexibility Score: inf
ROOT
ATOM      1  C   UNL A   1      32.553  29.691  25.019  1.00  0.00     0.023 C 
ENDROOT
BRANCH   1   2
ATOM      2  C   UNL A   1      31.041  29.950  25.022  1.00  0.00     0.116 C 
BRANCH   2   3
ATOM      3  N   UNL A   1      30.471  29.732  23.706  1.00  0.00    -0.352 N 
ATOM      4  C   UNL A   1      30.671  28.776  22.743  1.00  0.00     0.251 C 
ATOM      5  O   UNL A   1      30.029  28.885  21.698  1.00  0.00    -0.269 OA
ATOM      6  H   UNL A   1      29.803  30.410  23.452  1.00  0.00     0.163 HD
BRANCH   4   7
ATOM      7  C   UNL A   1      31.584  27.606  22.901  1.00  0.00     0.039 A 
ATOM      8  C   UNL A   1      33.192  25.348  23.362  1.00  0.00    -0.005 A 
ATOM      9  C   UNL A   1      31.900  25.390  23.884  1.00  0.00     0.010 A 
ATOM     10  C   UNL A   1      33.667  26.397  22.576  1.00  0.00     0.010 A 
ATOM     11  C   UNL A   1      31.108  26.523  23.664  1.00  0.00     0.014 A 
ATOM     12  C   UNL A   1      32.851  27.502  22.321  1.00  0.00     0.014 A 
BRANCH   8  13
ATOM     13  C   UNL A   1      34.050  24.181  23.630  1.00  0.00     0.141 C 
ATOM     14  N   UNL A   1      34.844  24.155  24.653  1.00  0.00    -0.180 NA
BRANCH  14  15
ATOM     15  N   UNL A   1      35.614  23.063  24.822  1.00  0.00    -0.233 NA
ATOM     16  C   UNL A   1      35.091  21.699  24.785  1.00  0.00     0.274 C 
ATOM     17  N   UNL A   1      36.264  20.789  24.655  1.00  0.00    -0.161 NA
ATOM     18  N   UNL A   1      37.336  21.442  24.675  1.00  0.00    -0.153 NA
ATOM     19  C   UNL A   1      37.058  22.891  24.760  1.00  0.00     0.298 C 
BRANCH  16  20
ATOM     20  C   UNL A   1      34.259  21.320  26.043  1.00  0.00     0.201 C 
ATOM     21  C   UNL A   1      31.155  23.218  26.720  1.00  0.00     0.068 C 
ATOM     22  C   UNL A   1      32.463  22.516  26.678  1.00  0.00     0.058 C 
ATOM     23  C   UNL A   1      32.788  21.503  25.880  1.00  0.00     0.031 C 
ATOM     24  N   UNL A   1      33.520  22.942  27.440  1.00  0.00    -0.160 NA
ATOM     25  N   UNL A   1      34.557  22.271  27.161  1.00  0.00    -0.177 NA
ENDBRANCH  16  20
BRANCH  19  26
ATOM     26  S   UNL A   1      37.845  23.741  26.174  1.00  0.00    -0.128 SA
ATOM     27  H   UNL A   1      38.309  22.818  27.058  1.00  0.00     0.106 HD
ENDBRANCH  19  26
ENDBRANCH  14  15
ENDBRANCH   8  13
ENDBRANCH   4   7
ENDBRANCH   2   3
ENDBRANCH   1   2
BRANCH   1  28
ATOM     28  C   UNL A   1      33.057  28.762  26.134  1.00  0.00     0.023 C 
BRANCH  28  29
ATOM     29  C   UNL A   1      33.652  29.479  27.342  1.00  0.00     0.116 C 
BRANCH  29  30
ATOM     30  N   UNL A   1      33.967  30.882  27.072  1.00  0.00    -0.352 N 
ATOM     31  C   UNL A   1      35.011  31.637  27.580  1.00  0.00     0.251 C 
ATOM     32  H   UNL A   1      33.359  31.349  26.453  1.00  0.00     0.163 HD
ATOM     33  O   UNL A   1      34.942  32.855  27.624  1.00  0.00    -0.269 OA
BRANCH  31  34
ATOM     34  C   UNL A   1      36.221  30.933  28.044  1.00  0.00     0.039 A 
ATOM     35  C   UNL A   1      36.532  29.637  27.625  1.00  0.00     0.014 A 
ATOM     36  C   UNL A   1      37.069  31.631  28.896  1.00  0.00     0.014 A 
ATOM     37  C   UNL A   1      37.754  29.084  28.006  1.00  0.00     0.010 A 
ATOM     38  C   UNL A   1      38.332  31.157  29.134  1.00  0.00     0.010 A 
ATOM     39  C   UNL A   1      38.659  29.863  28.745  1.00  0.00    -0.014 A 
BRANCH  39  40
ATOM     40  C   UNL A   1      40.015  29.407  29.025  1.00  0.00     0.031 A 
ATOM     41  C   UNL A   1      40.303  29.182  30.466  1.00  0.00     0.074 A 
ATOM     42  C   UNL A   1      40.848  28.978  28.052  1.00  0.00     0.049 A 
ATOM     43  N   UNL A   1      41.075  29.889  31.221  1.00  0.00    -0.248 NA
ATOM     44  C   UNL A   1      39.534  28.160  31.196  1.00  0.00     0.031 C 
ATOM     45  C   UNL A   1      40.580  28.870  26.611  1.00  0.00     0.029 A 
ATOM     46  N   UNL A   1      42.075  28.406  28.162  1.00  0.00    -0.354 N 
ATOM     47  C   UNL A   1      41.091  29.248  32.454  1.00  0.00     0.074 A 
ATOM     48  C   UNL A   1      39.971  28.342  32.445  1.00  0.00     0.031 C 
ATOM     49  C   UNL A   1      41.485  28.043  26.043  1.00  0.00     0.029 A 
ATOM     50  C   UNL A   1      42.487  27.699  27.035  1.00  0.00     0.049 A 
ATOM     51  H   UNL A   1      42.629  28.484  28.973  1.00  0.00     0.167 HD
ATOM     52  C   UNL A   1      42.185  29.310  33.267  1.00  0.00     0.031 A 
ATOM     53  C   UNL A   1      43.554  26.863  26.934  1.00  0.00     0.031 A 
ATOM     54  C   UNL A   1      43.131  30.296  32.803  1.00  0.00     0.049 A 
ATOM     55  C   UNL A   1      44.483  27.221  28.036  1.00  0.00     0.074 A 
ATOM     56  C   UNL A   1      43.068  31.650  32.535  1.00  0.00     0.029 A 
ATOM     57  N   UNL A   1      44.238  29.827  32.130  1.00  0.00    -0.354 N 
ATOM     58  N   UNL A   1      45.103  28.367  28.089  1.00  0.00    -0.248 NA
ATOM     59  C   UNL A   1      44.335  26.537  29.313  1.00  0.00     0.031 C 
ATOM     60  C   UNL A   1      43.822  31.818  31.336  1.00  0.00     0.029 A 
ATOM     61  C   UNL A   1      44.384  30.585  30.997  1.00  0.00     0.049 A 
ATOM     62  H   UNL A   1      44.818  29.083  32.412  1.00  0.00     0.167 HD
ATOM     63  C   UNL A   1      44.996  28.763  29.415  1.00  0.00     0.074 A 
ATOM     64  C   UNL A   1      44.612  27.551  30.141  1.00  0.00     0.031 C 
ATOM     65  C   UNL A   1      44.934  30.086  29.755  1.00  0.00     0.031 A 
BRANCH  52  66
ATOM     66  C   UNL A   1      42.606  28.206  34.206  1.00  0.00    -0.014 A 
ATOM     67  C   UNL A   1      42.838  28.528  35.560  1.00  0.00     0.010 A 
ATOM     68  C   UNL A   1      43.056  26.948  33.762  1.00  0.00     0.010 A 
ATOM     69  C   UNL A   1      43.559  27.670  36.399  1.00  0.00     0.020 A 
ATOM     70  C   UNL A   1      43.736  26.064  34.602  1.00  0.00     0.020 A 
ATOM     71  C   UNL A   1      44.017  26.448  35.906  1.00  0.00     0.054 A 
BRANCH  71  72
ATOM     72  S   UNL A   1      45.039  25.396  36.963  1.00  0.00     0.124 S 
ATOM     73  O   UNL A   1      44.974  24.117  36.263  1.00  0.00    -0.237 OA
ATOM     74  O   UNL A   1      46.329  26.079  36.921  1.00  0.00    -0.237 OA
ATOM     75  O   UNL A   1      44.355  25.442  38.252  1.00  0.00    -0.744 OA
ENDBRANCH  71  72
ENDBRANCH  52  66
BRANCH  53  76
ATOM     76  C   UNL A   1      43.685  25.619  26.128  1.00  0.00    -0.014 A 
ATOM     77  C   UNL A   1      44.852  25.340  25.391  1.00  0.00     0.010 A 
ATOM     78  C   UNL A   1      42.765  24.564  26.305  1.00  0.00     0.010 A 
ATOM     79  C   UNL A   1      45.122  24.041  24.917  1.00  0.00     0.020 A 
ATOM     80  C   UNL A   1      43.022  23.271  25.830  1.00  0.00     0.020 A 
ATOM     81  C   UNL A   1      44.215  23.008  25.162  1.00  0.00     0.054 A 
BRANCH  81  82
ATOM     82  S   UNL A   1      44.655  21.295  24.733  1.00  0.00     0.124 S 
ATOM     83  O   UNL A   1      45.958  21.137  25.371  1.00  0.00    -0.237 OA
ATOM     84  O   UNL A   1      43.562  20.528  25.325  1.00  0.00    -0.237 OA
ATOM     85  O   UNL A   1      44.677  21.303  23.270  1.00  0.00    -0.744 OA
ENDBRANCH  81  82
ENDBRANCH  53  76
BRANCH  65  86
ATOM     86  C   UNL A   1      45.245  31.122  28.695  1.00  0.00    -0.014 A 
ATOM     87  C   UNL A   1      44.332  31.538  27.705  1.00  0.00     0.010 A 
ATOM     88  C   UNL A   1      46.467  31.807  28.802  1.00  0.00     0.010 A 
ATOM     89  C   UNL A   1      44.656  32.578  26.819  1.00  0.00     0.020 A 
ATOM     90  C   UNL A   1      46.788  32.856  27.938  1.00  0.00     0.020 A 
ATOM     91  C   UNL A   1      45.888  33.227  26.940  1.00  0.00     0.054 A 
BRANCH  91  92
ATOM     92  S   UNL A   1      46.305  34.576  25.800  1.00  0.00     0.124 S 
ATOM     93  O   UNL A   1      47.712  34.318  25.505  1.00  0.00    -0.237 OA
ATOM     94  O   UNL A   1      45.379  34.362  24.690  1.00  0.00    -0.237 OA
ATOM     95  O   UNL A   1      46.049  35.785  26.583  1.00  0.00    -0.744 OA
ENDBRANCH  91  92
ENDBRANCH  65  86
ENDBRANCH  39  40
ENDBRANCH  31  34
ENDBRANCH  29  30
ENDBRANCH  28  29
ENDBRANCH   1  28
TORSDOF 18
ENDMDL
MODEL 3
REMARK VINA RESULT:     -12.2      1.874      2.660
REMARK SMILES CC1=C[C@@H]([C@@H]2N=N[C@H](S)N2/N=C/c2ccc(C(=O)NCCCCNC(=O)c3ccc(-c4c5nc(c(-c6ccc(S(=O)(=O)[O-])cc6)c6ccc([nH]6)c(-c6ccc(S(=O)(=O)[O-])cc6)c6nc(c(-c7ccc(S(=O)(=O)[O-])cc7)c7ccc4[nH]7)C=C6)C=C5)cc3)cc2)N=N1
REMARK SMILES IDX 21 1 20 2 19 3 17 4 18 5 16 7 13 8 14 9 88 10 15 11 87 12
REMARK SMILES IDX 12 13 11 14 10 15 5 16 6 17 7 18 8 19 4 20 1 21 2 22 3 23
REMARK SMILES IDX 90 24 89 25 9 26 22 28 23 29 24 30 25 31 26 33 27 34 28 35
REMARK SMILES IDX 86 36 29 37 85 38 30 39 31 40 32 41 79 42 33 43 84 44 78 45
REMARK SMILES IDX 80 46 34 47 83 48 77 49 76 50 35 52 65 53 46 54 64 55 47 56
REMARK SMILES IDX 50 57 63 58 81 59 48 60 49 61 62 63 82 64 51 65 36 66 37 67
REMARK SMILES IDX 45 68 38 69 44 70 39 71 40 72 41 73 42 74 43 75 66 76 67 77
REMARK SMILES IDX 75 78 68 79 74 80 69 81 70 82 71 83 72 84 73 85 52 86 53 87
REMARK SMILES IDX 61 88 54 89 60 90 55 91 56 92 57 93 58 94 59 95
REMARK H PARENT 19 6 9 27 24 32 80 51 50 62
REMARK Flexibility Score: inf
ROOT
ATOM      1  C   UNL A   1      39.894  23.044  27.526  1.00  0.00     0.023 C 
ENDROOT
BRANCH   1   2
ATOM      2  C   UNL A   1      38.868  23.322  26.420  1.00  0.00     0.116 C 
BRANCH   2   3
ATOM      3  N   UNL A   1      38.132  22.120  26.076  1.00  0.00    -0.352 N 
ATOM      4  C   UNL A   1      36.878  21.901  25.567  1.00  0.00     0.251 C 
ATOM      5  O   UNL A   1      36.532  20.731  25.403  1.00  0.00    -0.269 OA
ATOM      6  H   UNL A   1      38.638  21.292  26.242  1.00  0.00     0.163 HD
BRANCH   4   7
ATOM      7  C   UNL A   1      35.931  22.986  25.175  1.00  0.00     0.039 A 
ATOM      8  C   UNL A   1      34.202  24.994  24.240  1.00  0.00    -0.005 A 
ATOM      9  C   UNL A   1      34.621  23.989  23.371  1.00  0.00     0.010 A 
ATOM     10  C   UNL A   1      34.599  24.979  25.576  1.00  0.00     0.010 A 
ATOM     11  C   UNL A   1      35.494  22.999  23.837  1.00  0.00     0.014 A 
ATOM     12  C   UNL A   1      35.430  23.958  26.045  1.00  0.00     0.014 A 
BRANCH   8  13
ATOM     13  C   UNL A   1      33.324  26.068  23.745  1.00  0.00     0.141 C 
ATOM     14  N   UNL A   1      32.126  26.224  24.215  1.00  0.00    -0.180 NA
BRANCH  14  15
ATOM     15  N   UNL A   1      31.373  27.214  23.698  1.00  0.00    -0.233 NA
ATOM     16  C   UNL A   1      31.814  28.606  23.632  1.00  0.00     0.274 C 
ATOM     17  N   UNL A   1      30.888  29.309  22.700  1.00  0.00    -0.161 NA
ATOM     18  N   UNL A   1      29.987  28.533  22.300  1.00  0.00    -0.153 NA
ATOM     19  C   UNL A   1      30.193  27.175  22.848  1.00  0.00     0.298 C 
BRANCH  16  20
ATOM     20  C   UNL A   1      31.824  29.319  25.014  1.00  0.00     0.201 C 
ATOM     21  C   UNL A   1      34.770  28.847  27.203  1.00  0.00     0.068 C 
ATOM     22  C   UNL A   1      33.457  28.962  26.518  1.00  0.00     0.058 C 
ATOM     23  C   UNL A   1      33.178  29.739  25.475  1.00  0.00     0.031 C 
ATOM     24  N   UNL A   1      32.400  28.166  26.877  1.00  0.00    -0.160 NA
ATOM     25  N   UNL A   1      31.425  28.357  26.090  1.00  0.00    -0.177 NA
ENDBRANCH  16  20
BRANCH  19  26
ATOM     26  S   UNL A   1      28.776  26.501  23.785  1.00  0.00    -0.128 SA
ATOM     27  H   UNL A   1      27.958  27.519  24.165  1.00  0.00     0.106 HD
ENDBRANCH  19  26
ENDBRANCH  14  15
ENDBRANCH   8  13
ENDBRANCH   4   7
ENDBRANCH   2   3
ENDBRANCH   1   2
BRANCH   1  28
ATOM     28  C   UNL A   1      40.610  21.688  27.424  1.00  0.00     0.023 C 
BRANCH  28  29
ATOM     29  C   UNL A   1      42.117  21.743  27.647  1.00  0.00     0.116 C 
BRANCH  29  30
ATOM     30  N   UNL A   1      42.876  21.769  26.396  1.00  0.00    -0.352 N 
ATOM     31  C   UNL A   1      43.108  22.848  25.559  1.00  0.00     0.251 C 
ATOM     32  H   UNL A   1      43.270  20.912  26.113  1.00  0.00     0.163 HD
ATOM     33  O   UNL A   1      43.380  22.681  24.380  1.00  0.00    -0.269 OA
BRANCH  31  34
ATOM     34  C   UNL A   1      43.045  24.204  26.133  1.00  0.00     0.039 A 
ATOM     35  C   UNL A   1      42.172  25.178  25.642  1.00  0.00     0.014 A 
ATOM     36  C   UNL A   1      43.873  24.468  27.220  1.00  0.00     0.014 A 
ATOM     37  C   UNL A   1      42.080  26.396  26.316  1.00  0.00     0.010 A 
ATOM     38  C   UNL A   1      43.665  25.592  27.973  1.00  0.00     0.010 A 
ATOM     39  C   UNL A   1      42.817  26.586  27.496  1.00  0.00    -0.014 A 
BRANCH  39  40
ATOM     40  C   UNL A   1      42.634  27.763  28.336  1.00  0.00     0.031 A 
ATOM     41  C   UNL A   1      43.693  28.795  28.188  1.00  0.00     0.074 A 
ATOM     42  C   UNL A   1      41.477  28.011  28.989  1.00  0.00     0.049 A 
ATOM     43  N   UNL A   1      44.594  29.110  29.057  1.00  0.00    -0.248 NA
ATOM     44  C   UNL A   1      43.881  29.442  26.878  1.00  0.00     0.031 C 
ATOM     45  C   UNL A   1      40.242  27.215  28.980  1.00  0.00     0.029 A 
ATOM     46  N   UNL A   1      41.107  29.113  29.693  1.00  0.00    -0.354 N 
ATOM     47  C   UNL A   1      45.298  30.173  28.505  1.00  0.00     0.074 A 
ATOM     48  C   UNL A   1      44.970  30.182  27.102  1.00  0.00     0.031 C 
ATOM     49  C   UNL A   1      39.211  27.975  29.410  1.00  0.00     0.029 A 
ATOM     50  C   UNL A   1      39.734  29.245  29.880  1.00  0.00     0.049 A 
ATOM     51  H   UNL A   1      41.757  29.765  30.043  1.00  0.00     0.167 HD
ATOM     52  C   UNL A   1      45.869  31.128  29.296  1.00  0.00     0.031 A 
ATOM     53  C   UNL A   1      39.070  30.334  30.351  1.00  0.00     0.031 A 
ATOM     54  C   UNL A   1      45.863  30.734  30.684  1.00  0.00     0.049 A 
ATOM     55  C   UNL A   1      40.061  31.144  31.104  1.00  0.00     0.074 A 
ATOM     56  C   UNL A   1      46.349  29.648  31.387  1.00  0.00     0.029 A 
ATOM     57  N   UNL A   1      44.903  31.307  31.488  1.00  0.00    -0.354 N 
ATOM     58  N   UNL A   1      40.618  30.727  32.208  1.00  0.00    -0.248 NA
ATOM     59  C   UNL A   1      40.802  32.171  30.386  1.00  0.00     0.031 C 
ATOM     60  C   UNL A   1      45.324  29.336  32.327  1.00  0.00     0.029 A 
ATOM     61  C   UNL A   1      44.321  30.302  32.217  1.00  0.00     0.049 A 
ATOM     62  H   UNL A   1      44.676  32.264  31.532  1.00  0.00     0.167 HD
ATOM     63  C   UNL A   1      41.956  31.069  32.077  1.00  0.00     0.074 A 
ATOM     64  C   UNL A   1      41.990  32.049  30.989  1.00  0.00     0.031 C 
ATOM     65  C   UNL A   1      42.940  30.310  32.649  1.00  0.00     0.031 A 
BRANCH  52  66
ATOM     66  C   UNL A   1      46.031  32.574  28.895  1.00  0.00    -0.014 A 
ATOM     67  C   UNL A   1      47.284  33.189  29.093  1.00  0.00     0.010 A 
ATOM     68  C   UNL A   1      44.941  33.419  28.609  1.00  0.00     0.010 A 
ATOM     69  C   UNL A   1      47.420  34.583  29.088  1.00  0.00     0.020 A 
ATOM     70  C   UNL A   1      45.074  34.808  28.556  1.00  0.00     0.020 A 
ATOM     71  C   UNL A   1      46.306  35.383  28.835  1.00  0.00     0.054 A 
BRANCH  71  72
ATOM     72  S   UNL A   1      46.467  37.181  28.939  1.00  0.00     0.124 S 
ATOM     73  O   UNL A   1      46.148  37.428  30.342  1.00  0.00    -0.237 OA
ATOM     74  O   UNL A   1      47.862  37.387  28.559  1.00  0.00    -0.237 OA
ATOM     75  O   UNL A   1      45.483  37.667  27.976  1.00  0.00    -0.744 OA
ENDBRANCH  71  72
ENDBRANCH  52  66
BRANCH  53  76
ATOM     76  C   UNL A   1      37.726  30.841  29.964  1.00  0.00    -0.014 A 
ATOM     77  C   UNL A   1      36.793  31.263  30.931  1.00  0.00     0.010 A 
ATOM     78  C   UNL A   1      37.459  31.174  28.620  1.00  0.00     0.010 A 
ATOM     79  C   UNL A   1      35.679  32.049  30.576  1.00  0.00     0.020 A 
ATOM     80  C   UNL A   1      36.349  31.950  28.257  1.00  0.00     0.020 A 
ATOM     81  C   UNL A   1      35.479  32.409  29.242  1.00  0.00     0.054 A 
BRANCH  81  82
ATOM     82  S   UNL A   1      34.164  33.591  28.811  1.00  0.00     0.124 S 
ATOM     83  O   UNL A   1      34.895  34.623  28.083  1.00  0.00    -0.237 OA
ATOM     84  O   UNL A   1      33.254  32.775  28.010  1.00  0.00    -0.237 OA
ATOM     85  O   UNL A   1      33.634  34.004  30.110  1.00  0.00    -0.744 OA
ENDBRANCH  81  82
ENDBRANCH  53  76
BRANCH  65  86
ATOM     86  C   UNL A   1      42.543  29.243  33.647  1.00  0.00    -0.014 A 
ATOM     87  C   UNL A   1      42.296  27.897  33.307  1.00  0.00     0.010 A 
ATOM     88  C   UNL A   1      42.564  29.591  35.007  1.00  0.00     0.010 A 
ATOM     89  C   UNL A   1      42.033  26.941  34.301  1.00  0.00     0.020 A 
ATOM     90  C   UNL A   1      42.324  28.641  36.003  1.00  0.00     0.020 A 
ATOM     91  C   UNL A   1      42.043  27.323  35.644  1.00  0.00     0.054 A 
BRANCH  91  92
ATOM     92  S   UNL A   1      41.710  26.087  36.931  1.00  0.00     0.124 S 
ATOM     93  O   UNL A   1      41.780  24.831  36.187  1.00  0.00    -0.237 OA
ATOM     94  O   UNL A   1      42.791  26.313  37.887  1.00  0.00    -0.237 OA
ATOM     95  O   UNL A   1      40.378  26.442  37.419  1.00  0.00    -0.744 OA
ENDBRANCH  91  92
ENDBRANCH  65  86
ENDBRANCH  39  40
ENDBRANCH  31  34
ENDBRANCH  29  30
ENDBRANCH  28  29
ENDBRANCH   1  28
TORSDOF 18
ENDMDL
