MODEL 1
REMARK VINA RESULT:     -10.8      0.000      0.000
REMARK SMILES CC(C)[C@H](CO)Nc1ccc(C(F)(F)F)cc1C(=O)NCCCCNC(=O)c1ccc(-c2c3nc(c(-c4ccc(S(=O)(=O)[O-])cc4)c4ccc([nH]4)c(-c4ccc(S(=O)(=O)[O-])cc4)c4nc(c(-c5ccc(S(=O)(=O)[O-])cc5)c5ccc2[nH]5)C=C4)C=C3)cc1
REMARK SMILES IDX 22 1 21 2 20 3 18 4 19 5 17 7 8 8 9 9 10 10 16 11 11 12 7 13
REMARK SMILES IDX 4 15 2 16 1 17 3 18 5 19 6 20 12 22 13 23 14 24 15 25 23 26
REMARK SMILES IDX 24 27 25 28 26 29 27 31 28 32 29 33 87 34 30 35 86 36 31 37
REMARK SMILES IDX 32 38 33 39 80 40 34 41 85 42 79 43 81 44 35 45 84 46 78 47
REMARK SMILES IDX 77 48 36 50 66 51 47 52 65 53 48 54 51 55 64 56 82 57 49 58
REMARK SMILES IDX 50 59 63 61 83 62 52 63 37 64 38 65 46 66 39 67 45 68 40 69
REMARK SMILES IDX 41 70 42 71 43 72 44 73 67 74 68 75 76 76 69 77 75 78 70 79
REMARK SMILES IDX 71 80 72 81 73 82 74 83 53 84 54 85 62 86 55 87 61 88 56 89
REMARK SMILES IDX 57 90 58 91 59 92 60 93
REMARK H PARENT 20 6 7 14 6 21 25 30 81 49 51 60
REMARK Flexibility Score: inf
ROOT
ATOM      1  C   UNL A   1      33.427  27.273  25.904  1.00  0.00     0.023 C 
ENDROOT
BRANCH   1   2
ATOM      2  C   UNL A   1      33.683  27.596  24.420  1.00  0.00     0.116 C 
BRANCH   2   3
ATOM      3  N   UNL A   1      33.618  26.486  23.489  1.00  0.00    -0.352 N 
ATOM      4  C   UNL A   1      32.521  25.937  22.855  1.00  0.00     0.253 C 
ATOM      5  O   UNL A   1      32.696  25.020  22.052  1.00  0.00    -0.269 OA
ATOM      6  H   UNL A   1      34.482  26.061  23.280  1.00  0.00     0.163 HD
BRANCH   4   7
ATOM      7  C   UNL A   1      31.118  26.329  23.173  1.00  0.00     0.063 A 
ATOM      8  C   UNL A   1      30.146  25.491  23.749  1.00  0.00     0.047 A 
ATOM      9  C   UNL A   1      28.841  26.001  23.887  1.00  0.00     0.027 A 
ATOM     10  C   UNL A   1      28.531  27.332  23.589  1.00  0.00     0.015 A 
ATOM     11  C   UNL A   1      30.808  27.683  22.906  1.00  0.00     0.029 A 
ATOM     12  C   UNL A   1      29.528  28.205  23.146  1.00  0.00     0.056 A 
BRANCH   8  13
ATOM     13  N   UNL A   1      30.395  24.262  24.342  1.00  0.00    -0.379 N 
ATOM     14  H   UNL A   1      30.087  23.440  23.894  1.00  0.00     0.160 HD
BRANCH  13  15
ATOM     15  C   UNL A   1      31.111  24.158  25.627  1.00  0.00     0.107 C 
BRANCH  15  16
ATOM     16  C   UNL A   1      32.211  23.085  25.501  1.00  0.00     0.007 C 
ATOM     17  C   UNL A   1      32.140  22.335  24.171  1.00  0.00     0.009 C 
ATOM     18  C   UNL A   1      33.612  23.630  25.798  1.00  0.00     0.009 C 
ENDBRANCH  15  16
BRANCH  15  19
ATOM     19  C   UNL A   1      30.112  23.850  26.777  1.00  0.00     0.181 C 
BRANCH  19  20
ATOM     20  O   UNL A   1      30.376  22.588  27.397  1.00  0.00    -0.394 OA
ATOM     21  H   UNL A   1      30.300  21.881  26.737  1.00  0.00     0.210 HD
ENDBRANCH  19  20
ENDBRANCH  15  19
ENDBRANCH  13  15
ENDBRANCH   8  13
BRANCH  12  22
ATOM     22  C   UNL A   1      29.215  29.669  22.948  1.00  0.00     0.416 C 
ATOM     23  F   UNL A   1      27.879  29.924  22.974  1.00  0.00    -0.166 F 
ATOM     24  F   UNL A   1      29.759  30.452  23.924  1.00  0.00    -0.166 F 
ATOM     25  F   UNL A   1      29.674  30.175  21.771  1.00  0.00    -0.166 F 
ENDBRANCH  12  22
ENDBRANCH   4   7
ENDBRANCH   2   3
ENDBRANCH   1   2
BRANCH   1  26
ATOM     26  C   UNL A   1      33.354  28.373  26.977  1.00  0.00     0.023 C 
BRANCH  26  27
ATOM     27  C   UNL A   1      33.767  29.818  26.674  1.00  0.00     0.116 C 
BRANCH  27  28
ATOM     28  N   UNL A   1      33.694  30.768  27.770  1.00  0.00    -0.352 N 
ATOM     29  C   UNL A   1      34.673  31.108  28.689  1.00  0.00     0.251 C 
ATOM     30  H   UNL A   1      32.834  31.234  27.874  1.00  0.00     0.163 HD
ATOM     31  O   UNL A   1      34.488  32.031  29.468  1.00  0.00    -0.269 OA
BRANCH  29  32
ATOM     32  C   UNL A   1      35.916  30.298  28.792  1.00  0.00     0.039 A 
ATOM     33  C   UNL A   1      36.728  30.210  27.656  1.00  0.00     0.014 A 
ATOM     34  C   UNL A   1      36.319  29.692  29.983  1.00  0.00     0.014 A 
ATOM     35  C   UNL A   1      38.006  29.652  27.754  1.00  0.00     0.010 A 
ATOM     36  C   UNL A   1      37.612  29.169  30.092  1.00  0.00     0.010 A 
ATOM     37  C   UNL A   1      38.485  29.200  28.993  1.00  0.00    -0.014 A 
BRANCH  37  38
ATOM     38  C   UNL A   1      39.932  28.916  29.189  1.00  0.00     0.031 A 
ATOM     39  C   UNL A   1      40.885  29.978  29.654  1.00  0.00     0.074 A 
ATOM     40  C   UNL A   1      40.396  27.693  28.854  1.00  0.00     0.049 A 
ATOM     41  N   UNL A   1      42.183  29.905  29.804  1.00  0.00    -0.248 NA
ATOM     42  C   UNL A   1      40.311  31.292  29.977  1.00  0.00     0.031 C 
ATOM     43  C   UNL A   1      39.574  26.587  28.352  1.00  0.00     0.029 A 
ATOM     44  N   UNL A   1      41.667  27.175  28.869  1.00  0.00    -0.354 N 
ATOM     45  C   UNL A   1      42.587  31.164  30.229  1.00  0.00     0.074 A 
ATOM     46  C   UNL A   1      41.398  31.988  30.288  1.00  0.00     0.031 C 
ATOM     47  C   UNL A   1      40.358  25.523  28.120  1.00  0.00     0.029 A 
ATOM     48  C   UNL A   1      41.741  25.877  28.416  1.00  0.00     0.049 A 
ATOM     49  H   UNL A   1      42.452  27.684  29.175  1.00  0.00     0.167 HD
ATOM     50  C   UNL A   1      43.834  31.591  30.545  1.00  0.00     0.031 A 
ATOM     51  C   UNL A   1      42.802  25.063  28.241  1.00  0.00     0.031 A 
ATOM     52  C   UNL A   1      45.015  30.767  30.480  1.00  0.00     0.049 A 
ATOM     53  C   UNL A   1      44.175  25.563  28.592  1.00  0.00     0.074 A 
ATOM     54  C   UNL A   1      46.315  31.100  30.820  1.00  0.00     0.029 A 
ATOM     55  N   UNL A   1      45.042  29.451  30.041  1.00  0.00    -0.354 N 
ATOM     56  N   UNL A   1      44.524  26.739  29.055  1.00  0.00    -0.248 NA
ATOM     57  C   UNL A   1      45.293  24.628  28.409  1.00  0.00     0.031 C 
ATOM     58  C   UNL A   1      47.135  30.000  30.547  1.00  0.00     0.029 A 
ATOM     59  C   UNL A   1      46.338  28.966  30.085  1.00  0.00     0.049 A 
ATOM     60  H   UNL A   1      44.256  28.939  29.743  1.00  0.00     0.167 HD
ATOM     61  C   UNL A   1      45.900  26.675  29.246  1.00  0.00     0.074 A 
ATOM     62  C   UNL A   1      46.318  25.345  28.853  1.00  0.00     0.031 C 
ATOM     63  C   UNL A   1      46.738  27.633  29.707  1.00  0.00     0.031 A 
BRANCH  50  64
ATOM     64  C   UNL A   1      43.993  33.023  30.980  1.00  0.00    -0.014 A 
ATOM     65  C   UNL A   1      43.852  33.389  32.331  1.00  0.00     0.010 A 
ATOM     66  C   UNL A   1      44.338  34.007  30.035  1.00  0.00     0.010 A 
ATOM     67  C   UNL A   1      44.012  34.722  32.722  1.00  0.00     0.020 A 
ATOM     68  C   UNL A   1      44.523  35.336  30.427  1.00  0.00     0.020 A 
ATOM     69  C   UNL A   1      44.340  35.688  31.766  1.00  0.00     0.054 A 
BRANCH  69  70
ATOM     70  S   UNL A   1      44.552  37.408  32.303  1.00  0.00     0.124 S 
ATOM     71  O   UNL A   1      45.950  37.419  32.729  1.00  0.00    -0.237 OA
ATOM     72  O   UNL A   1      44.260  38.164  31.088  1.00  0.00    -0.237 OA
ATOM     73  O   UNL A   1      43.573  37.559  33.377  1.00  0.00    -0.744 OA
ENDBRANCH  69  70
ENDBRANCH  50  64
BRANCH  51  74
ATOM     74  C   UNL A   1      42.601  23.687  27.709  1.00  0.00    -0.014 A 
ATOM     75  C   UNL A   1      42.690  23.435  26.330  1.00  0.00     0.010 A 
ATOM     76  C   UNL A   1      42.336  22.619  28.585  1.00  0.00     0.010 A 
ATOM     77  C   UNL A   1      42.502  22.141  25.834  1.00  0.00     0.020 A 
ATOM     78  C   UNL A   1      42.173  21.320  28.095  1.00  0.00     0.020 A 
ATOM     79  C   UNL A   1      42.245  21.091  26.720  1.00  0.00     0.054 A 
BRANCH  79  80
ATOM     80  S   UNL A   1      42.057  19.410  26.061  1.00  0.00     0.124 S 
ATOM     81  O   UNL A   1      40.626  19.353  25.783  1.00  0.00    -0.237 OA
ATOM     82  O   UNL A   1      42.930  19.429  24.890  1.00  0.00    -0.237 OA
ATOM     83  O   UNL A   1      42.518  18.562  27.157  1.00  0.00    -0.744 OA
ENDBRANCH  79  80
ENDBRANCH  51  74
BRANCH  63  84
ATOM     84  C   UNL A   1      48.191  27.278  29.863  1.00  0.00    -0.014 A 
ATOM     85  C   UNL A   1      49.128  27.591  28.863  1.00  0.00     0.010 A 
ATOM     86  C   UNL A   1      48.637  26.712  31.071  1.00  0.00     0.010 A 
ATOM     87  C   UNL A   1      50.487  27.341  29.069  1.00  0.00     0.020 A 
ATOM     88  C   UNL A   1      49.997  26.481  31.289  1.00  0.00     0.020 A 
ATOM     89  C   UNL A   1      50.915  26.794  30.283  1.00  0.00     0.054 A 
BRANCH  89  90
ATOM     90  S   UNL A   1      52.692  26.565  30.562  1.00  0.00     0.124 S 
ATOM     91  O   UNL A   1      52.711  25.463  31.521  1.00  0.00    -0.237 OA
ATOM     92  O   UNL A   1      53.189  26.244  29.226  1.00  0.00    -0.237 OA
ATOM     93  O   UNL A   1      53.129  27.856  31.089  1.00  0.00    -0.744 OA
ENDBRANCH  89  90
ENDBRANCH  63  84
ENDBRANCH  37  38
ENDBRANCH  29  32
ENDBRANCH  27  28
ENDBRANCH  26  27
ENDBRANCH   1  26
TORSDOF 20
ENDMDL
MODEL 2
REMARK VINA RESULT:     -10.6      2.513      3.472
REMARK SMILES CC(C)[C@H](CO)Nc1ccc(C(F)(F)F)cc1C(=O)NCCCCNC(=O)c1ccc(-c2c3nc(c(-c4ccc(S(=O)(=O)[O-])cc4)c4ccc([nH]4)c(-c4ccc(S(=O)(=O)[O-])cc4)c4nc(c(-c5ccc(S(=O)(=O)[O-])cc5)c5ccc2[nH]5)C=C4)C=C3)cc1
REMARK SMILES IDX 22 1 21 2 20 3 18 4 19 5 17 7 8 8 9 9 10 10 16 11 11 12 7 13
REMARK SMILES IDX 4 15 2 16 1 17 3 18 5 19 6 20 12 22 13 23 14 24 15 25 23 26
REMARK SMILES IDX 24 27 25 28 26 29 27 31 28 32 29 33 87 34 30 35 86 36 31 37
REMARK SMILES IDX 32 38 33 39 80 40 34 41 85 42 79 43 81 44 35 45 84 46 78 47
REMARK SMILES IDX 77 48 36 50 66 51 47 52 65 53 48 54 51 55 64 56 82 57 49 58
REMARK SMILES IDX 50 59 63 61 83 62 52 63 37 64 38 65 46 66 39 67 45 68 40 69
REMARK SMILES IDX 41 70 42 71 43 72 44 73 67 74 68 75 76 76 69 77 75 78 70 79
REMARK SMILES IDX 71 80 72 81 73 82 74 83 53 84 54 85 62 86 55 87 61 88 56 89
REMARK SMILES IDX 57 90 58 91 59 92 60 93
REMARK H PARENT 20 6 7 14 6 21 25 30 81 49 51 60
REMARK Flexibility Score: inf
ROOT
ATOM      1  C   UNL A   1      31.632  27.375  26.290  1.00  0.00     0.023 C 
ENDROOT
BRANCH   1   2
ATOM      2  C   UNL A   1      32.175  25.942  26.443  1.00  0.00     0.116 C 
BRANCH   2   3
ATOM      3  N   UNL A   1      33.573  25.734  26.118  1.00  0.00    -0.352 N 
ATOM      4  C   UNL A   1      34.144  24.830  25.244  1.00  0.00     0.253 C 
ATOM      5  O   UNL A   1      35.363  24.856  25.075  1.00  0.00    -0.269 OA
ATOM      6  H   UNL A   1      34.206  26.321  26.590  1.00  0.00     0.163 HD
BRANCH   4   7
ATOM      7  C   UNL A   1      33.368  23.748  24.571  1.00  0.00     0.063 A 
ATOM      8  C   UNL A   1      32.321  23.944  23.651  1.00  0.00     0.047 A 
ATOM      9  C   UNL A   1      31.634  22.804  23.191  1.00  0.00     0.027 A 
ATOM     10  C   UNL A   1      32.044  21.509  23.522  1.00  0.00     0.015 A 
ATOM     11  C   UNL A   1      33.800  22.436  24.874  1.00  0.00     0.029 A 
ATOM     12  C   UNL A   1      33.169  21.310  24.325  1.00  0.00     0.056 A 
BRANCH   8  13
ATOM     13  N   UNL A   1      32.010  25.145  23.034  1.00  0.00    -0.379 N 
ATOM     14  H   UNL A   1      31.142  25.573  23.221  1.00  0.00     0.160 HD
BRANCH  13  15
ATOM     15  C   UNL A   1      32.949  25.800  22.103  1.00  0.00     0.107 C 
BRANCH  15  16
ATOM     16  C   UNL A   1      32.886  27.325  22.319  1.00  0.00     0.007 C 
ATOM     17  C   UNL A   1      31.465  27.811  22.613  1.00  0.00     0.009 C 
ATOM     18  C   UNL A   1      33.905  27.825  23.348  1.00  0.00     0.009 C 
ENDBRANCH  15  16
BRANCH  15  19
ATOM     19  C   UNL A   1      32.626  25.396  20.638  1.00  0.00     0.181 C 
BRANCH  19  20
ATOM     20  O   UNL A   1      33.220  24.144  20.281  1.00  0.00    -0.394 OA
ATOM     21  H   UNL A   1      32.786  23.428  20.771  1.00  0.00     0.210 HD
ENDBRANCH  19  20
ENDBRANCH  15  19
ENDBRANCH  13  15
ENDBRANCH   8  13
BRANCH  12  22
ATOM     22  C   UNL A   1      33.680  19.911  24.574  1.00  0.00     0.416 C 
ATOM     23  F   UNL A   1      35.039  19.850  24.606  1.00  0.00    -0.166 F 
ATOM     24  F   UNL A   1      33.260  19.411  25.773  1.00  0.00    -0.166 F 
ATOM     25  F   UNL A   1      33.283  19.005  23.639  1.00  0.00    -0.166 F 
ENDBRANCH  12  22
ENDBRANCH   4   7
ENDBRANCH   2   3
ENDBRANCH   1   2
BRANCH   1  26
ATOM     26  C   UNL A   1      32.018  28.503  27.262  1.00  0.00     0.023 C 
BRANCH  26  27
ATOM     27  C   UNL A   1      33.373  29.213  27.168  1.00  0.00     0.116 C 
BRANCH  27  28
ATOM     28  N   UNL A   1      33.503  30.479  27.867  1.00  0.00    -0.352 N 
ATOM     29  C   UNL A   1      34.632  31.045  28.435  1.00  0.00     0.251 C 
ATOM     30  H   UNL A   1      32.676  31.008  27.947  1.00  0.00     0.163 HD
ATOM     31  O   UNL A   1      34.594  32.186  28.869  1.00  0.00    -0.269 OA
BRANCH  29  32
ATOM     32  C   UNL A   1      35.870  30.237  28.601  1.00  0.00     0.039 A 
ATOM     33  C   UNL A   1      36.710  30.105  27.490  1.00  0.00     0.014 A 
ATOM     34  C   UNL A   1      36.242  29.677  29.824  1.00  0.00     0.014 A 
ATOM     35  C   UNL A   1      37.984  29.549  27.641  1.00  0.00     0.010 A 
ATOM     36  C   UNL A   1      37.530  29.157  29.986  1.00  0.00     0.010 A 
ATOM     37  C   UNL A   1      38.430  29.144  28.909  1.00  0.00    -0.014 A 
BRANCH  37  38
ATOM     38  C   UNL A   1      39.871  28.866  29.152  1.00  0.00     0.031 A 
ATOM     39  C   UNL A   1      40.802  29.929  29.655  1.00  0.00     0.074 A 
ATOM     40  C   UNL A   1      40.353  27.647  28.825  1.00  0.00     0.049 A 
ATOM     41  N   UNL A   1      42.095  29.861  29.849  1.00  0.00    -0.248 NA
ATOM     42  C   UNL A   1      40.212  31.238  29.968  1.00  0.00     0.031 C 
ATOM     43  C   UNL A   1      39.554  26.541  28.288  1.00  0.00     0.029 A 
ATOM     44  N   UNL A   1      41.625  27.135  28.879  1.00  0.00    -0.354 N 
ATOM     45  C   UNL A   1      42.479  31.119  30.296  1.00  0.00     0.074 A 
ATOM     46  C   UNL A   1      41.284  31.938  30.319  1.00  0.00     0.031 C 
ATOM     47  C   UNL A   1      40.350  25.482  28.076  1.00  0.00     0.029 A 
ATOM     48  C   UNL A   1      41.721  25.841  28.421  1.00  0.00     0.049 A 
ATOM     49  H   UNL A   1      42.397  27.646  29.215  1.00  0.00     0.167 HD
ATOM     50  C   UNL A   1      43.712  31.550  30.657  1.00  0.00     0.031 A 
ATOM     51  C   UNL A   1      42.791  25.033  28.277  1.00  0.00     0.031 A 
ATOM     52  C   UNL A   1      44.898  30.732  30.626  1.00  0.00     0.049 A 
ATOM     53  C   UNL A   1      44.148  25.537  28.678  1.00  0.00     0.074 A 
ATOM     54  C   UNL A   1      46.184  31.069  31.013  1.00  0.00     0.029 A 
ATOM     55  N   UNL A   1      44.947  29.420  30.181  1.00  0.00    -0.354 N 
ATOM     56  N   UNL A   1      44.477  26.711  29.160  1.00  0.00    -0.248 NA
ATOM     57  C   UNL A   1      45.277  24.608  28.526  1.00  0.00     0.031 C 
ATOM     58  C   UNL A   1      47.019  29.975  30.761  1.00  0.00     0.029 A 
ATOM     59  C   UNL A   1      46.243  28.940  30.266  1.00  0.00     0.049 A 
ATOM     60  H   UNL A   1      44.174  28.905  29.853  1.00  0.00     0.167 HD
ATOM     61  C   UNL A   1      45.845  26.653  29.397  1.00  0.00     0.074 A 
ATOM     62  C   UNL A   1      46.283  25.327  29.010  1.00  0.00     0.031 C 
ATOM     63  C   UNL A   1      46.662  27.612  29.893  1.00  0.00     0.031 A 
BRANCH  50  64
ATOM     64  C   UNL A   1      43.849  32.980  31.106  1.00  0.00    -0.014 A 
ATOM     65  C   UNL A   1      43.726  33.327  32.464  1.00  0.00     0.010 A 
ATOM     66  C   UNL A   1      44.155  33.982  30.167  1.00  0.00     0.010 A 
ATOM     67  C   UNL A   1      43.866  34.658  32.868  1.00  0.00     0.020 A 
ATOM     68  C   UNL A   1      44.318  35.311  30.572  1.00  0.00     0.020 A 
ATOM     69  C   UNL A   1      44.155  35.643  31.918  1.00  0.00     0.054 A 
BRANCH  69  70
ATOM     70  S   UNL A   1      44.341  37.360  32.472  1.00  0.00     0.124 S 
ATOM     71  O   UNL A   1      45.751  37.402  32.852  1.00  0.00    -0.237 OA
ATOM     72  O   UNL A   1      43.989  38.125  31.278  1.00  0.00    -0.237 OA
ATOM     73  O   UNL A   1      43.394  37.471  33.580  1.00  0.00    -0.744 OA
ENDBRANCH  69  70
ENDBRANCH  50  64
BRANCH  51  74
ATOM     74  C   UNL A   1      42.615  23.660  27.730  1.00  0.00    -0.014 A 
ATOM     75  C   UNL A   1      42.449  22.563  28.593  1.00  0.00     0.010 A 
ATOM     76  C   UNL A   1      42.595  23.446  26.340  1.00  0.00     0.010 A 
ATOM     77  C   UNL A   1      42.283  21.275  28.076  1.00  0.00     0.020 A 
ATOM     78  C   UNL A   1      42.404  22.163  25.819  1.00  0.00     0.020 A 
ATOM     79  C   UNL A   1      42.261  21.083  26.691  1.00  0.00     0.054 A 
BRANCH  79  80
ATOM     80  S   UNL A   1      41.991  19.410  26.040  1.00  0.00     0.124 S 
ATOM     81  O   UNL A   1      42.357  18.579  27.183  1.00  0.00    -0.237 OA
ATOM     82  O   UNL A   1      40.571  19.428  25.698  1.00  0.00    -0.237 OA
ATOM     83  O   UNL A   1      42.898  19.340  24.896  1.00  0.00    -0.744 OA
ENDBRANCH  79  80
ENDBRANCH  51  74
BRANCH  63  84
ATOM     84  C   UNL A   1      48.111  27.263  30.096  1.00  0.00    -0.014 A 
ATOM     85  C   UNL A   1      49.069  27.530  29.103  1.00  0.00     0.010 A 
ATOM     86  C   UNL A   1      48.530  26.751  31.337  1.00  0.00     0.010 A 
ATOM     87  C   UNL A   1      50.424  27.288  29.349  1.00  0.00     0.020 A 
ATOM     88  C   UNL A   1      49.885  26.528  31.594  1.00  0.00     0.020 A 
ATOM     89  C   UNL A   1      50.824  26.795  30.595  1.00  0.00     0.054 A 
BRANCH  89  90
ATOM     90  S   UNL A   1      52.595  26.577  30.923  1.00  0.00     0.124 S 
ATOM     91  O   UNL A   1      52.602  25.402  31.790  1.00  0.00    -0.237 OA
ATOM     92  O   UNL A   1      53.147  26.375  29.586  1.00  0.00    -0.237 OA
ATOM     93  O   UNL A   1      52.984  27.829  31.568  1.00  0.00    -0.744 OA
ENDBRANCH  89  90
ENDBRANCH  63  84
ENDBRANCH  37  38
ENDBRANCH  29  32
ENDBRANCH  27  28
ENDBRANCH  26  27
ENDBRANCH   1  26
TORSDOF 20
ENDMDL
MODEL 3
REMARK VINA RESULT:     -10.4      2.520      3.579
REMARK SMILES CC(C)[C@H](CO)Nc1ccc(C(F)(F)F)cc1C(=O)NCCCCNC(=O)c1ccc(-c2c3nc(c(-c4ccc(S(=O)(=O)[O-])cc4)c4ccc([nH]4)c(-c4ccc(S(=O)(=O)[O-])cc4)c4nc(c(-c5ccc(S(=O)(=O)[O-])cc5)c5ccc2[nH]5)C=C4)C=C3)cc1
REMARK SMILES IDX 22 1 21 2 20 3 18 4 19 5 17 7 8 8 9 9 10 10 16 11 11 12 7 13
REMARK SMILES IDX 4 15 2 16 1 17 3 18 5 19 6 20 12 22 13 23 14 24 15 25 23 26
REMARK SMILES IDX 24 27 25 28 26 29 27 31 28 32 29 33 87 34 30 35 86 36 31 37
REMARK SMILES IDX 32 38 33 39 80 40 34 41 85 42 79 43 81 44 35 45 84 46 78 47
REMARK SMILES IDX 77 48 36 50 66 51 47 52 65 53 48 54 51 55 64 56 82 57 49 58
REMARK SMILES IDX 50 59 63 61 83 62 52 63 37 64 38 65 46 66 39 67 45 68 40 69
REMARK SMILES IDX 41 70 42 71 43 72 44 73 67 74 68 75 76 76 69 77 75 78 70 79
REMARK SMILES IDX 71 80 72 81 73 82 74 83 53 84 54 85 62 86 55 87 61 88 56 89
REMARK SMILES IDX 57 90 58 91 59 92 60 93
REMARK H PARENT 20 6 7 14 6 21 25 30 81 49 51 60
REMARK Flexibility Score: inf
ROOT
ATOM      1  C   UNL A   1      32.842  27.366  26.222  1.00  0.00     0.023 C 
ENDROOT
BRANCH   1   2
ATOM      2  C   UNL A   1      34.008  26.465  25.777  1.00  0.00     0.116 C 
BRANCH   2   3
ATOM      3  N   UNL A   1      34.004  26.024  24.395  1.00  0.00    -0.352 N 
ATOM      4  C   UNL A   1      34.324  24.788  23.869  1.00  0.00     0.253 C 
ATOM      5  O   UNL A   1      34.202  24.608  22.657  1.00  0.00    -0.269 OA
ATOM      6  H   UNL A   1      33.736  26.705  23.737  1.00  0.00     0.163 HD
BRANCH   4   7
ATOM      7  C   UNL A   1      34.915  23.686  24.682  1.00  0.00     0.063 A 
ATOM      8  C   UNL A   1      34.235  22.532  25.111  1.00  0.00     0.047 A 
ATOM      9  C   UNL A   1      34.924  21.642  25.956  1.00  0.00     0.027 A 
ATOM     10  C   UNL A   1      36.277  21.814  26.266  1.00  0.00     0.015 A 
ATOM     11  C   UNL A   1      36.292  23.836  24.969  1.00  0.00     0.029 A 
ATOM     12  C   UNL A   1      36.992  22.887  25.728  1.00  0.00     0.056 A 
BRANCH   8  13
ATOM     13  N   UNL A   1      32.998  22.109  24.646  1.00  0.00    -0.379 N 
ATOM     14  H   UNL A   1      32.947  21.605  23.801  1.00  0.00     0.160 HD
BRANCH  13  15
ATOM     15  C   UNL A   1      31.756  22.397  25.388  1.00  0.00     0.107 C 
BRANCH  15  16
ATOM     16  C   UNL A   1      30.834  23.261  24.504  1.00  0.00     0.007 C 
ATOM     17  C   UNL A   1      30.729  24.701  25.009  1.00  0.00     0.009 C 
ATOM     18  C   UNL A   1      31.189  23.181  23.016  1.00  0.00     0.009 C 
ENDBRANCH  15  16
BRANCH  15  19
ATOM     19  C   UNL A   1      32.085  23.080  26.745  1.00  0.00     0.181 C 
BRANCH  19  20
ATOM     20  O   UNL A   1      31.245  22.610  27.803  1.00  0.00    -0.394 OA
ATOM     21  H   UNL A   1      31.458  23.085  28.621  1.00  0.00     0.210 HD
ENDBRANCH  19  20
ENDBRANCH  15  19
ENDBRANCH  13  15
ENDBRANCH   8  13
BRANCH  12  22
ATOM     22  C   UNL A   1      38.479  22.996  25.963  1.00  0.00     0.416 C 
ATOM     23  F   UNL A   1      39.186  22.063  25.268  1.00  0.00    -0.166 F 
ATOM     24  F   UNL A   1      38.979  24.204  25.571  1.00  0.00    -0.166 F 
ATOM     25  F   UNL A   1      38.843  22.852  27.266  1.00  0.00    -0.166 F 
ENDBRANCH  12  22
ENDBRANCH   4   7
ENDBRANCH   2   3
ENDBRANCH   1   2
BRANCH   1  26
ATOM     26  C   UNL A   1      33.026  28.485  27.261  1.00  0.00     0.023 C 
BRANCH  26  27
ATOM     27  C   UNL A   1      33.653  29.833  26.886  1.00  0.00     0.116 C 
BRANCH  27  28
ATOM     28  N   UNL A   1      33.659  30.864  27.908  1.00  0.00    -0.352 N 
ATOM     29  C   UNL A   1      34.696  31.257  28.739  1.00  0.00     0.251 C 
ATOM     30  H   UNL A   1      32.812  31.351  28.026  1.00  0.00     0.163 HD
ATOM     31  O   UNL A   1      34.569  32.239  29.453  1.00  0.00    -0.269 OA
BRANCH  29  32
ATOM     32  C   UNL A   1      35.932  30.436  28.830  1.00  0.00     0.039 A 
ATOM     33  C   UNL A   1      36.770  30.400  27.710  1.00  0.00     0.014 A 
ATOM     34  C   UNL A   1      36.306  29.771  29.998  1.00  0.00     0.014 A 
ATOM     35  C   UNL A   1      38.043  29.831  27.809  1.00  0.00     0.010 A 
ATOM     36  C   UNL A   1      37.593  29.236  30.111  1.00  0.00     0.010 A 
ATOM     37  C   UNL A   1      38.491  29.317  29.035  1.00  0.00    -0.014 A 
BRANCH  37  38
ATOM     38  C   UNL A   1      39.933  29.016  29.249  1.00  0.00     0.031 A 
ATOM     39  C   UNL A   1      40.890  30.066  29.730  1.00  0.00     0.074 A 
ATOM     40  C   UNL A   1      40.387  27.789  28.917  1.00  0.00     0.049 A 
ATOM     41  N   UNL A   1      42.186  29.978  29.897  1.00  0.00    -0.248 NA
ATOM     42  C   UNL A   1      40.328  31.385  30.050  1.00  0.00     0.031 C 
ATOM     43  C   UNL A   1      39.560  26.694  28.401  1.00  0.00     0.029 A 
ATOM     44  N   UNL A   1      41.652  27.257  28.947  1.00  0.00    -0.354 N 
ATOM     45  C   UNL A   1      42.598  31.231  30.332  1.00  0.00     0.074 A 
ATOM     46  C   UNL A   1      41.418  32.069  30.377  1.00  0.00     0.031 C 
ATOM     47  C   UNL A   1      40.335  25.622  28.176  1.00  0.00     0.029 A 
ATOM     48  C   UNL A   1      41.718  25.960  28.491  1.00  0.00     0.049 A 
ATOM     49  H   UNL A   1      42.439  27.756  29.265  1.00  0.00     0.167 HD
ATOM     50  C   UNL A   1      43.846  31.643  30.666  1.00  0.00     0.031 A 
ATOM     51  C   UNL A   1      42.772  25.135  28.328  1.00  0.00     0.031 A 
ATOM     52  C   UNL A   1      45.018  30.806  30.614  1.00  0.00     0.049 A 
ATOM     53  C   UNL A   1      44.145  25.618  28.700  1.00  0.00     0.074 A 
ATOM     54  C   UNL A   1      46.317  31.124  30.973  1.00  0.00     0.029 A 
ATOM     55  N   UNL A   1      45.036  29.492  30.172  1.00  0.00    -0.354 N 
ATOM     56  N   UNL A   1      44.502  26.788  29.171  1.00  0.00    -0.248 NA
ATOM     57  C   UNL A   1      45.256  24.671  28.528  1.00  0.00     0.031 C 
ATOM     58  C   UNL A   1      47.129  30.016  30.708  1.00  0.00     0.029 A 
ATOM     59  C   UNL A   1      46.326  28.992  30.232  1.00  0.00     0.049 A 
ATOM     60  H   UNL A   1      44.249  28.989  29.862  1.00  0.00     0.167 HD
ATOM     61  C   UNL A   1      45.874  26.708  29.380  1.00  0.00     0.074 A 
ATOM     62  C   UNL A   1      46.282  25.375  28.989  1.00  0.00     0.031 C 
ATOM     63  C   UNL A   1      46.716  27.656  29.856  1.00  0.00     0.031 A 
BRANCH  50  64
ATOM     64  C   UNL A   1      44.015  33.072  31.107  1.00  0.00    -0.014 A 
ATOM     65  C   UNL A   1      43.981  33.418  32.471  1.00  0.00     0.010 A 
ATOM     66  C   UNL A   1      44.261  34.075  30.152  1.00  0.00     0.010 A 
ATOM     67  C   UNL A   1      44.149  34.748  32.867  1.00  0.00     0.020 A 
ATOM     68  C   UNL A   1      44.454  35.403  30.547  1.00  0.00     0.020 A 
ATOM     69  C   UNL A   1      44.378  35.733  31.901  1.00  0.00     0.054 A 
BRANCH  69  70
ATOM     70  S   UNL A   1      44.603  37.449  32.445  1.00  0.00     0.124 S 
ATOM     71  O   UNL A   1      44.749  38.151  31.171  1.00  0.00    -0.237 OA
ATOM     72  O   UNL A   1      43.367  37.722  33.174  1.00  0.00    -0.237 OA
ATOM     73  O   UNL A   1      45.810  37.397  33.268  1.00  0.00    -0.744 OA
ENDBRANCH  69  70
ENDBRANCH  50  64
BRANCH  51  74
ATOM     74  C   UNL A   1      42.563  23.762  27.790  1.00  0.00    -0.014 A 
ATOM     75  C   UNL A   1      42.393  22.672  28.660  1.00  0.00     0.010 A 
ATOM     76  C   UNL A   1      42.515  23.544  26.401  1.00  0.00     0.010 A 
ATOM     77  C   UNL A   1      42.196  21.385  28.151  1.00  0.00     0.020 A 
ATOM     78  C   UNL A   1      42.293  22.262  25.889  1.00  0.00     0.020 A 
ATOM     79  C   UNL A   1      42.147  21.188  26.767  1.00  0.00     0.054 A 
BRANCH  79  80
ATOM     80  S   UNL A   1      41.836  19.518  26.128  1.00  0.00     0.124 S 
ATOM     81  O   UNL A   1      42.762  19.449  25.002  1.00  0.00    -0.237 OA
ATOM     82  O   UNL A   1      42.166  18.673  27.272  1.00  0.00    -0.237 OA
ATOM     83  O   UNL A   1      40.419  19.547  25.774  1.00  0.00    -0.744 OA
ENDBRANCH  79  80
ENDBRANCH  51  74
BRANCH  63  84
ATOM     84  C   UNL A   1      48.163  27.284  30.030  1.00  0.00    -0.014 A 
ATOM     85  C   UNL A   1      49.100  27.507  29.006  1.00  0.00     0.010 A 
ATOM     86  C   UNL A   1      48.605  26.797  31.273  1.00  0.00     0.010 A 
ATOM     87  C   UNL A   1      50.455  27.246  29.223  1.00  0.00     0.020 A 
ATOM     88  C   UNL A   1      49.962  26.555  31.500  1.00  0.00     0.020 A 
ATOM     89  C   UNL A   1      50.879  26.778  30.471  1.00  0.00     0.054 A 
BRANCH  89  90
ATOM     90  S   UNL A   1      52.654  26.534  30.758  1.00  0.00     0.124 S 
ATOM     91  O   UNL A   1      53.148  26.275  29.408  1.00  0.00    -0.237 OA
ATOM     92  O   UNL A   1      53.063  27.808  31.344  1.00  0.00    -0.237 OA
ATOM     93  O   UNL A   1      52.703  25.392  31.669  1.00  0.00    -0.744 OA
ENDBRANCH  89  90
ENDBRANCH  63  84
ENDBRANCH  37  38
ENDBRANCH  29  32
ENDBRANCH  27  28
ENDBRANCH  26  27
ENDBRANCH   1  26
TORSDOF 20
ENDMDL
