MODEL 1
REMARK VINA RESULT:     -11.3      0.000      0.000
REMARK SMILES Cc1cc([C@@H](C)NC(=O)N[C@H]2C=C[C@@H](C(=O)NCCCCNC(=O)c3ccc(-c4c5nc(c(-c6ccc(S(=O)(=O)[O-])cc6)c6ccc([nH]6)c(-c6ccc(S(=O)(=O)[O-])cc6)c6nc(c(-c7ccc(S(=O)(=O)[O-])cc7)c7ccc4[nH]7)C=C6)C=C5)cc3)C2)c(C)s1
REMARK SMILES IDX 19 1 18 2 17 3 15 4 16 5 14 7 11 8 12 9 85 10 13 11 10 12
REMARK SMILES IDX 7 13 8 14 9 16 5 18 6 19 4 20 1 21 2 22 3 23 88 24 86 25
REMARK SMILES IDX 87 26 20 27 21 28 22 29 23 30 24 32 25 33 26 34 84 35 27 36
REMARK SMILES IDX 83 37 28 38 29 39 30 40 77 41 31 42 82 43 76 44 78 45 32 46
REMARK SMILES IDX 81 47 75 48 74 49 33 51 63 52 44 53 62 54 45 55 48 56 61 57
REMARK SMILES IDX 79 58 46 59 47 60 60 62 80 63 49 64 34 65 35 66 43 67 36 68
REMARK SMILES IDX 42 69 37 70 38 71 39 72 40 73 41 74 64 75 65 76 73 77 66 78
REMARK SMILES IDX 72 79 67 80 68 81 69 82 70 83 71 84 50 85 51 86 59 87 52 88
REMARK SMILES IDX 58 89 53 90 54 91 55 92 56 93 57 94
REMARK H PARENT 17 6 7 15 10 17 22 31 78 50 48 61
REMARK Flexibility Score: inf
ROOT
ATOM      1  C   UNL A   1      34.508  32.304  28.245  1.00  0.00     0.023 C 
ENDROOT
BRANCH   1   2
ATOM      2  C   UNL A   1      34.598  31.019  27.429  1.00  0.00     0.116 C 
BRANCH   2   3
ATOM      3  N   UNL A   1      33.563  30.065  27.769  1.00  0.00    -0.356 N 
ATOM      4  C   UNL A   1      33.177  28.929  27.128  1.00  0.00     0.227 C 
ATOM      5  O   UNL A   1      32.295  28.247  27.660  1.00  0.00    -0.274 OA
ATOM      6  H   UNL A   1      33.063  30.269  28.591  1.00  0.00     0.163 HD
BRANCH   4   7
ATOM      7  C   UNL A   1      33.724  28.525  25.754  1.00  0.00     0.103 C 
ATOM      8  C   UNL A   1      32.934  26.897  24.052  1.00  0.00     0.107 C 
ATOM      9  C   UNL A   1      32.801  28.325  23.605  1.00  0.00    -0.006 C 
ATOM     10  C   UNL A   1      33.498  27.042  25.468  1.00  0.00     0.047 C 
ATOM     11  C   UNL A   1      33.196  29.204  24.535  1.00  0.00    -0.016 C 
BRANCH   8  12
ATOM     12  N   UNL A   1      31.621  26.288  24.008  1.00  0.00    -0.332 N 
ATOM     13  N   UNL A   1      31.866  24.042  23.279  1.00  0.00    -0.332 N 
ATOM     14  C   UNL A   1      31.142  25.085  23.683  1.00  0.00     0.315 C 
ATOM     15  H   UNL A   1      31.311  23.240  23.145  1.00  0.00     0.165 HD
ATOM     16  O   UNL A   1      29.922  24.926  23.775  1.00  0.00    -0.249 OA
ATOM     17  H   UNL A   1      30.911  26.911  24.285  1.00  0.00     0.165 HD
BRANCH  13  18
ATOM     18  C   UNL A   1      33.266  23.785  22.984  1.00  0.00     0.112 C 
ATOM     19  C   UNL A   1      33.503  23.678  21.481  1.00  0.00     0.036 C 
BRANCH  18  20
ATOM     20  C   UNL A   1      33.702  22.563  23.778  1.00  0.00    -0.012 A 
ATOM     21  C   UNL A   1      32.755  19.120  25.095  1.00  0.00     0.056 C 
ATOM     22  C   UNL A   1      33.385  20.418  24.722  1.00  0.00     0.002 A 
ATOM     23  C   UNL A   1      32.788  21.505  24.128  1.00  0.00     0.021 A 
ATOM     24  S   UNL A   1      35.028  20.715  25.022  1.00  0.00    -0.146 S 
ATOM     25  C   UNL A   1      34.971  22.257  24.261  1.00  0.00     0.007 A 
ATOM     26  C   UNL A   1      36.242  23.043  24.221  1.00  0.00     0.057 C 
ENDBRANCH  18  20
ENDBRANCH  13  18
ENDBRANCH   8  12
ENDBRANCH   4   7
ENDBRANCH   2   3
ENDBRANCH   1   2
BRANCH   1  27
ATOM     27  C   UNL A   1      35.824  33.066  28.398  1.00  0.00     0.023 C 
BRANCH  27  28
ATOM     28  C   UNL A   1      36.394  33.117  29.813  1.00  0.00     0.116 C 
BRANCH  28  29
ATOM     29  N   UNL A   1      35.956  32.016  30.656  1.00  0.00    -0.352 N 
ATOM     30  C   UNL A   1      36.603  30.837  30.940  1.00  0.00     0.251 C 
ATOM     31  H   UNL A   1      35.076  32.130  31.081  1.00  0.00     0.163 HD
ATOM     32  O   UNL A   1      36.045  29.975  31.613  1.00  0.00    -0.269 OA
BRANCH  30  33
ATOM     33  C   UNL A   1      37.955  30.595  30.395  1.00  0.00     0.039 A 
ATOM     34  C   UNL A   1      39.040  30.579  31.275  1.00  0.00     0.014 A 
ATOM     35  C   UNL A   1      38.149  30.352  29.032  1.00  0.00     0.014 A 
ATOM     36  C   UNL A   1      40.309  30.249  30.799  1.00  0.00     0.010 A 
ATOM     37  C   UNL A   1      39.402  29.953  28.574  1.00  0.00     0.010 A 
ATOM     38  C   UNL A   1      40.494  29.896  29.452  1.00  0.00    -0.014 A 
BRANCH  38  39
ATOM     39  C   UNL A   1      41.821  29.450  28.955  1.00  0.00     0.031 A 
ATOM     40  C   UNL A   1      42.962  30.424  28.851  1.00  0.00     0.074 A 
ATOM     41  C   UNL A   1      41.982  28.174  28.551  1.00  0.00     0.049 A 
ATOM     42  N   UNL A   1      44.183  30.220  28.427  1.00  0.00    -0.248 NA
ATOM     43  C   UNL A   1      42.691  31.814  29.254  1.00  0.00     0.031 C 
ATOM     44  C   UNL A   1      40.940  27.144  28.553  1.00  0.00     0.029 A 
ATOM     45  N   UNL A   1      43.085  27.523  28.056  1.00  0.00    -0.354 N 
ATOM     46  C   UNL A   1      44.820  31.452  28.499  1.00  0.00     0.074 A 
ATOM     47  C   UNL A   1      43.837  32.410  28.958  1.00  0.00     0.031 C 
ATOM     48  C   UNL A   1      41.461  25.987  28.117  1.00  0.00     0.029 A 
ATOM     49  C   UNL A   1      42.863  26.198  27.769  1.00  0.00     0.049 A 
ATOM     50  H   UNL A   1      43.955  27.966  27.920  1.00  0.00     0.167 HD
ATOM     51  C   UNL A   1      46.112  31.757  28.230  1.00  0.00     0.031 A 
ATOM     52  C   UNL A   1      43.693  25.255  27.283  1.00  0.00     0.031 A 
ATOM     53  C   UNL A   1      47.091  30.803  27.781  1.00  0.00     0.049 A 
ATOM     54  C   UNL A   1      45.123  25.618  26.992  1.00  0.00     0.074 A 
ATOM     55  C   UNL A   1      48.438  31.001  27.533  1.00  0.00     0.029 A 
ATOM     56  N   UNL A   1      46.828  29.468  27.510  1.00  0.00    -0.354 N 
ATOM     57  N   UNL A   1      45.725  26.774  27.135  1.00  0.00    -0.248 NA
ATOM     58  C   UNL A   1      45.990  24.543  26.490  1.00  0.00     0.031 C 
ATOM     59  C   UNL A   1      48.979  29.799  27.066  1.00  0.00     0.029 A 
ATOM     60  C   UNL A   1      47.982  28.836  27.077  1.00  0.00     0.049 A 
ATOM     61  H   UNL A   1      45.950  29.034  27.610  1.00  0.00     0.167 HD
ATOM     62  C   UNL A   1      47.047  26.561  26.762  1.00  0.00     0.074 A 
ATOM     63  C   UNL A   1      47.160  25.160  26.407  1.00  0.00     0.031 C 
ATOM     64  C   UNL A   1      48.076  27.444  26.718  1.00  0.00     0.031 A 
BRANCH  51  65
ATOM     65  C   UNL A   1      46.541  33.191  28.413  1.00  0.00    -0.014 A 
ATOM     66  C   UNL A   1      46.447  34.117  27.357  1.00  0.00     0.010 A 
ATOM     67  C   UNL A   1      47.011  33.629  29.664  1.00  0.00     0.010 A 
ATOM     68  C   UNL A   1      46.856  35.440  27.536  1.00  0.00     0.020 A 
ATOM     69  C   UNL A   1      47.396  34.959  29.856  1.00  0.00     0.020 A 
ATOM     70  C   UNL A   1      47.332  35.853  28.784  1.00  0.00     0.054 A 
BRANCH  70  71
ATOM     71  S   UNL A   1      47.838  37.581  28.994  1.00  0.00     0.124 S 
ATOM     72  O   UNL A   1      46.696  38.145  29.709  1.00  0.00    -0.237 OA
ATOM     73  O   UNL A   1      49.068  37.463  29.772  1.00  0.00    -0.237 OA
ATOM     74  O   UNL A   1      48.013  38.060  27.625  1.00  0.00    -0.744 OA
ENDBRANCH  70  71
ENDBRANCH  51  65
BRANCH  52  75
ATOM     75  C   UNL A   1      43.196  23.868  27.063  1.00  0.00    -0.014 A 
ATOM     76  C   UNL A   1      42.864  23.426  25.771  1.00  0.00     0.010 A 
ATOM     77  C   UNL A   1      43.064  22.979  28.145  1.00  0.00     0.010 A 
ATOM     78  C   UNL A   1      42.391  22.126  25.566  1.00  0.00     0.020 A 
ATOM     79  C   UNL A   1      42.618  21.671  27.942  1.00  0.00     0.020 A 
ATOM     80  C   UNL A   1      42.272  21.256  26.654  1.00  0.00     0.054 A 
BRANCH  80  81
ATOM     81  S   UNL A   1      41.704  19.558  26.358  1.00  0.00     0.124 S 
ATOM     82  O   UNL A   1      40.266  19.745  26.191  1.00  0.00    -0.237 OA
ATOM     83  O   UNL A   1      42.438  19.185  25.153  1.00  0.00    -0.237 OA
ATOM     84  O   UNL A   1      42.107  18.848  27.570  1.00  0.00    -0.744 OA
ENDBRANCH  80  81
ENDBRANCH  52  75
BRANCH  64  85
ATOM     85  C   UNL A   1      49.420  26.914  26.294  1.00  0.00    -0.014 A 
ATOM     86  C   UNL A   1      49.892  27.086  24.981  1.00  0.00     0.010 A 
ATOM     87  C   UNL A   1      50.237  26.261  27.236  1.00  0.00     0.010 A 
ATOM     88  C   UNL A   1      51.138  26.577  24.606  1.00  0.00     0.020 A 
ATOM     89  C   UNL A   1      51.495  25.776  26.873  1.00  0.00     0.020 A 
ATOM     90  C   UNL A   1      51.931  25.921  25.554  1.00  0.00     0.054 A 
BRANCH  90  91
ATOM     91  S   UNL A   1      53.554  25.291  25.050  1.00  0.00     0.124 S 
ATOM     92  O   UNL A   1      54.458  26.074  25.888  1.00  0.00    -0.237 OA
ATOM     93  O   UNL A   1      53.464  23.870  25.380  1.00  0.00    -0.237 OA
ATOM     94  O   UNL A   1      53.614  25.589  23.621  1.00  0.00    -0.744 OA
ENDBRANCH  90  91
ENDBRANCH  64  85
ENDBRANCH  38  39
ENDBRANCH  30  33
ENDBRANCH  28  29
ENDBRANCH  27  28
ENDBRANCH   1  27
TORSDOF 17
ENDMDL
MODEL 2
REMARK VINA RESULT:     -11.1      6.182     11.985
REMARK SMILES Cc1cc([C@@H](C)NC(=O)N[C@H]2C=C[C@@H](C(=O)NCCCCNC(=O)c3ccc(-c4c5nc(c(-c6ccc(S(=O)(=O)[O-])cc6)c6ccc([nH]6)c(-c6ccc(S(=O)(=O)[O-])cc6)c6nc(c(-c7ccc(S(=O)(=O)[O-])cc7)c7ccc4[nH]7)C=C6)C=C5)cc3)C2)c(C)s1
REMARK SMILES IDX 19 1 18 2 17 3 15 4 16 5 14 7 11 8 12 9 85 10 13 11 10 12
REMARK SMILES IDX 7 13 8 14 9 16 5 18 6 19 4 20 1 21 2 22 3 23 88 24 86 25
REMARK SMILES IDX 87 26 20 27 21 28 22 29 23 30 24 32 25 33 26 34 84 35 27 36
REMARK SMILES IDX 83 37 28 38 29 39 30 40 77 41 31 42 82 43 76 44 78 45 32 46
REMARK SMILES IDX 81 47 75 48 74 49 33 51 63 52 44 53 62 54 45 55 48 56 61 57
REMARK SMILES IDX 79 58 46 59 47 60 60 62 80 63 49 64 34 65 35 66 43 67 36 68
REMARK SMILES IDX 42 69 37 70 38 71 39 72 40 73 41 74 64 75 65 76 73 77 66 78
REMARK SMILES IDX 72 79 67 80 68 81 69 82 70 83 71 84 50 85 51 86 59 87 52 88
REMARK SMILES IDX 58 89 53 90 54 91 55 92 56 93 57 94
REMARK H PARENT 17 6 7 15 10 17 22 31 78 50 48 61
REMARK Flexibility Score: inf
ROOT
ATOM      1  C   UNL A   1      39.771  22.222  27.067  1.00  0.00     0.023 C 
ENDROOT
BRANCH   1   2
ATOM      2  C   UNL A   1      39.037  22.188  25.732  1.00  0.00     0.116 C 
BRANCH   2   3
ATOM      3  N   UNL A   1      37.922  21.264  25.727  1.00  0.00    -0.356 N 
ATOM      4  C   UNL A   1      36.652  21.428  25.269  1.00  0.00     0.227 C 
ATOM      5  O   UNL A   1      35.894  20.454  25.328  1.00  0.00    -0.274 OA
ATOM      6  H   UNL A   1      38.113  20.380  26.116  1.00  0.00     0.163 HD
BRANCH   4   7
ATOM      7  C   UNL A   1      36.116  22.778  24.777  1.00  0.00     0.103 C 
ATOM      8  C   UNL A   1      33.893  23.868  24.976  1.00  0.00     0.107 C 
ATOM      9  C   UNL A   1      34.958  24.558  25.779  1.00  0.00    -0.006 C 
ATOM     10  C   UNL A   1      34.649  22.687  24.361  1.00  0.00     0.047 C 
ATOM     11  C   UNL A   1      36.150  23.951  25.698  1.00  0.00    -0.016 C 
BRANCH   8  12
ATOM     12  N   UNL A   1      32.833  23.472  25.881  1.00  0.00    -0.332 N 
ATOM     13  N   UNL A   1      31.692  25.428  26.593  1.00  0.00    -0.332 N 
ATOM     14  C   UNL A   1      31.892  24.110  26.579  1.00  0.00     0.315 C 
ATOM     15  H   UNL A   1      30.908  25.674  27.135  1.00  0.00     0.165 HD
ATOM     16  O   UNL A   1      31.136  23.415  27.263  1.00  0.00    -0.249 OA
ATOM     17  H   UNL A   1      32.799  22.497  26.011  1.00  0.00     0.165 HD
BRANCH  13  18
ATOM     18  C   UNL A   1      32.336  26.594  26.014  1.00  0.00     0.112 C 
ATOM     19  C   UNL A   1      32.421  27.736  27.022  1.00  0.00     0.036 C 
BRANCH  18  20
ATOM     20  C   UNL A   1      31.609  26.947  24.724  1.00  0.00    -0.012 A 
ATOM     21  C   UNL A   1      28.394  28.211  23.127  1.00  0.00     0.056 C 
ATOM     22  C   UNL A   1      29.749  27.694  23.469  1.00  0.00     0.002 A 
ATOM     23  C   UNL A   1      30.204  27.265  24.694  1.00  0.00     0.021 A 
ATOM     24  S   UNL A   1      30.962  27.564  22.291  1.00  0.00    -0.146 S 
ATOM     25  C   UNL A   1      32.131  27.036  23.437  1.00  0.00     0.007 A 
ATOM     26  C   UNL A   1      33.504  26.746  22.923  1.00  0.00     0.057 C 
ENDBRANCH  18  20
ENDBRANCH  13  18
ENDBRANCH   8  12
ENDBRANCH   4   7
ENDBRANCH   2   3
ENDBRANCH   1   2
BRANCH   1  27
ATOM     27  C   UNL A   1      41.288  22.063  26.976  1.00  0.00     0.023 C 
BRANCH  27  28
ATOM     28  C   UNL A   1      42.094  23.353  27.101  1.00  0.00     0.116 C 
BRANCH  28  29
ATOM     29  N   UNL A   1      41.962  24.234  25.951  1.00  0.00    -0.352 N 
ATOM     30  C   UNL A   1      41.698  25.583  25.924  1.00  0.00     0.251 C 
ATOM     31  H   UNL A   1      42.077  23.807  25.072  1.00  0.00     0.163 HD
ATOM     32  O   UNL A   1      41.538  26.158  24.851  1.00  0.00    -0.269 OA
BRANCH  30  33
ATOM     33  C   UNL A   1      41.566  26.327  27.193  1.00  0.00     0.039 A 
ATOM     34  C   UNL A   1      42.481  27.345  27.473  1.00  0.00     0.014 A 
ATOM     35  C   UNL A   1      40.527  26.049  28.086  1.00  0.00     0.014 A 
ATOM     36  C   UNL A   1      42.313  28.130  28.614  1.00  0.00     0.010 A 
ATOM     37  C   UNL A   1      40.319  26.879  29.185  1.00  0.00     0.010 A 
ATOM     38  C   UNL A   1      41.209  27.929  29.460  1.00  0.00    -0.014 A 
BRANCH  38  39
ATOM     39  C   UNL A   1      40.966  28.819  30.623  1.00  0.00     0.031 A 
ATOM     40  C   UNL A   1      41.782  28.672  31.878  1.00  0.00     0.074 A 
ATOM     41  C   UNL A   1      39.975  29.731  30.564  1.00  0.00     0.049 A 
ATOM     42  N   UNL A   1      41.702  29.347  32.996  1.00  0.00    -0.248 NA
ATOM     43  C   UNL A   1      42.804  27.614  31.888  1.00  0.00     0.031 C 
ATOM     44  C   UNL A   1      39.079  29.939  29.423  1.00  0.00     0.029 A 
ATOM     45  N   UNL A   1      39.551  30.655  31.487  1.00  0.00    -0.354 N 
ATOM     46  C   UNL A   1      42.650  28.790  33.844  1.00  0.00     0.074 A 
ATOM     47  C   UNL A   1      43.258  27.687  33.131  1.00  0.00     0.031 C 
ATOM     48  C   UNL A   1      38.238  30.947  29.700  1.00  0.00     0.029 A 
ATOM     49  C   UNL A   1      38.507  31.435  31.049  1.00  0.00     0.049 A 
ATOM     50  H   UNL A   1      39.957  30.749  32.379  1.00  0.00     0.167 HD
ATOM     51  C   UNL A   1      43.001  29.173  35.095  1.00  0.00     0.031 A 
ATOM     52  C   UNL A   1      37.841  32.432  31.662  1.00  0.00     0.031 A 
ATOM     53  C   UNL A   1      42.401  30.275  35.800  1.00  0.00     0.049 A 
ATOM     54  C   UNL A   1      38.250  32.841  33.051  1.00  0.00     0.074 A 
ATOM     55  C   UNL A   1      42.724  30.777  37.049  1.00  0.00     0.029 A 
ATOM     56  N   UNL A   1      41.352  31.045  35.319  1.00  0.00    -0.354 N 
ATOM     57  N   UNL A   1      39.198  32.346  33.809  1.00  0.00    -0.248 NA
ATOM     58  C   UNL A   1      37.507  33.952  33.659  1.00  0.00     0.031 C 
ATOM     59  C   UNL A   1      41.838  31.819  37.344  1.00  0.00     0.029 A 
ATOM     60  C   UNL A   1      41.001  32.004  36.255  1.00  0.00     0.049 A 
ATOM     61  H   UNL A   1      40.921  30.927  34.442  1.00  0.00     0.167 HD
ATOM     62  C   UNL A   1      39.182  33.102  34.976  1.00  0.00     0.074 A 
ATOM     63  C   UNL A   1      38.143  34.099  34.812  1.00  0.00     0.031 C 
ATOM     64  C   UNL A   1      39.958  32.983  36.082  1.00  0.00     0.031 A 
BRANCH  51  65
ATOM     65  C   UNL A   1      44.088  28.388  35.783  1.00  0.00    -0.014 A 
ATOM     66  C   UNL A   1      43.786  27.236  36.534  1.00  0.00     0.010 A 
ATOM     67  C   UNL A   1      45.430  28.785  35.654  1.00  0.00     0.010 A 
ATOM     68  C   UNL A   1      44.801  26.522  37.176  1.00  0.00     0.020 A 
ATOM     69  C   UNL A   1      46.453  28.057  36.271  1.00  0.00     0.020 A 
ATOM     70  C   UNL A   1      46.129  26.940  37.043  1.00  0.00     0.054 A 
BRANCH  70  71
ATOM     71  S   UNL A   1      47.428  25.983  37.871  1.00  0.00     0.124 S 
ATOM     72  O   UNL A   1      48.029  25.260  36.753  1.00  0.00    -0.237 OA
ATOM     73  O   UNL A   1      48.263  27.023  38.466  1.00  0.00    -0.237 OA
ATOM     74  O   UNL A   1      46.695  25.155  38.825  1.00  0.00    -0.744 OA
ENDBRANCH  70  71
ENDBRANCH  51  65
BRANCH  52  75
ATOM     75  C   UNL A   1      36.733  33.132  30.954  1.00  0.00    -0.014 A 
ATOM     76  C   UNL A   1      35.438  33.150  31.500  1.00  0.00     0.010 A 
ATOM     77  C   UNL A   1      36.971  33.794  29.736  1.00  0.00     0.010 A 
ATOM     78  C   UNL A   1      34.396  33.800  30.831  1.00  0.00     0.020 A 
ATOM     79  C   UNL A   1      35.939  34.468  29.078  1.00  0.00     0.020 A 
ATOM     80  C   UNL A   1      34.654  34.457  29.625  1.00  0.00     0.054 A 
BRANCH  80  81
ATOM     81  S   UNL A   1      33.298  35.338  28.800  1.00  0.00     0.124 S 
ATOM     82  O   UNL A   1      34.017  36.361  28.045  1.00  0.00    -0.237 OA
ATOM     83  O   UNL A   1      32.676  34.284  28.003  1.00  0.00    -0.237 OA
ATOM     84  O   UNL A   1      32.487  35.831  29.910  1.00  0.00    -0.744 OA
ENDBRANCH  80  81
ENDBRANCH  52  75
BRANCH  64  85
ATOM     85  C   UNL A   1      39.728  33.973  37.193  1.00  0.00    -0.014 A 
ATOM     86  C   UNL A   1      38.894  33.667  38.283  1.00  0.00     0.010 A 
ATOM     87  C   UNL A   1      40.384  35.217  37.160  1.00  0.00     0.010 A 
ATOM     88  C   UNL A   1      38.686  34.604  39.298  1.00  0.00     0.020 A 
ATOM     89  C   UNL A   1      40.202  36.145  38.187  1.00  0.00     0.020 A 
ATOM     90  C   UNL A   1      39.339  35.840  39.242  1.00  0.00     0.054 A 
BRANCH  90  91
ATOM     91  S   UNL A   1      39.073  37.030  40.583  1.00  0.00     0.124 S 
ATOM     92  O   UNL A   1      38.155  37.984  39.966  1.00  0.00    -0.237 OA
ATOM     93  O   UNL A   1      38.500  36.201  41.641  1.00  0.00    -0.237 OA
ATOM     94  O   UNL A   1      40.412  37.545  40.861  1.00  0.00    -0.744 OA
ENDBRANCH  90  91
ENDBRANCH  64  85
ENDBRANCH  38  39
ENDBRANCH  30  33
ENDBRANCH  28  29
ENDBRANCH  27  28
ENDBRANCH   1  27
TORSDOF 17
ENDMDL
MODEL 3
REMARK VINA RESULT:     -11.0      2.543      9.012
REMARK SMILES Cc1cc([C@@H](C)NC(=O)N[C@H]2C=C[C@@H](C(=O)NCCCCNC(=O)c3ccc(-c4c5nc(c(-c6ccc(S(=O)(=O)[O-])cc6)c6ccc([nH]6)c(-c6ccc(S(=O)(=O)[O-])cc6)c6nc(c(-c7ccc(S(=O)(=O)[O-])cc7)c7ccc4[nH]7)C=C6)C=C5)cc3)C2)c(C)s1
REMARK SMILES IDX 19 1 18 2 17 3 15 4 16 5 14 7 11 8 12 9 85 10 13 11 10 12
REMARK SMILES IDX 7 13 8 14 9 16 5 18 6 19 4 20 1 21 2 22 3 23 88 24 86 25
REMARK SMILES IDX 87 26 20 27 21 28 22 29 23 30 24 32 25 33 26 34 84 35 27 36
REMARK SMILES IDX 83 37 28 38 29 39 30 40 77 41 31 42 82 43 76 44 78 45 32 46
REMARK SMILES IDX 81 47 75 48 74 49 33 51 63 52 44 53 62 54 45 55 48 56 61 57
REMARK SMILES IDX 79 58 46 59 47 60 60 62 80 63 49 64 34 65 35 66 43 67 36 68
REMARK SMILES IDX 42 69 37 70 38 71 39 72 40 73 41 74 64 75 65 76 73 77 66 78
REMARK SMILES IDX 72 79 67 80 68 81 69 82 70 83 71 84 50 85 51 86 59 87 52 88
REMARK SMILES IDX 58 89 53 90 54 91 55 92 56 93 57 94
REMARK H PARENT 17 6 7 15 10 17 22 31 78 50 48 61
REMARK Flexibility Score: inf
ROOT
ATOM      1  C   UNL A   1      39.749  22.853  26.807  1.00  0.00     0.023 C 
ENDROOT
BRANCH   1   2
ATOM      2  C   UNL A   1      38.559  23.755  26.504  1.00  0.00     0.116 C 
BRANCH   2   3
ATOM      3  N   UNL A   1      38.104  23.645  25.133  1.00  0.00    -0.356 N 
ATOM      4  C   UNL A   1      37.020  23.004  24.621  1.00  0.00     0.227 C 
ATOM      5  O   UNL A   1      36.817  23.109  23.407  1.00  0.00    -0.274 OA
ATOM      6  H   UNL A   1      38.667  24.105  24.470  1.00  0.00     0.163 HD
BRANCH   4   7
ATOM      7  C   UNL A   1      36.113  22.101  25.467  1.00  0.00     0.103 C 
ATOM      8  C   UNL A   1      33.727  21.449  25.244  1.00  0.00     0.107 C 
ATOM      9  C   UNL A   1      34.672  20.308  24.999  1.00  0.00    -0.006 C 
ATOM     10  C   UNL A   1      34.677  22.620  25.507  1.00  0.00     0.047 C 
ATOM     11  C   UNL A   1      35.960  20.667  25.086  1.00  0.00    -0.016 C 
BRANCH   8  12
ATOM     12  N   UNL A   1      32.909  21.618  24.061  1.00  0.00    -0.332 N 
ATOM     13  N   UNL A   1      31.319  23.328  24.492  1.00  0.00    -0.332 N 
ATOM     14  C   UNL A   1      31.884  22.402  23.718  1.00  0.00     0.315 C 
ATOM     15  H   UNL A   1      30.615  23.823  24.015  1.00  0.00     0.165 HD
ATOM     16  O   UNL A   1      31.429  22.260  22.580  1.00  0.00    -0.249 OA
ATOM     17  H   UNL A   1      33.172  21.008  23.335  1.00  0.00     0.165 HD
BRANCH  13  18
ATOM     18  C   UNL A   1      31.475  23.791  25.860  1.00  0.00     0.112 C 
ATOM     19  C   UNL A   1      30.317  23.326  26.737  1.00  0.00     0.036 C 
BRANCH  18  20
ATOM     20  C   UNL A   1      31.674  25.299  25.830  1.00  0.00    -0.012 A 
ATOM     21  C   UNL A   1      34.030  28.212  26.506  1.00  0.00     0.056 C 
ATOM     22  C   UNL A   1      32.913  27.286  26.162  1.00  0.00     0.002 A 
ATOM     23  C   UNL A   1      32.833  25.935  26.405  1.00  0.00     0.021 A 
ATOM     24  S   UNL A   1      31.516  27.848  25.382  1.00  0.00    -0.146 S 
ATOM     25  C   UNL A   1      30.845  26.268  25.270  1.00  0.00     0.007 A 
ATOM     26  C   UNL A   1      29.508  26.142  24.615  1.00  0.00     0.057 C 
ENDBRANCH  18  20
ENDBRANCH  13  18
ENDBRANCH   8  12
ENDBRANCH   4   7
ENDBRANCH   2   3
ENDBRANCH   1   2
BRANCH   1  27
ATOM     27  C   UNL A   1      39.714  21.485  26.127  1.00  0.00     0.023 C 
BRANCH  27  28
ATOM     28  C   UNL A   1      40.269  20.326  26.950  1.00  0.00     0.116 C 
BRANCH  28  29
ATOM     29  N   UNL A   1      41.183  19.472  26.209  1.00  0.00    -0.352 N 
ATOM     30  C   UNL A   1      42.441  19.760  25.737  1.00  0.00     0.251 C 
ATOM     31  H   UNL A   1      40.857  18.563  26.020  1.00  0.00     0.163 HD
ATOM     32  O   UNL A   1      43.045  18.938  25.052  1.00  0.00    -0.269 OA
BRANCH  30  33
ATOM     33  C   UNL A   1      43.044  21.079  26.019  1.00  0.00     0.039 A 
ATOM     34  C   UNL A   1      43.239  21.967  24.958  1.00  0.00     0.014 A 
ATOM     35  C   UNL A   1      43.381  21.452  27.323  1.00  0.00     0.014 A 
ATOM     36  C   UNL A   1      43.709  23.256  25.216  1.00  0.00     0.010 A 
ATOM     37  C   UNL A   1      43.780  22.760  27.585  1.00  0.00     0.010 A 
ATOM     38  C   UNL A   1      43.947  23.676  26.536  1.00  0.00    -0.014 A 
BRANCH  38  39
ATOM     39  C   UNL A   1      44.353  25.074  26.830  1.00  0.00     0.031 A 
ATOM     40  C   UNL A   1      45.782  25.507  26.643  1.00  0.00     0.074 A 
ATOM     41  C   UNL A   1      43.441  25.941  27.313  1.00  0.00     0.049 A 
ATOM     42  N   UNL A   1      46.322  26.678  26.863  1.00  0.00    -0.248 NA
ATOM     43  C   UNL A   1      46.731  24.487  26.170  1.00  0.00     0.031 C 
ATOM     44  C   UNL A   1      42.036  25.631  27.587  1.00  0.00     0.029 A 
ATOM     45  N   UNL A   1      43.560  27.263  27.663  1.00  0.00    -0.354 N 
ATOM     46  C   UNL A   1      47.672  26.533  26.569  1.00  0.00     0.074 A 
ATOM     47  C   UNL A   1      47.879  25.148  26.204  1.00  0.00     0.031 C 
ATOM     48  C   UNL A   1      41.417  26.737  28.028  1.00  0.00     0.029 A 
ATOM     49  C   UNL A   1      42.386  27.826  28.104  1.00  0.00     0.049 A 
ATOM     50  H   UNL A   1      44.408  27.762  27.604  1.00  0.00     0.167 HD
ATOM     51  C   UNL A   1      48.649  27.472  26.578  1.00  0.00     0.031 A 
ATOM     52  C   UNL A   1      42.116  29.078  28.520  1.00  0.00     0.031 A 
ATOM     53  C   UNL A   1      48.441  28.851  26.933  1.00  0.00     0.049 A 
ATOM     54  C   UNL A   1      43.217  30.103  28.521  1.00  0.00     0.074 A 
ATOM     55  C   UNL A   1      49.353  29.891  26.921  1.00  0.00     0.029 A 
ATOM     56  N   UNL A   1      47.234  29.383  27.366  1.00  0.00    -0.354 N 
ATOM     57  N   UNL A   1      44.473  29.963  28.171  1.00  0.00    -0.248 NA
ATOM     58  C   UNL A   1      42.859  31.459  28.959  1.00  0.00     0.031 C 
ATOM     59  C   UNL A   1      48.713  31.041  27.393  1.00  0.00     0.029 A 
ATOM     60  C   UNL A   1      47.385  30.731  27.645  1.00  0.00     0.049 A 
ATOM     61  H   UNL A   1      46.396  28.876  27.461  1.00  0.00     0.167 HD
ATOM     62  C   UNL A   1      45.050  31.218  28.324  1.00  0.00     0.074 A 
ATOM     63  C   UNL A   1      44.000  32.108  28.778  1.00  0.00     0.031 C 
ATOM     64  C   UNL A   1      46.334  31.601  28.106  1.00  0.00     0.031 A 
BRANCH  51  65
ATOM     65  C   UNL A   1      50.038  27.032  26.193  1.00  0.00    -0.014 A 
ATOM     66  C   UNL A   1      50.958  26.598  27.168  1.00  0.00     0.010 A 
ATOM     67  C   UNL A   1      50.422  27.021  24.841  1.00  0.00     0.010 A 
ATOM     68  C   UNL A   1      52.246  26.203  26.800  1.00  0.00     0.020 A 
ATOM     69  C   UNL A   1      51.701  26.599  24.465  1.00  0.00     0.020 A 
ATOM     70  C   UNL A   1      52.611  26.209  25.450  1.00  0.00     0.054 A 
BRANCH  70  71
ATOM     71  S   UNL A   1      54.284  25.673  25.000  1.00  0.00     0.124 S 
ATOM     72  O   UNL A   1      54.470  26.322  23.704  1.00  0.00    -0.237 OA
ATOM     73  O   UNL A   1      55.096  26.206  26.090  1.00  0.00    -0.237 OA
ATOM     74  O   UNL A   1      54.182  24.216  24.956  1.00  0.00    -0.744 OA
ENDBRANCH  70  71
ENDBRANCH  51  65
BRANCH  52  75
ATOM     75  C   UNL A   1      40.735  29.439  28.948  1.00  0.00    -0.014 A 
ATOM     76  C   UNL A   1      40.414  29.532  30.313  1.00  0.00     0.010 A 
ATOM     77  C   UNL A   1      39.739  29.702  27.991  1.00  0.00     0.010 A 
ATOM     78  C   UNL A   1      39.116  29.864  30.715  1.00  0.00     0.020 A 
ATOM     79  C   UNL A   1      38.448  30.060  28.388  1.00  0.00     0.020 A 
ATOM     80  C   UNL A   1      38.142  30.127  29.748  1.00  0.00     0.054 A 
BRANCH  80  81
ATOM     81  S   UNL A   1      36.477  30.604  30.292  1.00  0.00     0.124 S 
ATOM     82  O   UNL A   1      35.671  30.284  29.117  1.00  0.00    -0.237 OA
ATOM     83  O   UNL A   1      36.267  29.748  31.456  1.00  0.00    -0.237 OA
ATOM     84  O   UNL A   1      36.611  32.028  30.590  1.00  0.00    -0.744 OA
ENDBRANCH  80  81
ENDBRANCH  52  75
BRANCH  64  85
ATOM     85  C   UNL A   1      46.666  33.052  28.333  1.00  0.00    -0.014 A 
ATOM     86  C   UNL A   1      47.228  33.491  29.545  1.00  0.00     0.010 A 
ATOM     87  C   UNL A   1      46.442  33.984  27.304  1.00  0.00     0.010 A 
ATOM     88  C   UNL A   1      47.520  34.843  29.739  1.00  0.00     0.020 A 
ATOM     89  C   UNL A   1      46.760  35.332  27.483  1.00  0.00     0.020 A 
ATOM     90  C   UNL A   1      47.280  35.757  28.708  1.00  0.00     0.054 A 
BRANCH  90  91
ATOM     91  S   UNL A   1      47.690  37.503  28.974  1.00  0.00     0.124 S 
ATOM     92  O   UNL A   1      47.468  38.073  27.647  1.00  0.00    -0.237 OA
ATOM     93  O   UNL A   1      46.730  37.906  29.999  1.00  0.00    -0.237 OA
ATOM     94  O   UNL A   1      49.083  37.469  29.413  1.00  0.00    -0.744 OA
ENDBRANCH  90  91
ENDBRANCH  64  85
ENDBRANCH  38  39
ENDBRANCH  30  33
ENDBRANCH  28  29
ENDBRANCH  27  28
ENDBRANCH   1  27
TORSDOF 17
ENDMDL
