MODEL 1
REMARK VINA RESULT:     -11.7      0.000      0.000
REMARK SMILES O=C(NCCCCNC(=O)[C@@H]1CC[C@H](CNC(=O)c2cccn2C2CC2)O1)c1ccc(-c2c3nc(c(-c4ccc(S(=O)(=O)[O-])cc4)c4ccc([nH]4)c(-c4ccc(S(=O)(=O)[O-])cc4)c4nc(c(-c5ccc(S(=O)(=O)[O-])cc5)c5ccc2[nH]5)C=C4)C=C3)cc1
REMARK SMILES IDX 6 1 5 2 4 3 3 4 1 5 2 6 28 8 29 9 87 10 30 11 86 12 31 13
REMARK SMILES IDX 32 14 33 15 80 16 34 17 85 18 79 19 81 20 35 21 84 22 78 23
REMARK SMILES IDX 77 24 36 26 66 27 47 28 65 29 48 30 51 31 64 32 82 33 49 34
REMARK SMILES IDX 50 35 63 37 83 38 52 39 37 40 38 41 46 42 39 43 45 44 40 45
REMARK SMILES IDX 41 46 42 47 43 48 44 49 67 50 68 51 76 52 69 53 75 54 70 55
REMARK SMILES IDX 71 56 72 57 73 58 74 59 53 60 54 61 62 62 55 63 61 64 56 65
REMARK SMILES IDX 57 66 58 67 59 68 60 69 7 70 8 71 9 72 10 74 11 75 12 76
REMARK SMILES IDX 27 77 13 78 14 79 15 80 16 81 17 82 18 84 19 85 20 86 23 87
REMARK SMILES IDX 21 88 22 89 24 90 25 91 26 92
REMARK H PARENT 3 7 81 25 51 36 8 73 16 83
REMARK Flexibility Score: inf
ROOT
ATOM      1  C   UNL A   1      32.220  29.851  26.801  1.00  0.00     0.023 C 
ENDROOT
BRANCH   1   2
ATOM      2  C   UNL A   1      33.089  28.604  26.992  1.00  0.00     0.023 C 
BRANCH   2   3
ATOM      3  C   UNL A   1      34.594  28.873  27.033  1.00  0.00     0.116 C 
BRANCH   3   4
ATOM      4  N   UNL A   1      34.964  30.255  27.273  1.00  0.00    -0.352 N 
ATOM      5  O   UNL A   1      36.193  32.045  27.825  1.00  0.00    -0.269 OA
ATOM      6  C   UNL A   1      36.135  30.822  27.714  1.00  0.00     0.251 C 
ATOM      7  H   UNL A   1      34.248  30.904  27.084  1.00  0.00     0.163 HD
BRANCH   6   8
ATOM      8  C   UNL A   1      37.295  29.991  28.115  1.00  0.00     0.039 A 
ATOM      9  C   UNL A   1      38.487  29.977  27.386  1.00  0.00     0.014 A 
ATOM     10  C   UNL A   1      37.184  29.220  29.281  1.00  0.00     0.014 A 
ATOM     11  C   UNL A   1      39.520  29.123  27.748  1.00  0.00     0.010 A 
ATOM     12  C   UNL A   1      38.241  28.400  29.682  1.00  0.00     0.010 A 
ATOM     13  C   UNL A   1      39.409  28.350  28.909  1.00  0.00    -0.014 A 
BRANCH  13  14
ATOM     14  C   UNL A   1      40.640  27.694  29.409  1.00  0.00     0.031 A 
ATOM     15  C   UNL A   1      40.974  26.408  28.648  1.00  0.00     0.074 A 
ATOM     16  C   UNL A   1      41.273  28.241  30.484  1.00  0.00     0.049 A 
ATOM     17  N   UNL A   1      41.687  25.388  29.020  1.00  0.00    -0.248 NA
ATOM     18  C   UNL A   1      40.357  26.184  27.312  1.00  0.00     0.031 C 
ATOM     19  C   UNL A   1      40.828  29.459  31.190  1.00  0.00     0.029 A 
ATOM     20  N   UNL A   1      42.398  27.889  31.202  1.00  0.00    -0.354 N 
ATOM     21  C   UNL A   1      41.735  24.494  27.932  1.00  0.00     0.074 A 
ATOM     22  C   UNL A   1      40.811  24.983  26.952  1.00  0.00     0.031 C 
ATOM     23  C   UNL A   1      41.630  29.716  32.244  1.00  0.00     0.029 A 
ATOM     24  C   UNL A   1      42.679  28.714  32.313  1.00  0.00     0.049 A 
ATOM     25  H   UNL A   1      42.962  27.120  30.958  1.00  0.00     0.167 HD
ATOM     26  C   UNL A   1      42.615  23.460  27.827  1.00  0.00     0.031 A 
ATOM     27  C   UNL A   1      43.675  28.608  33.241  1.00  0.00     0.031 A 
ATOM     28  C   UNL A   1      43.458  23.367  28.969  1.00  0.00     0.049 A 
ATOM     29  C   UNL A   1      44.587  27.536  32.800  1.00  0.00     0.074 A 
ATOM     30  C   UNL A   1      43.292  22.898  30.245  1.00  0.00     0.029 A 
ATOM     31  N   UNL A   1      44.655  24.040  28.905  1.00  0.00    -0.354 N 
ATOM     32  N   UNL A   1      45.370  27.603  31.767  1.00  0.00    -0.248 NA
ATOM     33  C   UNL A   1      44.645  26.283  33.563  1.00  0.00     0.031 C 
ATOM     34  C   UNL A   1      44.212  23.641  31.021  1.00  0.00     0.029 A 
ATOM     35  C   UNL A   1      44.917  24.502  30.173  1.00  0.00     0.049 A 
ATOM     36  H   UNL A   1      45.215  24.167  28.106  1.00  0.00     0.167 HD
ATOM     37  C   UNL A   1      45.706  26.290  31.548  1.00  0.00     0.074 A 
ATOM     38  C   UNL A   1      45.499  25.600  32.803  1.00  0.00     0.031 C 
ATOM     39  C   UNL A   1      45.595  25.778  30.297  1.00  0.00     0.031 A 
BRANCH  26  40
ATOM     40  C   UNL A   1      42.964  22.607  26.641  1.00  0.00    -0.014 A 
ATOM     41  C   UNL A   1      42.537  21.257  26.666  1.00  0.00     0.010 A 
ATOM     42  C   UNL A   1      43.936  22.967  25.695  1.00  0.00     0.010 A 
ATOM     43  C   UNL A   1      43.133  20.285  25.863  1.00  0.00     0.020 A 
ATOM     44  C   UNL A   1      44.518  21.999  24.859  1.00  0.00     0.020 A 
ATOM     45  C   UNL A   1      44.149  20.658  24.987  1.00  0.00     0.054 A 
BRANCH  45  46
ATOM     46  S   UNL A   1      45.030  19.353  24.088  1.00  0.00     0.124 S 
ATOM     47  O   UNL A   1      44.456  18.141  24.665  1.00  0.00    -0.237 OA
ATOM     48  O   UNL A   1      44.662  19.618  22.698  1.00  0.00    -0.237 OA
ATOM     49  O   UNL A   1      46.433  19.603  24.408  1.00  0.00    -0.744 OA
ENDBRANCH  45  46
ENDBRANCH  26  40
BRANCH  27  50
ATOM     50  C   UNL A   1      44.004  29.239  34.570  1.00  0.00    -0.014 A 
ATOM     51  C   UNL A   1      45.102  30.073  34.817  1.00  0.00     0.010 A 
ATOM     52  C   UNL A   1      43.036  29.153  35.611  1.00  0.00     0.010 A 
ATOM     53  C   UNL A   1      45.163  30.872  35.979  1.00  0.00     0.020 A 
ATOM     54  C   UNL A   1      43.056  29.981  36.736  1.00  0.00     0.020 A 
ATOM     55  C   UNL A   1      44.115  30.860  36.903  1.00  0.00     0.054 A 
BRANCH  55  56
ATOM     56  S   UNL A   1      44.033  32.092  38.234  1.00  0.00     0.124 S 
ATOM     57  O   UNL A   1      45.441  32.350  38.509  1.00  0.00    -0.237 OA
ATOM     58  O   UNL A   1      43.298  33.196  37.620  1.00  0.00    -0.237 OA
ATOM     59  O   UNL A   1      43.303  31.390  39.290  1.00  0.00    -0.744 OA
ENDBRANCH  55  56
ENDBRANCH  27  50
BRANCH  39  60
ATOM     60  C   UNL A   1      45.712  26.808  29.178  1.00  0.00    -0.014 A 
ATOM     61  C   UNL A   1      46.972  27.229  28.719  1.00  0.00     0.010 A 
ATOM     62  C   UNL A   1      44.582  27.447  28.634  1.00  0.00     0.010 A 
ATOM     63  C   UNL A   1      47.094  28.247  27.757  1.00  0.00     0.020 A 
ATOM     64  C   UNL A   1      44.688  28.456  27.665  1.00  0.00     0.020 A 
ATOM     65  C   UNL A   1      45.949  28.854  27.233  1.00  0.00     0.054 A 
BRANCH  65  66
ATOM     66  S   UNL A   1      46.131  30.183  26.009  1.00  0.00     0.124 S 
ATOM     67  O   UNL A   1      46.334  29.449  24.762  1.00  0.00    -0.237 OA
ATOM     68  O   UNL A   1      44.857  30.889  26.117  1.00  0.00    -0.237 OA
ATOM     69  O   UNL A   1      47.297  30.933  26.475  1.00  0.00    -0.744 OA
ENDBRANCH  65  66
ENDBRANCH  39  60
ENDBRANCH  13  14
ENDBRANCH   6   8
ENDBRANCH   3   4
ENDBRANCH   2   3
ENDBRANCH   1   2
BRANCH   1  70
ATOM     70  C   UNL A   1      31.597  29.980  25.413  1.00  0.00     0.116 C 
BRANCH  70  71
ATOM     71  N   UNL A   1      32.549  29.657  24.364  1.00  0.00    -0.354 N 
ATOM     72  C   UNL A   1      32.476  28.729  23.366  1.00  0.00     0.249 C 
ATOM     73  H   UNL A   1      33.377  30.190  24.376  1.00  0.00     0.163 HD
ATOM     74  O   UNL A   1      33.417  28.663  22.570  1.00  0.00    -0.272 OA
BRANCH  72  75
ATOM     75  C   UNL A   1      31.230  27.851  23.228  1.00  0.00     0.207 C 
ATOM     76  C   UNL A   1      31.130  26.804  24.327  1.00  0.00     0.045 C 
ATOM     77  O   UNL A   1      31.279  27.143  21.970  1.00  0.00    -0.363 OA
ATOM     78  C   UNL A   1      30.502  25.642  23.600  1.00  0.00     0.037 C 
ATOM     79  C   UNL A   1      31.144  25.731  22.225  1.00  0.00     0.138 C 
BRANCH  79  80
ATOM     80  C   UNL A   1      32.526  25.057  22.127  1.00  0.00     0.148 C 
BRANCH  80  81
ATOM     81  N   UNL A   1      32.437  23.603  22.082  1.00  0.00    -0.348 N 
ATOM     82  C   UNL A   1      32.716  22.659  23.035  1.00  0.00     0.268 C 
ATOM     83  H   UNL A   1      32.125  23.239  21.222  1.00  0.00     0.163 HD
ATOM     84  O   UNL A   1      32.573  21.482  22.717  1.00  0.00    -0.268 OA
BRANCH  82  85
ATOM     85  C   UNL A   1      33.072  23.081  24.365  1.00  0.00     0.107 A 
ATOM     86  C   UNL A   1      32.223  23.112  25.470  1.00  0.00     0.033 A 
ATOM     87  N   UNL A   1      34.330  23.384  24.844  1.00  0.00    -0.340 N 
ATOM     88  C   UNL A   1      32.977  23.430  26.618  1.00  0.00     0.020 A 
ATOM     89  C   UNL A   1      34.281  23.567  26.207  1.00  0.00     0.086 A 
BRANCH  87  90
ATOM     90  C   UNL A   1      35.581  23.620  24.141  1.00  0.00     0.087 C 
ATOM     91  C   UNL A   1      36.988  23.523  24.682  1.00  0.00     0.027 C 
ATOM     92  C   UNL A   1      36.487  22.458  23.769  1.00  0.00     0.027 C 
ENDBRANCH  87  90
ENDBRANCH  82  85
ENDBRANCH  80  81
ENDBRANCH  79  80
ENDBRANCH  72  75
ENDBRANCH  70  71
ENDBRANCH   1  70
TORSDOF 18
ENDMDL
MODEL 2
REMARK VINA RESULT:     -10.9      3.935      5.603
REMARK SMILES O=C(NCCCCNC(=O)[C@@H]1CC[C@H](CNC(=O)c2cccn2C2CC2)O1)c1ccc(-c2c3nc(c(-c4ccc(S(=O)(=O)[O-])cc4)c4ccc([nH]4)c(-c4ccc(S(=O)(=O)[O-])cc4)c4nc(c(-c5ccc(S(=O)(=O)[O-])cc5)c5ccc2[nH]5)C=C4)C=C3)cc1
REMARK SMILES IDX 6 1 5 2 4 3 3 4 1 5 2 6 28 8 29 9 87 10 30 11 86 12 31 13
REMARK SMILES IDX 32 14 33 15 80 16 34 17 85 18 79 19 81 20 35 21 84 22 78 23
REMARK SMILES IDX 77 24 36 26 66 27 47 28 65 29 48 30 51 31 64 32 82 33 49 34
REMARK SMILES IDX 50 35 63 37 83 38 52 39 37 40 38 41 46 42 39 43 45 44 40 45
REMARK SMILES IDX 41 46 42 47 43 48 44 49 67 50 68 51 76 52 69 53 75 54 70 55
REMARK SMILES IDX 71 56 72 57 73 58 74 59 53 60 54 61 62 62 55 63 61 64 56 65
REMARK SMILES IDX 57 66 58 67 59 68 60 69 7 70 8 71 9 72 10 74 11 75 12 76
REMARK SMILES IDX 27 77 13 78 14 79 15 80 16 81 17 82 18 84 19 85 20 86 23 87
REMARK SMILES IDX 21 88 22 89 24 90 25 91 26 92
REMARK H PARENT 3 7 81 25 51 36 8 73 16 83
REMARK Flexibility Score: inf
ROOT
ATOM      1  C   UNL A   1      32.214  29.790  25.768  1.00  0.00     0.023 C 
ENDROOT
BRANCH   1   2
ATOM      2  C   UNL A   1      31.759  31.064  26.485  1.00  0.00     0.023 C 
BRANCH   2   3
ATOM      3  C   UNL A   1      32.872  31.827  27.203  1.00  0.00     0.116 C 
BRANCH   3   4
ATOM      4  N   UNL A   1      32.569  33.214  27.507  1.00  0.00    -0.352 N 
ATOM      5  O   UNL A   1      32.731  35.261  28.401  1.00  0.00    -0.269 OA
ATOM      6  C   UNL A   1      33.193  34.124  28.325  1.00  0.00     0.251 C 
ATOM      7  H   UNL A   1      31.775  33.565  27.043  1.00  0.00     0.163 HD
BRANCH   6   8
ATOM      8  C   UNL A   1      34.361  33.748  29.155  1.00  0.00     0.039 A 
ATOM      9  C   UNL A   1      34.226  33.023  30.343  1.00  0.00     0.014 A 
ATOM     10  C   UNL A   1      35.637  34.115  28.707  1.00  0.00     0.014 A 
ATOM     11  C   UNL A   1      35.336  32.761  31.134  1.00  0.00     0.010 A 
ATOM     12  C   UNL A   1      36.764  33.806  29.471  1.00  0.00     0.010 A 
ATOM     13  C   UNL A   1      36.610  33.132  30.690  1.00  0.00    -0.014 A 
BRANCH  13  14
ATOM     14  C   UNL A   1      37.773  32.569  31.415  1.00  0.00     0.031 A 
ATOM     15  C   UNL A   1      38.251  31.241  30.823  1.00  0.00     0.074 A 
ATOM     16  C   UNL A   1      38.226  33.227  32.519  1.00  0.00     0.049 A 
ATOM     17  N   UNL A   1      38.931  30.284  31.380  1.00  0.00    -0.248 NA
ATOM     18  C   UNL A   1      37.842  30.885  29.437  1.00  0.00     0.031 C 
ATOM     19  C   UNL A   1      37.648  34.479  33.046  1.00  0.00     0.029 A 
ATOM     20  N   UNL A   1      39.244  32.980  33.419  1.00  0.00    -0.354 N 
ATOM     21  C   UNL A   1      39.162  29.308  30.391  1.00  0.00     0.074 A 
ATOM     22  C   UNL A   1      38.378  29.678  29.251  1.00  0.00     0.031 C 
ATOM     23  C   UNL A   1      38.280  34.853  34.179  1.00  0.00     0.029 A 
ATOM     24  C   UNL A   1      39.335  33.903  34.483  1.00  0.00     0.049 A 
ATOM     25  H   UNL A   1      39.859  32.218  33.325  1.00  0.00     0.167 HD
ATOM     26  C   UNL A   1      40.078  28.305  30.503  1.00  0.00     0.031 A 
ATOM     27  C   UNL A   1      40.188  33.913  35.550  1.00  0.00     0.031 A 
ATOM     28  C   UNL A   1      40.747  28.339  31.757  1.00  0.00     0.049 A 
ATOM     29  C   UNL A   1      41.185  32.847  35.338  1.00  0.00     0.074 A 
ATOM     30  C   UNL A   1      40.410  27.968  33.032  1.00  0.00     0.029 A 
ATOM     31  N   UNL A   1      41.921  29.053  31.808  1.00  0.00    -0.354 N 
ATOM     32  N   UNL A   1      42.109  32.862  34.426  1.00  0.00    -0.248 NA
ATOM     33  C   UNL A   1      41.167  31.663  36.206  1.00  0.00     0.031 C 
ATOM     34  C   UNL A   1      41.185  28.809  33.865  1.00  0.00     0.029 A 
ATOM     35  C   UNL A   1      41.981  29.627  33.056  1.00  0.00     0.049 A 
ATOM     36  H   UNL A   1      42.588  29.138  31.090  1.00  0.00     0.167 HD
ATOM     37  C   UNL A   1      42.510  31.550  34.371  1.00  0.00     0.074 A 
ATOM     38  C   UNL A   1      42.141  30.956  35.638  1.00  0.00     0.031 C 
ATOM     39  C   UNL A   1      42.598  30.934  33.165  1.00  0.00     0.031 A 
BRANCH  26  40
ATOM     40  C   UNL A   1      40.621  27.374  29.457  1.00  0.00    -0.014 A 
ATOM     41  C   UNL A   1      39.713  26.460  28.869  1.00  0.00     0.010 A 
ATOM     42  C   UNL A   1      41.992  27.142  29.271  1.00  0.00     0.010 A 
ATOM     43  C   UNL A   1      40.152  25.304  28.224  1.00  0.00     0.020 A 
ATOM     44  C   UNL A   1      42.443  25.997  28.592  1.00  0.00     0.020 A 
ATOM     45  C   UNL A   1      41.519  25.062  28.121  1.00  0.00     0.054 A 
BRANCH  45  46
ATOM     46  S   UNL A   1      42.061  23.471  27.440  1.00  0.00     0.124 S 
ATOM     47  O   UNL A   1      43.096  23.878  26.494  1.00  0.00    -0.237 OA
ATOM     48  O   UNL A   1      42.541  22.763  28.625  1.00  0.00    -0.237 OA
ATOM     49  O   UNL A   1      40.845  22.920  26.846  1.00  0.00    -0.744 OA
ENDBRANCH  45  46
ENDBRANCH  26  40
BRANCH  27  50
ATOM     50  C   UNL A   1      40.301  34.663  36.854  1.00  0.00    -0.014 A 
ATOM     51  C   UNL A   1      41.153  35.749  37.087  1.00  0.00     0.010 A 
ATOM     52  C   UNL A   1      39.343  34.388  37.870  1.00  0.00     0.010 A 
ATOM     53  C   UNL A   1      40.972  36.588  38.208  1.00  0.00     0.020 A 
ATOM     54  C   UNL A   1      39.116  35.244  38.950  1.00  0.00     0.020 A 
ATOM     55  C   UNL A   1      39.923  36.361  39.101  1.00  0.00     0.054 A 
BRANCH  55  56
ATOM     56  S   UNL A   1      39.492  37.592  40.364  1.00  0.00     0.124 S 
ATOM     57  O   UNL A   1      38.632  38.511  39.626  1.00  0.00    -0.237 OA
ATOM     58  O   UNL A   1      38.825  36.794  41.391  1.00  0.00    -0.237 OA
ATOM     59  O   UNL A   1      40.793  38.129  40.761  1.00  0.00    -0.744 OA
ENDBRANCH  55  56
ENDBRANCH  27  50
BRANCH  39  60
ATOM     60  C   UNL A   1      42.847  31.875  31.991  1.00  0.00    -0.014 A 
ATOM     61  C   UNL A   1      41.789  32.281  31.160  1.00  0.00     0.010 A 
ATOM     62  C   UNL A   1      44.144  32.291  31.632  1.00  0.00     0.010 A 
ATOM     63  C   UNL A   1      42.020  33.069  30.019  1.00  0.00     0.020 A 
ATOM     64  C   UNL A   1      44.387  33.087  30.504  1.00  0.00     0.020 A 
ATOM     65  C   UNL A   1      43.319  33.470  29.698  1.00  0.00     0.054 A 
BRANCH  65  66
ATOM     66  S   UNL A   1      43.596  34.468  28.207  1.00  0.00     0.124 S 
ATOM     67  O   UNL A   1      42.331  35.183  28.056  1.00  0.00    -0.237 OA
ATOM     68  O   UNL A   1      44.739  35.295  28.588  1.00  0.00    -0.237 OA
ATOM     69  O   UNL A   1      43.869  33.478  27.166  1.00  0.00    -0.744 OA
ENDBRANCH  65  66
ENDBRANCH  39  60
ENDBRANCH  13  14
ENDBRANCH   6   8
ENDBRANCH   3   4
ENDBRANCH   2   3
ENDBRANCH   1   2
BRANCH   1  70
ATOM     70  C   UNL A   1      31.387  29.428  24.537  1.00  0.00     0.116 C 
BRANCH  70  71
ATOM     71  N   UNL A   1      30.639  28.198  24.735  1.00  0.00    -0.354 N 
ATOM     72  C   UNL A   1      30.847  26.951  24.223  1.00  0.00     0.249 C 
ATOM     73  H   UNL A   1      29.860  28.277  25.331  1.00  0.00     0.163 HD
ATOM     74  O   UNL A   1      30.078  26.049  24.567  1.00  0.00    -0.272 OA
BRANCH  72  75
ATOM     75  C   UNL A   1      32.040  26.693  23.298  1.00  0.00     0.207 C 
ATOM     76  C   UNL A   1      31.613  26.294  21.893  1.00  0.00     0.045 C 
ATOM     77  O   UNL A   1      32.831  25.606  23.826  1.00  0.00    -0.363 OA
ATOM     78  C   UNL A   1      32.694  25.319  21.500  1.00  0.00     0.037 C 
ATOM     79  C   UNL A   1      32.974  24.596  22.807  1.00  0.00     0.138 C 
BRANCH  79  80
ATOM     80  C   UNL A   1      32.014  23.427  23.103  1.00  0.00     0.148 C 
BRANCH  80  81
ATOM     81  N   UNL A   1      31.551  23.421  24.484  1.00  0.00    -0.348 N 
ATOM     82  C   UNL A   1      31.908  22.629  25.544  1.00  0.00     0.268 C 
ATOM     83  H   UNL A   1      30.867  24.099  24.690  1.00  0.00     0.163 HD
ATOM     84  O   UNL A   1      31.332  22.827  26.611  1.00  0.00    -0.268 OA
BRANCH  82  85
ATOM     85  C   UNL A   1      32.978  21.679  25.388  1.00  0.00     0.107 A 
ATOM     86  C   UNL A   1      32.846  20.358  24.961  1.00  0.00     0.033 A 
ATOM     87  N   UNL A   1      34.335  21.917  25.472  1.00  0.00    -0.340 N 
ATOM     88  C   UNL A   1      34.131  19.804  24.785  1.00  0.00     0.020 A 
ATOM     89  C   UNL A   1      35.032  20.796  25.082  1.00  0.00     0.086 A 
BRANCH  87  90
ATOM     90  C   UNL A   1      35.066  23.068  25.978  1.00  0.00     0.087 C 
ATOM     91  C   UNL A   1      36.561  23.281  26.015  1.00  0.00     0.027 C 
ATOM     92  C   UNL A   1      35.745  24.031  25.020  1.00  0.00     0.027 C 
ENDBRANCH  87  90
ENDBRANCH  82  85
ENDBRANCH  80  81
ENDBRANCH  79  80
ENDBRANCH  72  75
ENDBRANCH  70  71
ENDBRANCH   1  70
TORSDOF 18
ENDMDL
MODEL 3
REMARK VINA RESULT:     -10.8      3.617      9.224
REMARK SMILES O=C(NCCCCNC(=O)[C@@H]1CC[C@H](CNC(=O)c2cccn2C2CC2)O1)c1ccc(-c2c3nc(c(-c4ccc(S(=O)(=O)[O-])cc4)c4ccc([nH]4)c(-c4ccc(S(=O)(=O)[O-])cc4)c4nc(c(-c5ccc(S(=O)(=O)[O-])cc5)c5ccc2[nH]5)C=C4)C=C3)cc1
REMARK SMILES IDX 6 1 5 2 4 3 3 4 1 5 2 6 28 8 29 9 87 10 30 11 86 12 31 13
REMARK SMILES IDX 32 14 33 15 80 16 34 17 85 18 79 19 81 20 35 21 84 22 78 23
REMARK SMILES IDX 77 24 36 26 66 27 47 28 65 29 48 30 51 31 64 32 82 33 49 34
REMARK SMILES IDX 50 35 63 37 83 38 52 39 37 40 38 41 46 42 39 43 45 44 40 45
REMARK SMILES IDX 41 46 42 47 43 48 44 49 67 50 68 51 76 52 69 53 75 54 70 55
REMARK SMILES IDX 71 56 72 57 73 58 74 59 53 60 54 61 62 62 55 63 61 64 56 65
REMARK SMILES IDX 57 66 58 67 59 68 60 69 7 70 8 71 9 72 10 74 11 75 12 76
REMARK SMILES IDX 27 77 13 78 14 79 15 80 16 81 17 82 18 84 19 85 20 86 23 87
REMARK SMILES IDX 21 88 22 89 24 90 25 91 26 92
REMARK H PARENT 3 7 81 25 51 36 8 73 16 83
REMARK Flexibility Score: inf
ROOT
ATOM      1  C   UNL A   1      36.713  20.309  25.076  1.00  0.00     0.023 C 
ENDROOT
BRANCH   1   2
ATOM      2  C   UNL A   1      38.047  19.608  24.803  1.00  0.00     0.023 C 
BRANCH   2   3
ATOM      3  C   UNL A   1      39.145  19.902  25.826  1.00  0.00     0.116 C 
BRANCH   3   4
ATOM      4  N   UNL A   1      40.248  18.959  25.831  1.00  0.00    -0.352 N 
ATOM      5  O   UNL A   1      42.321  18.139  26.041  1.00  0.00    -0.269 OA
ATOM      6  C   UNL A   1      41.585  19.122  26.098  1.00  0.00     0.251 C 
ATOM      7  H   UNL A   1      39.991  18.036  25.604  1.00  0.00     0.163 HD
BRANCH   6   8
ATOM      8  C   UNL A   1      42.161  20.457  26.387  1.00  0.00     0.039 A 
ATOM      9  C   UNL A   1      42.677  21.277  25.381  1.00  0.00     0.014 A 
ATOM     10  C   UNL A   1      42.155  20.906  27.715  1.00  0.00     0.014 A 
ATOM     11  C   UNL A   1      43.282  22.485  25.703  1.00  0.00     0.010 A 
ATOM     12  C   UNL A   1      42.711  22.145  28.038  1.00  0.00     0.010 A 
ATOM     13  C   UNL A   1      43.280  22.932  27.028  1.00  0.00    -0.014 A 
BRANCH  13  14
ATOM     14  C   UNL A   1      43.662  24.343  27.270  1.00  0.00     0.031 A 
ATOM     15  C   UNL A   1      42.449  25.257  27.468  1.00  0.00     0.074 A 
ATOM     16  C   UNL A   1      44.983  24.673  27.223  1.00  0.00     0.049 A 
ATOM     17  N   UNL A   1      42.345  26.541  27.303  1.00  0.00    -0.248 NA
ATOM     18  C   UNL A   1      41.139  24.643  27.818  1.00  0.00     0.031 C 
ATOM     19  C   UNL A   1      46.077  23.718  26.960  1.00  0.00     0.029 A 
ATOM     20  N   UNL A   1      45.670  25.861  27.376  1.00  0.00    -0.354 N 
ATOM     21  C   UNL A   1      41.035  26.903  27.673  1.00  0.00     0.074 A 
ATOM     22  C   UNL A   1      40.309  25.685  27.875  1.00  0.00     0.031 C 
ATOM     23  C   UNL A   1      47.266  24.356  26.924  1.00  0.00     0.029 A 
ATOM     24  C   UNL A   1      47.066  25.771  27.182  1.00  0.00     0.049 A 
ATOM     25  H   UNL A   1      45.220  26.706  27.602  1.00  0.00     0.167 HD
ATOM     26  C   UNL A   1      40.633  28.182  27.916  1.00  0.00     0.031 A 
ATOM     27  C   UNL A   1      48.009  26.757  27.212  1.00  0.00     0.031 A 
ATOM     28  C   UNL A   1      41.688  29.114  27.715  1.00  0.00     0.049 A 
ATOM     29  C   UNL A   1      47.352  27.994  27.675  1.00  0.00     0.074 A 
ATOM     30  C   UNL A   1      42.275  29.670  26.609  1.00  0.00     0.029 A 
ATOM     31  N   UNL A   1      42.449  29.429  28.816  1.00  0.00    -0.354 N 
ATOM     32  N   UNL A   1      46.907  28.195  28.878  1.00  0.00    -0.248 NA
ATOM     33  C   UNL A   1      47.171  29.107  26.735  1.00  0.00     0.031 C 
ATOM     34  C   UNL A   1      43.594  29.975  27.021  1.00  0.00     0.029 A 
ATOM     35  C   UNL A   1      43.734  29.621  28.366  1.00  0.00     0.049 A 
ATOM     36  H   UNL A   1      42.135  29.501  29.745  1.00  0.00     0.167 HD
ATOM     37  C   UNL A   1      46.071  29.273  28.722  1.00  0.00     0.074 A 
ATOM     38  C   UNL A   1      46.496  29.948  27.516  1.00  0.00     0.031 C 
ATOM     39  C   UNL A   1      44.819  29.221  29.242  1.00  0.00     0.031 A 
BRANCH  26  40
ATOM     40  C   UNL A   1      39.378  28.692  28.565  1.00  0.00    -0.014 A 
ATOM     41  C   UNL A   1      38.602  29.623  27.833  1.00  0.00     0.010 A 
ATOM     42  C   UNL A   1      39.111  28.555  29.936  1.00  0.00     0.010 A 
ATOM     43  C   UNL A   1      37.682  30.463  28.460  1.00  0.00     0.020 A 
ATOM     44  C   UNL A   1      38.161  29.375  30.569  1.00  0.00     0.020 A 
ATOM     45  C   UNL A   1      37.493  30.357  29.834  1.00  0.00     0.054 A 
BRANCH  45  46
ATOM     46  S   UNL A   1      36.429  31.577  30.652  1.00  0.00     0.124 S 
ATOM     47  O   UNL A   1      35.959  30.839  31.821  1.00  0.00    -0.237 OA
ATOM     48  O   UNL A   1      37.356  32.671  30.934  1.00  0.00    -0.237 OA
ATOM     49  O   UNL A   1      35.414  31.877  29.644  1.00  0.00    -0.744 OA
ENDBRANCH  45  46
ENDBRANCH  26  40
BRANCH  27  50
ATOM     50  C   UNL A   1      49.463  26.894  26.835  1.00  0.00    -0.014 A 
ATOM     51  C   UNL A   1      50.526  26.987  27.743  1.00  0.00     0.010 A 
ATOM     52  C   UNL A   1      49.820  26.720  25.468  1.00  0.00     0.010 A 
ATOM     53  C   UNL A   1      51.859  26.788  27.325  1.00  0.00     0.020 A 
ATOM     54  C   UNL A   1      51.129  26.464  25.053  1.00  0.00     0.020 A 
ATOM     55  C   UNL A   1      52.146  26.475  25.994  1.00  0.00     0.054 A 
BRANCH  55  56
ATOM     56  S   UNL A   1      53.804  25.922  25.504  1.00  0.00     0.124 S 
ATOM     57  O   UNL A   1      54.073  24.852  26.458  1.00  0.00    -0.237 OA
ATOM     58  O   UNL A   1      53.615  25.497  24.118  1.00  0.00    -0.237 OA
ATOM     59  O   UNL A   1      54.616  27.128  25.664  1.00  0.00    -0.744 OA
ENDBRANCH  55  56
ENDBRANCH  27  50
BRANCH  39  60
ATOM     60  C   UNL A   1      44.667  28.284  30.436  1.00  0.00    -0.014 A 
ATOM     61  C   UNL A   1      44.972  28.723  31.736  1.00  0.00     0.010 A 
ATOM     62  C   UNL A   1      44.315  26.930  30.280  1.00  0.00     0.010 A 
ATOM     63  C   UNL A   1      44.928  27.843  32.831  1.00  0.00     0.020 A 
ATOM     64  C   UNL A   1      44.256  26.043  31.365  1.00  0.00     0.020 A 
ATOM     65  C   UNL A   1      44.568  26.507  32.639  1.00  0.00     0.054 A 
BRANCH  65  66
ATOM     66  S   UNL A   1      44.541  25.383  34.065  1.00  0.00     0.124 S 
ATOM     67  O   UNL A   1      44.779  24.077  33.454  1.00  0.00    -0.237 OA
ATOM     68  O   UNL A   1      45.632  25.894  34.891  1.00  0.00    -0.237 OA
ATOM     69  O   UNL A   1      43.203  25.561  34.628  1.00  0.00    -0.744 OA
ENDBRANCH  65  66
ENDBRANCH  39  60
ENDBRANCH  13  14
ENDBRANCH   6   8
ENDBRANCH   3   4
ENDBRANCH   2   3
ENDBRANCH   1   2
BRANCH   1  70
ATOM     70  C   UNL A   1      36.769  21.832  24.987  1.00  0.00     0.116 C 
BRANCH  70  71
ATOM     71  N   UNL A   1      36.005  22.461  26.051  1.00  0.00    -0.354 N 
ATOM     72  C   UNL A   1      34.673  22.748  26.125  1.00  0.00     0.249 C 
ATOM     73  H   UNL A   1      36.531  22.720  26.842  1.00  0.00     0.163 HD
ATOM     74  O   UNL A   1      34.251  23.268  27.161  1.00  0.00    -0.272 OA
BRANCH  72  75
ATOM     75  C   UNL A   1      33.745  22.375  24.965  1.00  0.00     0.207 C 
ATOM     76  C   UNL A   1      33.734  23.426  23.866  1.00  0.00     0.045 C 
ATOM     77  O   UNL A   1      32.391  22.256  25.455  1.00  0.00    -0.363 OA
ATOM     78  C   UNL A   1      32.305  23.365  23.387  1.00  0.00     0.037 C 
ATOM     79  C   UNL A   1      31.538  23.118  24.675  1.00  0.00     0.138 C 
BRANCH  79  80
ATOM     80  C   UNL A   1      31.223  24.394  25.480  1.00  0.00     0.148 C 
BRANCH  80  81
ATOM     81  N   UNL A   1      30.104  25.143  24.924  1.00  0.00    -0.348 N 
ATOM     82  C   UNL A   1      30.072  26.340  24.257  1.00  0.00     0.268 C 
ATOM     83  H   UNL A   1      29.224  24.719  25.049  1.00  0.00     0.163 HD
ATOM     84  O   UNL A   1      28.971  26.761  23.914  1.00  0.00    -0.268 OA
BRANCH  82  85
ATOM     85  C   UNL A   1      31.310  26.994  23.920  1.00  0.00     0.107 A 
ATOM     86  C   UNL A   1      32.027  26.829  22.736  1.00  0.00     0.033 A 
ATOM     87  N   UNL A   1      31.941  28.010  24.609  1.00  0.00    -0.340 N 
ATOM     88  C   UNL A   1      33.092  27.754  22.714  1.00  0.00     0.020 A 
ATOM     89  C   UNL A   1      32.999  28.488  23.871  1.00  0.00     0.086 A 
BRANCH  87  90
ATOM     90  C   UNL A   1      31.718  28.527  25.949  1.00  0.00     0.087 C 
ATOM     91  C   UNL A   1      31.450  27.749  27.216  1.00  0.00     0.027 C 
ATOM     92  C   UNL A   1      32.785  28.379  27.020  1.00  0.00     0.027 C 
ENDBRANCH  87  90
ENDBRANCH  82  85
ENDBRANCH  80  81
ENDBRANCH  79  80
ENDBRANCH  72  75
ENDBRANCH  70  71
ENDBRANCH   1  70
TORSDOF 18
ENDMDL
