MODEL 1
REMARK VINA RESULT:     -12.5      0.000      0.000
REMARK SMILES Cc1ccc(-c2cc3cccnc3n2CCC(=O)NCCCCNC(=O)c2ccc(-c3c4nc(c(-c5ccc(S(=O)(=O)[O-])cc5)c5ccc([nH]5)c(-c5ccc(S(=O)(=O)[O-])cc5)c5nc(c(-c6ccc(S(=O)(=O)[O-])cc6)c6ccc3[nH]6)C=C5)C=C4)cc2)cn1
REMARK SMILES IDX 21 1 20 2 19 3 17 4 18 5 16 7 15 8 14 9 6 10 7 11 8 12 13 13
REMARK SMILES IDX 9 14 12 15 10 16 11 17 5 18 1 19 2 20 3 21 88 22 4 23 87 24
REMARK SMILES IDX 22 25 23 26 24 27 25 28 26 30 27 31 28 32 86 33 29 34 85 35
REMARK SMILES IDX 30 36 31 37 32 38 79 39 33 40 84 41 78 42 80 43 34 44 83 45
REMARK SMILES IDX 77 46 76 47 35 49 65 50 46 51 64 52 47 53 50 54 63 55 81 56
REMARK SMILES IDX 48 57 49 58 62 60 82 61 51 62 36 63 37 64 45 65 38 66 44 67
REMARK SMILES IDX 39 68 40 69 41 70 42 71 43 72 66 73 67 74 75 75 68 76 74 77
REMARK SMILES IDX 69 78 70 79 71 80 72 81 73 82 52 83 53 84 61 85 54 86 60 87
REMARK SMILES IDX 55 88 56 89 57 90 58 91 59 92
REMARK H PARENT 19 6 24 29 80 48 50 59
REMARK Flexibility Score: inf
ROOT
ATOM      1  C   UNL A   1      37.787  21.918  25.178  1.00  0.00     0.023 C 
ENDROOT
BRANCH   1   2
ATOM      2  C   UNL A   1      36.394  21.302  25.161  1.00  0.00     0.116 C 
BRANCH   2   3
ATOM      3  N   UNL A   1      35.729  21.348  26.458  1.00  0.00    -0.356 N 
ATOM      4  C   UNL A   1      34.552  21.916  26.848  1.00  0.00     0.221 C 
ATOM      5  O   UNL A   1      34.188  21.754  28.016  1.00  0.00    -0.275 OA
ATOM      6  H   UNL A   1      36.215  20.887  27.179  1.00  0.00     0.163 HD
BRANCH   4   7
ATOM      7  C   UNL A   1      33.698  22.736  25.907  1.00  0.00     0.122 C 
BRANCH   7   8
ATOM      8  C   UNL A   1      32.284  22.173  25.670  1.00  0.00     0.134 C 
BRANCH   8   9
ATOM      9  N   UNL A   1      32.097  21.556  24.361  1.00  0.00    -0.325 N 
ATOM     10  C   UNL A   1      31.983  22.130  23.086  1.00  0.00     0.052 A 
ATOM     11  C   UNL A   1      31.943  21.031  22.208  1.00  0.00     0.039 A 
ATOM     12  C   UNL A   1      32.231  19.839  22.921  1.00  0.00     0.020 A 
ATOM     13  C   UNL A   1      32.215  20.175  24.260  1.00  0.00     0.140 A 
ATOM     14  C   UNL A   1      32.606  18.527  22.583  1.00  0.00     0.013 A 
ATOM     15  N   UNL A   1      32.443  19.345  25.303  1.00  0.00    -0.238 NA
ATOM     16  C   UNL A   1      32.926  17.655  23.624  1.00  0.00     0.021 A 
ATOM     17  C   UNL A   1      32.806  18.100  24.932  1.00  0.00     0.113 A 
BRANCH  10  18
ATOM     18  C   UNL A   1      32.213  23.551  22.669  1.00  0.00     0.017 A 
ATOM     19  C   UNL A   1      33.548  27.626  22.276  1.00  0.00     0.066 C 
ATOM     20  C   UNL A   1      33.051  26.214  22.360  1.00  0.00     0.037 A 
ATOM     21  C   UNL A   1      31.790  25.948  22.857  1.00  0.00     0.024 A 
ATOM     22  N   UNL A   1      33.862  25.225  21.927  1.00  0.00    -0.261 NA
ATOM     23  C   UNL A   1      31.380  24.618  22.991  1.00  0.00     0.014 A 
ATOM     24  C   UNL A   1      33.426  23.942  22.092  1.00  0.00     0.121 A 
ENDBRANCH  10  18
ENDBRANCH   8   9
ENDBRANCH   7   8
ENDBRANCH   4   7
ENDBRANCH   2   3
ENDBRANCH   1   2
BRANCH   1  25
ATOM     25  C   UNL A   1      37.987  23.302  25.806  1.00  0.00     0.023 C 
BRANCH  25  26
ATOM     26  C   UNL A   1      39.028  23.362  26.915  1.00  0.00     0.116 C 
BRANCH  26  27
ATOM     27  N   UNL A   1      40.181  22.489  26.667  1.00  0.00    -0.352 N 
ATOM     28  C   UNL A   1      41.509  22.840  26.487  1.00  0.00     0.251 C 
ATOM     29  H   UNL A   1      39.985  21.526  26.622  1.00  0.00     0.163 HD
ATOM     30  O   UNL A   1      42.325  22.054  26.040  1.00  0.00    -0.269 OA
BRANCH  28  31
ATOM     31  C   UNL A   1      41.887  24.216  26.847  1.00  0.00     0.039 A 
ATOM     32  C   UNL A   1      41.781  25.247  25.914  1.00  0.00     0.014 A 
ATOM     33  C   UNL A   1      42.099  24.474  28.198  1.00  0.00     0.014 A 
ATOM     34  C   UNL A   1      41.737  26.560  26.379  1.00  0.00     0.010 A 
ATOM     35  C   UNL A   1      41.899  25.755  28.659  1.00  0.00     0.010 A 
ATOM     36  C   UNL A   1      41.730  26.811  27.761  1.00  0.00    -0.014 A 
BRANCH  36  37
ATOM     37  C   UNL A   1      41.455  28.158  28.267  1.00  0.00     0.031 A 
ATOM     38  C   UNL A   1      42.476  29.209  28.000  1.00  0.00     0.074 A 
ATOM     39  C   UNL A   1      40.290  28.530  28.838  1.00  0.00     0.049 A 
ATOM     40  N   UNL A   1      43.365  29.660  28.824  1.00  0.00    -0.248 NA
ATOM     41  C   UNL A   1      42.575  29.784  26.649  1.00  0.00     0.031 C 
ATOM     42  C   UNL A   1      39.041  27.766  28.957  1.00  0.00     0.029 A 
ATOM     43  N   UNL A   1      39.964  29.732  29.391  1.00  0.00    -0.354 N 
ATOM     44  C   UNL A   1      43.992  30.722  28.178  1.00  0.00     0.074 A 
ATOM     45  C   UNL A   1      43.584  30.648  26.796  1.00  0.00     0.031 C 
ATOM     46  C   UNL A   1      38.040  28.584  29.345  1.00  0.00     0.029 A 
ATOM     47  C   UNL A   1      38.625  29.855  29.716  1.00  0.00     0.049 A 
ATOM     48  H   UNL A   1      40.622  30.448  29.545  1.00  0.00     0.167 HD
ATOM     49  C   UNL A   1      44.594  31.728  28.873  1.00  0.00     0.031 A 
ATOM     50  C   UNL A   1      38.022  30.876  30.360  1.00  0.00     0.031 A 
ATOM     51  C   UNL A   1      44.643  31.451  30.285  1.00  0.00     0.049 A 
ATOM     52  C   UNL A   1      39.047  31.519  31.210  1.00  0.00     0.074 A 
ATOM     53  C   UNL A   1      45.398  30.678  31.136  1.00  0.00     0.029 A 
ATOM     54  N   UNL A   1      43.506  31.813  30.960  1.00  0.00    -0.354 N 
ATOM     55  N   UNL A   1      39.655  30.897  32.185  1.00  0.00    -0.248 NA
ATOM     56  C   UNL A   1      39.642  32.789  30.814  1.00  0.00     0.031 C 
ATOM     57  C   UNL A   1      44.560  30.392  32.258  1.00  0.00     0.029 A 
ATOM     58  C   UNL A   1      43.330  31.017  32.065  1.00  0.00     0.049 A 
ATOM     59  H   UNL A   1      42.901  32.541  30.691  1.00  0.00     0.167 HD
ATOM     60  C   UNL A   1      40.905  31.478  32.241  1.00  0.00     0.074 A 
ATOM     61  C   UNL A   1      40.781  32.730  31.509  1.00  0.00     0.031 C 
ATOM     62  C   UNL A   1      42.008  30.767  32.605  1.00  0.00     0.031 A 
BRANCH  49  63
ATOM     63  C   UNL A   1      44.745  33.148  28.376  1.00  0.00    -0.014 A 
ATOM     64  C   UNL A   1      45.828  33.929  28.831  1.00  0.00     0.010 A 
ATOM     65  C   UNL A   1      43.708  33.822  27.699  1.00  0.00     0.010 A 
ATOM     66  C   UNL A   1      45.858  35.319  28.637  1.00  0.00     0.020 A 
ATOM     67  C   UNL A   1      43.746  35.201  27.469  1.00  0.00     0.020 A 
ATOM     68  C   UNL A   1      44.812  35.946  27.960  1.00  0.00     0.054 A 
BRANCH  68  69
ATOM     69  S   UNL A   1      44.814  37.752  27.802  1.00  0.00     0.124 S 
ATOM     70  O   UNL A   1      45.495  37.948  26.526  1.00  0.00    -0.237 OA
ATOM     71  O   UNL A   1      43.387  38.063  27.812  1.00  0.00    -0.237 OA
ATOM     72  O   UNL A   1      45.552  38.199  28.981  1.00  0.00    -0.744 OA
ENDBRANCH  68  69
ENDBRANCH  49  63
BRANCH  50  73
ATOM     73  C   UNL A   1      36.723  31.489  30.012  1.00  0.00    -0.014 A 
ATOM     74  C   UNL A   1      35.870  31.946  31.030  1.00  0.00     0.010 A 
ATOM     75  C   UNL A   1      36.461  31.903  28.688  1.00  0.00     0.010 A 
ATOM     76  C   UNL A   1      34.872  32.888  30.756  1.00  0.00     0.020 A 
ATOM     77  C   UNL A   1      35.457  32.833  28.406  1.00  0.00     0.020 A 
ATOM     78  C   UNL A   1      34.701  33.356  29.451  1.00  0.00     0.054 A 
BRANCH  78  79
ATOM     79  S   UNL A   1      33.573  34.747  29.161  1.00  0.00     0.124 S 
ATOM     80  O   UNL A   1      32.620  34.185  28.208  1.00  0.00    -0.237 OA
ATOM     81  O   UNL A   1      33.052  35.002  30.501  1.00  0.00    -0.237 OA
ATOM     82  O   UNL A   1      34.444  35.792  28.624  1.00  0.00    -0.744 OA
ENDBRANCH  78  79
ENDBRANCH  50  73
BRANCH  62  83
ATOM     83  C   UNL A   1      41.815  29.548  33.463  1.00  0.00    -0.014 A 
ATOM     84  C   UNL A   1      41.777  28.232  32.966  1.00  0.00     0.010 A 
ATOM     85  C   UNL A   1      41.765  29.747  34.854  1.00  0.00     0.010 A 
ATOM     86  C   UNL A   1      41.694  27.141  33.847  1.00  0.00     0.020 A 
ATOM     87  C   UNL A   1      41.692  28.666  35.735  1.00  0.00     0.020 A 
ATOM     88  C   UNL A   1      41.662  27.367  35.228  1.00  0.00     0.054 A 
BRANCH  88  89
ATOM     89  S   UNL A   1      41.604  25.951  36.364  1.00  0.00     0.124 S 
ATOM     90  O   UNL A   1      42.811  25.208  36.015  1.00  0.00    -0.237 OA
ATOM     91  O   UNL A   1      41.618  26.594  37.675  1.00  0.00    -0.237 OA
ATOM     92  O   UNL A   1      40.348  25.282  36.024  1.00  0.00    -0.744 OA
ENDBRANCH  88  89
ENDBRANCH  62  83
ENDBRANCH  36  37
ENDBRANCH  28  31
ENDBRANCH  26  27
ENDBRANCH  25  26
ENDBRANCH   1  25
TORSDOF 17
ENDMDL
MODEL 2
REMARK VINA RESULT:     -12.4      2.708      4.508
REMARK SMILES Cc1ccc(-c2cc3cccnc3n2CCC(=O)NCCCCNC(=O)c2ccc(-c3c4nc(c(-c5ccc(S(=O)(=O)[O-])cc5)c5ccc([nH]5)c(-c5ccc(S(=O)(=O)[O-])cc5)c5nc(c(-c6ccc(S(=O)(=O)[O-])cc6)c6ccc3[nH]6)C=C5)C=C4)cc2)cn1
REMARK SMILES IDX 21 1 20 2 19 3 17 4 18 5 16 7 15 8 14 9 6 10 7 11 8 12 13 13
REMARK SMILES IDX 9 14 12 15 10 16 11 17 5 18 1 19 2 20 3 21 88 22 4 23 87 24
REMARK SMILES IDX 22 25 23 26 24 27 25 28 26 30 27 31 28 32 86 33 29 34 85 35
REMARK SMILES IDX 30 36 31 37 32 38 79 39 33 40 84 41 78 42 80 43 34 44 83 45
REMARK SMILES IDX 77 46 76 47 35 49 65 50 46 51 64 52 47 53 50 54 63 55 81 56
REMARK SMILES IDX 48 57 49 58 62 60 82 61 51 62 36 63 37 64 45 65 38 66 44 67
REMARK SMILES IDX 39 68 40 69 41 70 42 71 43 72 66 73 67 74 75 75 68 76 74 77
REMARK SMILES IDX 69 78 70 79 71 80 72 81 73 82 52 83 53 84 61 85 54 86 60 87
REMARK SMILES IDX 55 88 56 89 57 90 58 91 59 92
REMARK H PARENT 19 6 24 29 80 48 50 59
REMARK Flexibility Score: inf
ROOT
ATOM      1  C   UNL A   1      40.254  21.660  26.132  1.00  0.00     0.023 C 
ENDROOT
BRANCH   1   2
ATOM      2  C   UNL A   1      38.783  22.038  26.232  1.00  0.00     0.116 C 
BRANCH   2   3
ATOM      3  N   UNL A   1      38.194  22.406  24.949  1.00  0.00    -0.356 N 
ATOM      4  C   UNL A   1      37.051  21.993  24.330  1.00  0.00     0.221 C 
ATOM      5  O   UNL A   1      36.753  22.516  23.253  1.00  0.00    -0.275 OA
ATOM      6  H   UNL A   1      38.714  23.069  24.440  1.00  0.00     0.163 HD
BRANCH   4   7
ATOM      7  C   UNL A   1      36.157  20.920  24.912  1.00  0.00     0.122 C 
BRANCH   7   8
ATOM      8  C   UNL A   1      34.807  21.433  25.448  1.00  0.00     0.134 C 
BRANCH   8   9
ATOM      9  N   UNL A   1      33.796  21.646  24.418  1.00  0.00    -0.325 N 
ATOM     10  C   UNL A   1      32.968  20.734  23.746  1.00  0.00     0.052 A 
ATOM     11  C   UNL A   1      32.123  21.540  22.961  1.00  0.00     0.039 A 
ATOM     12  C   UNL A   1      32.303  22.903  23.310  1.00  0.00     0.020 A 
ATOM     13  C   UNL A   1      33.413  22.950  24.130  1.00  0.00     0.140 A 
ATOM     14  C   UNL A   1      31.592  24.098  23.108  1.00  0.00     0.013 A 
ATOM     15  N   UNL A   1      33.947  24.053  24.702  1.00  0.00    -0.238 NA
ATOM     16  C   UNL A   1      32.063  25.249  23.741  1.00  0.00     0.021 A 
ATOM     17  C   UNL A   1      33.229  25.174  24.487  1.00  0.00     0.113 A 
BRANCH  10  18
ATOM     18  C   UNL A   1      32.744  19.280  24.029  1.00  0.00     0.017 A 
ATOM     19  C   UNL A   1      32.976  15.209  25.413  1.00  0.00     0.066 C 
ATOM     20  C   UNL A   1      32.840  16.613  24.905  1.00  0.00     0.037 A 
ATOM     21  C   UNL A   1      33.150  16.912  23.593  1.00  0.00     0.024 A 
ATOM     22  N   UNL A   1      32.399  17.560  25.760  1.00  0.00    -0.261 NA
ATOM     23  C   UNL A   1      33.082  18.242  23.166  1.00  0.00     0.014 A 
ATOM     24  C   UNL A   1      32.364  18.846  25.304  1.00  0.00     0.121 A 
ENDBRANCH  10  18
ENDBRANCH   8   9
ENDBRANCH   7   8
ENDBRANCH   4   7
ENDBRANCH   2   3
ENDBRANCH   1   2
BRANCH   1  25
ATOM     25  C   UNL A   1      40.738  20.353  26.770  1.00  0.00     0.023 C 
BRANCH  25  26
ATOM     26  C   UNL A   1      42.198  20.344  27.198  1.00  0.00     0.116 C 
BRANCH  26  27
ATOM     27  N   UNL A   1      43.082  19.716  26.208  1.00  0.00    -0.352 N 
ATOM     28  C   UNL A   1      43.890  20.322  25.261  1.00  0.00     0.251 C 
ATOM     29  H   UNL A   1      43.102  18.732  26.219  1.00  0.00     0.163 HD
ATOM     30  O   UNL A   1      44.378  19.695  24.338  1.00  0.00    -0.269 OA
BRANCH  28  31
ATOM     31  C   UNL A   1      44.121  21.768  25.413  1.00  0.00     0.039 A 
ATOM     32  C   UNL A   1      43.381  22.686  24.668  1.00  0.00     0.014 A 
ATOM     33  C   UNL A   1      44.904  22.168  26.492  1.00  0.00     0.014 A 
ATOM     34  C   UNL A   1      43.314  24.003  25.116  1.00  0.00     0.010 A 
ATOM     35  C   UNL A   1      44.708  23.427  27.012  1.00  0.00     0.010 A 
ATOM     36  C   UNL A   1      43.926  24.360  26.329  1.00  0.00    -0.014 A 
BRANCH  36  37
ATOM     37  C   UNL A   1      43.676  25.674  26.926  1.00  0.00     0.031 A 
ATOM     38  C   UNL A   1      44.633  26.767  26.597  1.00  0.00     0.074 A 
ATOM     39  C   UNL A   1      42.573  25.984  27.640  1.00  0.00     0.049 A 
ATOM     40  N   UNL A   1      45.597  27.208  27.338  1.00  0.00    -0.248 NA
ATOM     41  C   UNL A   1      44.564  27.404  25.273  1.00  0.00     0.031 C 
ATOM     42  C   UNL A   1      41.366  25.177  27.861  1.00  0.00     0.029 A 
ATOM     43  N   UNL A   1      42.281  27.149  28.283  1.00  0.00    -0.354 N 
ATOM     44  C   UNL A   1      46.119  28.317  26.678  1.00  0.00     0.074 A 
ATOM     45  C   UNL A   1      45.561  28.292  25.348  1.00  0.00     0.031 C 
ATOM     46  C   UNL A   1      40.394  25.944  28.396  1.00  0.00     0.029 A 
ATOM     47  C   UNL A   1      40.984  27.216  28.760  1.00  0.00     0.049 A 
ATOM     48  H   UNL A   1      42.933  27.877  28.397  1.00  0.00     0.167 HD
ATOM     49  C   UNL A   1      46.769  29.309  27.349  1.00  0.00     0.031 A 
ATOM     50  C   UNL A   1      40.431  28.187  29.516  1.00  0.00     0.031 A 
ATOM     51  C   UNL A   1      46.984  28.970  28.732  1.00  0.00     0.049 A 
ATOM     52  C   UNL A   1      41.528  28.823  30.276  1.00  0.00     0.074 A 
ATOM     53  C   UNL A   1      47.850  28.184  29.457  1.00  0.00     0.029 A 
ATOM     54  N   UNL A   1      45.921  29.266  29.546  1.00  0.00    -0.354 N 
ATOM     55  N   UNL A   1      42.258  28.178  31.147  1.00  0.00    -0.248 NA
ATOM     56  C   UNL A   1      42.042  30.127  29.878  1.00  0.00     0.031 C 
ATOM     57  C   UNL A   1      47.152  27.822  30.649  1.00  0.00     0.029 A 
ATOM     58  C   UNL A   1      45.891  28.417  30.624  1.00  0.00     0.049 A 
ATOM     59  H   UNL A   1      45.271  29.987  29.381  1.00  0.00     0.167 HD
ATOM     60  C   UNL A   1      43.490  28.794  31.091  1.00  0.00     0.074 A 
ATOM     61  C   UNL A   1      43.253  30.073  30.438  1.00  0.00     0.031 C 
ATOM     62  C   UNL A   1      44.645  28.103  31.296  1.00  0.00     0.031 A 
BRANCH  49  63
ATOM     63  C   UNL A   1      46.827  30.753  26.907  1.00  0.00    -0.014 A 
ATOM     64  C   UNL A   1      48.037  31.468  27.033  1.00  0.00     0.010 A 
ATOM     65  C   UNL A   1      45.665  31.503  26.634  1.00  0.00     0.010 A 
ATOM     66  C   UNL A   1      48.074  32.866  26.915  1.00  0.00     0.020 A 
ATOM     67  C   UNL A   1      45.698  32.893  26.478  1.00  0.00     0.020 A 
ATOM     68  C   UNL A   1      46.900  33.569  26.643  1.00  0.00     0.054 A 
BRANCH  68  69
ATOM     69  S   UNL A   1      46.943  35.381  26.589  1.00  0.00     0.124 S 
ATOM     70  O   UNL A   1      45.543  35.715  26.347  1.00  0.00    -0.237 OA
ATOM     71  O   UNL A   1      47.453  35.716  27.917  1.00  0.00    -0.237 OA
ATOM     72  O   UNL A   1      47.856  35.670  25.486  1.00  0.00    -0.744 OA
ENDBRANCH  68  69
ENDBRANCH  49  63
BRANCH  50  73
ATOM     73  C   UNL A   1      39.085  28.775  29.343  1.00  0.00    -0.014 A 
ATOM     74  C   UNL A   1      38.426  29.345  30.444  1.00  0.00     0.010 A 
ATOM     75  C   UNL A   1      38.587  29.051  28.052  1.00  0.00     0.010 A 
ATOM     76  C   UNL A   1      37.387  30.264  30.257  1.00  0.00     0.020 A 
ATOM     77  C   UNL A   1      37.540  29.957  27.859  1.00  0.00     0.020 A 
ATOM     78  C   UNL A   1      36.981  30.595  28.962  1.00  0.00     0.054 A 
BRANCH  78  79
ATOM     79  S   UNL A   1      35.808  31.961  28.734  1.00  0.00     0.124 S 
ATOM     80  O   UNL A   1      36.692  33.117  28.619  1.00  0.00    -0.237 OA
ATOM     81  O   UNL A   1      35.117  31.568  27.509  1.00  0.00    -0.237 OA
ATOM     82  O   UNL A   1      34.992  31.921  29.947  1.00  0.00    -0.744 OA
ENDBRANCH  78  79
ENDBRANCH  50  73
BRANCH  62  83
ATOM     83  C   UNL A   1      44.582  26.840  32.110  1.00  0.00    -0.014 A 
ATOM     84  C   UNL A   1      44.619  25.545  31.562  1.00  0.00     0.010 A 
ATOM     85  C   UNL A   1      44.580  26.982  33.509  1.00  0.00     0.010 A 
ATOM     86  C   UNL A   1      44.656  24.419  32.400  1.00  0.00     0.020 A 
ATOM     87  C   UNL A   1      44.627  25.867  34.347  1.00  0.00     0.020 A 
ATOM     88  C   UNL A   1      44.670  24.590  33.790  1.00  0.00     0.054 A 
BRANCH  88  89
ATOM     89  S   UNL A   1      44.768  23.131  34.868  1.00  0.00     0.124 S 
ATOM     90  O   UNL A   1      43.409  23.023  35.390  1.00  0.00    -0.237 OA
ATOM     91  O   UNL A   1      45.171  22.078  33.940  1.00  0.00    -0.237 OA
ATOM     92  O   UNL A   1      45.782  23.496  35.858  1.00  0.00    -0.744 OA
ENDBRANCH  88  89
ENDBRANCH  62  83
ENDBRANCH  36  37
ENDBRANCH  28  31
ENDBRANCH  26  27
ENDBRANCH  25  26
ENDBRANCH   1  25
TORSDOF 17
ENDMDL
MODEL 3
REMARK VINA RESULT:     -12.3      2.566      3.355
REMARK SMILES Cc1ccc(-c2cc3cccnc3n2CCC(=O)NCCCCNC(=O)c2ccc(-c3c4nc(c(-c5ccc(S(=O)(=O)[O-])cc5)c5ccc([nH]5)c(-c5ccc(S(=O)(=O)[O-])cc5)c5nc(c(-c6ccc(S(=O)(=O)[O-])cc6)c6ccc3[nH]6)C=C5)C=C4)cc2)cn1
REMARK SMILES IDX 21 1 20 2 19 3 17 4 18 5 16 7 15 8 14 9 6 10 7 11 8 12 13 13
REMARK SMILES IDX 9 14 12 15 10 16 11 17 5 18 1 19 2 20 3 21 88 22 4 23 87 24
REMARK SMILES IDX 22 25 23 26 24 27 25 28 26 30 27 31 28 32 86 33 29 34 85 35
REMARK SMILES IDX 30 36 31 37 32 38 79 39 33 40 84 41 78 42 80 43 34 44 83 45
REMARK SMILES IDX 77 46 76 47 35 49 65 50 46 51 64 52 47 53 50 54 63 55 81 56
REMARK SMILES IDX 48 57 49 58 62 60 82 61 51 62 36 63 37 64 45 65 38 66 44 67
REMARK SMILES IDX 39 68 40 69 41 70 42 71 43 72 66 73 67 74 75 75 68 76 74 77
REMARK SMILES IDX 69 78 70 79 71 80 72 81 73 82 52 83 53 84 61 85 54 86 60 87
REMARK SMILES IDX 55 88 56 89 57 90 58 91 59 92
REMARK H PARENT 19 6 24 29 80 48 50 59
REMARK Flexibility Score: inf
ROOT
ATOM      1  C   UNL A   1      40.298  21.852  26.169  1.00  0.00     0.023 C 
ENDROOT
BRANCH   1   2
ATOM      2  C   UNL A   1      38.814  22.169  26.294  1.00  0.00     0.116 C 
BRANCH   2   3
ATOM      3  N   UNL A   1      38.196  22.542  25.027  1.00  0.00    -0.356 N 
ATOM      4  C   UNL A   1      37.128  22.021  24.357  1.00  0.00     0.221 C 
ATOM      5  O   UNL A   1      36.773  22.573  23.311  1.00  0.00    -0.275 OA
ATOM      6  H   UNL A   1      38.625  23.304  24.575  1.00  0.00     0.163 HD
BRANCH   4   7
ATOM      7  C   UNL A   1      36.384  20.798  24.846  1.00  0.00     0.122 C 
BRANCH   7   8
ATOM      8  C   UNL A   1      35.017  21.096  25.491  1.00  0.00     0.134 C 
BRANCH   8   9
ATOM      9  N   UNL A   1      33.873  20.662  24.696  1.00  0.00    -0.325 N 
ATOM     10  C   UNL A   1      32.898  21.405  24.013  1.00  0.00     0.052 A 
ATOM     11  C   UNL A   1      32.133  20.439  23.333  1.00  0.00     0.039 A 
ATOM     12  C   UNL A   1      32.757  19.171  23.442  1.00  0.00     0.020 A 
ATOM     13  C   UNL A   1      33.766  19.315  24.374  1.00  0.00     0.140 A 
ATOM     14  C   UNL A   1      32.652  17.935  22.782  1.00  0.00     0.013 A 
ATOM     15  N   UNL A   1      34.625  18.355  24.788  1.00  0.00    -0.238 NA
ATOM     16  C   UNL A   1      33.567  16.937  23.121  1.00  0.00     0.021 A 
ATOM     17  C   UNL A   1      34.492  17.189  24.123  1.00  0.00     0.113 A 
BRANCH  10  18
ATOM     18  C   UNL A   1      32.856  22.878  23.741  1.00  0.00     0.017 A 
ATOM     19  C   UNL A   1      33.699  27.085  23.376  1.00  0.00     0.066 C 
ATOM     20  C   UNL A   1      33.352  25.629  23.471  1.00  0.00     0.037 A 
ATOM     21  C   UNL A   1      32.460  25.187  24.429  1.00  0.00     0.024 A 
ATOM     22  N   UNL A   1      33.925  24.779  22.594  1.00  0.00    -0.261 NA
ATOM     23  C   UNL A   1      32.211  23.816  24.541  1.00  0.00     0.014 A 
ATOM     24  C   UNL A   1      33.665  23.448  22.751  1.00  0.00     0.121 A 
ENDBRANCH  10  18
ENDBRANCH   8   9
ENDBRANCH   7   8
ENDBRANCH   4   7
ENDBRANCH   2   3
ENDBRANCH   1   2
BRANCH   1  25
ATOM     25  C   UNL A   1      40.794  20.440  26.500  1.00  0.00     0.023 C 
BRANCH  25  26
ATOM     26  C   UNL A   1      42.174  20.373  27.136  1.00  0.00     0.116 C 
BRANCH  26  27
ATOM     27  N   UNL A   1      43.177  19.749  26.265  1.00  0.00    -0.352 N 
ATOM     28  C   UNL A   1      44.079  20.358  25.408  1.00  0.00     0.251 C 
ATOM     29  H   UNL A   1      43.214  18.765  26.293  1.00  0.00     0.163 HD
ATOM     30  O   UNL A   1      44.681  19.728  24.558  1.00  0.00    -0.269 OA
BRANCH  28  31
ATOM     31  C   UNL A   1      44.266  21.810  25.564  1.00  0.00     0.039 A 
ATOM     32  C   UNL A   1      43.579  22.704  24.744  1.00  0.00     0.014 A 
ATOM     33  C   UNL A   1      44.938  22.236  26.705  1.00  0.00     0.014 A 
ATOM     34  C   UNL A   1      43.444  24.024  25.168  1.00  0.00     0.010 A 
ATOM     35  C   UNL A   1      44.670  23.496  27.191  1.00  0.00     0.010 A 
ATOM     36  C   UNL A   1      43.935  24.405  26.428  1.00  0.00    -0.014 A 
BRANCH  36  37
ATOM     37  C   UNL A   1      43.604  25.719  26.984  1.00  0.00     0.031 A 
ATOM     38  C   UNL A   1      44.522  26.848  26.663  1.00  0.00     0.074 A 
ATOM     39  C   UNL A   1      42.463  25.994  27.652  1.00  0.00     0.049 A 
ATOM     40  N   UNL A   1      45.438  27.350  27.426  1.00  0.00    -0.248 NA
ATOM     41  C   UNL A   1      44.470  27.452  25.322  1.00  0.00     0.031 C 
ATOM     42  C   UNL A   1      41.287  25.137  27.851  1.00  0.00     0.029 A 
ATOM     43  N   UNL A   1      42.096  27.159  28.257  1.00  0.00    -0.354 N 
ATOM     44  C   UNL A   1      45.932  28.466  26.758  1.00  0.00     0.074 A 
ATOM     45  C   UNL A   1      45.423  28.386  25.410  1.00  0.00     0.031 C 
ATOM     46  C   UNL A   1      40.263  25.871  28.334  1.00  0.00     0.029 A 
ATOM     47  C   UNL A   1      40.781  27.176  28.687  1.00  0.00     0.049 A 
ATOM     48  H   UNL A   1      42.710  27.919  28.376  1.00  0.00     0.167 HD
ATOM     49  C   UNL A   1      46.512  29.502  27.426  1.00  0.00     0.031 A 
ATOM     50  C   UNL A   1      40.158  28.138  29.400  1.00  0.00     0.031 A 
ATOM     51  C   UNL A   1      46.693  29.205  28.824  1.00  0.00     0.049 A 
ATOM     52  C   UNL A   1      41.198  28.840  30.182  1.00  0.00     0.074 A 
ATOM     53  C   UNL A   1      47.567  28.476  29.596  1.00  0.00     0.029 A 
ATOM     54  N   UNL A   1      45.589  29.470  29.593  1.00  0.00    -0.354 N 
ATOM     55  N   UNL A   1      41.924  28.249  31.092  1.00  0.00    -0.248 NA
ATOM     56  C   UNL A   1      41.665  30.158  29.770  1.00  0.00     0.031 C 
ATOM     57  C   UNL A   1      46.844  28.109  30.772  1.00  0.00     0.029 A 
ATOM     58  C   UNL A   1      45.560  28.644  30.690  1.00  0.00     0.049 A 
ATOM     59  H   UNL A   1      44.913  30.156  29.389  1.00  0.00     0.167 HD
ATOM     60  C   UNL A   1      43.129  28.920  31.064  1.00  0.00     0.074 A 
ATOM     61  C   UNL A   1      42.857  30.172  30.373  1.00  0.00     0.031 C 
ATOM     62  C   UNL A   1      44.306  28.288  31.325  1.00  0.00     0.031 A 
BRANCH  49  63
ATOM     63  C   UNL A   1      46.520  30.937  26.952  1.00  0.00    -0.014 A 
ATOM     64  C   UNL A   1      47.699  31.702  27.079  1.00  0.00     0.010 A 
ATOM     65  C   UNL A   1      45.333  31.634  26.646  1.00  0.00     0.010 A 
ATOM     66  C   UNL A   1      47.683  33.097  26.929  1.00  0.00     0.020 A 
ATOM     67  C   UNL A   1      45.315  33.020  26.459  1.00  0.00     0.020 A 
ATOM     68  C   UNL A   1      46.487  33.748  26.624  1.00  0.00     0.054 A 
BRANCH  68  69
ATOM     69  S   UNL A   1      46.460  35.558  26.530  1.00  0.00     0.124 S 
ATOM     70  O   UNL A   1      47.264  35.938  27.688  1.00  0.00    -0.237 OA
ATOM     71  O   UNL A   1      47.071  35.807  25.226  1.00  0.00    -0.237 OA
ATOM     72  O   UNL A   1      45.039  35.885  26.619  1.00  0.00    -0.744 OA
ENDBRANCH  68  69
ENDBRANCH  49  63
BRANCH  50  73
ATOM     73  C   UNL A   1      38.794  28.659  29.167  1.00  0.00    -0.014 A 
ATOM     74  C   UNL A   1      37.959  28.943  30.259  1.00  0.00     0.010 A 
ATOM     75  C   UNL A   1      38.429  29.163  27.900  1.00  0.00     0.010 A 
ATOM     76  C   UNL A   1      36.870  29.811  30.118  1.00  0.00     0.020 A 
ATOM     77  C   UNL A   1      37.334  30.018  27.750  1.00  0.00     0.020 A 
ATOM     78  C   UNL A   1      36.591  30.376  28.871  1.00  0.00     0.054 A 
BRANCH  78  79
ATOM     79  S   UNL A   1      35.333  31.679  28.762  1.00  0.00     0.124 S 
ATOM     80  O   UNL A   1      36.034  32.730  28.030  1.00  0.00    -0.237 OA
ATOM     81  O   UNL A   1      34.261  31.006  28.034  1.00  0.00    -0.237 OA
ATOM     82  O   UNL A   1      35.035  31.988  30.160  1.00  0.00    -0.744 OA
ENDBRANCH  78  79
ENDBRANCH  50  73
BRANCH  62  83
ATOM     83  C   UNL A   1      44.271  27.042  32.167  1.00  0.00    -0.014 A 
ATOM     84  C   UNL A   1      44.354  25.737  31.648  1.00  0.00     0.010 A 
ATOM     85  C   UNL A   1      44.248  27.215  33.562  1.00  0.00     0.010 A 
ATOM     86  C   UNL A   1      44.415  24.631  32.512  1.00  0.00     0.020 A 
ATOM     87  C   UNL A   1      44.319  26.121  34.426  1.00  0.00     0.020 A 
ATOM     88  C   UNL A   1      44.407  24.833  33.898  1.00  0.00     0.054 A 
BRANCH  88  89
ATOM     89  S   UNL A   1      44.536  23.403  35.009  1.00  0.00     0.124 S 
ATOM     90  O   UNL A   1      45.549  22.578  34.359  1.00  0.00    -0.237 OA
ATOM     91  O   UNL A   1      44.940  24.017  36.272  1.00  0.00    -0.237 OA
ATOM     92  O   UNL A   1      43.187  22.837  35.009  1.00  0.00    -0.744 OA
ENDBRANCH  88  89
ENDBRANCH  62  83
ENDBRANCH  36  37
ENDBRANCH  28  31
ENDBRANCH  26  27
ENDBRANCH  25  26
ENDBRANCH   1  25
TORSDOF 17
ENDMDL
