MODEL 1
REMARK VINA RESULT:     -11.8      0.000      0.000
REMARK SMILES C[C@H]1CCC[C@@H]1n1c(SCC(=O)NCCCCNC(=O)c2ccc(-c3c4nc(c(-c5ccc(S(=O)(=O)[O-])cc5)c5ccc([nH]5)c(-c5ccc(S(=O)(=O)[O-])cc5)c5nc(c(-c6ccc(S(=O)(=O)[O-])cc6)c6ccc3[nH]6)C=C5)C=C4)cc2)nc2cnccc21
REMARK SMILES IDX 15 1 14 2 13 3 11 4 12 5 10 7 9 8 8 9 7 10 87 11 81 12 82 13
REMARK SMILES IDX 86 14 83 15 85 16 84 17 6 18 1 19 2 20 3 21 4 22 5 23 16 24
REMARK SMILES IDX 17 25 18 26 19 27 20 29 21 30 22 31 80 32 23 33 79 34 24 35
REMARK SMILES IDX 25 36 26 37 73 38 27 39 78 40 72 41 74 42 28 43 77 44 71 45
REMARK SMILES IDX 70 46 29 48 59 49 40 50 58 51 41 52 44 53 57 54 75 55 42 56
REMARK SMILES IDX 43 57 56 59 76 60 45 61 30 62 31 63 39 64 32 65 38 66 33 67
REMARK SMILES IDX 34 68 35 69 36 70 37 71 60 72 61 73 69 74 62 75 68 76 63 77
REMARK SMILES IDX 64 78 65 79 66 80 67 81 46 82 47 83 55 84 48 85 54 86 49 87
REMARK SMILES IDX 50 88 51 89 52 90 53 91
REMARK H PARENT 13 6 18 28 74 47 44 58
REMARK Flexibility Score: inf
ROOT
ATOM      1  C   UNL A   1      39.088  22.401  25.866  1.00  0.00     0.023 C 
ENDROOT
BRANCH   1   2
ATOM      2  C   UNL A   1      37.855  21.525  25.702  1.00  0.00     0.116 C 
BRANCH   2   3
ATOM      3  N   UNL A   1      37.208  21.715  24.426  1.00  0.00    -0.355 N 
ATOM      4  C   UNL A   1      36.639  22.841  23.935  1.00  0.00     0.230 C 
ATOM      5  O   UNL A   1      36.611  22.938  22.702  1.00  0.00    -0.274 OA
ATOM      6  H   UNL A   1      37.177  20.927  23.838  1.00  0.00     0.163 HD
BRANCH   4   7
ATOM      7  C   UNL A   1      36.215  23.995  24.808  1.00  0.00     0.178 C 
BRANCH   7   8
ATOM      8  S   UNL A   1      34.785  23.975  25.880  1.00  0.00    -0.078 SA
BRANCH   8   9
ATOM      9  C   UNL A   1      33.571  25.204  25.694  1.00  0.00     0.169 A 
ATOM     10  N   UNL A   1      32.443  25.200  24.863  1.00  0.00    -0.315 N 
ATOM     11  C   UNL A   1      32.005  26.525  24.786  1.00  0.00     0.072 A 
ATOM     12  N   UNL A   1      33.936  26.440  25.970  1.00  0.00    -0.221 NA
ATOM     13  C   UNL A   1      33.040  27.268  25.350  1.00  0.00     0.108 A 
ATOM     14  C   UNL A   1      30.894  27.184  24.241  1.00  0.00     0.049 A 
ATOM     15  C   UNL A   1      33.047  28.663  25.205  1.00  0.00     0.141 A 
ATOM     16  C   UNL A   1      30.982  28.567  24.148  1.00  0.00     0.113 A 
ATOM     17  N   UNL A   1      32.034  29.296  24.561  1.00  0.00    -0.262 NA
BRANCH  10  18
ATOM     18  C   UNL A   1      32.022  24.103  23.986  1.00  0.00     0.093 C 
ATOM     19  C   UNL A   1      31.058  22.147  25.398  1.00  0.00     0.010 C 
ATOM     20  C   UNL A   1      32.161  22.637  24.463  1.00  0.00     0.009 C 
ATOM     21  C   UNL A   1      32.152  21.823  23.166  1.00  0.00     0.005 C 
ATOM     22  C   UNL A   1      32.991  22.642  22.218  1.00  0.00     0.002 C 
ATOM     23  C   UNL A   1      32.829  24.074  22.692  1.00  0.00     0.026 C 
ENDBRANCH  10  18
ENDBRANCH   8   9
ENDBRANCH   7   8
ENDBRANCH   4   7
ENDBRANCH   2   3
ENDBRANCH   1   2
BRANCH   1  24
ATOM     24  C   UNL A   1      40.032  22.044  27.022  1.00  0.00     0.023 C 
BRANCH  24  25
ATOM     25  C   UNL A   1      41.288  21.246  26.668  1.00  0.00     0.116 C 
BRANCH  25  26
ATOM     26  N   UNL A   1      42.076  21.780  25.577  1.00  0.00    -0.352 N 
ATOM     27  C   UNL A   1      42.681  22.979  25.316  1.00  0.00     0.251 C 
ATOM     28  H   UNL A   1      42.207  21.127  24.852  1.00  0.00     0.163 HD
ATOM     29  O   UNL A   1      43.436  22.993  24.339  1.00  0.00    -0.269 OA
BRANCH  27  30
ATOM     30  C   UNL A   1      42.463  24.242  26.073  1.00  0.00     0.039 A 
ATOM     31  C   UNL A   1      42.793  24.452  27.410  1.00  0.00     0.014 A 
ATOM     32  C   UNL A   1      41.837  25.291  25.368  1.00  0.00     0.014 A 
ATOM     33  C   UNL A   1      42.429  25.634  28.048  1.00  0.00     0.010 A 
ATOM     34  C   UNL A   1      41.495  26.487  25.995  1.00  0.00     0.010 A 
ATOM     35  C   UNL A   1      41.761  26.645  27.349  1.00  0.00    -0.014 A 
BRANCH  35  36
ATOM     36  C   UNL A   1      41.503  27.895  28.064  1.00  0.00     0.031 A 
ATOM     37  C   UNL A   1      42.562  28.926  27.901  1.00  0.00     0.074 A 
ATOM     38  C   UNL A   1      40.386  28.188  28.758  1.00  0.00     0.049 A 
ATOM     39  N   UNL A   1      43.376  29.374  28.801  1.00  0.00    -0.248 NA
ATOM     40  C   UNL A   1      42.827  29.428  26.545  1.00  0.00     0.031 C 
ATOM     41  C   UNL A   1      39.132  27.435  28.791  1.00  0.00     0.029 A 
ATOM     42  N   UNL A   1      40.109  29.294  29.514  1.00  0.00    -0.354 N 
ATOM     43  C   UNL A   1      44.124  30.366  28.175  1.00  0.00     0.074 A 
ATOM     44  C   UNL A   1      43.859  30.243  26.763  1.00  0.00     0.031 C 
ATOM     45  C   UNL A   1      38.164  28.210  29.331  1.00  0.00     0.029 A 
ATOM     46  C   UNL A   1      38.764  29.441  29.820  1.00  0.00     0.049 A 
ATOM     47  H   UNL A   1      40.801  29.927  29.814  1.00  0.00     0.167 HD
ATOM     48  C   UNL A   1      44.725  31.361  28.882  1.00  0.00     0.031 A 
ATOM     49  C   UNL A   1      38.171  30.520  30.387  1.00  0.00     0.031 A 
ATOM     50  C   UNL A   1      44.781  31.063  30.287  1.00  0.00     0.049 A 
ATOM     51  C   UNL A   1      39.200  31.267  31.143  1.00  0.00     0.074 A 
ATOM     52  C   UNL A   1      45.436  30.150  31.084  1.00  0.00     0.029 A 
ATOM     53  N   UNL A   1      43.766  31.601  31.037  1.00  0.00    -0.354 N 
ATOM     54  N   UNL A   1      39.787  30.806  32.212  1.00  0.00    -0.248 NA
ATOM     55  C   UNL A   1      39.814  32.451  30.559  1.00  0.00     0.031 C 
ATOM     56  C   UNL A   1      44.585  29.941  32.207  1.00  0.00     0.029 A 
ATOM     57  C   UNL A   1      43.461  30.758  32.074  1.00  0.00     0.049 A 
ATOM     58  H   UNL A   1      43.323  32.462  30.857  1.00  0.00     0.167 HD
ATOM     59  C   UNL A   1      41.053  31.358  32.180  1.00  0.00     0.074 A 
ATOM     60  C   UNL A   1      40.949  32.483  31.262  1.00  0.00     0.031 C 
ATOM     61  C   UNL A   1      42.130  30.668  32.654  1.00  0.00     0.031 A 
BRANCH  48  62
ATOM     62  C   UNL A   1      44.878  32.778  28.373  1.00  0.00    -0.014 A 
ATOM     63  C   UNL A   1      43.784  33.580  27.990  1.00  0.00     0.010 A 
ATOM     64  C   UNL A   1      46.117  33.435  28.539  1.00  0.00     0.010 A 
ATOM     65  C   UNL A   1      43.911  34.953  27.770  1.00  0.00     0.020 A 
ATOM     66  C   UNL A   1      46.245  34.822  28.365  1.00  0.00     0.020 A 
ATOM     67  C   UNL A   1      45.138  35.569  27.973  1.00  0.00     0.054 A 
BRANCH  67  68
ATOM     68  S   UNL A   1      45.226  37.368  27.792  1.00  0.00     0.124 S 
ATOM     69  O   UNL A   1      45.366  37.799  29.181  1.00  0.00    -0.237 OA
ATOM     70  O   UNL A   1      46.410  37.539  26.956  1.00  0.00    -0.237 OA
ATOM     71  O   UNL A   1      43.958  37.711  27.156  1.00  0.00    -0.744 OA
ENDBRANCH  67  68
ENDBRANCH  48  62
BRANCH  49  72
ATOM     72  C   UNL A   1      36.857  31.119  30.046  1.00  0.00    -0.014 A 
ATOM     73  C   UNL A   1      36.568  31.458  28.709  1.00  0.00     0.010 A 
ATOM     74  C   UNL A   1      36.035  31.657  31.056  1.00  0.00     0.010 A 
ATOM     75  C   UNL A   1      35.565  32.379  28.397  1.00  0.00     0.020 A 
ATOM     76  C   UNL A   1      35.030  32.588  30.749  1.00  0.00     0.020 A 
ATOM     77  C   UNL A   1      34.834  32.974  29.422  1.00  0.00     0.054 A 
BRANCH  77  78
ATOM     78  S   UNL A   1      33.705  34.332  29.001  1.00  0.00     0.124 S 
ATOM     79  O   UNL A   1      32.793  33.680  28.056  1.00  0.00    -0.237 OA
ATOM     80  O   UNL A   1      33.114  34.662  30.302  1.00  0.00    -0.237 OA
ATOM     81  O   UNL A   1      34.570  35.349  28.437  1.00  0.00    -0.744 OA
ENDBRANCH  77  78
ENDBRANCH  49  72
BRANCH  61  82
ATOM     82  C   UNL A   1      41.899  29.579  33.675  1.00  0.00    -0.014 A 
ATOM     83  C   UNL A   1      42.151  29.901  35.021  1.00  0.00     0.010 A 
ATOM     84  C   UNL A   1      41.561  28.250  33.357  1.00  0.00     0.010 A 
ATOM     85  C   UNL A   1      42.090  28.928  36.020  1.00  0.00     0.020 A 
ATOM     86  C   UNL A   1      41.467  27.274  34.360  1.00  0.00     0.020 A 
ATOM     87  C   UNL A   1      41.753  27.617  35.684  1.00  0.00     0.054 A 
BRANCH  87  88
ATOM     88  S   UNL A   1      41.705  26.383  37.010  1.00  0.00     0.124 S 
ATOM     89  O   UNL A   1      41.786  25.129  36.264  1.00  0.00    -0.237 OA
ATOM     90  O   UNL A   1      42.890  26.714  37.799  1.00  0.00    -0.237 OA
ATOM     91  O   UNL A   1      40.430  26.630  37.678  1.00  0.00    -0.744 OA
ENDBRANCH  87  88
ENDBRANCH  61  82
ENDBRANCH  35  36
ENDBRANCH  27  30
ENDBRANCH  25  26
ENDBRANCH  24  25
ENDBRANCH   1  24
TORSDOF 17
ENDMDL
MODEL 2
REMARK VINA RESULT:     -11.8      2.196      3.422
REMARK SMILES C[C@H]1CCC[C@@H]1n1c(SCC(=O)NCCCCNC(=O)c2ccc(-c3c4nc(c(-c5ccc(S(=O)(=O)[O-])cc5)c5ccc([nH]5)c(-c5ccc(S(=O)(=O)[O-])cc5)c5nc(c(-c6ccc(S(=O)(=O)[O-])cc6)c6ccc3[nH]6)C=C5)C=C4)cc2)nc2cnccc21
REMARK SMILES IDX 15 1 14 2 13 3 11 4 12 5 10 7 9 8 8 9 7 10 87 11 81 12 82 13
REMARK SMILES IDX 86 14 83 15 85 16 84 17 6 18 1 19 2 20 3 21 4 22 5 23 16 24
REMARK SMILES IDX 17 25 18 26 19 27 20 29 21 30 22 31 80 32 23 33 79 34 24 35
REMARK SMILES IDX 25 36 26 37 73 38 27 39 78 40 72 41 74 42 28 43 77 44 71 45
REMARK SMILES IDX 70 46 29 48 59 49 40 50 58 51 41 52 44 53 57 54 75 55 42 56
REMARK SMILES IDX 43 57 56 59 76 60 45 61 30 62 31 63 39 64 32 65 38 66 33 67
REMARK SMILES IDX 34 68 35 69 36 70 37 71 60 72 61 73 69 74 62 75 68 76 63 77
REMARK SMILES IDX 64 78 65 79 66 80 67 81 46 82 47 83 55 84 48 85 54 86 49 87
REMARK SMILES IDX 50 88 51 89 52 90 53 91
REMARK H PARENT 13 6 18 28 74 47 44 58
REMARK Flexibility Score: inf
ROOT
ATOM      1  C   UNL A   1      34.724  21.271  25.033  1.00  0.00     0.023 C 
ENDROOT
BRANCH   1   2
ATOM      2  C   UNL A   1      33.483  22.129  24.850  1.00  0.00     0.116 C 
BRANCH   2   3
ATOM      3  N   UNL A   1      32.888  22.517  26.106  1.00  0.00    -0.355 N 
ATOM      4  C   UNL A   1      31.760  23.238  26.313  1.00  0.00     0.230 C 
ATOM      5  O   UNL A   1      31.173  23.026  27.381  1.00  0.00    -0.274 OA
ATOM      6  H   UNL A   1      33.362  22.220  26.916  1.00  0.00     0.163 HD
BRANCH   4   7
ATOM      7  C   UNL A   1      31.144  24.118  25.256  1.00  0.00     0.178 C 
BRANCH   7   8
ATOM      8  S   UNL A   1      30.251  25.628  25.598  1.00  0.00    -0.078 SA
BRANCH   8   9
ATOM      9  C   UNL A   1      29.951  26.745  24.302  1.00  0.00     0.169 A 
ATOM     10  N   UNL A   1      30.714  27.852  23.908  1.00  0.00    -0.315 N 
ATOM     11  C   UNL A   1      29.889  28.632  23.092  1.00  0.00     0.072 A 
ATOM     12  N   UNL A   1      28.696  26.895  23.929  1.00  0.00    -0.221 NA
ATOM     13  C   UNL A   1      28.617  28.087  23.262  1.00  0.00     0.108 A 
ATOM     14  C   UNL A   1      30.055  29.771  22.292  1.00  0.00     0.049 A 
ATOM     15  C   UNL A   1      27.498  28.785  22.785  1.00  0.00     0.141 A 
ATOM     16  C   UNL A   1      28.892  30.391  21.852  1.00  0.00     0.113 A 
ATOM     17  N   UNL A   1      27.647  29.960  22.122  1.00  0.00    -0.262 NA
BRANCH  10  18
ATOM     18  C   UNL A   1      31.984  28.280  24.503  1.00  0.00     0.093 C 
ATOM     19  C   UNL A   1      33.881  26.628  23.853  1.00  0.00     0.010 C 
ATOM     20  C   UNL A   1      33.017  27.222  24.962  1.00  0.00     0.009 C 
ATOM     21  C   UNL A   1      33.894  27.974  25.969  1.00  0.00     0.005 C 
ATOM     22  C   UNL A   1      32.914  28.810  26.752  1.00  0.00     0.002 C 
ATOM     23  C   UNL A   1      31.766  29.066  25.793  1.00  0.00     0.026 C 
ENDBRANCH  10  18
ENDBRANCH   8   9
ENDBRANCH   7   8
ENDBRANCH   4   7
ENDBRANCH   2   3
ENDBRANCH   1   2
BRANCH   1  24
ATOM     24  C   UNL A   1      35.829  21.849  25.928  1.00  0.00     0.023 C 
BRANCH  24  25
ATOM     25  C   UNL A   1      37.112  22.310  25.234  1.00  0.00     0.116 C 
BRANCH  25  26
ATOM     26  N   UNL A   1      38.297  21.539  25.544  1.00  0.00    -0.352 N 
ATOM     27  C   UNL A   1      39.426  21.754  26.286  1.00  0.00     0.251 C 
ATOM     28  H   UNL A   1      38.289  20.649  25.121  1.00  0.00     0.163 HD
ATOM     29  O   UNL A   1      40.142  20.765  26.466  1.00  0.00    -0.269 OA
BRANCH  27  30
ATOM     30  C   UNL A   1      39.865  23.067  26.834  1.00  0.00     0.039 A 
ATOM     31  C   UNL A   1      40.975  23.274  27.650  1.00  0.00     0.014 A 
ATOM     32  C   UNL A   1      39.055  24.177  26.516  1.00  0.00     0.014 A 
ATOM     33  C   UNL A   1      41.218  24.527  28.204  1.00  0.00     0.010 A 
ATOM     34  C   UNL A   1      39.309  25.440  27.047  1.00  0.00     0.010 A 
ATOM     35  C   UNL A   1      40.375  25.607  27.923  1.00  0.00    -0.014 A 
BRANCH  35  36
ATOM     36  C   UNL A   1      40.755  26.912  28.464  1.00  0.00     0.031 A 
ATOM     37  C   UNL A   1      42.065  27.421  27.977  1.00  0.00     0.074 A 
ATOM     38  C   UNL A   1      39.997  27.681  29.269  1.00  0.00     0.049 A 
ATOM     39  N   UNL A   1      43.153  27.583  28.656  1.00  0.00    -0.248 NA
ATOM     40  C   UNL A   1      42.213  27.662  26.533  1.00  0.00     0.031 C 
ATOM     41  C   UNL A   1      38.589  27.492  29.617  1.00  0.00     0.029 A 
ATOM     42  N   UNL A   1      40.315  28.865  29.877  1.00  0.00    -0.354 N 
ATOM     43  C   UNL A   1      44.071  28.141  27.772  1.00  0.00     0.074 A 
ATOM     44  C   UNL A   1      43.495  28.017  26.457  1.00  0.00     0.031 C 
ATOM     45  C   UNL A   1      38.113  28.629  30.174  1.00  0.00     0.029 A 
ATOM     46  C   UNL A   1      39.216  29.558  30.362  1.00  0.00     0.049 A 
ATOM     47  H   UNL A   1      41.239  29.194  29.961  1.00  0.00     0.167 HD
ATOM     48  C   UNL A   1      45.132  28.872  28.211  1.00  0.00     0.031 A 
ATOM     49  C   UNL A   1      39.199  30.827  30.839  1.00  0.00     0.031 A 
ATOM     50  C   UNL A   1      45.360  28.695  29.619  1.00  0.00     0.049 A 
ATOM     51  C   UNL A   1      40.565  31.165  31.297  1.00  0.00     0.074 A 
ATOM     52  C   UNL A   1      45.776  27.668  30.436  1.00  0.00     0.029 A 
ATOM     53  N   UNL A   1      44.797  29.652  30.425  1.00  0.00    -0.354 N 
ATOM     54  N   UNL A   1      41.142  30.600  32.319  1.00  0.00    -0.248 NA
ATOM     55  C   UNL A   1      41.441  31.956  30.445  1.00  0.00     0.031 C 
ATOM     56  C   UNL A   1      45.160  27.908  31.698  1.00  0.00     0.029 A 
ATOM     57  C   UNL A   1      44.420  29.089  31.616  1.00  0.00     0.049 A 
ATOM     58  H   UNL A   1      44.681  30.600  30.184  1.00  0.00     0.167 HD
ATOM     59  C   UNL A   1      42.487  30.601  32.003  1.00  0.00     0.074 A 
ATOM     60  C   UNL A   1      42.625  31.594  30.948  1.00  0.00     0.031 C 
ATOM     61  C   UNL A   1      43.302  29.583  32.404  1.00  0.00     0.031 A 
BRANCH  48  62
ATOM     62  C   UNL A   1      45.694  30.066  27.468  1.00  0.00    -0.014 A 
ATOM     63  C   UNL A   1      44.911  31.173  27.087  1.00  0.00     0.010 A 
ATOM     64  C   UNL A   1      47.096  30.222  27.386  1.00  0.00     0.010 A 
ATOM     65  C   UNL A   1      45.481  32.366  26.637  1.00  0.00     0.020 A 
ATOM     66  C   UNL A   1      47.679  31.432  26.980  1.00  0.00     0.020 A 
ATOM     67  C   UNL A   1      46.863  32.494  26.600  1.00  0.00     0.054 A 
BRANCH  67  68
ATOM     68  S   UNL A   1      47.555  34.097  26.124  1.00  0.00     0.124 S 
ATOM     69  O   UNL A   1      47.737  34.738  27.425  1.00  0.00    -0.237 OA
ATOM     70  O   UNL A   1      48.782  33.714  25.433  1.00  0.00    -0.237 OA
ATOM     71  O   UNL A   1      46.519  34.681  25.279  1.00  0.00    -0.744 OA
ENDBRANCH  67  68
ENDBRANCH  48  62
BRANCH  49  72
ATOM     72  C   UNL A   1      38.164  31.866  30.618  1.00  0.00    -0.014 A 
ATOM     73  C   UNL A   1      36.941  31.795  31.314  1.00  0.00     0.010 A 
ATOM     74  C   UNL A   1      38.238  32.721  29.501  1.00  0.00     0.010 A 
ATOM     75  C   UNL A   1      35.806  32.468  30.855  1.00  0.00     0.020 A 
ATOM     76  C   UNL A   1      37.099  33.395  29.030  1.00  0.00     0.020 A 
ATOM     77  C   UNL A   1      35.881  33.226  29.688  1.00  0.00     0.054 A 
BRANCH  77  78
ATOM     78  S   UNL A   1      34.342  33.893  28.993  1.00  0.00     0.124 S 
ATOM     79  O   UNL A   1      33.596  34.249  30.204  1.00  0.00    -0.237 OA
ATOM     80  O   UNL A   1      34.824  35.033  28.207  1.00  0.00    -0.237 OA
ATOM     81  O   UNL A   1      33.797  32.794  28.222  1.00  0.00    -0.744 OA
ENDBRANCH  77  78
ENDBRANCH  49  72
BRANCH  61  82
ATOM     82  C   UNL A   1      42.897  28.763  33.607  1.00  0.00    -0.014 A 
ATOM     83  C   UNL A   1      43.746  28.811  34.729  1.00  0.00     0.010 A 
ATOM     84  C   UNL A   1      41.800  27.883  33.636  1.00  0.00     0.010 A 
ATOM     85  C   UNL A   1      43.525  27.992  35.837  1.00  0.00     0.020 A 
ATOM     86  C   UNL A   1      41.554  27.079  34.760  1.00  0.00     0.020 A 
ATOM     87  C   UNL A   1      42.432  27.126  35.845  1.00  0.00     0.054 A 
BRANCH  87  88
ATOM     88  S   UNL A   1      42.195  26.067  37.296  1.00  0.00     0.124 S 
ATOM     89  O   UNL A   1      40.773  26.250  37.581  1.00  0.00    -0.237 OA
ATOM     90  O   UNL A   1      42.563  24.745  36.792  1.00  0.00    -0.237 OA
ATOM     91  O   UNL A   1      43.107  26.623  38.293  1.00  0.00    -0.744 OA
ENDBRANCH  87  88
ENDBRANCH  61  82
ENDBRANCH  35  36
ENDBRANCH  27  30
ENDBRANCH  25  26
ENDBRANCH  24  25
ENDBRANCH   1  24
TORSDOF 17
ENDMDL
MODEL 3
REMARK VINA RESULT:     -11.8      1.821      2.536
REMARK SMILES C[C@H]1CCC[C@@H]1n1c(SCC(=O)NCCCCNC(=O)c2ccc(-c3c4nc(c(-c5ccc(S(=O)(=O)[O-])cc5)c5ccc([nH]5)c(-c5ccc(S(=O)(=O)[O-])cc5)c5nc(c(-c6ccc(S(=O)(=O)[O-])cc6)c6ccc3[nH]6)C=C5)C=C4)cc2)nc2cnccc21
REMARK SMILES IDX 15 1 14 2 13 3 11 4 12 5 10 7 9 8 8 9 7 10 87 11 81 12 82 13
REMARK SMILES IDX 86 14 83 15 85 16 84 17 6 18 1 19 2 20 3 21 4 22 5 23 16 24
REMARK SMILES IDX 17 25 18 26 19 27 20 29 21 30 22 31 80 32 23 33 79 34 24 35
REMARK SMILES IDX 25 36 26 37 73 38 27 39 78 40 72 41 74 42 28 43 77 44 71 45
REMARK SMILES IDX 70 46 29 48 59 49 40 50 58 51 41 52 44 53 57 54 75 55 42 56
REMARK SMILES IDX 43 57 56 59 76 60 45 61 30 62 31 63 39 64 32 65 38 66 33 67
REMARK SMILES IDX 34 68 35 69 36 70 37 71 60 72 61 73 69 74 62 75 68 76 63 77
REMARK SMILES IDX 64 78 65 79 66 80 67 81 46 82 47 83 55 84 48 85 54 86 49 87
REMARK SMILES IDX 50 88 51 89 52 90 53 91
REMARK H PARENT 13 6 18 28 74 47 44 58
REMARK Flexibility Score: inf
ROOT
ATOM      1  C   UNL A   1      35.388  21.724  24.629  1.00  0.00     0.023 C 
ENDROOT
BRANCH   1   2
ATOM      2  C   UNL A   1      34.593  20.778  25.515  1.00  0.00     0.116 C 
BRANCH   2   3
ATOM      3  N   UNL A   1      34.318  21.340  26.816  1.00  0.00    -0.355 N 
ATOM      4  C   UNL A   1      33.347  22.218  27.162  1.00  0.00     0.230 C 
ATOM      5  O   UNL A   1      32.973  22.171  28.340  1.00  0.00    -0.274 OA
ATOM      6  H   UNL A   1      34.911  21.047  27.545  1.00  0.00     0.163 HD
BRANCH   4   7
ATOM      7  C   UNL A   1      32.632  23.086  26.159  1.00  0.00     0.178 C 
BRANCH   7   8
ATOM      8  S   UNL A   1      31.121  23.980  26.496  1.00  0.00    -0.078 SA
BRANCH   8   9
ATOM      9  C   UNL A   1      31.041  25.675  26.126  1.00  0.00     0.169 A 
ATOM     10  N   UNL A   1      31.368  26.325  24.928  1.00  0.00    -0.315 N 
ATOM     11  C   UNL A   1      31.500  27.682  25.238  1.00  0.00     0.072 A 
ATOM     12  N   UNL A   1      31.139  26.507  27.143  1.00  0.00    -0.221 NA
ATOM     13  C   UNL A   1      31.506  27.722  26.631  1.00  0.00     0.108 A 
ATOM     14  C   UNL A   1      31.688  28.864  24.508  1.00  0.00     0.049 A 
ATOM     15  C   UNL A   1      31.879  28.905  27.285  1.00  0.00     0.141 A 
ATOM     16  C   UNL A   1      32.042  29.990  25.239  1.00  0.00     0.113 A 
ATOM     17  N   UNL A   1      32.189  30.020  26.575  1.00  0.00    -0.262 NA
BRANCH  10  18
ATOM     18  C   UNL A   1      31.818  25.678  23.692  1.00  0.00     0.093 C 
ATOM     19  C   UNL A   1      34.355  25.136  23.835  1.00  0.00     0.010 C 
ATOM     20  C   UNL A   1      33.248  25.941  23.159  1.00  0.00     0.009 C 
ATOM     21  C   UNL A   1      33.163  25.576  21.674  1.00  0.00     0.005 C 
ATOM     22  C   UNL A   1      31.826  26.123  21.242  1.00  0.00     0.002 C 
ATOM     23  C   UNL A   1      30.971  26.099  22.495  1.00  0.00     0.026 C 
ENDBRANCH  10  18
ENDBRANCH   8   9
ENDBRANCH   7   8
ENDBRANCH   4   7
ENDBRANCH   2   3
ENDBRANCH   1   2
BRANCH   1  24
ATOM     24  C   UNL A   1      36.907  21.509  24.588  1.00  0.00     0.023 C 
BRANCH  24  25
ATOM     25  C   UNL A   1      37.725  22.133  25.720  1.00  0.00     0.116 C 
BRANCH  25  26
ATOM     26  N   UNL A   1      39.148  21.870  25.675  1.00  0.00    -0.352 N 
ATOM     27  C   UNL A   1      40.256  22.437  26.242  1.00  0.00     0.251 C 
ATOM     28  H   UNL A   1      39.371  21.101  25.101  1.00  0.00     0.163 HD
ATOM     29  O   UNL A   1      41.307  21.803  26.110  1.00  0.00    -0.269 OA
BRANCH  27  30
ATOM     30  C   UNL A   1      40.294  23.750  26.943  1.00  0.00     0.039 A 
ATOM     31  C   UNL A   1      39.305  24.730  26.881  1.00  0.00     0.014 A 
ATOM     32  C   UNL A   1      41.453  24.019  27.700  1.00  0.00     0.014 A 
ATOM     33  C   UNL A   1      39.506  25.971  27.478  1.00  0.00     0.010 A 
ATOM     34  C   UNL A   1      41.646  25.250  28.324  1.00  0.00     0.010 A 
ATOM     35  C   UNL A   1      40.684  26.243  28.182  1.00  0.00    -0.014 A 
BRANCH  35  36
ATOM     36  C   UNL A   1      40.774  27.533  28.865  1.00  0.00     0.031 A 
ATOM     37  C   UNL A   1      41.865  28.415  28.372  1.00  0.00     0.074 A 
ATOM     38  C   UNL A   1      39.925  27.985  29.808  1.00  0.00     0.049 A 
ATOM     39  N   UNL A   1      42.936  28.777  29.000  1.00  0.00    -0.248 NA
ATOM     40  C   UNL A   1      41.817  28.844  26.966  1.00  0.00     0.031 C 
ATOM     41  C   UNL A   1      38.646  27.400  30.211  1.00  0.00     0.029 A 
ATOM     42  N   UNL A   1      39.991  29.136  30.545  1.00  0.00    -0.354 N 
ATOM     43  C   UNL A   1      43.602  29.648  28.144  1.00  0.00     0.074 A 
ATOM     44  C   UNL A   1      42.957  29.525  26.860  1.00  0.00     0.031 C 
ATOM     45  C   UNL A   1      37.954  28.307  30.939  1.00  0.00     0.029 A 
ATOM     46  C   UNL A   1      38.802  29.462  31.181  1.00  0.00     0.049 A 
ATOM     47  H   UNL A   1      40.807  29.682  30.616  1.00  0.00     0.167 HD
ATOM     48  C   UNL A   1      44.481  30.575  28.610  1.00  0.00     0.031 A 
ATOM     49  C   UNL A   1      38.513  30.623  31.819  1.00  0.00     0.031 A 
ATOM     50  C   UNL A   1      44.874  30.308  29.967  1.00  0.00     0.049 A 
ATOM     51  C   UNL A   1      39.787  31.250  32.236  1.00  0.00     0.074 A 
ATOM     52  C   UNL A   1      45.605  29.338  30.617  1.00  0.00     0.029 A 
ATOM     53  N   UNL A   1      44.165  30.991  30.923  1.00  0.00    -0.354 N 
ATOM     54  N   UNL A   1      40.578  30.744  33.139  1.00  0.00    -0.248 NA
ATOM     55  C   UNL A   1      40.357  32.330  31.444  1.00  0.00     0.031 C 
ATOM     56  C   UNL A   1      45.066  29.269  31.934  1.00  0.00     0.029 A 
ATOM     57  C   UNL A   1      44.050  30.221  32.051  1.00  0.00     0.049 A 
ATOM     58  H   UNL A   1      43.795  31.897  30.815  1.00  0.00     0.167 HD
ATOM     59  C   UNL A   1      41.845  31.128  32.746  1.00  0.00     0.074 A 
ATOM     60  C   UNL A   1      41.634  32.234  31.823  1.00  0.00     0.031 C 
ATOM     61  C   UNL A   1      42.922  30.317  32.962  1.00  0.00     0.031 A 
BRANCH  48  62
ATOM     62  C   UNL A   1      44.658  31.948  27.997  1.00  0.00    -0.014 A 
ATOM     63  C   UNL A   1      43.854  33.053  28.341  1.00  0.00     0.010 A 
ATOM     64  C   UNL A   1      45.833  32.222  27.262  1.00  0.00     0.010 A 
ATOM     65  C   UNL A   1      44.186  34.357  27.967  1.00  0.00     0.020 A 
ATOM     66  C   UNL A   1      46.199  33.534  26.922  1.00  0.00     0.020 A 
ATOM     67  C   UNL A   1      45.364  34.592  27.273  1.00  0.00     0.054 A 
BRANCH  67  68
ATOM     68  S   UNL A   1      45.812  36.309  26.915  1.00  0.00     0.124 S 
ATOM     69  O   UNL A   1      46.713  36.149  25.776  1.00  0.00    -0.237 OA
ATOM     70  O   UNL A   1      44.518  36.912  26.615  1.00  0.00    -0.237 OA
ATOM     71  O   UNL A   1      46.441  36.764  28.150  1.00  0.00    -0.744 OA
ENDBRANCH  67  68
ENDBRANCH  48  62
BRANCH  49  72
ATOM     72  C   UNL A   1      37.235  31.376  31.798  1.00  0.00    -0.014 A 
ATOM     73  C   UNL A   1      36.910  32.172  30.682  1.00  0.00     0.010 A 
ATOM     74  C   UNL A   1      36.507  31.578  32.987  1.00  0.00     0.010 A 
ATOM     75  C   UNL A   1      35.969  33.201  30.776  1.00  0.00     0.020 A 
ATOM     76  C   UNL A   1      35.565  32.614  33.090  1.00  0.00     0.020 A 
ATOM     77  C   UNL A   1      35.336  33.445  31.993  1.00  0.00     0.054 A 
BRANCH  77  78
ATOM     78  S   UNL A   1      34.298  34.927  32.142  1.00  0.00     0.124 S 
ATOM     79  O   UNL A   1      33.157  34.418  32.908  1.00  0.00    -0.237 OA
ATOM     80  O   UNL A   1      35.173  35.848  32.875  1.00  0.00    -0.237 OA
ATOM     81  O   UNL A   1      34.016  35.301  30.770  1.00  0.00    -0.744 OA
ENDBRANCH  77  78
ENDBRANCH  49  72
BRANCH  61  82
ATOM     82  C   UNL A   1      42.845  29.293  34.070  1.00  0.00    -0.014 A 
ATOM     83  C   UNL A   1      42.283  28.043  33.747  1.00  0.00     0.010 A 
ATOM     84  C   UNL A   1      43.191  29.544  35.410  1.00  0.00     0.010 A 
ATOM     85  C   UNL A   1      42.052  27.080  34.730  1.00  0.00     0.020 A 
ATOM     86  C   UNL A   1      42.991  28.568  36.399  1.00  0.00     0.020 A 
ATOM     87  C   UNL A   1      42.403  27.349  36.053  1.00  0.00     0.054 A 
BRANCH  87  88
ATOM     88  S   UNL A   1      42.067  26.078  37.300  1.00  0.00     0.124 S 
ATOM     89  O   UNL A   1      43.095  26.351  38.301  1.00  0.00    -0.237 OA
ATOM     90  O   UNL A   1      40.700  26.386  37.712  1.00  0.00    -0.237 OA
ATOM     91  O   UNL A   1      42.223  24.820  36.573  1.00  0.00    -0.744 OA
ENDBRANCH  87  88
ENDBRANCH  61  82
ENDBRANCH  35  36
ENDBRANCH  27  30
ENDBRANCH  25  26
ENDBRANCH  24  25
ENDBRANCH   1  24
TORSDOF 17
ENDMDL
