MODEL 1
REMARK VINA RESULT:     -11.2      0.000      0.000
REMARK SMILES CCOc1ccc(C(=O)NNC(=O)[C@H]2CC=CC[C@H]2C(=O)NCCCCNC(=O)c2ccc(-c3c4nc(c(-c5ccc(S(=O)(=O)[O-])cc5)c5ccc([nH]5)c(-c5ccc(S(=O)(=O)[O-])cc5)c5nc(c(-c6ccc(S(=O)(=O)[O-])cc6)c6ccc3[nH]6)C=C5)C=C4)cc2)cc1
REMARK SMILES IDX 23 1 22 2 20 3 21 4 19 6 14 7 15 8 16 9 18 10 17 11 12 12
REMARK SMILES IDX 11 13 13 15 10 16 8 17 9 18 7 20 4 21 5 22 91 23 6 24 90 25
REMARK SMILES IDX 3 26 2 27 1 28 24 29 25 30 26 31 27 32 28 33 29 35 30 36
REMARK SMILES IDX 31 37 89 38 32 39 88 40 33 41 34 42 35 43 82 44 36 45 87 46
REMARK SMILES IDX 81 47 83 48 37 49 86 50 80 51 79 52 38 54 68 55 49 56 67 57
REMARK SMILES IDX 50 58 53 59 66 60 84 61 51 62 52 63 65 65 85 66 54 67 39 68
REMARK SMILES IDX 40 69 48 70 41 71 47 72 42 73 43 74 44 75 45 76 46 77 69 78
REMARK SMILES IDX 70 79 78 80 71 81 77 82 72 83 73 84 74 85 75 86 76 87 55 88
REMARK SMILES IDX 56 89 64 90 57 91 63 92 58 93 59 94 60 95 61 96 62 97
REMARK H PARENT 22 5 11 14 10 19 27 34 83 53 53 64
REMARK Flexibility Score: inf
ROOT
ATOM      1  C   UNL A   1      32.952  30.403  26.616  1.00  0.00     0.116 C 
ENDROOT
BRANCH   1   2
ATOM      2  N   UNL A   1      33.382  29.794  25.374  1.00  0.00    -0.356 N 
ATOM      3  C   UNL A   1      33.038  28.626  24.775  1.00  0.00     0.224 C 
ATOM      4  O   UNL A   1      33.582  28.363  23.699  1.00  0.00    -0.275 OA
ATOM      5  H   UNL A   1      34.042  30.325  24.874  1.00  0.00     0.163 HD
BRANCH   3   6
ATOM      6  C   UNL A   1      32.016  27.656  25.358  1.00  0.00     0.095 C 
ATOM      7  C   UNL A   1      30.896  27.218  24.388  1.00  0.00     0.097 C 
ATOM      8  C   UNL A   1      29.929  26.229  25.052  1.00  0.00     0.041 C 
ATOM      9  C   UNL A   1      30.618  25.156  25.838  1.00  0.00    -0.030 C 
ATOM     10  C   UNL A   1      32.647  26.563  26.238  1.00  0.00     0.041 C 
ATOM     11  C   UNL A   1      31.840  25.308  26.359  1.00  0.00    -0.030 C 
BRANCH   7  12
ATOM     12  C   UNL A   1      31.317  26.802  22.979  1.00  0.00     0.242 C 
ATOM     13  N   UNL A   1      32.338  25.872  22.859  1.00  0.00    -0.267 N 
ATOM     14  H   UNL A   1      33.283  26.096  23.018  1.00  0.00     0.191 HD
ATOM     15  O   UNL A   1      30.752  27.254  21.985  1.00  0.00    -0.273 OA
BRANCH  13  16
ATOM     16  N   UNL A   1      31.910  24.581  22.488  1.00  0.00    -0.263 N 
ATOM     17  C   UNL A   1      32.327  23.351  22.952  1.00  0.00     0.269 C 
ATOM     18  O   UNL A   1      31.604  22.382  22.701  1.00  0.00    -0.267 OA
ATOM     19  H   UNL A   1      31.210  24.553  21.796  1.00  0.00     0.191 HD
BRANCH  17  20
ATOM     20  C   UNL A   1      33.584  23.110  23.716  1.00  0.00     0.041 A 
ATOM     21  C   UNL A   1      35.855  22.326  25.183  1.00  0.00     0.119 A 
ATOM     22  C   UNL A   1      34.588  22.069  25.690  1.00  0.00     0.047 A 
ATOM     23  C   UNL A   1      35.998  22.939  23.938  1.00  0.00     0.047 A 
ATOM     24  C   UNL A   1      33.460  22.470  24.965  1.00  0.00     0.018 A 
ATOM     25  C   UNL A   1      34.867  23.314  23.198  1.00  0.00     0.018 A 
BRANCH  21  26
ATOM     26  O   UNL A   1      36.940  21.788  25.818  1.00  0.00    -0.494 OA
BRANCH  26  27
ATOM     27  C   UNL A   1      37.862  21.147  24.930  1.00  0.00     0.226 C 
ATOM     28  C   UNL A   1      37.672  19.642  24.919  1.00  0.00     0.049 C 
ENDBRANCH  26  27
ENDBRANCH  21  26
ENDBRANCH  17  20
ENDBRANCH  13  16
ENDBRANCH   7  12
ENDBRANCH   3   6
ENDBRANCH   1   2
BRANCH   1  29
ATOM     29  C   UNL A   1      31.616  31.125  26.476  1.00  0.00     0.023 C 
BRANCH  29  30
ATOM     30  C   UNL A   1      31.631  32.597  26.860  1.00  0.00     0.023 C 
BRANCH  30  31
ATOM     31  C   UNL A   1      32.950  33.071  27.447  1.00  0.00     0.116 C 
BRANCH  31  32
ATOM     32  N   UNL A   1      32.861  34.413  28.010  1.00  0.00    -0.352 N 
ATOM     33  C   UNL A   1      33.570  34.968  29.049  1.00  0.00     0.251 C 
ATOM     34  H   UNL A   1      32.199  35.006  27.586  1.00  0.00     0.163 HD
ATOM     35  O   UNL A   1      33.266  36.065  29.487  1.00  0.00    -0.269 OA
BRANCH  33  36
ATOM     36  C   UNL A   1      34.694  34.213  29.630  1.00  0.00     0.039 A 
ATOM     37  C   UNL A   1      35.989  34.458  29.172  1.00  0.00     0.014 A 
ATOM     38  C   UNL A   1      34.459  33.290  30.650  1.00  0.00     0.014 A 
ATOM     39  C   UNL A   1      37.061  33.814  29.788  1.00  0.00     0.010 A 
ATOM     40  C   UNL A   1      35.530  32.731  31.328  1.00  0.00     0.010 A 
ATOM     41  C   UNL A   1      36.841  32.976  30.895  1.00  0.00    -0.014 A 
BRANCH  41  42
ATOM     42  C   UNL A   1      37.967  32.333  31.610  1.00  0.00     0.031 A 
ATOM     43  C   UNL A   1      38.403  32.866  32.948  1.00  0.00     0.074 A 
ATOM     44  C   UNL A   1      38.630  31.315  31.025  1.00  0.00     0.049 A 
ATOM     45  N   UNL A   1      39.398  32.479  33.703  1.00  0.00    -0.248 NA
ATOM     46  C   UNL A   1      37.643  34.004  33.495  1.00  0.00     0.031 C 
ATOM     47  C   UNL A   1      38.329  30.755  29.704  1.00  0.00     0.029 A 
ATOM     48  N   UNL A   1      39.696  30.574  31.464  1.00  0.00    -0.354 N 
ATOM     49  C   UNL A   1      39.389  33.331  34.802  1.00  0.00     0.074 A 
ATOM     50  C   UNL A   1      38.335  34.295  34.586  1.00  0.00     0.031 C 
ATOM     51  C   UNL A   1      39.167  29.736  29.458  1.00  0.00     0.029 A 
ATOM     52  C   UNL A   1      40.091  29.600  30.577  1.00  0.00     0.049 A 
ATOM     53  H   UNL A   1      40.136  30.724  32.331  1.00  0.00     0.167 HD
ATOM     54  C   UNL A   1      40.171  33.294  35.906  1.00  0.00     0.031 A 
ATOM     55  C   UNL A   1      41.092  28.702  30.658  1.00  0.00     0.031 A 
ATOM     56  C   UNL A   1      41.211  32.322  36.115  1.00  0.00     0.049 A 
ATOM     57  C   UNL A   1      41.947  28.683  31.894  1.00  0.00     0.074 A 
ATOM     58  C   UNL A   1      42.030  32.163  37.218  1.00  0.00     0.029 A 
ATOM     59  N   UNL A   1      41.570  31.341  35.203  1.00  0.00    -0.354 N 
ATOM     60  N   UNL A   1      41.881  29.453  32.954  1.00  0.00    -0.248 NA
ATOM     61  C   UNL A   1      43.002  27.662  31.953  1.00  0.00     0.031 C 
ATOM     62  C   UNL A   1      42.921  31.119  36.950  1.00  0.00     0.029 A 
ATOM     63  C   UNL A   1      42.614  30.586  35.708  1.00  0.00     0.049 A 
ATOM     64  H   UNL A   1      41.145  31.202  34.326  1.00  0.00     0.167 HD
ATOM     65  C   UNL A   1      42.871  28.997  33.816  1.00  0.00     0.074 A 
ATOM     66  C   UNL A   1      43.502  27.868  33.164  1.00  0.00     0.031 C 
ATOM     67  C   UNL A   1      43.231  29.470  35.036  1.00  0.00     0.031 A 
BRANCH  54  68
ATOM     68  C   UNL A   1      39.927  34.332  36.970  1.00  0.00    -0.014 A 
ATOM     69  C   UNL A   1      40.412  35.646  36.825  1.00  0.00     0.010 A 
ATOM     70  C   UNL A   1      39.167  34.006  38.107  1.00  0.00     0.010 A 
ATOM     71  C   UNL A   1      40.171  36.603  37.814  1.00  0.00     0.020 A 
ATOM     72  C   UNL A   1      38.898  34.970  39.084  1.00  0.00     0.020 A 
ATOM     73  C   UNL A   1      39.414  36.259  38.937  1.00  0.00     0.054 A 
BRANCH  73  74
ATOM     74  S   UNL A   1      39.086  37.536  40.184  1.00  0.00     0.124 S 
ATOM     75  O   UNL A   1      38.524  36.749  41.279  1.00  0.00    -0.237 OA
ATOM     76  O   UNL A   1      40.413  38.093  40.426  1.00  0.00    -0.237 OA
ATOM     77  O   UNL A   1      38.146  38.436  39.519  1.00  0.00    -0.744 OA
ENDBRANCH  73  74
ENDBRANCH  54  68
BRANCH  55  78
ATOM     78  C   UNL A   1      41.329  27.745  29.541  1.00  0.00    -0.014 A 
ATOM     79  C   UNL A   1      40.477  26.645  29.344  1.00  0.00     0.010 A 
ATOM     80  C   UNL A   1      42.410  27.936  28.660  1.00  0.00     0.010 A 
ATOM     81  C   UNL A   1      40.716  25.738  28.308  1.00  0.00     0.020 A 
ATOM     82  C   UNL A   1      42.633  27.051  27.601  1.00  0.00     0.020 A 
ATOM     83  C   UNL A   1      41.792  25.948  27.441  1.00  0.00     0.054 A 
BRANCH  83  84
ATOM     84  S   UNL A   1      42.061  24.779  26.079  1.00  0.00     0.124 S 
ATOM     85  O   UNL A   1      42.163  25.672  24.930  1.00  0.00    -0.237 OA
ATOM     86  O   UNL A   1      43.298  24.112  26.476  1.00  0.00    -0.237 OA
ATOM     87  O   UNL A   1      40.868  23.935  26.114  1.00  0.00    -0.744 OA
ENDBRANCH  83  84
ENDBRANCH  55  78
BRANCH  67  88
ATOM     88  C   UNL A   1      44.340  28.747  35.752  1.00  0.00    -0.014 A 
ATOM     89  C   UNL A   1      45.689  28.977  35.427  1.00  0.00     0.010 A 
ATOM     90  C   UNL A   1      44.027  27.852  36.792  1.00  0.00     0.010 A 
ATOM     91  C   UNL A   1      46.702  28.291  36.099  1.00  0.00     0.020 A 
ATOM     92  C   UNL A   1      45.039  27.189  37.488  1.00  0.00     0.020 A 
ATOM     93  C   UNL A   1      46.370  27.399  37.124  1.00  0.00     0.054 A 
BRANCH  93  94
ATOM     94  S   UNL A   1      47.706  26.539  37.998  1.00  0.00     0.124 S 
ATOM     95  O   UNL A   1      47.742  25.254  37.307  1.00  0.00    -0.237 OA
ATOM     96  O   UNL A   1      48.854  27.413  37.765  1.00  0.00    -0.237 OA
ATOM     97  O   UNL A   1      47.239  26.490  39.382  1.00  0.00    -0.744 OA
ENDBRANCH  93  94
ENDBRANCH  67  88
ENDBRANCH  41  42
ENDBRANCH  33  36
ENDBRANCH  31  32
ENDBRANCH  30  31
ENDBRANCH  29  30
ENDBRANCH   1  29
TORSDOF 19
ENDMDL
MODEL 2
REMARK VINA RESULT:     -11.0      0.714      8.013
REMARK SMILES CCOc1ccc(C(=O)NNC(=O)[C@H]2CC=CC[C@H]2C(=O)NCCCCNC(=O)c2ccc(-c3c4nc(c(-c5ccc(S(=O)(=O)[O-])cc5)c5ccc([nH]5)c(-c5ccc(S(=O)(=O)[O-])cc5)c5nc(c(-c6ccc(S(=O)(=O)[O-])cc6)c6ccc3[nH]6)C=C5)C=C4)cc2)cc1
REMARK SMILES IDX 23 1 22 2 20 3 21 4 19 6 14 7 15 8 16 9 18 10 17 11 12 12
REMARK SMILES IDX 11 13 13 15 10 16 8 17 9 18 7 20 4 21 5 22 91 23 6 24 90 25
REMARK SMILES IDX 3 26 2 27 1 28 24 29 25 30 26 31 27 32 28 33 29 35 30 36
REMARK SMILES IDX 31 37 89 38 32 39 88 40 33 41 34 42 35 43 82 44 36 45 87 46
REMARK SMILES IDX 81 47 83 48 37 49 86 50 80 51 79 52 38 54 68 55 49 56 67 57
REMARK SMILES IDX 50 58 53 59 66 60 84 61 51 62 52 63 65 65 85 66 54 67 39 68
REMARK SMILES IDX 40 69 48 70 41 71 47 72 42 73 43 74 44 75 45 76 46 77 69 78
REMARK SMILES IDX 70 79 78 80 71 81 77 82 72 83 73 84 74 85 75 86 76 87 55 88
REMARK SMILES IDX 56 89 64 90 57 91 63 92 58 93 59 94 60 95 61 96 62 97
REMARK H PARENT 22 5 11 14 10 19 27 34 83 53 53 64
REMARK Flexibility Score: inf
ROOT
ATOM      1  C   UNL A   1      33.590  29.934  26.553  1.00  0.00     0.116 C 
ENDROOT
BRANCH   1   2
ATOM      2  N   UNL A   1      33.895  29.271  25.303  1.00  0.00    -0.356 N 
ATOM      3  C   UNL A   1      33.572  28.039  24.832  1.00  0.00     0.224 C 
ATOM      4  O   UNL A   1      33.983  27.740  23.707  1.00  0.00    -0.275 OA
ATOM      5  H   UNL A   1      34.433  29.811  24.681  1.00  0.00     0.163 HD
BRANCH   3   6
ATOM      6  C   UNL A   1      32.727  27.040  25.615  1.00  0.00     0.095 C 
ATOM      7  C   UNL A   1      31.319  26.773  25.035  1.00  0.00     0.097 C 
ATOM      8  C   UNL A   1      30.550  25.742  25.873  1.00  0.00     0.041 C 
ATOM      9  C   UNL A   1      31.374  24.552  26.259  1.00  0.00    -0.030 C 
ATOM     10  C   UNL A   1      33.525  25.820  26.106  1.00  0.00     0.041 C 
ATOM     11  C   UNL A   1      32.708  24.590  26.352  1.00  0.00    -0.030 C 
BRANCH   7  12
ATOM     12  C   UNL A   1      31.220  26.528  23.530  1.00  0.00     0.242 C 
ATOM     13  N   UNL A   1      32.192  25.736  22.940  1.00  0.00    -0.267 N 
ATOM     14  H   UNL A   1      33.109  26.054  22.774  1.00  0.00     0.191 HD
ATOM     15  O   UNL A   1      30.294  26.992  22.868  1.00  0.00    -0.273 OA
BRANCH  13  16
ATOM     16  N   UNL A   1      31.760  24.439  22.595  1.00  0.00    -0.263 N 
ATOM     17  C   UNL A   1      32.307  23.216  22.919  1.00  0.00     0.269 C 
ATOM     18  O   UNL A   1      31.593  22.221  22.761  1.00  0.00    -0.267 OA
ATOM     19  H   UNL A   1      30.946  24.401  22.042  1.00  0.00     0.191 HD
BRANCH  17  20
ATOM     20  C   UNL A   1      33.693  23.011  23.428  1.00  0.00     0.041 A 
ATOM     21  C   UNL A   1      36.268  22.291  24.309  1.00  0.00     0.119 A 
ATOM     22  C   UNL A   1      35.157  21.630  24.820  1.00  0.00     0.047 A 
ATOM     23  C   UNL A   1      36.107  23.281  23.342  1.00  0.00     0.047 A 
ATOM     24  C   UNL A   1      33.877  21.997  24.389  1.00  0.00     0.018 A 
ATOM     25  C   UNL A   1      34.825  23.629  22.888  1.00  0.00     0.018 A 
BRANCH  21  26
ATOM     26  O   UNL A   1      37.513  21.816  24.613  1.00  0.00    -0.494 OA
BRANCH  26  27
ATOM     27  C   UNL A   1      37.493  20.640  25.430  1.00  0.00     0.226 C 
ATOM     28  C   UNL A   1      38.276  19.506  24.795  1.00  0.00     0.049 C 
ENDBRANCH  26  27
ENDBRANCH  21  26
ENDBRANCH  17  20
ENDBRANCH  13  16
ENDBRANCH   7  12
ENDBRANCH   3   6
ENDBRANCH   1   2
BRANCH   1  29
ATOM     29  C   UNL A   1      32.119  30.321  26.661  1.00  0.00     0.023 C 
BRANCH  29  30
ATOM     30  C   UNL A   1      31.854  31.798  26.906  1.00  0.00     0.023 C 
BRANCH  30  31
ATOM     31  C   UNL A   1      33.007  32.536  27.563  1.00  0.00     0.116 C 
BRANCH  31  32
ATOM     32  N   UNL A   1      32.717  33.947  27.782  1.00  0.00    -0.352 N 
ATOM     33  C   UNL A   1      33.249  34.810  28.710  1.00  0.00     0.251 C 
ATOM     34  H   UNL A   1      32.043  34.339  27.180  1.00  0.00     0.163 HD
ATOM     35  O   UNL A   1      32.785  35.930  28.851  1.00  0.00    -0.269 OA
BRANCH  33  36
ATOM     36  C   UNL A   1      34.381  34.358  29.538  1.00  0.00     0.039 A 
ATOM     37  C   UNL A   1      34.127  33.762  30.774  1.00  0.00     0.014 A 
ATOM     38  C   UNL A   1      35.688  34.500  29.068  1.00  0.00     0.014 A 
ATOM     39  C   UNL A   1      35.192  33.248  31.512  1.00  0.00     0.010 A 
ATOM     40  C   UNL A   1      36.731  33.898  29.753  1.00  0.00     0.010 A 
ATOM     41  C   UNL A   1      36.495  33.279  30.989  1.00  0.00    -0.014 A 
BRANCH  41  42
ATOM     42  C   UNL A   1      37.635  32.680  31.722  1.00  0.00     0.031 A 
ATOM     43  C   UNL A   1      38.323  31.463  31.168  1.00  0.00     0.074 A 
ATOM     44  C   UNL A   1      38.002  33.197  32.913  1.00  0.00     0.049 A 
ATOM     45  N   UNL A   1      39.298  30.762  31.685  1.00  0.00    -0.248 NA
ATOM     46  C   UNL A   1      37.831  30.946  29.878  1.00  0.00     0.031 C 
ATOM     47  C   UNL A   1      37.367  34.341  33.573  1.00  0.00     0.029 A 
ATOM     48  N   UNL A   1      38.996  32.824  33.779  1.00  0.00    -0.354 N 
ATOM     49  C   UNL A   1      39.524  29.719  30.794  1.00  0.00     0.074 A 
ATOM     50  C   UNL A   1      38.545  29.840  29.738  1.00  0.00     0.031 C 
ATOM     51  C   UNL A   1      38.011  34.598  34.723  1.00  0.00     0.029 A 
ATOM     52  C   UNL A   1      39.071  33.613  34.904  1.00  0.00     0.049 A 
ATOM     53  H   UNL A   1      39.599  32.065  33.613  1.00  0.00     0.167 HD
ATOM     54  C   UNL A   1      40.482  28.763  30.837  1.00  0.00     0.031 A 
ATOM     55  C   UNL A   1      39.898  33.543  35.965  1.00  0.00     0.031 A 
ATOM     56  C   UNL A   1      41.459  28.660  31.887  1.00  0.00     0.049 A 
ATOM     57  C   UNL A   1      40.952  32.471  35.988  1.00  0.00     0.074 A 
ATOM     58  C   UNL A   1      42.504  27.761  32.004  1.00  0.00     0.029 A 
ATOM     59  N   UNL A   1      41.513  29.486  32.999  1.00  0.00    -0.354 N 
ATOM     60  N   UNL A   1      41.195  31.534  35.103  1.00  0.00    -0.248 NA
ATOM     61  C   UNL A   1      41.855  32.457  37.147  1.00  0.00     0.031 C 
ATOM     62  C   UNL A   1      43.158  28.012  33.215  1.00  0.00     0.029 A 
ATOM     63  C   UNL A   1      42.561  29.105  33.820  1.00  0.00     0.049 A 
ATOM     64  H   UNL A   1      40.898  30.234  33.179  1.00  0.00     0.167 HD
ATOM     65  C   UNL A   1      42.293  30.832  35.587  1.00  0.00     0.074 A 
ATOM     66  C   UNL A   1      42.681  31.470  36.828  1.00  0.00     0.031 C 
ATOM     67  C   UNL A   1      42.922  29.753  35.056  1.00  0.00     0.031 A 
BRANCH  54  68
ATOM     68  C   UNL A   1      40.519  27.761  29.713  1.00  0.00    -0.014 A 
ATOM     69  C   UNL A   1      41.554  27.780  28.759  1.00  0.00     0.010 A 
ATOM     70  C   UNL A   1      39.534  26.760  29.631  1.00  0.00     0.010 A 
ATOM     71  C   UNL A   1      41.584  26.840  27.726  1.00  0.00     0.020 A 
ATOM     72  C   UNL A   1      39.578  25.798  28.617  1.00  0.00     0.020 A 
ATOM     73  C   UNL A   1      40.596  25.854  27.663  1.00  0.00     0.054 A 
BRANCH  73  74
ATOM     74  S   UNL A   1      40.685  24.623  26.333  1.00  0.00     0.124 S 
ATOM     75  O   UNL A   1      39.344  24.045  26.367  1.00  0.00    -0.237 OA
ATOM     76  O   UNL A   1      40.987  25.441  25.162  1.00  0.00    -0.237 OA
ATOM     77  O   UNL A   1      41.759  23.728  26.759  1.00  0.00    -0.744 OA
ENDBRANCH  73  74
ENDBRANCH  54  68
BRANCH  55  78
ATOM     78  C   UNL A   1      39.767  34.521  37.080  1.00  0.00    -0.014 A 
ATOM     79  C   UNL A   1      38.942  34.247  38.184  1.00  0.00     0.010 A 
ATOM     80  C   UNL A   1      40.478  35.736  37.046  1.00  0.00     0.010 A 
ATOM     81  C   UNL A   1      38.807  35.178  39.218  1.00  0.00     0.020 A 
ATOM     82  C   UNL A   1      40.372  36.655  38.093  1.00  0.00     0.020 A 
ATOM     83  C   UNL A   1      39.524  36.376  39.167  1.00  0.00     0.054 A 
BRANCH  83  84
ATOM     84  S   UNL A   1      39.363  37.553  40.539  1.00  0.00     0.124 S 
ATOM     85  O   UNL A   1      38.271  38.405  40.079  1.00  0.00    -0.237 OA
ATOM     86  O   UNL A   1      39.054  36.680  41.667  1.00  0.00    -0.237 OA
ATOM     87  O   UNL A   1      40.675  38.193  40.596  1.00  0.00    -0.744 OA
ENDBRANCH  83  84
ENDBRANCH  55  78
BRANCH  67  88
ATOM     88  C   UNL A   1      44.113  29.216  35.805  1.00  0.00    -0.014 A 
ATOM     89  C   UNL A   1      43.972  28.196  36.762  1.00  0.00     0.010 A 
ATOM     90  C   UNL A   1      45.396  29.717  35.519  1.00  0.00     0.010 A 
ATOM     91  C   UNL A   1      45.087  27.717  37.451  1.00  0.00     0.020 A 
ATOM     92  C   UNL A   1      46.518  29.218  36.182  1.00  0.00     0.020 A 
ATOM     93  C   UNL A   1      46.354  28.233  37.158  1.00  0.00     0.054 A 
BRANCH  93  94
ATOM     94  S   UNL A   1      47.790  27.576  38.048  1.00  0.00     0.124 S 
ATOM     95  O   UNL A   1      47.249  27.373  39.389  1.00  0.00    -0.237 OA
ATOM     96  O   UNL A   1      48.099  26.357  37.303  1.00  0.00    -0.237 OA
ATOM     97  O   UNL A   1      48.786  28.639  37.933  1.00  0.00    -0.744 OA
ENDBRANCH  93  94
ENDBRANCH  67  88
ENDBRANCH  41  42
ENDBRANCH  33  36
ENDBRANCH  31  32
ENDBRANCH  30  31
ENDBRANCH  29  30
ENDBRANCH   1  29
TORSDOF 19
ENDMDL
MODEL 3
REMARK VINA RESULT:     -10.6      2.203      8.700
REMARK SMILES CCOc1ccc(C(=O)NNC(=O)[C@H]2CC=CC[C@H]2C(=O)NCCCCNC(=O)c2ccc(-c3c4nc(c(-c5ccc(S(=O)(=O)[O-])cc5)c5ccc([nH]5)c(-c5ccc(S(=O)(=O)[O-])cc5)c5nc(c(-c6ccc(S(=O)(=O)[O-])cc6)c6ccc3[nH]6)C=C5)C=C4)cc2)cc1
REMARK SMILES IDX 23 1 22 2 20 3 21 4 19 6 14 7 15 8 16 9 18 10 17 11 12 12
REMARK SMILES IDX 11 13 13 15 10 16 8 17 9 18 7 20 4 21 5 22 91 23 6 24 90 25
REMARK SMILES IDX 3 26 2 27 1 28 24 29 25 30 26 31 27 32 28 33 29 35 30 36
REMARK SMILES IDX 31 37 89 38 32 39 88 40 33 41 34 42 35 43 82 44 36 45 87 46
REMARK SMILES IDX 81 47 83 48 37 49 86 50 80 51 79 52 38 54 68 55 49 56 67 57
REMARK SMILES IDX 50 58 53 59 66 60 84 61 51 62 52 63 65 65 85 66 54 67 39 68
REMARK SMILES IDX 40 69 48 70 41 71 47 72 42 73 43 74 44 75 45 76 46 77 69 78
REMARK SMILES IDX 70 79 78 80 71 81 77 82 72 83 73 84 74 85 75 86 76 87 55 88
REMARK SMILES IDX 56 89 64 90 57 91 63 92 58 93 59 94 60 95 61 96 62 97
REMARK H PARENT 22 5 11 14 10 19 27 34 83 53 53 64
REMARK Flexibility Score: inf
ROOT
ATOM      1  C   UNL A   1      38.932  22.621  26.598  1.00  0.00     0.116 C 
ENDROOT
BRANCH   1   2
ATOM      2  N   UNL A   1      38.336  22.867  25.302  1.00  0.00    -0.356 N 
ATOM      3  C   UNL A   1      37.130  22.522  24.782  1.00  0.00     0.224 C 
ATOM      4  O   UNL A   1      36.895  22.874  23.623  1.00  0.00    -0.275 OA
ATOM      5  H   UNL A   1      38.909  23.378  24.686  1.00  0.00     0.163 HD
BRANCH   3   6
ATOM      6  C   UNL A   1      36.073  21.749  25.564  1.00  0.00     0.095 C 
ATOM      7  C   UNL A   1      35.060  22.621  26.339  1.00  0.00     0.097 C 
ATOM      8  C   UNL A   1      34.024  21.762  27.076  1.00  0.00     0.041 C 
ATOM      9  C   UNL A   1      33.477  20.642  26.245  1.00  0.00    -0.030 C 
ATOM     10  C   UNL A   1      35.514  20.539  24.797  1.00  0.00     0.041 C 
ATOM     11  C   UNL A   1      34.144  20.104  25.219  1.00  0.00    -0.030 C 
BRANCH   7  12
ATOM     12  C   UNL A   1      34.446  23.805  25.594  1.00  0.00     0.242 C 
ATOM     13  N   UNL A   1      34.130  23.633  24.255  1.00  0.00    -0.267 N 
ATOM     14  H   UNL A   1      34.813  23.609  23.546  1.00  0.00     0.191 HD
ATOM     15  O   UNL A   1      34.213  24.868  26.167  1.00  0.00    -0.273 OA
BRANCH  13  16
ATOM     16  N   UNL A   1      32.752  23.496  23.994  1.00  0.00    -0.263 N 
ATOM     17  C   UNL A   1      31.823  24.457  23.654  1.00  0.00     0.269 C 
ATOM     18  O   UNL A   1      30.752  24.062  23.184  1.00  0.00    -0.267 OA
ATOM     19  H   UNL A   1      32.400  22.579  24.063  1.00  0.00     0.191 HD
BRANCH  17  20
ATOM     20  C   UNL A   1      32.014  25.925  23.827  1.00  0.00     0.041 A 
ATOM     21  C   UNL A   1      32.394  28.633  24.494  1.00  0.00     0.119 A 
ATOM     22  C   UNL A   1      31.361  27.919  25.087  1.00  0.00     0.047 A 
ATOM     23  C   UNL A   1      33.257  28.001  23.600  1.00  0.00     0.047 A 
ATOM     24  C   UNL A   1      31.166  26.575  24.745  1.00  0.00     0.018 A 
ATOM     25  C   UNL A   1      33.080  26.646  23.279  1.00  0.00     0.018 A 
BRANCH  21  26
ATOM     26  O   UNL A   1      32.674  29.890  24.954  1.00  0.00    -0.494 OA
BRANCH  26  27
ATOM     27  C   UNL A   1      32.150  30.150  26.261  1.00  0.00     0.226 C 
ATOM     28  C   UNL A   1      33.255  30.444  27.257  1.00  0.00     0.049 C 
ENDBRANCH  26  27
ENDBRANCH  21  26
ENDBRANCH  17  20
ENDBRANCH  13  16
ENDBRANCH   7  12
ENDBRANCH   3   6
ENDBRANCH   1   2
BRANCH   1  29
ATOM     29  C   UNL A   1      40.148  21.705  26.515  1.00  0.00     0.023 C 
BRANCH  29  30
ATOM     30  C   UNL A   1      41.232  21.970  27.548  1.00  0.00     0.023 C 
BRANCH  30  31
ATOM     31  C   UNL A   1      41.535  23.443  27.765  1.00  0.00     0.116 C 
BRANCH  31  32
ATOM     32  N   UNL A   1      41.745  24.161  26.515  1.00  0.00    -0.352 N 
ATOM     33  C   UNL A   1      41.574  25.498  26.241  1.00  0.00     0.251 C 
ATOM     34  H   UNL A   1      42.052  23.612  25.758  1.00  0.00     0.163 HD
ATOM     35  O   UNL A   1      41.656  25.910  25.095  1.00  0.00    -0.269 OA
BRANCH  33  36
ATOM     36  C   UNL A   1      41.280  26.422  27.351  1.00  0.00     0.039 A 
ATOM     37  C   UNL A   1      40.253  26.112  28.243  1.00  0.00     0.014 A 
ATOM     38  C   UNL A   1      42.050  27.575  27.518  1.00  0.00     0.014 A 
ATOM     39  C   UNL A   1      40.040  26.937  29.346  1.00  0.00     0.010 A 
ATOM     40  C   UNL A   1      41.904  28.334  28.668  1.00  0.00     0.010 A 
ATOM     41  C   UNL A   1      40.888  28.031  29.586  1.00  0.00    -0.014 A 
BRANCH  41  42
ATOM     42  C   UNL A   1      40.726  28.883  30.786  1.00  0.00     0.031 A 
ATOM     43  C   UNL A   1      39.666  29.950  30.808  1.00  0.00     0.074 A 
ATOM     44  C   UNL A   1      41.573  28.734  31.824  1.00  0.00     0.049 A 
ATOM     45  N   UNL A   1      39.403  30.831  31.738  1.00  0.00    -0.248 NA
ATOM     46  C   UNL A   1      38.808  30.065  29.614  1.00  0.00     0.031 C 
ATOM     47  C   UNL A   1      42.675  27.769  31.888  1.00  0.00     0.029 A 
ATOM     48  N   UNL A   1      41.643  29.395  33.023  1.00  0.00    -0.354 N 
ATOM     49  C   UNL A   1      38.364  31.607  31.237  1.00  0.00     0.074 A 
ATOM     50  C   UNL A   1      38.087  31.138  29.899  1.00  0.00     0.031 C 
ATOM     51  C   UNL A   1      43.287  27.878  33.078  1.00  0.00     0.029 A 
ATOM     52  C   UNL A   1      42.653  28.946  33.842  1.00  0.00     0.049 A 
ATOM     53  H   UNL A   1      41.028  30.121  33.274  1.00  0.00     0.167 HD
ATOM     54  C   UNL A   1      37.682  32.603  31.850  1.00  0.00     0.031 A 
ATOM     55  C   UNL A   1      43.029  29.357  35.068  1.00  0.00     0.031 A 
ATOM     56  C   UNL A   1      37.958  33.053  33.188  1.00  0.00     0.049 A 
ATOM     57  C   UNL A   1      42.255  30.466  35.726  1.00  0.00     0.074 A 
ATOM     58  C   UNL A   1      37.298  34.021  33.923  1.00  0.00     0.029 A 
ATOM     59  N   UNL A   1      38.977  32.564  33.991  1.00  0.00    -0.354 N 
ATOM     60  N   UNL A   1      41.231  31.143  35.265  1.00  0.00    -0.248 NA
ATOM     61  C   UNL A   1      42.678  30.854  37.079  1.00  0.00     0.031 C 
ATOM     62  C   UNL A   1      37.951  34.152  35.153  1.00  0.00     0.029 A 
ATOM     63  C   UNL A   1      38.978  33.224  35.208  1.00  0.00     0.049 A 
ATOM     64  H   UNL A   1      39.607  31.852  33.734  1.00  0.00     0.167 HD
ATOM     65  C   UNL A   1      40.872  32.025  36.278  1.00  0.00     0.074 A 
ATOM     66  C   UNL A   1      41.772  31.774  37.385  1.00  0.00     0.031 C 
ATOM     67  C   UNL A   1      39.890  32.961  36.293  1.00  0.00     0.031 A 
BRANCH  54  68
ATOM     68  C   UNL A   1      36.569  33.265  31.079  1.00  0.00    -0.014 A 
ATOM     69  C   UNL A   1      35.229  33.143  31.494  1.00  0.00     0.010 A 
ATOM     70  C   UNL A   1      36.867  34.053  29.953  1.00  0.00     0.010 A 
ATOM     71  C   UNL A   1      34.206  33.769  30.777  1.00  0.00     0.020 A 
ATOM     72  C   UNL A   1      35.849  34.706  29.252  1.00  0.00     0.020 A 
ATOM     73  C   UNL A   1      34.524  34.548  29.661  1.00  0.00     0.054 A 
BRANCH  73  74
ATOM     74  S   UNL A   1      33.176  35.380  28.775  1.00  0.00     0.124 S 
ATOM     75  O   UNL A   1      33.908  36.306  27.914  1.00  0.00    -0.237 OA
ATOM     76  O   UNL A   1      32.515  34.274  28.089  1.00  0.00    -0.237 OA
ATOM     77  O   UNL A   1      32.396  36.007  29.839  1.00  0.00    -0.744 OA
ENDBRANCH  73  74
ENDBRANCH  54  68
BRANCH  55  78
ATOM     78  C   UNL A   1      44.182  28.710  35.752  1.00  0.00    -0.014 A 
ATOM     79  C   UNL A   1      44.013  27.513  36.470  1.00  0.00     0.010 A 
ATOM     80  C   UNL A   1      45.465  29.286  35.682  1.00  0.00     0.010 A 
ATOM     81  C   UNL A   1      45.095  26.921  37.127  1.00  0.00     0.020 A 
ATOM     82  C   UNL A   1      46.556  28.679  36.309  1.00  0.00     0.020 A 
ATOM     83  C   UNL A   1      46.361  27.507  37.042  1.00  0.00     0.054 A 
BRANCH  83  84
ATOM     84  S   UNL A   1      47.758  26.699  37.872  1.00  0.00     0.124 S 
ATOM     85  O   UNL A   1      48.066  25.609  36.953  1.00  0.00    -0.237 OA
ATOM     86  O   UNL A   1      48.747  27.772  37.938  1.00  0.00    -0.237 OA
ATOM     87  O   UNL A   1      47.201  26.295  39.161  1.00  0.00    -0.744 OA
ENDBRANCH  83  84
ENDBRANCH  55  78
BRANCH  67  88
ATOM     88  C   UNL A   1      39.724  33.761  37.557  1.00  0.00    -0.014 A 
ATOM     89  C   UNL A   1      40.378  34.993  37.731  1.00  0.00     0.010 A 
ATOM     90  C   UNL A   1      38.869  33.288  38.569  1.00  0.00     0.010 A 
ATOM     91  C   UNL A   1      40.217  35.716  38.914  1.00  0.00     0.020 A 
ATOM     92  C   UNL A   1      38.678  34.025  39.740  1.00  0.00     0.020 A 
ATOM     93  C   UNL A   1      39.369  35.226  39.912  1.00  0.00     0.054 A 
BRANCH  93  94
ATOM     94  S   UNL A   1      39.155  36.196  41.429  1.00  0.00     0.124 S 
ATOM     95  O   UNL A   1      40.401  35.925  42.140  1.00  0.00    -0.237 OA
ATOM     96  O   UNL A   1      39.005  37.558  40.918  1.00  0.00    -0.237 OA
ATOM     97  O   UNL A   1      37.954  35.630  42.037  1.00  0.00    -0.744 OA
ENDBRANCH  93  94
ENDBRANCH  67  88
ENDBRANCH  41  42
ENDBRANCH  33  36
ENDBRANCH  31  32
ENDBRANCH  30  31
ENDBRANCH  29  30
ENDBRANCH   1  29
TORSDOF 19
ENDMDL
