MODEL 1
REMARK VINA RESULT:     -11.7      0.000      0.000
REMARK SMILES O=C(NCCCCNC(=O)C1CCN(c2nc(-c3ccc(F)cc3)cc(C(F)F)n2)CC1)c1ccc(-c2c3nc(c(-c4ccc(S(=O)(=O)[O-])cc4)c4ccc([nH]4)c(-c4ccc(S(=O)(=O)[O-])cc4)c4nc(c(-c5ccc(S(=O)(=O)[O-])cc5)c5ccc2[nH]5)C=C4)C=C3)cc1
REMARK SMILES IDX 5 1 4 2 3 3 1 4 2 5 33 7 34 8 92 9 35 10 91 11 36 12 37 13
REMARK SMILES IDX 38 14 85 15 39 16 90 17 84 18 86 19 40 20 89 21 83 22 82 23
REMARK SMILES IDX 41 25 71 26 52 27 70 28 53 29 56 30 69 31 87 32 54 33 55 34
REMARK SMILES IDX 68 36 88 37 57 38 42 39 43 40 51 41 44 42 50 43 45 44 46 45
REMARK SMILES IDX 47 46 48 47 49 48 72 49 73 50 81 51 74 52 80 53 75 54 76 55
REMARK SMILES IDX 77 56 78 57 79 58 58 59 59 60 67 61 60 62 66 63 61 64 62 65
REMARK SMILES IDX 63 66 64 67 65 68 6 69 7 70 8 71 9 72 10 74 11 75 12 76
REMARK SMILES IDX 32 77 13 78 31 79 14 80 15 81 16 82 30 83 17 84 26 85 25 86
REMARK SMILES IDX 18 87 19 88 24 89 20 90 23 91 21 92 22 93 27 94 28 95 29 96
REMARK H PARENT 3 6 86 24 56 35 8 73
REMARK Flexibility Score: inf
ROOT
ATOM      1  C   UNL A   1      35.271  23.665  25.325  1.00  0.00     0.023 C 
ENDROOT
BRANCH   1   2
ATOM      2  C   UNL A   1      36.676  24.058  25.757  1.00  0.00     0.116 C 
BRANCH   2   3
ATOM      3  N   UNL A   1      37.633  22.961  25.711  1.00  0.00    -0.352 N 
ATOM      4  O   UNL A   1      39.663  22.005  26.001  1.00  0.00    -0.269 OA
ATOM      5  C   UNL A   1      38.929  22.963  26.179  1.00  0.00     0.251 C 
ATOM      6  H   UNL A   1      37.319  22.125  25.299  1.00  0.00     0.163 HD
BRANCH   5   7
ATOM      7  C   UNL A   1      39.411  24.176  26.867  1.00  0.00     0.039 A 
ATOM      8  C   UNL A   1      39.064  24.398  28.202  1.00  0.00     0.014 A 
ATOM      9  C   UNL A   1      40.140  25.126  26.149  1.00  0.00     0.014 A 
ATOM     10  C   UNL A   1      39.338  25.626  28.783  1.00  0.00     0.010 A 
ATOM     11  C   UNL A   1      40.491  26.328  26.765  1.00  0.00     0.010 A 
ATOM     12  C   UNL A   1      40.078  26.592  28.080  1.00  0.00    -0.014 A 
BRANCH  12  13
ATOM     13  C   UNL A   1      40.518  27.811  28.794  1.00  0.00     0.031 A 
ATOM     14  C   UNL A   1      39.590  28.968  29.028  1.00  0.00     0.074 A 
ATOM     15  C   UNL A   1      41.792  27.846  29.232  1.00  0.00     0.049 A 
ATOM     16  N   UNL A   1      39.845  30.109  29.616  1.00  0.00    -0.248 NA
ATOM     17  C   UNL A   1      38.208  28.839  28.540  1.00  0.00     0.031 C 
ATOM     18  C   UNL A   1      42.778  26.776  29.038  1.00  0.00     0.029 A 
ATOM     19  N   UNL A   1      42.478  28.800  29.936  1.00  0.00    -0.354 N 
ATOM     20  C   UNL A   1      38.669  30.847  29.543  1.00  0.00     0.074 A 
ATOM     21  C   UNL A   1      37.698  30.025  28.854  1.00  0.00     0.031 C 
ATOM     22  C   UNL A   1      43.926  27.118  29.639  1.00  0.00     0.029 A 
ATOM     23  C   UNL A   1      43.783  28.456  30.192  1.00  0.00     0.049 A 
ATOM     24  H   UNL A   1      42.075  29.650  30.228  1.00  0.00     0.167 HD
ATOM     25  C   UNL A   1      38.435  32.097  30.007  1.00  0.00     0.031 A 
ATOM     26  C   UNL A   1      44.775  29.155  30.772  1.00  0.00     0.031 A 
ATOM     27  C   UNL A   1      39.413  32.892  30.705  1.00  0.00     0.049 A 
ATOM     28  C   UNL A   1      44.487  30.544  31.252  1.00  0.00     0.074 A 
ATOM     29  C   UNL A   1      39.252  34.144  31.276  1.00  0.00     0.029 A 
ATOM     30  N   UNL A   1      40.732  32.523  30.919  1.00  0.00    -0.354 N 
ATOM     31  N   UNL A   1      43.353  31.202  31.223  1.00  0.00    -0.248 NA
ATOM     32  C   UNL A   1      45.611  31.292  31.828  1.00  0.00     0.031 C 
ATOM     33  C   UNL A   1      40.489  34.554  31.785  1.00  0.00     0.029 A 
ATOM     34  C   UNL A   1      41.408  33.539  31.573  1.00  0.00     0.049 A 
ATOM     35  H   UNL A   1      41.130  31.664  30.645  1.00  0.00     0.167 HD
ATOM     36  C   UNL A   1      43.628  32.448  31.769  1.00  0.00     0.074 A 
ATOM     37  C   UNL A   1      45.027  32.437  32.153  1.00  0.00     0.031 C 
ATOM     38  C   UNL A   1      42.803  33.510  31.927  1.00  0.00     0.031 A 
BRANCH  25  39
ATOM     39  C   UNL A   1      37.085  32.715  29.757  1.00  0.00    -0.014 A 
ATOM     40  C   UNL A   1      36.072  32.676  30.730  1.00  0.00     0.010 A 
ATOM     41  C   UNL A   1      36.870  33.446  28.574  1.00  0.00     0.010 A 
ATOM     42  C   UNL A   1      34.866  33.352  30.522  1.00  0.00     0.020 A 
ATOM     43  C   UNL A   1      35.671  34.136  28.368  1.00  0.00     0.020 A 
ATOM     44  C   UNL A   1      34.674  34.081  29.343  1.00  0.00     0.054 A 
BRANCH  44  45
ATOM     45  S   UNL A   1      33.126  35.007  29.129  1.00  0.00     0.124 S 
ATOM     46  O   UNL A   1      33.612  36.301  28.659  1.00  0.00    -0.237 OA
ATOM     47  O   UNL A   1      32.409  34.208  28.139  1.00  0.00    -0.237 OA
ATOM     48  O   UNL A   1      32.538  35.011  30.466  1.00  0.00    -0.744 OA
ENDBRANCH  44  45
ENDBRANCH  25  39
BRANCH  26  49
ATOM     49  C   UNL A   1      46.138  28.570  30.857  1.00  0.00    -0.014 A 
ATOM     50  C   UNL A   1      46.556  27.879  32.006  1.00  0.00     0.010 A 
ATOM     51  C   UNL A   1      47.017  28.683  29.764  1.00  0.00     0.010 A 
ATOM     52  C   UNL A   1      47.839  27.327  32.068  1.00  0.00     0.020 A 
ATOM     53  C   UNL A   1      48.288  28.108  29.810  1.00  0.00     0.020 A 
ATOM     54  C   UNL A   1      48.698  27.447  30.969  1.00  0.00     0.054 A 
BRANCH  54  55
ATOM     55  S   UNL A   1      50.342  26.688  31.046  1.00  0.00     0.124 S 
ATOM     56  O   UNL A   1      50.055  25.308  30.669  1.00  0.00    -0.237 OA
ATOM     57  O   UNL A   1      51.101  27.466  30.070  1.00  0.00    -0.237 OA
ATOM     58  O   UNL A   1      50.743  26.888  32.438  1.00  0.00    -0.744 OA
ENDBRANCH  54  55
ENDBRANCH  26  49
BRANCH  38  59
ATOM     59  C   UNL A   1      43.403  34.747  32.530  1.00  0.00    -0.014 A 
ATOM     60  C   UNL A   1      43.915  35.768  31.709  1.00  0.00     0.010 A 
ATOM     61  C   UNL A   1      43.425  34.905  33.927  1.00  0.00     0.010 A 
ATOM     62  C   UNL A   1      44.465  36.916  32.278  1.00  0.00     0.020 A 
ATOM     63  C   UNL A   1      43.955  36.064  34.497  1.00  0.00     0.020 A 
ATOM     64  C   UNL A   1      44.484  37.056  33.669  1.00  0.00     0.054 A 
BRANCH  64  65
ATOM     65  S   UNL A   1      45.168  38.577  34.384  1.00  0.00     0.124 S 
ATOM     66  O   UNL A   1      46.067  38.051  35.407  1.00  0.00    -0.237 OA
ATOM     67  O   UNL A   1      45.819  39.208  33.238  1.00  0.00    -0.237 OA
ATOM     68  O   UNL A   1      43.990  39.279  34.889  1.00  0.00    -0.744 OA
ENDBRANCH  64  65
ENDBRANCH  38  59
ENDBRANCH  12  13
ENDBRANCH   5   7
ENDBRANCH   2   3
ENDBRANCH   1   2
BRANCH   1  69
ATOM     69  C   UNL A   1      34.777  24.355  24.056  1.00  0.00     0.023 C 
BRANCH  69  70
ATOM     70  C   UNL A   1      33.946  23.466  23.130  1.00  0.00     0.116 C 
BRANCH  70  71
ATOM     71  N   UNL A   1      33.430  22.311  23.829  1.00  0.00    -0.356 N 
ATOM     72  C   UNL A   1      32.260  22.003  24.423  1.00  0.00     0.223 C 
ATOM     73  H   UNL A   1      34.087  21.580  23.885  1.00  0.00     0.163 HD
ATOM     74  O   UNL A   1      32.246  20.905  24.998  1.00  0.00    -0.275 OA
BRANCH  72  75
ATOM     75  C   UNL A   1      30.981  22.845  24.452  1.00  0.00     0.082 C 
ATOM     76  C   UNL A   1      30.608  23.849  23.369  1.00  0.00     0.035 C 
ATOM     77  C   UNL A   1      30.804  23.475  25.844  1.00  0.00     0.035 C 
ATOM     78  C   UNL A   1      31.196  25.244  23.548  1.00  0.00     0.120 C 
ATOM     79  C   UNL A   1      31.584  24.779  25.979  1.00  0.00     0.120 C 
ATOM     80  N   UNL A   1      31.152  25.689  24.934  1.00  0.00    -0.341 N 
BRANCH  80  81
ATOM     81  C   UNL A   1      31.431  27.037  25.083  1.00  0.00     0.226 A 
ATOM     82  N   UNL A   1      30.728  27.882  24.324  1.00  0.00    -0.213 NA
ATOM     83  N   UNL A   1      32.380  27.458  25.925  1.00  0.00    -0.212 NA
ATOM     84  C   UNL A   1      30.995  29.197  24.371  1.00  0.00     0.076 A 
ATOM     85  C   UNL A   1      32.667  28.785  25.957  1.00  0.00     0.112 A 
ATOM     86  C   UNL A   1      31.994  29.703  25.166  1.00  0.00     0.059 A 
BRANCH  84  87
ATOM     87  C   UNL A   1      30.113  30.006  23.517  1.00  0.00     0.001 A 
ATOM     88  C   UNL A   1      29.810  29.652  22.192  1.00  0.00     0.013 A 
ATOM     89  C   UNL A   1      29.489  31.152  24.057  1.00  0.00     0.013 A 
ATOM     90  C   UNL A   1      28.907  30.413  21.441  1.00  0.00     0.040 A 
ATOM     91  C   UNL A   1      28.594  31.915  23.307  1.00  0.00     0.040 A 
ATOM     92  C   UNL A   1      28.309  31.535  22.005  1.00  0.00     0.123 A 
ATOM     93  F   UNL A   1      27.438  32.254  21.285  1.00  0.00    -0.207 F 
ENDBRANCH  84  87
BRANCH  85  94
ATOM     94  C   UNL A   1      33.792  29.252  26.857  1.00  0.00     0.391 C 
ATOM     95  F   UNL A   1      33.856  28.584  28.045  1.00  0.00    -0.203 F 
ATOM     96  F   UNL A   1      35.020  29.122  26.281  1.00  0.00    -0.203 F 
ENDBRANCH  85  94
ENDBRANCH  80  81
ENDBRANCH  72  75
ENDBRANCH  70  71
ENDBRANCH  69  70
ENDBRANCH   1  69
TORSDOF 17
ENDMDL
MODEL 2
REMARK VINA RESULT:     -11.3      1.782      8.367
REMARK SMILES O=C(NCCCCNC(=O)C1CCN(c2nc(-c3ccc(F)cc3)cc(C(F)F)n2)CC1)c1ccc(-c2c3nc(c(-c4ccc(S(=O)(=O)[O-])cc4)c4ccc([nH]4)c(-c4ccc(S(=O)(=O)[O-])cc4)c4nc(c(-c5ccc(S(=O)(=O)[O-])cc5)c5ccc2[nH]5)C=C4)C=C3)cc1
REMARK SMILES IDX 5 1 4 2 3 3 1 4 2 5 33 7 34 8 92 9 35 10 91 11 36 12 37 13
REMARK SMILES IDX 38 14 85 15 39 16 90 17 84 18 86 19 40 20 89 21 83 22 82 23
REMARK SMILES IDX 41 25 71 26 52 27 70 28 53 29 56 30 69 31 87 32 54 33 55 34
REMARK SMILES IDX 68 36 88 37 57 38 42 39 43 40 51 41 44 42 50 43 45 44 46 45
REMARK SMILES IDX 47 46 48 47 49 48 72 49 73 50 81 51 74 52 80 53 75 54 76 55
REMARK SMILES IDX 77 56 78 57 79 58 58 59 59 60 67 61 60 62 66 63 61 64 62 65
REMARK SMILES IDX 63 66 64 67 65 68 6 69 7 70 8 71 9 72 10 74 11 75 12 76
REMARK SMILES IDX 32 77 13 78 31 79 14 80 15 81 16 82 30 83 17 84 26 85 25 86
REMARK SMILES IDX 18 87 19 88 24 89 20 90 23 91 21 92 22 93 27 94 28 95 29 96
REMARK H PARENT 3 6 86 24 56 35 8 73
REMARK Flexibility Score: inf
ROOT
ATOM      1  C   UNL A   1      35.270  23.919  25.192  1.00  0.00     0.023 C 
ENDROOT
BRANCH   1   2
ATOM      2  C   UNL A   1      36.665  24.077  25.778  1.00  0.00     0.116 C 
BRANCH   2   3
ATOM      3  N   UNL A   1      37.422  22.834  25.838  1.00  0.00    -0.352 N 
ATOM      4  O   UNL A   1      39.286  21.586  26.136  1.00  0.00    -0.269 OA
ATOM      5  C   UNL A   1      38.737  22.674  26.213  1.00  0.00     0.251 C 
ATOM      6  H   UNL A   1      36.939  22.017  25.580  1.00  0.00     0.163 HD
BRANCH   5   7
ATOM      7  C   UNL A   1      39.472  23.868  26.675  1.00  0.00     0.039 A 
ATOM      8  C   UNL A   1      39.621  24.102  28.044  1.00  0.00     0.014 A 
ATOM      9  C   UNL A   1      39.939  24.789  25.735  1.00  0.00     0.014 A 
ATOM     10  C   UNL A   1      40.124  25.318  28.478  1.00  0.00     0.010 A 
ATOM     11  C   UNL A   1      40.525  25.977  26.176  1.00  0.00     0.010 A 
ATOM     12  C   UNL A   1      40.606  26.256  27.548  1.00  0.00    -0.014 A 
BRANCH  12  13
ATOM     13  C   UNL A   1      41.311  27.458  28.048  1.00  0.00     0.031 A 
ATOM     14  C   UNL A   1      42.810  27.556  28.035  1.00  0.00     0.074 A 
ATOM     15  C   UNL A   1      40.555  28.469  28.519  1.00  0.00     0.049 A 
ATOM     16  N   UNL A   1      43.564  28.535  28.462  1.00  0.00    -0.248 NA
ATOM     17  C   UNL A   1      43.560  26.417  27.481  1.00  0.00     0.031 C 
ATOM     18  C   UNL A   1      39.089  28.461  28.589  1.00  0.00     0.029 A 
ATOM     19  N   UNL A   1      40.901  29.698  29.014  1.00  0.00    -0.354 N 
ATOM     20  C   UNL A   1      44.876  28.124  28.260  1.00  0.00     0.074 A 
ATOM     21  C   UNL A   1      44.817  26.804  27.670  1.00  0.00     0.031 C 
ATOM     22  C   UNL A   1      38.662  29.640  29.062  1.00  0.00     0.029 A 
ATOM     23  C   UNL A   1      39.820  30.454  29.399  1.00  0.00     0.049 A 
ATOM     24  H   UNL A   1      41.833  30.009  29.087  1.00  0.00     0.167 HD
ATOM     25  C   UNL A   1      46.018  28.791  28.550  1.00  0.00     0.031 A 
ATOM     26  C   UNL A   1      39.763  31.658  29.997  1.00  0.00     0.031 A 
ATOM     27  C   UNL A   1      46.053  30.113  29.122  1.00  0.00     0.049 A 
ATOM     28  C   UNL A   1      41.046  32.358  30.324  1.00  0.00     0.074 A 
ATOM     29  C   UNL A   1      47.159  30.903  29.389  1.00  0.00     0.029 A 
ATOM     30  N   UNL A   1      44.940  30.835  29.526  1.00  0.00    -0.354 N 
ATOM     31  N   UNL A   1      42.274  31.974  30.074  1.00  0.00    -0.248 NA
ATOM     32  C   UNL A   1      40.939  33.642  31.027  1.00  0.00     0.031 C 
ATOM     33  C   UNL A   1      46.717  32.078  30.007  1.00  0.00     0.029 A 
ATOM     34  C   UNL A   1      45.334  32.040  30.081  1.00  0.00     0.049 A 
ATOM     35  H   UNL A   1      44.007  30.533  29.434  1.00  0.00     0.167 HD
ATOM     36  C   UNL A   1      43.090  32.967  30.598  1.00  0.00     0.074 A 
ATOM     37  C   UNL A   1      42.214  33.984  31.145  1.00  0.00     0.031 C 
ATOM     38  C   UNL A   1      44.443  33.026  30.635  1.00  0.00     0.031 A 
BRANCH  25  39
ATOM     39  C   UNL A   1      47.334  28.110  28.289  1.00  0.00    -0.014 A 
ATOM     40  C   UNL A   1      48.025  28.292  27.079  1.00  0.00     0.010 A 
ATOM     41  C   UNL A   1      47.943  27.369  29.319  1.00  0.00     0.010 A 
ATOM     42  C   UNL A   1      49.298  27.740  26.901  1.00  0.00     0.020 A 
ATOM     43  C   UNL A   1      49.222  26.828  29.152  1.00  0.00     0.020 A 
ATOM     44  C   UNL A   1      49.890  27.014  27.942  1.00  0.00     0.054 A 
BRANCH  44  45
ATOM     45  S   UNL A   1      51.571  26.368  27.710  1.00  0.00     0.124 S 
ATOM     46  O   UNL A   1      52.070  26.329  29.082  1.00  0.00    -0.237 OA
ATOM     47  O   UNL A   1      51.333  25.067  27.091  1.00  0.00    -0.237 OA
ATOM     48  O   UNL A   1      52.207  27.359  26.845  1.00  0.00    -0.744 OA
ENDBRANCH  44  45
ENDBRANCH  25  39
BRANCH  26  49
ATOM     49  C   UNL A   1      38.446  32.227  30.383  1.00  0.00    -0.014 A 
ATOM     50  C   UNL A   1      37.792  31.805  31.551  1.00  0.00     0.010 A 
ATOM     51  C   UNL A   1      37.852  33.222  29.584  1.00  0.00     0.010 A 
ATOM     52  C   UNL A   1      36.556  32.355  31.904  1.00  0.00     0.020 A 
ATOM     53  C   UNL A   1      36.634  33.796  29.948  1.00  0.00     0.020 A 
ATOM     54  C   UNL A   1      35.984  33.347  31.100  1.00  0.00     0.054 A 
BRANCH  54  55
ATOM     55  S   UNL A   1      34.403  34.083  31.594  1.00  0.00     0.124 S 
ATOM     56  O   UNL A   1      33.715  34.207  30.313  1.00  0.00    -0.237 OA
ATOM     57  O   UNL A   1      33.858  33.087  32.512  1.00  0.00    -0.237 OA
ATOM     58  O   UNL A   1      34.798  35.344  32.220  1.00  0.00    -0.744 OA
ENDBRANCH  54  55
ENDBRANCH  26  49
BRANCH  38  59
ATOM     59  C   UNL A   1      45.048  34.228  31.301  1.00  0.00    -0.014 A 
ATOM     60  C   UNL A   1      45.399  34.190  32.662  1.00  0.00     0.010 A 
ATOM     61  C   UNL A   1      45.297  35.392  30.553  1.00  0.00     0.010 A 
ATOM     62  C   UNL A   1      45.966  35.309  33.272  1.00  0.00     0.020 A 
ATOM     63  C   UNL A   1      45.886  36.505  31.156  1.00  0.00     0.020 A 
ATOM     64  C   UNL A   1      46.204  36.461  32.516  1.00  0.00     0.054 A 
BRANCH  64  65
ATOM     65  S   UNL A   1      46.979  37.889  33.321  1.00  0.00     0.124 S 
ATOM     66  O   UNL A   1      47.043  38.854  32.227  1.00  0.00    -0.237 OA
ATOM     67  O   UNL A   1      46.035  38.211  34.388  1.00  0.00    -0.237 OA
ATOM     68  O   UNL A   1      48.268  37.372  33.773  1.00  0.00    -0.744 OA
ENDBRANCH  64  65
ENDBRANCH  38  59
ENDBRANCH  12  13
ENDBRANCH   5   7
ENDBRANCH   2   3
ENDBRANCH   1   2
BRANCH   1  69
ATOM     69  C   UNL A   1      35.179  22.952  24.013  1.00  0.00     0.023 C 
BRANCH  69  70
ATOM     70  C   UNL A   1      34.390  21.674  24.298  1.00  0.00     0.116 C 
BRANCH  70  71
ATOM     71  N   UNL A   1      33.892  21.652  25.655  1.00  0.00    -0.356 N 
ATOM     72  C   UNL A   1      32.727  21.985  26.246  1.00  0.00     0.223 C 
ATOM     73  H   UNL A   1      34.559  21.317  26.297  1.00  0.00     0.163 HD
ATOM     74  O   UNL A   1      32.729  21.891  27.482  1.00  0.00    -0.275 OA
BRANCH  72  75
ATOM     75  C   UNL A   1      31.436  22.447  25.563  1.00  0.00     0.082 C 
ATOM     76  C   UNL A   1      31.377  22.960  24.130  1.00  0.00     0.035 C 
ATOM     77  C   UNL A   1      30.662  23.392  26.498  1.00  0.00     0.035 C 
ATOM     78  C   UNL A   1      31.667  24.447  23.962  1.00  0.00     0.120 C 
ATOM     79  C   UNL A   1      31.156  24.830  26.384  1.00  0.00     0.120 C 
ATOM     80  N   UNL A   1      31.041  25.253  25.001  1.00  0.00    -0.341 N 
BRANCH  80  81
ATOM     81  C   UNL A   1      31.065  26.611  24.726  1.00  0.00     0.226 A 
ATOM     82  N   UNL A   1      31.891  27.357  25.465  1.00  0.00    -0.213 NA
ATOM     83  N   UNL A   1      30.275  27.140  23.788  1.00  0.00    -0.212 NA
ATOM     84  C   UNL A   1      31.914  28.688  25.296  1.00  0.00     0.076 A 
ATOM     85  C   UNL A   1      30.280  28.489  23.631  1.00  0.00     0.112 A 
ATOM     86  C   UNL A   1      31.090  29.316  24.393  1.00  0.00     0.059 A 
BRANCH  84  87
ATOM     87  C   UNL A   1      32.901  29.371  26.144  1.00  0.00     0.001 A 
ATOM     88  C   UNL A   1      32.639  30.603  26.767  1.00  0.00     0.013 A 
ATOM     89  C   UNL A   1      34.141  28.747  26.404  1.00  0.00     0.013 A 
ATOM     90  C   UNL A   1      33.581  31.181  27.625  1.00  0.00     0.040 A 
ATOM     91  C   UNL A   1      35.083  29.326  27.254  1.00  0.00     0.040 A 
ATOM     92  C   UNL A   1      34.792  30.537  27.860  1.00  0.00     0.123 A 
ATOM     93  F   UNL A   1      35.685  31.090  28.691  1.00  0.00    -0.207 F 
ENDBRANCH  84  87
BRANCH  85  94
ATOM     94  C   UNL A   1      29.330  29.095  22.618  1.00  0.00     0.391 C 
ATOM     95  F   UNL A   1      28.431  29.964  23.163  1.00  0.00    -0.203 F 
ATOM     96  F   UNL A   1      29.973  29.782  21.633  1.00  0.00    -0.203 F 
ENDBRANCH  85  94
ENDBRANCH  80  81
ENDBRANCH  72  75
ENDBRANCH  70  71
ENDBRANCH  69  70
ENDBRANCH   1  69
TORSDOF 17
ENDMDL
MODEL 3
REMARK VINA RESULT:     -10.9      4.667     11.844
REMARK SMILES O=C(NCCCCNC(=O)C1CCN(c2nc(-c3ccc(F)cc3)cc(C(F)F)n2)CC1)c1ccc(-c2c3nc(c(-c4ccc(S(=O)(=O)[O-])cc4)c4ccc([nH]4)c(-c4ccc(S(=O)(=O)[O-])cc4)c4nc(c(-c5ccc(S(=O)(=O)[O-])cc5)c5ccc2[nH]5)C=C4)C=C3)cc1
REMARK SMILES IDX 5 1 4 2 3 3 1 4 2 5 33 7 34 8 92 9 35 10 91 11 36 12 37 13
REMARK SMILES IDX 38 14 85 15 39 16 90 17 84 18 86 19 40 20 89 21 83 22 82 23
REMARK SMILES IDX 41 25 71 26 52 27 70 28 53 29 56 30 69 31 87 32 54 33 55 34
REMARK SMILES IDX 68 36 88 37 57 38 42 39 43 40 51 41 44 42 50 43 45 44 46 45
REMARK SMILES IDX 47 46 48 47 49 48 72 49 73 50 81 51 74 52 80 53 75 54 76 55
REMARK SMILES IDX 77 56 78 57 79 58 58 59 59 60 67 61 60 62 66 63 61 64 62 65
REMARK SMILES IDX 63 66 64 67 65 68 6 69 7 70 8 71 9 72 10 74 11 75 12 76
REMARK SMILES IDX 32 77 13 78 31 79 14 80 15 81 16 82 30 83 17 84 26 85 25 86
REMARK SMILES IDX 18 87 19 88 24 89 20 90 23 91 21 92 22 93 27 94 28 95 29 96
REMARK H PARENT 3 6 86 24 56 35 8 73
REMARK Flexibility Score: inf
ROOT
ATOM      1  C   UNL A   1      41.827  21.979  26.105  1.00  0.00     0.023 C 
ENDROOT
BRANCH   1   2
ATOM      2  C   UNL A   1      40.544  21.807  26.906  1.00  0.00     0.116 C 
BRANCH   2   3
ATOM      3  N   UNL A   1      39.335  22.092  26.146  1.00  0.00    -0.352 N 
ATOM      4  O   UNL A   1      37.606  23.381  25.462  1.00  0.00    -0.269 OA
ATOM      5  C   UNL A   1      38.663  23.292  26.065  1.00  0.00     0.251 C 
ATOM      6  H   UNL A   1      38.956  21.344  25.633  1.00  0.00     0.163 HD
BRANCH   5   7
ATOM      7  C   UNL A   1      39.243  24.455  26.764  1.00  0.00     0.039 A 
ATOM      8  C   UNL A   1      38.915  24.693  28.102  1.00  0.00     0.014 A 
ATOM      9  C   UNL A   1      40.049  25.348  26.055  1.00  0.00     0.014 A 
ATOM     10  C   UNL A   1      39.288  25.888  28.694  1.00  0.00     0.010 A 
ATOM     11  C   UNL A   1      40.497  26.511  26.683  1.00  0.00     0.010 A 
ATOM     12  C   UNL A   1      40.106  26.796  28.000  1.00  0.00    -0.014 A 
BRANCH  12  13
ATOM     13  C   UNL A   1      40.646  27.968  28.725  1.00  0.00     0.031 A 
ATOM     14  C   UNL A   1      42.053  27.993  29.249  1.00  0.00     0.074 A 
ATOM     15  C   UNL A   1      39.824  29.022  28.899  1.00  0.00     0.049 A 
ATOM     16  N   UNL A   1      42.653  28.940  29.922  1.00  0.00    -0.248 NA
ATOM     17  C   UNL A   1      42.893  26.812  28.994  1.00  0.00     0.031 C 
ATOM     18  C   UNL A   1      38.431  29.086  28.440  1.00  0.00     0.029 A 
ATOM     19  N   UNL A   1      40.031  30.239  29.491  1.00  0.00    -0.354 N 
ATOM     20  C   UNL A   1      43.928  28.462  30.201  1.00  0.00     0.074 A 
ATOM     21  C   UNL A   1      44.018  27.139  29.622  1.00  0.00     0.031 C 
ATOM     22  C   UNL A   1      37.923  30.291  28.735  1.00  0.00     0.029 A 
ATOM     23  C   UNL A   1      38.923  31.052  29.468  1.00  0.00     0.049 A 
ATOM     24  H   UNL A   1      40.889  30.505  29.894  1.00  0.00     0.167 HD
ATOM     25  C   UNL A   1      44.923  29.077  30.883  1.00  0.00     0.031 A 
ATOM     26  C   UNL A   1      38.717  32.265  30.012  1.00  0.00     0.031 A 
ATOM     27  C   UNL A   1      44.818  30.403  31.437  1.00  0.00     0.049 A 
ATOM     28  C   UNL A   1      39.831  32.906  30.780  1.00  0.00     0.074 A 
ATOM     29  C   UNL A   1      45.794  31.142  32.086  1.00  0.00     0.029 A 
ATOM     30  N   UNL A   1      43.672  31.183  31.421  1.00  0.00    -0.354 N 
ATOM     31  N   UNL A   1      41.047  32.459  30.984  1.00  0.00    -0.248 NA
ATOM     32  C   UNL A   1      39.545  34.202  31.405  1.00  0.00     0.031 C 
ATOM     33  C   UNL A   1      45.220  32.345  32.511  1.00  0.00     0.029 A 
ATOM     34  C   UNL A   1      43.902  32.375  32.085  1.00  0.00     0.049 A 
ATOM     35  H   UNL A   1      42.820  30.926  30.999  1.00  0.00     0.167 HD
ATOM     36  C   UNL A   1      41.671  33.418  31.770  1.00  0.00     0.074 A 
ATOM     37  C   UNL A   1      40.709  34.484  31.973  1.00  0.00     0.031 C 
ATOM     38  C   UNL A   1      42.922  33.411  32.289  1.00  0.00     0.031 A 
BRANCH  25  39
ATOM     39  C   UNL A   1      46.210  28.329  31.108  1.00  0.00    -0.014 A 
ATOM     40  C   UNL A   1      47.309  28.490  30.247  1.00  0.00     0.010 A 
ATOM     41  C   UNL A   1      46.356  27.541  32.265  1.00  0.00     0.010 A 
ATOM     42  C   UNL A   1      48.530  27.872  30.537  1.00  0.00     0.020 A 
ATOM     43  C   UNL A   1      47.580  26.934  32.566  1.00  0.00     0.020 A 
ATOM     44  C   UNL A   1      48.658  27.100  31.697  1.00  0.00     0.054 A 
BRANCH  44  45
ATOM     45  S   UNL A   1      50.274  26.367  32.085  1.00  0.00     0.124 S 
ATOM     46  O   UNL A   1      51.178  27.193  31.289  1.00  0.00    -0.237 OA
ATOM     47  O   UNL A   1      50.369  26.547  33.531  1.00  0.00    -0.237 OA
ATOM     48  O   UNL A   1      50.142  24.983  31.640  1.00  0.00    -0.744 OA
ENDBRANCH  44  45
ENDBRANCH  25  39
BRANCH  26  49
ATOM     49  C   UNL A   1      37.380  32.903  29.904  1.00  0.00    -0.014 A 
ATOM     50  C   UNL A   1      36.436  32.778  30.936  1.00  0.00     0.010 A 
ATOM     51  C   UNL A   1      37.058  33.666  28.766  1.00  0.00     0.010 A 
ATOM     52  C   UNL A   1      35.184  33.391  30.822  1.00  0.00     0.020 A 
ATOM     53  C   UNL A   1      35.821  34.303  28.662  1.00  0.00     0.020 A 
ATOM     54  C   UNL A   1      34.884  34.148  29.685  1.00  0.00     0.054 A 
BRANCH  54  55
ATOM     55  S   UNL A   1      33.274  34.974  29.572  1.00  0.00     0.124 S 
ATOM     56  O   UNL A   1      32.827  34.954  30.960  1.00  0.00    -0.237 OA
ATOM     57  O   UNL A   1      33.623  36.287  29.037  1.00  0.00    -0.237 OA
ATOM     58  O   UNL A   1      32.519  34.119  28.657  1.00  0.00    -0.744 OA
ENDBRANCH  54  55
ENDBRANCH  26  49
BRANCH  38  59
ATOM     59  C   UNL A   1      43.309  34.591  33.133  1.00  0.00    -0.014 A 
ATOM     60  C   UNL A   1      43.087  34.580  34.522  1.00  0.00     0.010 A 
ATOM     61  C   UNL A   1      43.929  35.704  32.540  1.00  0.00     0.010 A 
ATOM     62  C   UNL A   1      43.454  35.677  35.300  1.00  0.00     0.020 A 
ATOM     63  C   UNL A   1      44.318  36.794  33.320  1.00  0.00     0.020 A 
ATOM     64  C   UNL A   1      44.065  36.779  34.694  1.00  0.00     0.054 A 
BRANCH  64  65
ATOM     65  S   UNL A   1      44.571  38.178  35.733  1.00  0.00     0.124 S 
ATOM     66  O   UNL A   1      46.027  38.093  35.664  1.00  0.00    -0.237 OA
ATOM     67  O   UNL A   1      43.974  39.321  35.048  1.00  0.00    -0.237 OA
ATOM     68  O   UNL A   1      43.989  37.866  37.036  1.00  0.00    -0.744 OA
ENDBRANCH  64  65
ENDBRANCH  38  59
ENDBRANCH  12  13
ENDBRANCH   5   7
ENDBRANCH   2   3
ENDBRANCH   1   2
BRANCH   1  69
ATOM     69  C   UNL A   1      42.597  20.686  25.850  1.00  0.00     0.023 C 
BRANCH  69  70
ATOM     70  C   UNL A   1      44.032  20.885  25.361  1.00  0.00     0.116 C 
BRANCH  70  71
ATOM     71  N   UNL A   1      44.824  21.608  26.330  1.00  0.00    -0.356 N 
ATOM     72  C   UNL A   1      45.562  22.736  26.305  1.00  0.00     0.223 C 
ATOM     73  H   UNL A   1      44.826  21.175  27.215  1.00  0.00     0.163 HD
ATOM     74  O   UNL A   1      46.169  22.980  27.358  1.00  0.00    -0.275 OA
BRANCH  72  75
ATOM     75  C   UNL A   1      45.714  23.722  25.143  1.00  0.00     0.082 C 
ATOM     76  C   UNL A   1      46.972  24.544  24.895  1.00  0.00     0.035 C 
ATOM     77  C   UNL A   1      44.468  24.618  25.054  1.00  0.00     0.035 C 
ATOM     78  C   UNL A   1      47.045  25.863  25.656  1.00  0.00     0.120 C 
ATOM     79  C   UNL A   1      44.564  25.816  25.994  1.00  0.00     0.120 C 
ATOM     80  N   UNL A   1      45.767  26.561  25.675  1.00  0.00    -0.341 N 
BRANCH  80  81
ATOM     81  C   UNL A   1      45.867  27.868  26.124  1.00  0.00     0.226 A 
ATOM     82  N   UNL A   1      47.093  28.307  26.423  1.00  0.00    -0.213 NA
ATOM     83  N   UNL A   1      44.781  28.632  26.275  1.00  0.00    -0.212 NA
ATOM     84  C   UNL A   1      47.252  29.541  26.926  1.00  0.00     0.076 A 
ATOM     85  C   UNL A   1      44.937  29.872  26.806  1.00  0.00     0.112 A 
ATOM     86  C   UNL A   1      46.180  30.367  27.166  1.00  0.00     0.059 A 
BRANCH  84  87
ATOM     87  C   UNL A   1      48.657  29.903  27.163  1.00  0.00     0.001 A 
ATOM     88  C   UNL A   1      49.031  30.992  27.967  1.00  0.00     0.013 A 
ATOM     89  C   UNL A   1      49.681  29.094  26.623  1.00  0.00     0.013 A 
ATOM     90  C   UNL A   1      50.382  31.255  28.226  1.00  0.00     0.040 A 
ATOM     91  C   UNL A   1      51.027  29.359  26.875  1.00  0.00     0.040 A 
ATOM     92  C   UNL A   1      51.364  30.437  27.678  1.00  0.00     0.123 A 
ATOM     93  F   UNL A   1      52.654  30.686  27.938  1.00  0.00    -0.207 F 
ENDBRANCH  84  87
BRANCH  85  94
ATOM     94  C   UNL A   1      43.697  30.709  27.046  1.00  0.00     0.391 C 
ATOM     95  F   UNL A   1      43.641  31.836  26.279  1.00  0.00    -0.203 F 
ATOM     96  F   UNL A   1      42.543  30.027  26.805  1.00  0.00    -0.203 F 
ENDBRANCH  85  94
ENDBRANCH  80  81
ENDBRANCH  72  75
ENDBRANCH  70  71
ENDBRANCH  69  70
ENDBRANCH   1  69
TORSDOF 17
ENDMDL
