MODEL 1
REMARK VINA RESULT:     -10.1      0.000      0.000
REMARK SMILES CC(C)N(CC(=O)NCCCCNC(=O)c1ccc(-c2c3nc(c(-c4ccc(S(=O)(=O)[O-])cc4)c4ccc([nH]4)c(-c4ccc(S(=O)(=O)[O-])cc4)c4nc(c(-c5ccc(S(=O)(=O)[O-])cc5)c5ccc2[nH]5)C=C4)C=C3)cc1)C(=O)NC1C(C)(C)C1(C)C
REMARK SMILES IDX 10 1 9 2 8 3 6 4 7 5 5 7 4 8 2 9 1 10 3 11 76 12 77 13 78 14
REMARK SMILES IDX 79 16 80 17 83 18 81 19 82 20 84 21 85 22 11 23 12 24 13 25
REMARK SMILES IDX 14 26 15 28 16 29 17 30 75 31 18 32 74 33 19 34 20 35 21 36
REMARK SMILES IDX 68 37 22 38 73 39 67 40 69 41 23 42 72 43 66 44 65 45 24 47
REMARK SMILES IDX 54 48 35 49 53 50 36 51 39 52 52 53 70 54 37 55 38 56 51 58
REMARK SMILES IDX 71 59 40 60 25 61 26 62 34 63 27 64 33 65 28 66 29 67 30 68
REMARK SMILES IDX 31 69 32 70 55 71 56 72 64 73 57 74 63 75 58 76 59 77 60 78
REMARK SMILES IDX 61 79 62 80 41 81 42 82 50 83 43 84 49 85 44 86 45 87 46 88
REMARK SMILES IDX 47 89 48 90
REMARK H PARENT 8 6 78 15 13 27 69 46 39 57
REMARK Flexibility Score: inf
ROOT
ATOM      1  C   UNL A   1      31.406  27.687  26.727  1.00  0.00     0.023 C 
ENDROOT
BRANCH   1   2
ATOM      2  C   UNL A   1      31.014  26.643  25.686  1.00  0.00     0.116 C 
BRANCH   2   3
ATOM      3  N   UNL A   1      30.385  25.464  26.229  1.00  0.00    -0.355 N 
ATOM      4  C   UNL A   1      30.899  24.206  26.331  1.00  0.00     0.239 C 
ATOM      5  O   UNL A   1      30.477  23.495  27.250  1.00  0.00    -0.273 OA
ATOM      6  H   UNL A   1      29.469  25.583  26.570  1.00  0.00     0.163 HD
BRANCH   4   7
ATOM      7  C   UNL A   1      32.098  23.729  25.501  1.00  0.00     0.221 C 
BRANCH   7   8
ATOM      8  N   UNL A   1      32.831  22.520  25.883  1.00  0.00    -0.313 N 
BRANCH   8   9
ATOM      9  C   UNL A   1      32.907  21.463  24.832  1.00  0.00     0.081 C 
ATOM     10  C   UNL A   1      32.515  20.086  25.376  1.00  0.00     0.031 C 
ATOM     11  C   UNL A   1      32.155  21.759  23.528  1.00  0.00     0.031 C 
ENDBRANCH   8   9
BRANCH   8  12
ATOM     12  C   UNL A   1      33.724  22.461  26.928  1.00  0.00     0.318 C 
ATOM     13  O   UNL A   1      33.355  22.572  28.103  1.00  0.00    -0.249 OA
ATOM     14  N   UNL A   1      35.054  22.254  26.790  1.00  0.00    -0.334 N 
ATOM     15  H   UNL A   1      35.499  22.226  27.668  1.00  0.00     0.165 HD
BRANCH  14  16
ATOM     16  C   UNL A   1      35.997  22.062  25.733  1.00  0.00     0.096 C 
ATOM     17  C   UNL A   1      36.298  23.111  24.667  1.00  0.00    -0.007 C 
ATOM     18  C   UNL A   1      37.328  22.833  25.764  1.00  0.00    -0.007 C 
ATOM     19  C   UNL A   1      36.656  22.685  23.258  1.00  0.00     0.014 C 
ATOM     20  C   UNL A   1      35.535  24.414  24.680  1.00  0.00     0.014 C 
ATOM     21  C   UNL A   1      37.609  23.934  26.765  1.00  0.00     0.014 C 
ATOM     22  C   UNL A   1      38.587  22.058  25.418  1.00  0.00     0.014 C 
ENDBRANCH  14  16
ENDBRANCH   8  12
ENDBRANCH   7   8
ENDBRANCH   4   7
ENDBRANCH   2   3
ENDBRANCH   1   2
BRANCH   1  23
ATOM     23  C   UNL A   1      32.822  27.607  27.289  1.00  0.00     0.023 C 
BRANCH  23  24
ATOM     24  C   UNL A   1      33.805  28.661  26.804  1.00  0.00     0.116 C 
BRANCH  24  25
ATOM     25  N   UNL A   1      33.728  29.918  27.531  1.00  0.00    -0.352 N 
ATOM     26  C   UNL A   1      34.691  30.559  28.273  1.00  0.00     0.251 C 
ATOM     27  H   UNL A   1      32.858  30.377  27.486  1.00  0.00     0.163 HD
ATOM     28  O   UNL A   1      34.414  31.597  28.868  1.00  0.00    -0.269 OA
BRANCH  26  29
ATOM     29  C   UNL A   1      36.041  29.969  28.398  1.00  0.00     0.039 A 
ATOM     30  C   UNL A   1      36.893  30.010  27.291  1.00  0.00     0.014 A 
ATOM     31  C   UNL A   1      36.489  29.432  29.608  1.00  0.00     0.014 A 
ATOM     32  C   UNL A   1      38.222  29.606  27.425  1.00  0.00     0.010 A 
ATOM     33  C   UNL A   1      37.833  29.105  29.761  1.00  0.00     0.010 A 
ATOM     34  C   UNL A   1      38.716  29.205  28.676  1.00  0.00    -0.014 A 
BRANCH  34  35
ATOM     35  C   UNL A   1      40.163  28.940  28.887  1.00  0.00     0.031 A 
ATOM     36  C   UNL A   1      40.754  27.605  28.537  1.00  0.00     0.074 A 
ATOM     37  C   UNL A   1      40.923  29.875  29.492  1.00  0.00     0.049 A 
ATOM     38  N   UNL A   1      41.971  27.166  28.732  1.00  0.00    -0.248 NA
ATOM     39  C   UNL A   1      39.851  26.624  27.916  1.00  0.00     0.031 C 
ATOM     40  C   UNL A   1      40.454  31.189  29.940  1.00  0.00     0.029 A 
ATOM     41  N   UNL A   1      42.246  29.855  29.856  1.00  0.00    -0.354 N 
ATOM     42  C   UNL A   1      41.976  25.853  28.279  1.00  0.00     0.074 A 
ATOM     43  C   UNL A   1      40.629  25.554  27.841  1.00  0.00     0.031 C 
ATOM     44  C   UNL A   1      41.473  31.850  30.510  1.00  0.00     0.029 A 
ATOM     45  C   UNL A   1      42.657  30.997  30.503  1.00  0.00     0.049 A 
ATOM     46  H   UNL A   1      42.845  29.096  29.671  1.00  0.00     0.167 HD
ATOM     47  C   UNL A   1      43.010  24.980  28.218  1.00  0.00     0.031 A 
ATOM     48  C   UNL A   1      43.846  31.319  31.050  1.00  0.00     0.031 A 
ATOM     49  C   UNL A   1      44.348  25.282  28.653  1.00  0.00     0.049 A 
ATOM     50  C   UNL A   1      44.981  30.342  30.968  1.00  0.00     0.074 A 
ATOM     51  C   UNL A   1      45.482  24.494  28.560  1.00  0.00     0.029 A 
ATOM     52  N   UNL A   1      44.731  26.460  29.275  1.00  0.00    -0.354 N 
ATOM     53  N   UNL A   1      44.992  29.137  30.450  1.00  0.00    -0.248 NA
ATOM     54  C   UNL A   1      46.267  30.767  31.538  1.00  0.00     0.031 C 
ATOM     55  C   UNL A   1      46.539  25.175  29.176  1.00  0.00     0.029 A 
ATOM     56  C   UNL A   1      46.075  26.408  29.605  1.00  0.00     0.049 A 
ATOM     57  H   UNL A   1      44.134  27.222  29.457  1.00  0.00     0.167 HD
ATOM     58  C   UNL A   1      46.286  28.661  30.624  1.00  0.00     0.074 A 
ATOM     59  C   UNL A   1      47.035  29.717  31.277  1.00  0.00     0.031 C 
ATOM     60  C   UNL A   1      46.803  27.457  30.275  1.00  0.00     0.031 A 
BRANCH  47  61
ATOM     61  C   UNL A   1      42.716  23.606  27.675  1.00  0.00    -0.014 A 
ATOM     62  C   UNL A   1      42.234  22.581  28.510  1.00  0.00     0.010 A 
ATOM     63  C   UNL A   1      42.933  23.333  26.312  1.00  0.00     0.010 A 
ATOM     64  C   UNL A   1      42.037  21.293  28.007  1.00  0.00     0.020 A 
ATOM     65  C   UNL A   1      42.709  22.052  25.799  1.00  0.00     0.020 A 
ATOM     66  C   UNL A   1      42.289  21.033  26.657  1.00  0.00     0.054 A 
BRANCH  66  67
ATOM     67  S   UNL A   1      42.050  19.346  26.033  1.00  0.00     0.124 S 
ATOM     68  O   UNL A   1      42.924  19.334  24.863  1.00  0.00    -0.237 OA
ATOM     69  O   UNL A   1      42.493  18.521  27.155  1.00  0.00    -0.237 OA
ATOM     70  O   UNL A   1      40.619  19.283  25.743  1.00  0.00    -0.744 OA
ENDBRANCH  66  67
ENDBRANCH  47  61
BRANCH  48  71
ATOM     71  C   UNL A   1      44.002  32.638  31.721  1.00  0.00    -0.014 A 
ATOM     72  C   UNL A   1      44.284  33.792  30.972  1.00  0.00     0.010 A 
ATOM     73  C   UNL A   1      43.796  32.752  33.109  1.00  0.00     0.010 A 
ATOM     74  C   UNL A   1      44.349  35.041  31.597  1.00  0.00     0.020 A 
ATOM     75  C   UNL A   1      43.837  34.003  33.732  1.00  0.00     0.020 A 
ATOM     76  C   UNL A   1      44.116  35.140  32.972  1.00  0.00     0.054 A 
BRANCH  76  77
ATOM     77  S   UNL A   1      44.103  36.783  33.743  1.00  0.00     0.124 S 
ATOM     78  O   UNL A   1      44.650  36.502  35.066  1.00  0.00    -0.237 OA
ATOM     79  O   UNL A   1      44.964  37.556  32.852  1.00  0.00    -0.237 OA
ATOM     80  O   UNL A   1      42.691  37.161  33.714  1.00  0.00    -0.744 OA
ENDBRANCH  76  77
ENDBRANCH  48  71
BRANCH  60  81
ATOM     81  C   UNL A   1      48.254  27.211  30.595  1.00  0.00    -0.014 A 
ATOM     82  C   UNL A   1      49.271  27.717  29.768  1.00  0.00     0.010 A 
ATOM     83  C   UNL A   1      48.603  26.519  31.769  1.00  0.00     0.010 A 
ATOM     84  C   UNL A   1      50.615  27.519  30.099  1.00  0.00     0.020 A 
ATOM     85  C   UNL A   1      49.944  26.339  32.115  1.00  0.00     0.020 A 
ATOM     86  C   UNL A   1      50.943  26.832  31.272  1.00  0.00     0.054 A 
BRANCH  86  87
ATOM     87  S   UNL A   1      52.692  26.635  31.709  1.00  0.00     0.124 S 
ATOM     88  O   UNL A   1      52.837  27.577  32.816  1.00  0.00    -0.237 OA
ATOM     89  O   UNL A   1      52.775  25.222  32.071  1.00  0.00    -0.237 OA
ATOM     90  O   UNL A   1      53.399  27.000  30.483  1.00  0.00    -0.744 OA
ENDBRANCH  86  87
ENDBRANCH  60  81
ENDBRANCH  34  35
ENDBRANCH  26  29
ENDBRANCH  24  25
ENDBRANCH  23  24
ENDBRANCH   1  23
TORSDOF 18
ENDMDL
MODEL 2
REMARK VINA RESULT:     -10.0      4.459      9.560
REMARK SMILES CC(C)N(CC(=O)NCCCCNC(=O)c1ccc(-c2c3nc(c(-c4ccc(S(=O)(=O)[O-])cc4)c4ccc([nH]4)c(-c4ccc(S(=O)(=O)[O-])cc4)c4nc(c(-c5ccc(S(=O)(=O)[O-])cc5)c5ccc2[nH]5)C=C4)C=C3)cc1)C(=O)NC1C(C)(C)C1(C)C
REMARK SMILES IDX 10 1 9 2 8 3 6 4 7 5 5 7 4 8 2 9 1 10 3 11 76 12 77 13 78 14
REMARK SMILES IDX 79 16 80 17 83 18 81 19 82 20 84 21 85 22 11 23 12 24 13 25
REMARK SMILES IDX 14 26 15 28 16 29 17 30 75 31 18 32 74 33 19 34 20 35 21 36
REMARK SMILES IDX 68 37 22 38 73 39 67 40 69 41 23 42 72 43 66 44 65 45 24 47
REMARK SMILES IDX 54 48 35 49 53 50 36 51 39 52 52 53 70 54 37 55 38 56 51 58
REMARK SMILES IDX 71 59 40 60 25 61 26 62 34 63 27 64 33 65 28 66 29 67 30 68
REMARK SMILES IDX 31 69 32 70 55 71 56 72 64 73 57 74 63 75 58 76 59 77 60 78
REMARK SMILES IDX 61 79 62 80 41 81 42 82 50 83 43 84 49 85 44 86 45 87 46 88
REMARK SMILES IDX 47 89 48 90
REMARK H PARENT 8 6 78 15 13 27 69 46 39 57
REMARK Flexibility Score: inf
ROOT
ATOM      1  C   UNL A   1      37.227  22.225  24.790  1.00  0.00     0.023 C 
ENDROOT
BRANCH   1   2
ATOM      2  C   UNL A   1      36.200  21.350  25.503  1.00  0.00     0.116 C 
BRANCH   2   3
ATOM      3  N   UNL A   1      35.471  22.018  26.552  1.00  0.00    -0.355 N 
ATOM      4  C   UNL A   1      34.126  22.024  26.771  1.00  0.00     0.239 C 
ATOM      5  O   UNL A   1      33.744  22.174  27.938  1.00  0.00    -0.273 OA
ATOM      6  H   UNL A   1      36.013  22.535  27.192  1.00  0.00     0.163 HD
BRANCH   4   7
ATOM      7  C   UNL A   1      33.106  21.652  25.688  1.00  0.00     0.221 C 
BRANCH   7   8
ATOM      8  N   UNL A   1      32.462  22.694  24.885  1.00  0.00    -0.313 N 
BRANCH   8   9
ATOM      9  C   UNL A   1      32.551  22.505  23.408  1.00  0.00     0.081 C 
ATOM     10  C   UNL A   1      33.904  22.963  22.853  1.00  0.00     0.031 C 
ATOM     11  C   UNL A   1      32.205  21.103  22.888  1.00  0.00     0.031 C 
ENDBRANCH   8   9
BRANCH   8  12
ATOM     12  C   UNL A   1      31.512  23.561  25.371  1.00  0.00     0.318 C 
ATOM     13  O   UNL A   1      30.503  23.153  25.959  1.00  0.00    -0.249 OA
ATOM     14  N   UNL A   1      31.587  24.909  25.287  1.00  0.00    -0.334 N 
ATOM     15  H   UNL A   1      30.810  25.333  25.720  1.00  0.00     0.165 HD
BRANCH  14  16
ATOM     16  C   UNL A   1      32.474  25.894  24.751  1.00  0.00     0.096 C 
ATOM     17  C   UNL A   1      32.399  26.408  23.316  1.00  0.00    -0.007 C 
ATOM     18  C   UNL A   1      31.941  27.309  24.465  1.00  0.00    -0.007 C 
ATOM     19  C   UNL A   1      33.663  26.808  22.583  1.00  0.00     0.014 C 
ATOM     20  C   UNL A   1      31.371  25.823  22.377  1.00  0.00     0.014 C 
ATOM     21  C   UNL A   1      30.469  27.658  24.545  1.00  0.00     0.014 C 
ATOM     22  C   UNL A   1      32.816  28.477  24.882  1.00  0.00     0.014 C 
ENDBRANCH  14  16
ENDBRANCH   8  12
ENDBRANCH   7   8
ENDBRANCH   4   7
ENDBRANCH   2   3
ENDBRANCH   1   2
BRANCH   1  23
ATOM     23  C   UNL A   1      37.399  23.650  25.305  1.00  0.00     0.023 C 
BRANCH  23  24
ATOM     24  C   UNL A   1      38.313  23.831  26.507  1.00  0.00     0.116 C 
BRANCH  24  25
ATOM     25  N   UNL A   1      39.729  23.727  26.191  1.00  0.00    -0.352 N 
ATOM     26  C   UNL A   1      40.772  24.538  26.573  1.00  0.00     0.251 C 
ATOM     27  H   UNL A   1      39.978  22.965  25.621  1.00  0.00     0.163 HD
ATOM     28  O   UNL A   1      41.904  24.315  26.152  1.00  0.00    -0.269 OA
BRANCH  26  29
ATOM     29  C   UNL A   1      40.519  25.706  27.444  1.00  0.00     0.039 A 
ATOM     30  C   UNL A   1      39.623  25.562  28.508  1.00  0.00     0.014 A 
ATOM     31  C   UNL A   1      41.196  26.912  27.255  1.00  0.00     0.014 A 
ATOM     32  C   UNL A   1      39.484  26.594  29.439  1.00  0.00     0.010 A 
ATOM     33  C   UNL A   1      41.117  27.907  28.226  1.00  0.00     0.010 A 
ATOM     34  C   UNL A   1      40.273  27.750  29.336  1.00  0.00    -0.014 A 
BRANCH  34  35
ATOM     35  C   UNL A   1      40.276  28.782  30.405  1.00  0.00     0.031 A 
ATOM     36  C   UNL A   1      41.181  28.646  31.595  1.00  0.00     0.074 A 
ATOM     37  C   UNL A   1      39.382  29.790  30.351  1.00  0.00     0.049 A 
ATOM     38  N   UNL A   1      41.257  29.398  32.663  1.00  0.00    -0.248 NA
ATOM     39  C   UNL A   1      42.100  27.497  31.599  1.00  0.00     0.031 C 
ATOM     40  C   UNL A   1      38.403  29.998  29.281  1.00  0.00     0.029 A 
ATOM     41  N   UNL A   1      39.137  30.817  31.228  1.00  0.00    -0.354 N 
ATOM     42  C   UNL A   1      42.214  28.803  33.476  1.00  0.00     0.074 A 
ATOM     43  C   UNL A   1      42.657  27.604  32.797  1.00  0.00     0.031 C 
ATOM     44  C   UNL A   1      37.671  31.088  29.559  1.00  0.00     0.029 A 
ATOM     45  C   UNL A   1      38.099  31.634  30.843  1.00  0.00     0.049 A 
ATOM     46  H   UNL A   1      39.654  30.956  32.053  1.00  0.00     0.167 HD
ATOM     47  C   UNL A   1      42.691  29.225  34.672  1.00  0.00     0.031 A 
ATOM     48  C   UNL A   1      37.539  32.693  31.459  1.00  0.00     0.031 A 
ATOM     49  C   UNL A   1      42.249  30.418  35.343  1.00  0.00     0.049 A 
ATOM     50  C   UNL A   1      38.084  33.148  32.780  1.00  0.00     0.074 A 
ATOM     51  C   UNL A   1      42.726  30.973  36.518  1.00  0.00     0.029 A 
ATOM     52  N   UNL A   1      41.217  31.235  34.906  1.00  0.00    -0.354 N 
ATOM     53  N   UNL A   1      39.055  32.627  33.491  1.00  0.00    -0.248 NA
ATOM     54  C   UNL A   1      37.465  34.337  33.381  1.00  0.00     0.031 C 
ATOM     55  C   UNL A   1      41.946  32.095  36.820  1.00  0.00     0.029 A 
ATOM     56  C   UNL A   1      41.017  32.269  35.806  1.00  0.00     0.049 A 
ATOM     57  H   UNL A   1      40.701  31.099  34.079  1.00  0.00     0.167 HD
ATOM     58  C   UNL A   1      39.170  33.427  34.622  1.00  0.00     0.074 A 
ATOM     59  C   UNL A   1      38.182  34.481  34.488  1.00  0.00     0.031 C 
ATOM     60  C   UNL A   1      40.016  33.299  35.673  1.00  0.00     0.031 A 
BRANCH  47  61
ATOM     61  C   UNL A   1      43.737  28.366  35.333  1.00  0.00    -0.014 A 
ATOM     62  C   UNL A   1      43.377  27.323  36.207  1.00  0.00     0.010 A 
ATOM     63  C   UNL A   1      45.100  28.609  35.084  1.00  0.00     0.010 A 
ATOM     64  C   UNL A   1      44.360  26.584  36.870  1.00  0.00     0.020 A 
ATOM     65  C   UNL A   1      46.087  27.852  35.723  1.00  0.00     0.020 A 
ATOM     66  C   UNL A   1      45.709  26.862  36.633  1.00  0.00     0.054 A 
BRANCH  66  67
ATOM     67  S   UNL A   1      46.967  25.906  37.525  1.00  0.00     0.124 S 
ATOM     68  O   UNL A   1      47.251  26.776  38.664  1.00  0.00    -0.237 OA
ATOM     69  O   UNL A   1      46.263  24.666  37.844  1.00  0.00    -0.237 OA
ATOM     70  O   UNL A   1      48.052  25.772  36.557  1.00  0.00    -0.744 OA
ENDBRANCH  66  67
ENDBRANCH  47  61
BRANCH  48  71
ATOM     71  C   UNL A   1      36.391  33.384  30.812  1.00  0.00    -0.014 A 
ATOM     72  C   UNL A   1      35.110  33.332  31.385  1.00  0.00     0.010 A 
ATOM     73  C   UNL A   1      36.595  34.160  29.655  1.00  0.00     0.010 A 
ATOM     74  C   UNL A   1      34.053  34.050  30.818  1.00  0.00     0.020 A 
ATOM     75  C   UNL A   1      35.545  34.897  29.100  1.00  0.00     0.020 A 
ATOM     76  C   UNL A   1      34.279  34.836  29.685  1.00  0.00     0.054 A 
BRANCH  76  77
ATOM     77  S   UNL A   1      32.918  35.840  29.028  1.00  0.00     0.124 S 
ATOM     78  O   UNL A   1      32.157  36.147  30.235  1.00  0.00    -0.237 OA
ATOM     79  O   UNL A   1      33.621  36.967  28.420  1.00  0.00    -0.237 OA
ATOM     80  O   UNL A   1      32.258  34.942  28.081  1.00  0.00    -0.744 OA
ENDBRANCH  76  77
ENDBRANCH  48  71
BRANCH  60  81
ATOM     81  C   UNL A   1      39.912  34.322  36.772  1.00  0.00    -0.014 A 
ATOM     82  C   UNL A   1      39.041  34.128  37.859  1.00  0.00     0.010 A 
ATOM     83  C   UNL A   1      40.739  35.460  36.749  1.00  0.00     0.010 A 
ATOM     84  C   UNL A   1      38.984  35.064  38.894  1.00  0.00     0.020 A 
ATOM     85  C   UNL A   1      40.702  36.386  37.794  1.00  0.00     0.020 A 
ATOM     86  C   UNL A   1      39.817  36.187  38.856  1.00  0.00     0.054 A 
BRANCH  86  87
ATOM     87  S   UNL A   1      39.766  37.360  40.239  1.00  0.00     0.124 S 
ATOM     88  O   UNL A   1      40.344  36.574  41.326  1.00  0.00    -0.237 OA
ATOM     89  O   UNL A   1      40.590  38.464  39.754  1.00  0.00    -0.237 OA
ATOM     90  O   UNL A   1      38.344  37.667  40.381  1.00  0.00    -0.744 OA
ENDBRANCH  86  87
ENDBRANCH  60  81
ENDBRANCH  34  35
ENDBRANCH  26  29
ENDBRANCH  24  25
ENDBRANCH  23  24
ENDBRANCH   1  23
TORSDOF 18
ENDMDL
MODEL 3
REMARK VINA RESULT:      -9.8      4.430     10.701
REMARK SMILES CC(C)N(CC(=O)NCCCCNC(=O)c1ccc(-c2c3nc(c(-c4ccc(S(=O)(=O)[O-])cc4)c4ccc([nH]4)c(-c4ccc(S(=O)(=O)[O-])cc4)c4nc(c(-c5ccc(S(=O)(=O)[O-])cc5)c5ccc2[nH]5)C=C4)C=C3)cc1)C(=O)NC1C(C)(C)C1(C)C
REMARK SMILES IDX 10 1 9 2 8 3 6 4 7 5 5 7 4 8 2 9 1 10 3 11 76 12 77 13 78 14
REMARK SMILES IDX 79 16 80 17 83 18 81 19 82 20 84 21 85 22 11 23 12 24 13 25
REMARK SMILES IDX 14 26 15 28 16 29 17 30 75 31 18 32 74 33 19 34 20 35 21 36
REMARK SMILES IDX 68 37 22 38 73 39 67 40 69 41 23 42 72 43 66 44 65 45 24 47
REMARK SMILES IDX 54 48 35 49 53 50 36 51 39 52 52 53 70 54 37 55 38 56 51 58
REMARK SMILES IDX 71 59 40 60 25 61 26 62 34 63 27 64 33 65 28 66 29 67 30 68
REMARK SMILES IDX 31 69 32 70 55 71 56 72 64 73 57 74 63 75 58 76 59 77 60 78
REMARK SMILES IDX 61 79 62 80 41 81 42 82 50 83 43 84 49 85 44 86 45 87 46 88
REMARK SMILES IDX 47 89 48 90
REMARK H PARENT 8 6 78 15 13 27 69 46 39 57
REMARK Flexibility Score: inf
ROOT
ATOM      1  C   UNL A   1      33.598  30.508  26.876  1.00  0.00     0.023 C 
ENDROOT
BRANCH   1   2
ATOM      2  C   UNL A   1      33.688  31.549  27.988  1.00  0.00     0.116 C 
BRANCH   2   3
ATOM      3  N   UNL A   1      34.600  32.634  27.719  1.00  0.00    -0.355 N 
ATOM      4  C   UNL A   1      34.865  33.722  28.495  1.00  0.00     0.239 C 
ATOM      5  O   UNL A   1      35.987  34.231  28.389  1.00  0.00    -0.273 OA
ATOM      6  H   UNL A   1      35.092  32.581  26.868  1.00  0.00     0.163 HD
BRANCH   4   7
ATOM      7  C   UNL A   1      33.927  34.196  29.612  1.00  0.00     0.221 C 
BRANCH   7   8
ATOM      8  N   UNL A   1      34.396  34.259  30.998  1.00  0.00    -0.313 N 
BRANCH   8   9
ATOM      9  C   UNL A   1      34.068  35.522  31.723  1.00  0.00     0.081 C 
ATOM     10  C   UNL A   1      32.620  35.962  31.479  1.00  0.00     0.031 C 
ATOM     11  C   UNL A   1      34.387  35.536  33.224  1.00  0.00     0.031 C 
ENDBRANCH   8   9
BRANCH   8  12
ATOM     12  C   UNL A   1      34.746  33.157  31.742  1.00  0.00     0.318 C 
ATOM     13  O   UNL A   1      33.916  32.549  32.429  1.00  0.00    -0.249 OA
ATOM     14  N   UNL A   1      35.987  32.620  31.782  1.00  0.00    -0.334 N 
ATOM     15  H   UNL A   1      36.008  31.823  32.360  1.00  0.00     0.165 HD
BRANCH  14  16
ATOM     16  C   UNL A   1      37.276  32.878  31.221  1.00  0.00     0.096 C 
ATOM     17  C   UNL A   1      38.296  33.825  31.846  1.00  0.00    -0.007 C 
ATOM     18  C   UNL A   1      38.526  32.314  31.920  1.00  0.00    -0.007 C 
ATOM     19  C   UNL A   1      39.232  34.626  30.965  1.00  0.00     0.014 C 
ATOM     20  C   UNL A   1      37.927  34.582  33.100  1.00  0.00     0.014 C 
ATOM     21  C   UNL A   1      38.471  31.658  33.283  1.00  0.00     0.014 C 
ATOM     22  C   UNL A   1      39.589  31.685  31.038  1.00  0.00     0.014 C 
ENDBRANCH  14  16
ENDBRANCH   8  12
ENDBRANCH   7   8
ENDBRANCH   4   7
ENDBRANCH   2   3
ENDBRANCH   1   2
BRANCH   1  23
ATOM     23  C   UNL A   1      34.428  29.239  27.046  1.00  0.00     0.023 C 
BRANCH  23  24
ATOM     24  C   UNL A   1      35.808  29.409  27.661  1.00  0.00     0.116 C 
BRANCH  24  25
ATOM     25  N   UNL A   1      35.798  29.516  29.112  1.00  0.00    -0.352 N 
ATOM     26  C   UNL A   1      36.811  29.289  30.013  1.00  0.00     0.251 C 
ATOM     27  H   UNL A   1      34.939  29.791  29.507  1.00  0.00     0.163 HD
ATOM     28  O   UNL A   1      36.588  29.377  31.217  1.00  0.00    -0.269 OA
BRANCH  26  29
ATOM     29  C   UNL A   1      38.150  28.885  29.531  1.00  0.00     0.039 A 
ATOM     30  C   UNL A   1      38.570  29.332  28.275  1.00  0.00     0.014 A 
ATOM     31  C   UNL A   1      39.008  28.124  30.328  1.00  0.00     0.014 A 
ATOM     32  C   UNL A   1      39.883  29.101  27.862  1.00  0.00     0.010 A 
ATOM     33  C   UNL A   1      40.339  27.965  29.951  1.00  0.00     0.010 A 
ATOM     34  C   UNL A   1      40.793  28.466  28.722  1.00  0.00    -0.014 A 
BRANCH  34  35
ATOM     35  C   UNL A   1      42.236  28.366  28.383  1.00  0.00     0.031 A 
ATOM     36  C   UNL A   1      43.140  29.555  28.537  1.00  0.00     0.074 A 
ATOM     37  C   UNL A   1      42.708  27.228  27.836  1.00  0.00     0.049 A 
ATOM     38  N   UNL A   1      44.401  29.678  28.209  1.00  0.00    -0.248 NA
ATOM     39  C   UNL A   1      42.542  30.773  29.105  1.00  0.00     0.031 C 
ATOM     40  C   UNL A   1      41.917  26.023  27.573  1.00  0.00     0.029 A 
ATOM     41  N   UNL A   1      43.962  26.906  27.380  1.00  0.00    -0.354 N 
ATOM     42  C   UNL A   1      44.742  30.992  28.509  1.00  0.00     0.074 A 
ATOM     43  C   UNL A   1      43.543  31.635  29.003  1.00  0.00     0.031 C 
ATOM     44  C   UNL A   1      42.705  25.092  27.012  1.00  0.00     0.029 A 
ATOM     45  C   UNL A   1      44.044  25.644  26.840  1.00  0.00     0.049 A 
ATOM     46  H   UNL A   1      44.730  27.519  27.436  1.00  0.00     0.167 HD
ATOM     47  C   UNL A   1      45.946  31.602  28.399  1.00  0.00     0.031 A 
ATOM     48  C   UNL A   1      45.074  25.005  26.252  1.00  0.00     0.031 A 
ATOM     49  C   UNL A   1      47.136  30.959  27.909  1.00  0.00     0.049 A 
ATOM     50  C   UNL A   1      46.402  25.695  26.143  1.00  0.00     0.074 A 
ATOM     51  C   UNL A   1      48.421  31.467  27.833  1.00  0.00     0.029 A 
ATOM     52  N   UNL A   1      47.186  29.670  27.399  1.00  0.00    -0.354 N 
ATOM     53  N   UNL A   1      46.730  26.907  26.520  1.00  0.00    -0.248 NA
ATOM     54  C   UNL A   1      47.501  24.931  25.537  1.00  0.00     0.031 C 
ATOM     55  C   UNL A   1      49.237  30.505  27.226  1.00  0.00     0.029 A 
ATOM     56  C   UNL A   1      48.471  29.378  26.972  1.00  0.00     0.049 A 
ATOM     57  H   UNL A   1      46.420  29.054  27.346  1.00  0.00     0.167 HD
ATOM     58  C   UNL A   1      48.076  27.052  26.203  1.00  0.00     0.074 A 
ATOM     59  C   UNL A   1      48.505  25.794  25.623  1.00  0.00     0.031 C 
ATOM     60  C   UNL A   1      48.880  28.130  26.377  1.00  0.00     0.031 A 
BRANCH  47  61
ATOM     61  C   UNL A   1      46.019  33.052  28.802  1.00  0.00    -0.014 A 
ATOM     62  C   UNL A   1      45.794  34.080  27.867  1.00  0.00     0.010 A 
ATOM     63  C   UNL A   1      46.324  33.393  30.132  1.00  0.00     0.010 A 
ATOM     64  C   UNL A   1      45.939  35.419  28.239  1.00  0.00     0.020 A 
ATOM     65  C   UNL A   1      46.441  34.732  30.515  1.00  0.00     0.020 A 
ATOM     66  C   UNL A   1      46.274  35.736  29.559  1.00  0.00     0.054 A 
BRANCH  66  67
ATOM     67  S   UNL A   1      46.481  37.480  30.011  1.00  0.00     0.124 S 
ATOM     68  O   UNL A   1      45.607  38.144  29.046  1.00  0.00    -0.237 OA
ATOM     69  O   UNL A   1      46.021  37.511  31.398  1.00  0.00    -0.237 OA
ATOM     70  O   UNL A   1      47.910  37.720  29.826  1.00  0.00    -0.744 OA
ENDBRANCH  66  67
ENDBRANCH  47  61
BRANCH  48  71
ATOM     71  C   UNL A   1      44.868  23.628  25.725  1.00  0.00    -0.014 A 
ATOM     72  C   UNL A   1      44.693  23.409  24.349  1.00  0.00     0.010 A 
ATOM     73  C   UNL A   1      44.921  22.524  26.595  1.00  0.00     0.010 A 
ATOM     74  C   UNL A   1      44.581  22.108  23.850  1.00  0.00     0.020 A 
ATOM     75  C   UNL A   1      44.833  21.221  26.096  1.00  0.00     0.020 A 
ATOM     76  C   UNL A   1      44.662  21.022  24.726  1.00  0.00     0.054 A 
BRANCH  76  77
ATOM     77  S   UNL A   1      44.618  19.341  24.043  1.00  0.00     0.124 S 
ATOM     78  O   UNL A   1      44.548  19.597  22.608  1.00  0.00    -0.237 OA
ATOM     79  O   UNL A   1      45.875  18.772  24.523  1.00  0.00    -0.237 OA
ATOM     80  O   UNL A   1      43.414  18.763  24.638  1.00  0.00    -0.744 OA
ENDBRANCH  76  77
ENDBRANCH  48  71
BRANCH  60  81
ATOM     81  C   UNL A   1      50.312  28.002  25.930  1.00  0.00    -0.014 A 
ATOM     82  C   UNL A   1      51.311  27.578  26.824  1.00  0.00     0.010 A 
ATOM     83  C   UNL A   1      50.651  28.246  24.587  1.00  0.00     0.010 A 
ATOM     84  C   UNL A   1      52.629  27.422  26.388  1.00  0.00     0.020 A 
ATOM     85  C   UNL A   1      51.962  28.068  24.142  1.00  0.00     0.020 A 
ATOM     86  C   UNL A   1      52.947  27.666  25.048  1.00  0.00     0.054 A 
BRANCH  86  87
ATOM     87  S   UNL A   1      54.653  27.403  24.492  1.00  0.00     0.124 S 
ATOM     88  O   UNL A   1      54.760  28.346  23.381  1.00  0.00    -0.237 OA
ATOM     89  O   UNL A   1      55.433  27.740  25.679  1.00  0.00    -0.237 OA
ATOM     90  O   UNL A   1      54.681  25.991  24.115  1.00  0.00    -0.744 OA
ENDBRANCH  86  87
ENDBRANCH  60  81
ENDBRANCH  34  35
ENDBRANCH  26  29
ENDBRANCH  24  25
ENDBRANCH  23  24
ENDBRANCH   1  23
TORSDOF 18
ENDMDL
