MODEL 1
REMARK VINA RESULT:      -9.2      0.000      0.000
REMARK SMILES CC(C)C[C@@H](CNC(=O)N(C)CCC#N)C(=O)NCCCCNC(=O)c1ccc(-c2c3nc(c(-c4ccc(S(=O)(=O)[O-])cc4)c4ccc([nH]4)c(-c4ccc(S(=O)(=O)[O-])cc4)c4nc(c(-c5ccc(S(=O)(=O)[O-])cc5)c5ccc2[nH]5)C=C4)C=C3)cc1
REMARK SMILES IDX 19 1 18 2 16 3 17 4 5 6 4 7 2 8 1 9 3 10 6 11 7 12 8 13 9 15
REMARK SMILES IDX 10 16 11 17 12 18 13 19 14 20 15 21 20 22 21 23 22 24 23 25
REMARK SMILES IDX 24 26 25 28 26 29 27 30 85 31 28 32 84 33 29 34 30 35 31 36
REMARK SMILES IDX 78 37 32 38 83 39 77 40 79 41 33 42 82 43 76 44 75 45 34 47
REMARK SMILES IDX 64 48 45 49 63 50 46 51 49 52 62 53 80 54 47 55 48 56 61 58
REMARK SMILES IDX 81 59 50 60 35 61 36 62 44 63 37 64 43 65 38 66 39 67 40 68
REMARK SMILES IDX 41 69 42 70 65 71 66 72 74 73 67 74 73 75 68 76 69 77 70 78
REMARK SMILES IDX 71 79 72 80 51 81 52 82 60 83 53 84 59 85 54 86 55 87 56 88
REMARK SMILES IDX 57 89 58 90
REMARK H PARENT 18 5 7 14 23 27 79 46 49 57
REMARK Flexibility Score: inf
ROOT
ATOM      1  C   UNL A   1      33.842  25.581  25.360  1.00  0.00     0.116 C 
ENDROOT
BRANCH   1   2
ATOM      2  N   UNL A   1      33.927  25.794  23.925  1.00  0.00    -0.356 N 
ATOM      3  C   UNL A   1      33.010  25.630  22.936  1.00  0.00     0.224 C 
ATOM      4  O   UNL A   1      33.255  26.168  21.848  1.00  0.00    -0.275 OA
ATOM      5  H   UNL A   1      34.805  26.113  23.614  1.00  0.00     0.163 HD
BRANCH   3   6
ATOM      6  C   UNL A   1      31.703  24.851  23.097  1.00  0.00     0.098 C 
BRANCH   6   7
ATOM      7  C   UNL A   1      31.867  23.467  23.755  1.00  0.00     0.018 C 
BRANCH   7   8
ATOM      8  C   UNL A   1      32.855  22.473  23.116  1.00  0.00    -0.017 C 
ATOM      9  C   UNL A   1      33.893  21.932  24.096  1.00  0.00     0.007 C 
ATOM     10  C   UNL A   1      32.064  21.299  22.519  1.00  0.00     0.007 C 
ENDBRANCH   7   8
ENDBRANCH   6   7
BRANCH   6  11
ATOM     11  C   UNL A   1      30.546  25.785  23.513  1.00  0.00     0.131 C 
BRANCH  11  12
ATOM     12  N   UNL A   1      30.755  27.197  23.277  1.00  0.00    -0.337 N 
ATOM     13  C   UNL A   1      30.024  28.129  22.649  1.00  0.00     0.317 C 
ATOM     14  H   UNL A   1      31.598  27.541  23.651  1.00  0.00     0.165 HD
ATOM     15  O   UNL A   1      30.682  28.805  21.864  1.00  0.00    -0.249 OA
BRANCH  13  16
ATOM     16  N   UNL A   1      28.709  28.399  22.896  1.00  0.00    -0.327 N 
ATOM     17  C   UNL A   1      27.773  27.581  23.644  1.00  0.00     0.148 C 
BRANCH  16  18
ATOM     18  C   UNL A   1      28.159  29.698  22.407  1.00  0.00     0.136 C 
BRANCH  18  19
ATOM     19  C   UNL A   1      28.255  30.907  23.384  1.00  0.00     0.141 C 
BRANCH  19  20
ATOM     20  C   UNL A   1      28.104  32.185  22.574  1.00  0.00     0.064 C 
ATOM     21  N   UNL A   1      27.979  33.245  21.903  1.00  0.00    -0.198 NA
ENDBRANCH  19  20
ENDBRANCH  18  19
ENDBRANCH  16  18
ENDBRANCH  13  16
ENDBRANCH  11  12
ENDBRANCH   6  11
ENDBRANCH   3   6
ENDBRANCH   1   2
BRANCH   1  22
ATOM     22  C   UNL A   1      33.276  26.773  26.122  1.00  0.00     0.023 C 
BRANCH  22  23
ATOM     23  C   UNL A   1      33.792  28.130  25.639  1.00  0.00     0.023 C 
BRANCH  23  24
ATOM     24  C   UNL A   1      34.561  28.960  26.668  1.00  0.00     0.116 C 
BRANCH  24  25
ATOM     25  N   UNL A   1      34.082  30.329  26.803  1.00  0.00    -0.352 N 
ATOM     26  C   UNL A   1      34.523  31.308  27.663  1.00  0.00     0.251 C 
ATOM     27  H   UNL A   1      33.349  30.587  26.200  1.00  0.00     0.163 HD
ATOM     28  O   UNL A   1      33.928  32.379  27.758  1.00  0.00    -0.269 OA
BRANCH  26  29
ATOM     29  C   UNL A   1      35.701  31.042  28.517  1.00  0.00     0.039 A 
ATOM     30  C   UNL A   1      35.659  29.974  29.416  1.00  0.00     0.014 A 
ATOM     31  C   UNL A   1      36.859  31.814  28.392  1.00  0.00     0.014 A 
ATOM     32  C   UNL A   1      36.811  29.622  30.122  1.00  0.00     0.010 A 
ATOM     33  C   UNL A   1      38.024  31.422  29.045  1.00  0.00     0.010 A 
ATOM     34  C   UNL A   1      38.015  30.313  29.906  1.00  0.00    -0.014 A 
BRANCH  34  35
ATOM     35  C   UNL A   1      39.282  29.869  30.540  1.00  0.00     0.031 A 
ATOM     36  C   UNL A   1      39.821  30.584  31.748  1.00  0.00     0.074 A 
ATOM     37  C   UNL A   1      39.990  28.867  29.978  1.00  0.00     0.049 A 
ATOM     38  N   UNL A   1      40.941  30.382  32.393  1.00  0.00    -0.248 NA
ATOM     39  C   UNL A   1      39.008  31.687  32.285  1.00  0.00     0.031 C 
ATOM     40  C   UNL A   1      39.603  28.124  28.776  1.00  0.00     0.029 A 
ATOM     41  N   UNL A   1      41.190  28.305  30.340  1.00  0.00    -0.354 N 
ATOM     42  C   UNL A   1      40.979  31.343  33.395  1.00  0.00     0.074 A 
ATOM     43  C   UNL A   1      39.788  32.154  33.248  1.00  0.00     0.031 C 
ATOM     44  C   UNL A   1      40.531  27.188  28.517  1.00  0.00     0.029 A 
ATOM     45  C   UNL A   1      41.597  27.287  29.509  1.00  0.00     0.049 A 
ATOM     46  H   UNL A   1      41.711  28.604  31.120  1.00  0.00     0.167 HD
ATOM     47  C   UNL A   1      41.911  31.527  34.361  1.00  0.00     0.031 A 
ATOM     48  C   UNL A   1      42.704  26.521  29.539  1.00  0.00     0.031 A 
ATOM     49  C   UNL A   1      43.082  30.706  34.521  1.00  0.00     0.049 A 
ATOM     50  C   UNL A   1      43.717  26.734  30.630  1.00  0.00     0.074 A 
ATOM     51  C   UNL A   1      44.049  30.771  35.509  1.00  0.00     0.029 A 
ATOM     52  N   UNL A   1      43.445  29.672  33.673  1.00  0.00    -0.354 N 
ATOM     53  N   UNL A   1      43.702  27.608  31.608  1.00  0.00    -0.248 NA
ATOM     54  C   UNL A   1      44.892  25.853  30.625  1.00  0.00     0.031 C 
ATOM     55  C   UNL A   1      45.018  29.800  35.236  1.00  0.00     0.029 A 
ATOM     56  C   UNL A   1      44.632  29.102  34.104  1.00  0.00     0.049 A 
ATOM     57  H   UNL A   1      42.935  29.384  32.882  1.00  0.00     0.167 HD
ATOM     58  C   UNL A   1      44.851  27.363  32.352  1.00  0.00     0.074 A 
ATOM     59  C   UNL A   1      45.532  26.253  31.716  1.00  0.00     0.031 C 
ATOM     60  C   UNL A   1      45.298  27.998  33.461  1.00  0.00     0.031 A 
BRANCH  47  61
ATOM     61  C   UNL A   1      41.700  32.667  35.321  1.00  0.00    -0.014 A 
ATOM     62  C   UNL A   1      40.944  32.496  36.495  1.00  0.00     0.010 A 
ATOM     63  C   UNL A   1      42.291  33.916  35.063  1.00  0.00     0.010 A 
ATOM     64  C   UNL A   1      40.747  33.566  37.371  1.00  0.00     0.020 A 
ATOM     65  C   UNL A   1      42.118  34.982  35.950  1.00  0.00     0.020 A 
ATOM     66  C   UNL A   1      41.330  34.805  37.089  1.00  0.00     0.054 A 
BRANCH  66  67
ATOM     67  S   UNL A   1      41.070  36.176  38.249  1.00  0.00     0.124 S 
ATOM     68  O   UNL A   1      42.282  36.968  38.053  1.00  0.00    -0.237 OA
ATOM     69  O   UNL A   1      39.836  36.784  37.758  1.00  0.00    -0.237 OA
ATOM     70  O   UNL A   1      40.961  35.515  39.548  1.00  0.00    -0.744 OA
ENDBRANCH  66  67
ENDBRANCH  47  61
BRANCH  48  71
ATOM     71  C   UNL A   1      42.901  25.459  28.516  1.00  0.00    -0.014 A 
ATOM     72  C   UNL A   1      42.293  24.201  28.673  1.00  0.00     0.010 A 
ATOM     73  C   UNL A   1      43.688  25.702  27.376  1.00  0.00     0.010 A 
ATOM     74  C   UNL A   1      42.483  23.199  27.719  1.00  0.00     0.020 A 
ATOM     75  C   UNL A   1      43.861  24.709  26.408  1.00  0.00     0.020 A 
ATOM     76  C   UNL A   1      43.267  23.458  26.591  1.00  0.00     0.054 A 
BRANCH  76  77
ATOM     77  S   UNL A   1      43.461  22.159  25.339  1.00  0.00     0.124 S 
ATOM     78  O   UNL A   1      44.798  21.654  25.632  1.00  0.00    -0.237 OA
ATOM     79  O   UNL A   1      42.359  21.252  25.649  1.00  0.00    -0.237 OA
ATOM     80  O   UNL A   1      43.326  22.882  24.075  1.00  0.00    -0.744 OA
ENDBRANCH  76  77
ENDBRANCH  48  71
BRANCH  60  81
ATOM     81  C   UNL A   1      46.570  27.490  34.082  1.00  0.00    -0.014 A 
ATOM     82  C   UNL A   1      47.819  28.027  33.725  1.00  0.00     0.010 A 
ATOM     83  C   UNL A   1      46.509  26.498  35.079  1.00  0.00     0.010 A 
ATOM     84  C   UNL A   1      48.988  27.563  34.334  1.00  0.00     0.020 A 
ATOM     85  C   UNL A   1      47.672  26.048  35.706  1.00  0.00     0.020 A 
ATOM     86  C   UNL A   1      48.907  26.574  35.320  1.00  0.00     0.054 A 
BRANCH  86  87
ATOM     87  S   UNL A   1      50.431  26.020  36.131  1.00  0.00     0.124 S 
ATOM     88  O   UNL A   1      50.333  26.666  37.437  1.00  0.00    -0.237 OA
ATOM     89  O   UNL A   1      50.284  24.566  36.137  1.00  0.00    -0.237 OA
ATOM     90  O   UNL A   1      51.490  26.527  35.262  1.00  0.00    -0.744 OA
ENDBRANCH  86  87
ENDBRANCH  60  81
ENDBRANCH  34  35
ENDBRANCH  26  29
ENDBRANCH  24  25
ENDBRANCH  23  24
ENDBRANCH  22  23
ENDBRANCH   1  22
TORSDOF 22
ENDMDL
MODEL 2
REMARK VINA RESULT:      -9.2      5.583     11.689
REMARK SMILES CC(C)C[C@@H](CNC(=O)N(C)CCC#N)C(=O)NCCCCNC(=O)c1ccc(-c2c3nc(c(-c4ccc(S(=O)(=O)[O-])cc4)c4ccc([nH]4)c(-c4ccc(S(=O)(=O)[O-])cc4)c4nc(c(-c5ccc(S(=O)(=O)[O-])cc5)c5ccc2[nH]5)C=C4)C=C3)cc1
REMARK SMILES IDX 19 1 18 2 16 3 17 4 5 6 4 7 2 8 1 9 3 10 6 11 7 12 8 13 9 15
REMARK SMILES IDX 10 16 11 17 12 18 13 19 14 20 15 21 20 22 21 23 22 24 23 25
REMARK SMILES IDX 24 26 25 28 26 29 27 30 85 31 28 32 84 33 29 34 30 35 31 36
REMARK SMILES IDX 78 37 32 38 83 39 77 40 79 41 33 42 82 43 76 44 75 45 34 47
REMARK SMILES IDX 64 48 45 49 63 50 46 51 49 52 62 53 80 54 47 55 48 56 61 58
REMARK SMILES IDX 81 59 50 60 35 61 36 62 44 63 37 64 43 65 38 66 39 67 40 68
REMARK SMILES IDX 41 69 42 70 65 71 66 72 74 73 67 74 73 75 68 76 69 77 70 78
REMARK SMILES IDX 71 79 72 80 51 81 52 82 60 83 53 84 59 85 54 86 55 87 56 88
REMARK SMILES IDX 57 89 58 90
REMARK H PARENT 18 5 7 14 23 27 79 46 49 57
REMARK Flexibility Score: inf
ROOT
ATOM      1  C   UNL A   1      44.903  26.353  27.304  1.00  0.00     0.116 C 
ENDROOT
BRANCH   1   2
ATOM      2  N   UNL A   1      45.322  24.961  27.302  1.00  0.00    -0.356 N 
ATOM      3  C   UNL A   1      44.830  23.872  27.948  1.00  0.00     0.224 C 
ATOM      4  O   UNL A   1      45.190  22.763  27.535  1.00  0.00    -0.275 OA
ATOM      5  H   UNL A   1      46.103  24.774  26.730  1.00  0.00     0.163 HD
BRANCH   3   6
ATOM      6  C   UNL A   1      43.852  23.941  29.123  1.00  0.00     0.098 C 
BRANCH   6   7
ATOM      7  C   UNL A   1      44.067  25.150  30.056  1.00  0.00     0.018 C 
BRANCH   7   8
ATOM      8  C   UNL A   1      45.195  25.067  31.101  1.00  0.00    -0.017 C 
ATOM      9  C   UNL A   1      45.878  26.406  31.364  1.00  0.00     0.007 C 
ATOM     10  C   UNL A   1      44.614  24.529  32.418  1.00  0.00     0.007 C 
ENDBRANCH   7   8
ENDBRANCH   6   7
BRANCH   6  11
ATOM     11  C   UNL A   1      42.429  23.529  28.688  1.00  0.00     0.131 C 
BRANCH  11  12
ATOM     12  N   UNL A   1      42.162  22.108  28.656  1.00  0.00    -0.337 N 
ATOM     13  C   UNL A   1      41.740  21.287  27.684  1.00  0.00     0.317 C 
ATOM     14  H   UNL A   1      42.323  21.655  29.515  1.00  0.00     0.165 HD
ATOM     15  O   UNL A   1      40.824  20.552  28.044  1.00  0.00    -0.249 OA
BRANCH  13  16
ATOM     16  N   UNL A   1      42.301  21.174  26.445  1.00  0.00    -0.327 N 
ATOM     17  C   UNL A   1      42.552  22.245  25.498  1.00  0.00     0.148 C 
BRANCH  16  18
ATOM     18  C   UNL A   1      42.771  19.826  26.011  1.00  0.00     0.136 C 
BRANCH  18  19
ATOM     19  C   UNL A   1      43.730  19.785  24.784  1.00  0.00     0.141 C 
BRANCH  19  20
ATOM     20  C   UNL A   1      44.878  18.842  25.109  1.00  0.00     0.064 C 
ATOM     21  N   UNL A   1      45.830  18.061  25.378  1.00  0.00    -0.198 NA
ENDBRANCH  19  20
ENDBRANCH  18  19
ENDBRANCH  16  18
ENDBRANCH  13  16
ENDBRANCH  11  12
ENDBRANCH   6  11
ENDBRANCH   3   6
ENDBRANCH   1   2
BRANCH   1  22
ATOM     22  C   UNL A   1      44.393  26.839  25.953  1.00  0.00     0.023 C 
BRANCH  22  23
ATOM     23  C   UNL A   1      43.193  26.057  25.416  1.00  0.00     0.023 C 
BRANCH  23  24
ATOM     24  C   UNL A   1      41.815  26.638  25.739  1.00  0.00     0.116 C 
BRANCH  24  25
ATOM     25  N   UNL A   1      40.755  25.642  25.817  1.00  0.00    -0.352 N 
ATOM     26  C   UNL A   1      39.811  25.472  26.803  1.00  0.00     0.251 C 
ATOM     27  H   UNL A   1      40.708  25.007  25.065  1.00  0.00     0.163 HD
ATOM     28  O   UNL A   1      39.062  24.498  26.799  1.00  0.00    -0.269 OA
BRANCH  26  29
ATOM     29  C   UNL A   1      39.734  26.456  27.905  1.00  0.00     0.039 A 
ATOM     30  C   UNL A   1      39.061  26.108  29.078  1.00  0.00     0.014 A 
ATOM     31  C   UNL A   1      40.368  27.697  27.796  1.00  0.00     0.014 A 
ATOM     32  C   UNL A   1      39.104  26.967  30.177  1.00  0.00     0.010 A 
ATOM     33  C   UNL A   1      40.466  28.521  28.913  1.00  0.00     0.010 A 
ATOM     34  C   UNL A   1      39.847  28.158  30.120  1.00  0.00    -0.014 A 
BRANCH  34  35
ATOM     35  C   UNL A   1      40.021  29.016  31.319  1.00  0.00     0.031 A 
ATOM     36  C   UNL A   1      41.153  28.767  32.276  1.00  0.00     0.074 A 
ATOM     37  C   UNL A   1      39.109  29.974  31.587  1.00  0.00     0.049 A 
ATOM     38  N   UNL A   1      41.423  29.369  33.407  1.00  0.00    -0.248 NA
ATOM     39  C   UNL A   1      42.089  27.685  31.933  1.00  0.00     0.031 C 
ATOM     40  C   UNL A   1      37.936  30.285  30.765  1.00  0.00     0.029 A 
ATOM     41  N   UNL A   1      39.022  30.860  32.633  1.00  0.00    -0.354 N 
ATOM     42  C   UNL A   1      42.542  28.725  33.919  1.00  0.00     0.074 A 
ATOM     43  C   UNL A   1      42.877  27.661  32.997  1.00  0.00     0.031 C 
ATOM     44  C   UNL A   1      37.265  31.306  31.322  1.00  0.00     0.029 A 
ATOM     45  C   UNL A   1      37.934  31.699  32.558  1.00  0.00     0.049 A 
ATOM     46  H   UNL A   1      39.675  30.891  33.368  1.00  0.00     0.167 HD
ATOM     47  C   UNL A   1      43.238  29.002  35.048  1.00  0.00     0.031 A 
ATOM     48  C   UNL A   1      37.519  32.673  33.390  1.00  0.00     0.031 A 
ATOM     49  C   UNL A   1      42.919  30.075  35.952  1.00  0.00     0.049 A 
ATOM     50  C   UNL A   1      38.317  32.972  34.629  1.00  0.00     0.074 A 
ATOM     51  C   UNL A   1      43.604  30.477  37.086  1.00  0.00     0.029 A 
ATOM     52  N   UNL A   1      41.823  30.915  35.828  1.00  0.00    -0.354 N 
ATOM     53  N   UNL A   1      39.412  32.393  35.062  1.00  0.00    -0.248 NA
ATOM     54  C   UNL A   1      37.829  34.061  35.486  1.00  0.00     0.031 C 
ATOM     55  C   UNL A   1      42.901  31.536  37.668  1.00  0.00     0.029 A 
ATOM     56  C   UNL A   1      41.803  31.822  36.874  1.00  0.00     0.049 A 
ATOM     57  H   UNL A   1      41.158  30.872  35.103  1.00  0.00     0.167 HD
ATOM     58  C   UNL A   1      39.758  33.066  36.228  1.00  0.00     0.074 A 
ATOM     59  C   UNL A   1      38.764  34.101  36.427  1.00  0.00     0.031 C 
ATOM     60  C   UNL A   1      40.807  32.847  37.057  1.00  0.00     0.031 A 
BRANCH  47  61
ATOM     61  C   UNL A   1      44.419  28.125  35.368  1.00  0.00    -0.014 A 
ATOM     62  C   UNL A   1      44.324  27.104  36.331  1.00  0.00     0.010 A 
ATOM     63  C   UNL A   1      45.629  28.302  34.675  1.00  0.00     0.010 A 
ATOM     64  C   UNL A   1      45.431  26.305  36.627  1.00  0.00     0.020 A 
ATOM     65  C   UNL A   1      46.732  27.488  34.949  1.00  0.00     0.020 A 
ATOM     66  C   UNL A   1      46.630  26.507  35.938  1.00  0.00     0.054 A 
BRANCH  66  67
ATOM     67  S   UNL A   1      48.051  25.448  36.330  1.00  0.00     0.124 S 
ATOM     68  O   UNL A   1      47.479  24.112  36.176  1.00  0.00    -0.237 OA
ATOM     69  O   UNL A   1      49.029  25.832  35.316  1.00  0.00    -0.237 OA
ATOM     70  O   UNL A   1      48.396  25.824  37.699  1.00  0.00    -0.744 OA
ENDBRANCH  66  67
ENDBRANCH  47  61
BRANCH  48  71
ATOM     71  C   UNL A   1      36.297  33.457  33.065  1.00  0.00    -0.014 A 
ATOM     72  C   UNL A   1      36.394  34.640  32.309  1.00  0.00     0.010 A 
ATOM     73  C   UNL A   1      35.032  33.025  33.500  1.00  0.00     0.010 A 
ATOM     74  C   UNL A   1      35.250  35.384  32.010  1.00  0.00     0.020 A 
ATOM     75  C   UNL A   1      33.883  33.754  33.183  1.00  0.00     0.020 A 
ATOM     76  C   UNL A   1      34.001  34.937  32.449  1.00  0.00     0.054 A 
BRANCH  76  77
ATOM     77  S   UNL A   1      32.522  35.893  32.008  1.00  0.00     0.124 S 
ATOM     78  O   UNL A   1      32.673  36.035  30.564  1.00  0.00    -0.237 OA
ATOM     79  O   UNL A   1      31.437  35.021  32.450  1.00  0.00    -0.237 OA
ATOM     80  O   UNL A   1      32.672  37.125  32.780  1.00  0.00    -0.744 OA
ENDBRANCH  76  77
ENDBRANCH  48  71
BRANCH  60  81
ATOM     81  C   UNL A   1      40.955  33.764  38.241  1.00  0.00    -0.014 A 
ATOM     82  C   UNL A   1      41.665  34.973  38.140  1.00  0.00     0.010 A 
ATOM     83  C   UNL A   1      40.327  33.435  39.456  1.00  0.00     0.010 A 
ATOM     84  C   UNL A   1      41.766  35.826  39.242  1.00  0.00     0.020 A 
ATOM     85  C   UNL A   1      40.408  34.295  40.553  1.00  0.00     0.020 A 
ATOM     86  C   UNL A   1      41.138  35.481  40.443  1.00  0.00     0.054 A 
BRANCH  86  87
ATOM     87  S   UNL A   1      41.243  36.624  41.846  1.00  0.00     0.124 S 
ATOM     88  O   UNL A   1      39.858  37.069  41.980  1.00  0.00    -0.237 OA
ATOM     89  O   UNL A   1      41.735  35.769  42.924  1.00  0.00    -0.237 OA
ATOM     90  O   UNL A   1      42.185  37.644  41.392  1.00  0.00    -0.744 OA
ENDBRANCH  86  87
ENDBRANCH  60  81
ENDBRANCH  34  35
ENDBRANCH  26  29
ENDBRANCH  24  25
ENDBRANCH  23  24
ENDBRANCH  22  23
ENDBRANCH   1  22
TORSDOF 22
ENDMDL
MODEL 3
REMARK VINA RESULT:      -9.1      2.360      8.732
REMARK SMILES CC(C)C[C@@H](CNC(=O)N(C)CCC#N)C(=O)NCCCCNC(=O)c1ccc(-c2c3nc(c(-c4ccc(S(=O)(=O)[O-])cc4)c4ccc([nH]4)c(-c4ccc(S(=O)(=O)[O-])cc4)c4nc(c(-c5ccc(S(=O)(=O)[O-])cc5)c5ccc2[nH]5)C=C4)C=C3)cc1
REMARK SMILES IDX 19 1 18 2 16 3 17 4 5 6 4 7 2 8 1 9 3 10 6 11 7 12 8 13 9 15
REMARK SMILES IDX 10 16 11 17 12 18 13 19 14 20 15 21 20 22 21 23 22 24 23 25
REMARK SMILES IDX 24 26 25 28 26 29 27 30 85 31 28 32 84 33 29 34 30 35 31 36
REMARK SMILES IDX 78 37 32 38 83 39 77 40 79 41 33 42 82 43 76 44 75 45 34 47
REMARK SMILES IDX 64 48 45 49 63 50 46 51 49 52 62 53 80 54 47 55 48 56 61 58
REMARK SMILES IDX 81 59 50 60 35 61 36 62 44 63 37 64 43 65 38 66 39 67 40 68
REMARK SMILES IDX 41 69 42 70 65 71 66 72 74 73 67 74 73 75 68 76 69 77 70 78
REMARK SMILES IDX 71 79 72 80 51 81 52 82 60 83 53 84 59 85 54 86 55 87 56 88
REMARK SMILES IDX 57 89 58 90
REMARK H PARENT 18 5 7 14 23 27 79 46 49 57
REMARK Flexibility Score: inf
ROOT
ATOM      1  C   UNL A   1      32.285  27.817  26.477  1.00  0.00     0.116 C 
ENDROOT
BRANCH   1   2
ATOM      2  N   UNL A   1      31.212  26.859  26.687  1.00  0.00    -0.356 N 
ATOM      3  C   UNL A   1      31.062  25.573  26.276  1.00  0.00     0.224 C 
ATOM      4  O   UNL A   1      30.194  24.899  26.845  1.00  0.00    -0.275 OA
ATOM      5  H   UNL A   1      30.460  27.204  27.221  1.00  0.00     0.163 HD
BRANCH   3   6
ATOM      6  C   UNL A   1      31.909  24.916  25.184  1.00  0.00     0.098 C 
BRANCH   6   7
ATOM      7  C   UNL A   1      33.235  24.311  25.689  1.00  0.00     0.018 C 
BRANCH   7   8
ATOM      8  C   UNL A   1      34.366  24.090  24.667  1.00  0.00    -0.017 C 
ATOM      9  C   UNL A   1      34.371  22.690  24.059  1.00  0.00     0.007 C 
ATOM     10  C   UNL A   1      34.232  25.129  23.543  1.00  0.00     0.007 C 
ENDBRANCH   7   8
ENDBRANCH   6   7
BRANCH   6  11
ATOM     11  C   UNL A   1      31.025  24.141  24.184  1.00  0.00     0.131 C 
BRANCH  11  12
ATOM     12  N   UNL A   1      29.885  24.860  23.657  1.00  0.00    -0.337 N 
ATOM     13  C   UNL A   1      29.612  26.168  23.543  1.00  0.00     0.317 C 
ATOM     14  H   UNL A   1      29.172  24.275  23.314  1.00  0.00     0.165 HD
ATOM     15  O   UNL A   1      28.488  26.458  23.944  1.00  0.00    -0.249 OA
BRANCH  13  16
ATOM     16  N   UNL A   1      30.424  27.096  22.960  1.00  0.00    -0.327 N 
ATOM     17  C   UNL A   1      31.447  26.859  21.959  1.00  0.00     0.148 C 
BRANCH  16  18
ATOM     18  C   UNL A   1      30.225  28.529  23.329  1.00  0.00     0.136 C 
BRANCH  18  19
ATOM     19  C   UNL A   1      29.433  29.406  22.315  1.00  0.00     0.141 C 
BRANCH  19  20
ATOM     20  C   UNL A   1      28.199  29.949  23.017  1.00  0.00     0.064 C 
ATOM     21  N   UNL A   1      27.176  30.400  23.601  1.00  0.00    -0.198 NA
ENDBRANCH  19  20
ENDBRANCH  18  19
ENDBRANCH  16  18
ENDBRANCH  13  16
ENDBRANCH  11  12
ENDBRANCH   6  11
ENDBRANCH   3   6
ENDBRANCH   1   2
BRANCH   1  22
ATOM     22  C   UNL A   1      32.135  29.092  27.300  1.00  0.00     0.023 C 
BRANCH  22  23
ATOM     23  C   UNL A   1      32.720  30.340  26.637  1.00  0.00     0.023 C 
BRANCH  23  24
ATOM     24  C   UNL A   1      33.516  31.274  27.551  1.00  0.00     0.116 C 
BRANCH  24  25
ATOM     25  N   UNL A   1      33.009  32.638  27.591  1.00  0.00    -0.352 N 
ATOM     26  C   UNL A   1      33.416  33.679  28.394  1.00  0.00     0.251 C 
ATOM     27  H   UNL A   1      32.281  32.843  26.960  1.00  0.00     0.163 HD
ATOM     28  O   UNL A   1      32.800  34.741  28.410  1.00  0.00    -0.269 OA
BRANCH  26  29
ATOM     29  C   UNL A   1      34.585  33.491  29.281  1.00  0.00     0.039 A 
ATOM     30  C   UNL A   1      34.459  32.667  30.401  1.00  0.00     0.014 A 
ATOM     31  C   UNL A   1      35.812  34.088  28.977  1.00  0.00     0.014 A 
ATOM     32  C   UNL A   1      35.588  32.365  31.165  1.00  0.00     0.010 A 
ATOM     33  C   UNL A   1      36.948  33.734  29.699  1.00  0.00     0.010 A 
ATOM     34  C   UNL A   1      36.850  32.857  30.792  1.00  0.00    -0.014 A 
BRANCH  34  35
ATOM     35  C   UNL A   1      38.083  32.438  31.506  1.00  0.00     0.031 A 
ATOM     36  C   UNL A   1      38.984  31.387  30.917  1.00  0.00     0.074 A 
ATOM     37  C   UNL A   1      38.350  32.949  32.725  1.00  0.00     0.049 A 
ATOM     38  N   UNL A   1      40.062  30.849  31.427  1.00  0.00    -0.248 NA
ATOM     39  C   UNL A   1      38.610  30.854  29.598  1.00  0.00     0.031 C 
ATOM     40  C   UNL A   1      37.529  33.939  33.430  1.00  0.00     0.029 A 
ATOM     41  N   UNL A   1      39.384  32.701  33.594  1.00  0.00    -0.354 N 
ATOM     42  C   UNL A   1      40.482  29.900  30.503  1.00  0.00     0.074 A 
ATOM     43  C   UNL A   1      39.520  29.908  29.421  1.00  0.00     0.031 C 
ATOM     44  C   UNL A   1      38.106  34.233  34.606  1.00  0.00     0.029 A 
ATOM     45  C   UNL A   1      39.314  33.428  34.760  1.00  0.00     0.049 A 
ATOM     46  H   UNL A   1      40.107  32.062  33.401  1.00  0.00     0.167 HD
ATOM     47  C   UNL A   1      41.577  29.103  30.543  1.00  0.00     0.031 A 
ATOM     48  C   UNL A   1      40.128  33.445  35.832  1.00  0.00     0.031 A 
ATOM     49  C   UNL A   1      42.545  29.112  31.607  1.00  0.00     0.049 A 
ATOM     50  C   UNL A   1      41.345  32.563  35.847  1.00  0.00     0.074 A 
ATOM     51  C   UNL A   1      43.722  28.390  31.705  1.00  0.00     0.029 A 
ATOM     52  N   UNL A   1      42.449  29.879  32.758  1.00  0.00    -0.354 N 
ATOM     53  N   UNL A   1      41.760  31.719  34.932  1.00  0.00    -0.248 NA
ATOM     54  C   UNL A   1      42.207  32.641  37.033  1.00  0.00     0.031 C 
ATOM     55  C   UNL A   1      44.319  28.693  32.933  1.00  0.00     0.029 A 
ATOM     56  C   UNL A   1      43.537  29.635  33.579  1.00  0.00     0.049 A 
ATOM     57  H   UNL A   1      41.717  30.504  32.960  1.00  0.00     0.167 HD
ATOM     58  C   UNL A   1      42.947  31.186  35.422  1.00  0.00     0.074 A 
ATOM     59  C   UNL A   1      43.189  31.810  36.707  1.00  0.00     0.031 C 
ATOM     60  C   UNL A   1      43.764  30.265  34.855  1.00  0.00     0.031 A 
BRANCH  47  61
ATOM     61  C   UNL A   1      41.783  28.150  29.396  1.00  0.00    -0.014 A 
ATOM     62  C   UNL A   1      41.272  26.840  29.441  1.00  0.00     0.010 A 
ATOM     63  C   UNL A   1      42.470  28.578  28.247  1.00  0.00     0.010 A 
ATOM     64  C   UNL A   1      41.481  25.962  28.374  1.00  0.00     0.020 A 
ATOM     65  C   UNL A   1      42.659  27.711  27.167  1.00  0.00     0.020 A 
ATOM     66  C   UNL A   1      42.180  26.402  27.247  1.00  0.00     0.054 A 
BRANCH  66  67
ATOM     67  S   UNL A   1      42.428  25.247  25.869  1.00  0.00     0.124 S 
ATOM     68  O   UNL A   1      41.447  24.206  26.170  1.00  0.00    -0.237 OA
ATOM     69  O   UNL A   1      42.129  26.071  24.700  1.00  0.00    -0.237 OA
ATOM     70  O   UNL A   1      43.826  24.844  26.002  1.00  0.00    -0.744 OA
ENDBRANCH  66  67
ENDBRANCH  47  61
BRANCH  48  71
ATOM     71  C   UNL A   1      39.832  34.350  36.976  1.00  0.00    -0.014 A 
ATOM     72  C   UNL A   1      39.170  33.859  38.116  1.00  0.00     0.010 A 
ATOM     73  C   UNL A   1      40.217  35.702  36.937  1.00  0.00     0.010 A 
ATOM     74  C   UNL A   1      38.883  34.707  39.188  1.00  0.00     0.020 A 
ATOM     75  C   UNL A   1      39.953  36.547  38.018  1.00  0.00     0.020 A 
ATOM     76  C   UNL A   1      39.276  36.047  39.132  1.00  0.00     0.054 A 
BRANCH  76  77
ATOM     77  S   UNL A   1      38.936  37.121  40.556  1.00  0.00     0.124 S 
ATOM     78  O   UNL A   1      38.160  36.240  41.421  1.00  0.00    -0.237 OA
ATOM     79  O   UNL A   1      40.277  37.454  41.029  1.00  0.00    -0.237 OA
ATOM     80  O   UNL A   1      38.196  38.238  39.970  1.00  0.00    -0.744 OA
ENDBRANCH  76  77
ENDBRANCH  48  71
BRANCH  60  81
ATOM     81  C   UNL A   1      45.015  29.897  35.605  1.00  0.00    -0.014 A 
ATOM     82  C   UNL A   1      46.197  30.644  35.458  1.00  0.00     0.010 A 
ATOM     83  C   UNL A   1      44.990  28.822  36.512  1.00  0.00     0.010 A 
ATOM     84  C   UNL A   1      47.341  30.305  36.185  1.00  0.00     0.020 A 
ATOM     85  C   UNL A   1      46.124  28.494  37.257  1.00  0.00     0.020 A 
ATOM     86  C   UNL A   1      47.298  29.230  37.080  1.00  0.00     0.054 A 
BRANCH  86  87
ATOM     87  S   UNL A   1      48.780  28.837  38.049  1.00  0.00     0.124 S 
ATOM     88  O   UNL A   1      49.071  30.116  38.691  1.00  0.00    -0.237 OA
ATOM     89  O   UNL A   1      48.311  27.778  38.941  1.00  0.00    -0.237 OA
ATOM     90  O   UNL A   1      49.748  28.409  37.042  1.00  0.00    -0.744 OA
ENDBRANCH  86  87
ENDBRANCH  60  81
ENDBRANCH  34  35
ENDBRANCH  26  29
ENDBRANCH  24  25
ENDBRANCH  23  24
ENDBRANCH  22  23
ENDBRANCH   1  22
TORSDOF 22
ENDMDL
