MODEL 1
REMARK VINA RESULT:      -9.3      0.000      0.000
REMARK SMILES C[C@H](SCC[NH3+])c1ccc(C(=O)NCCCCNC(=O)c2ccc(-c3c4nc(c(-c5ccc(S(=O)(=O)[O-])cc5)c5ccc([nH]5)c(-c5ccc(S(=O)(=O)[O-])cc5)c5nc(c(-c6ccc(S(=O)(=O)[O-])cc6)c6ccc3[nH]6)C=C5)C=C4)cc2)o1
REMARK SMILES IDX 14 1 13 2 11 3 12 4 10 6 7 7 8 8 81 9 9 10 2 11 1 12 3 13
REMARK SMILES IDX 4 14 5 15 6 16 15 20 16 21 17 22 18 23 19 24 20 26 21 27
REMARK SMILES IDX 22 28 80 29 23 30 79 31 24 32 25 33 26 34 73 35 27 36 78 37
REMARK SMILES IDX 72 38 74 39 28 40 77 41 71 42 70 43 29 45 59 46 40 47 58 48
REMARK SMILES IDX 41 49 44 50 57 51 75 52 42 53 43 54 56 56 76 57 45 58 30 59
REMARK SMILES IDX 31 60 39 61 32 62 38 63 33 64 34 65 35 66 36 67 37 68 60 69
REMARK SMILES IDX 61 70 69 71 62 72 68 73 63 74 64 75 65 76 66 77 67 78 46 79
REMARK SMILES IDX 47 80 55 81 48 82 54 83 49 84 50 85 51 86 52 87 53 88
REMARK H PARENT 13 5 6 17 6 18 6 19 18 25 74 44 44 55
REMARK Flexibility Score: inf
ROOT
ATOM      1  C   UNL A   1      31.155  27.306  24.583  1.00  0.00     0.116 C 
ENDROOT
BRANCH   1   2
ATOM      2  N   UNL A   1      32.022  26.919  23.491  1.00  0.00    -0.349 N 
ATOM      3  C   UNL A   1      32.411  25.671  23.059  1.00  0.00     0.286 C 
ATOM      4  O   UNL A   1      33.079  25.647  22.022  1.00  0.00    -0.266 OA
ATOM      5  H   UNL A   1      32.395  27.669  22.974  1.00  0.00     0.163 HD
BRANCH   3   6
ATOM      6  C   UNL A   1      32.036  24.465  23.781  1.00  0.00     0.191 A 
ATOM      7  C   UNL A   1      32.502  22.767  25.135  1.00  0.00     0.117 A 
ATOM      8  C   UNL A   1      31.170  22.647  24.805  1.00  0.00     0.047 A 
ATOM      9  O   UNL A   1      33.025  23.864  24.519  1.00  0.00    -0.455 OA
ATOM     10  C   UNL A   1      30.871  23.737  23.950  1.00  0.00     0.056 A 
BRANCH   7  11
ATOM     11  C   UNL A   1      33.450  21.978  25.975  1.00  0.00     0.110 C 
ATOM     12  C   UNL A   1      34.458  22.879  26.685  1.00  0.00     0.028 C 
BRANCH  11  13
ATOM     13  S   UNL A   1      34.389  20.772  24.960  1.00  0.00    -0.145 SA
BRANCH  13  14
ATOM     14  C   UNL A   1      33.055  19.581  24.566  1.00  0.00     0.131 C 
BRANCH  14  15
ATOM     15  C   UNL A   1      33.572  18.162  24.288  1.00  0.00     0.269 C 
BRANCH  15  16
ATOM     16  N   UNL A   1      32.737  17.384  23.374  1.00  0.00    -0.357 N 
ATOM     17  H   UNL A   1      33.012  17.579  22.411  1.00  0.00     0.344 HD
ATOM     18  H   UNL A   1      31.758  17.639  23.506  1.00  0.00     0.344 HD
ATOM     19  H   UNL A   1      32.857  16.389  23.567  1.00  0.00     0.344 HD
ENDBRANCH  15  16
ENDBRANCH  14  15
ENDBRANCH  13  14
ENDBRANCH  11  13
ENDBRANCH   7  11
ENDBRANCH   3   6
ENDBRANCH   1   2
BRANCH   1  20
ATOM     20  C   UNL A   1      31.916  27.360  25.907  1.00  0.00     0.023 C 
BRANCH  20  21
ATOM     21  C   UNL A   1      33.121  28.305  25.908  1.00  0.00     0.023 C 
BRANCH  21  22
ATOM     22  C   UNL A   1      33.747  28.567  27.276  1.00  0.00     0.116 C 
BRANCH  22  23
ATOM     23  N   UNL A   1      33.661  29.956  27.697  1.00  0.00    -0.352 N 
ATOM     24  C   UNL A   1      34.629  30.731  28.295  1.00  0.00     0.251 C 
ATOM     25  H   UNL A   1      32.798  30.401  27.533  1.00  0.00     0.163 HD
ATOM     26  O   UNL A   1      34.362  31.864  28.677  1.00  0.00    -0.269 OA
BRANCH  24  27
ATOM     27  C   UNL A   1      35.977  30.164  28.512  1.00  0.00     0.039 A 
ATOM     28  C   UNL A   1      36.883  30.164  27.450  1.00  0.00     0.014 A 
ATOM     29  C   UNL A   1      36.353  29.673  29.764  1.00  0.00     0.014 A 
ATOM     30  C   UNL A   1      38.195  29.735  27.663  1.00  0.00     0.010 A 
ATOM     31  C   UNL A   1      37.676  29.306  29.991  1.00  0.00     0.010 A 
ATOM     32  C   UNL A   1      38.612  29.339  28.945  1.00  0.00    -0.014 A 
BRANCH  32  33
ATOM     33  C   UNL A   1      40.025  28.972  29.216  1.00  0.00     0.031 A 
ATOM     34  C   UNL A   1      40.970  29.985  29.800  1.00  0.00     0.074 A 
ATOM     35  C   UNL A   1      40.472  27.749  28.868  1.00  0.00     0.049 A 
ATOM     36  N   UNL A   1      42.251  29.874  30.039  1.00  0.00    -0.248 NA
ATOM     37  C   UNL A   1      40.410  31.305  30.135  1.00  0.00     0.031 C 
ATOM     38  C   UNL A   1      39.664  26.692  28.252  1.00  0.00     0.029 A 
ATOM     39  N   UNL A   1      41.721  27.190  28.974  1.00  0.00    -0.354 N 
ATOM     40  C   UNL A   1      42.654  31.109  30.533  1.00  0.00     0.074 A 
ATOM     41  C   UNL A   1      41.490  31.969  30.520  1.00  0.00     0.031 C 
ATOM     42  C   UNL A   1      40.433  25.608  28.054  1.00  0.00     0.029 A 
ATOM     43  C   UNL A   1      41.793  25.902  28.496  1.00  0.00     0.049 A 
ATOM     44  H   UNL A   1      42.493  27.666  29.356  1.00  0.00     0.167 HD
ATOM     45  C   UNL A   1      43.876  31.488  30.974  1.00  0.00     0.031 A 
ATOM     46  C   UNL A   1      42.837  25.055  28.414  1.00  0.00     0.031 A 
ATOM     47  C   UNL A   1      45.027  30.626  31.005  1.00  0.00     0.049 A 
ATOM     48  C   UNL A   1      44.183  25.498  28.918  1.00  0.00     0.074 A 
ATOM     49  C   UNL A   1      46.293  30.899  31.491  1.00  0.00     0.029 A 
ATOM     50  N   UNL A   1      45.051  29.321  30.536  1.00  0.00    -0.354 N 
ATOM     51  N   UNL A   1      44.526  26.650  29.444  1.00  0.00    -0.248 NA
ATOM     52  C   UNL A   1      45.279  24.523  28.832  1.00  0.00     0.031 C 
ATOM     53  C   UNL A   1      47.096  29.773  31.278  1.00  0.00     0.029 A 
ATOM     54  C   UNL A   1      46.315  28.782  30.706  1.00  0.00     0.049 A 
ATOM     55  H   UNL A   1      44.282  28.848  30.142  1.00  0.00     0.167 HD
ATOM     56  C   UNL A   1      45.871  26.528  29.775  1.00  0.00     0.074 A 
ATOM     57  C   UNL A   1      46.274  25.187  29.404  1.00  0.00     0.031 C 
ATOM     58  C   UNL A   1      46.697  27.443  30.337  1.00  0.00     0.031 A 
BRANCH  45  59
ATOM     59  C   UNL A   1      44.034  32.904  31.461  1.00  0.00    -0.014 A 
ATOM     60  C   UNL A   1      44.452  33.926  30.590  1.00  0.00     0.010 A 
ATOM     61  C   UNL A   1      43.710  33.226  32.791  1.00  0.00     0.010 A 
ATOM     62  C   UNL A   1      44.576  35.239  31.050  1.00  0.00     0.020 A 
ATOM     63  C   UNL A   1      43.809  34.544  33.249  1.00  0.00     0.020 A 
ATOM     64  C   UNL A   1      44.255  35.540  32.378  1.00  0.00     0.054 A 
BRANCH  64  65
ATOM     65  S   UNL A   1      44.393  37.259  32.938  1.00  0.00     0.124 S 
ATOM     66  O   UNL A   1      43.708  37.980  31.867  1.00  0.00    -0.237 OA
ATOM     67  O   UNL A   1      43.698  37.235  34.222  1.00  0.00    -0.237 OA
ATOM     68  O   UNL A   1      45.834  37.483  33.016  1.00  0.00    -0.744 OA
ENDBRANCH  64  65
ENDBRANCH  45  59
BRANCH  46  69
ATOM     69  C   UNL A   1      42.651  23.692  27.844  1.00  0.00    -0.014 A 
ATOM     70  C   UNL A   1      42.836  23.462  26.470  1.00  0.00     0.010 A 
ATOM     71  C   UNL A   1      42.284  22.617  28.675  1.00  0.00     0.010 A 
ATOM     72  C   UNL A   1      42.631  22.189  25.931  1.00  0.00     0.020 A 
ATOM     73  C   UNL A   1      42.104  21.337  28.144  1.00  0.00     0.020 A 
ATOM     74  C   UNL A   1      42.264  21.135  26.772  1.00  0.00     0.054 A 
BRANCH  74  75
ATOM     75  S   UNL A   1      42.038  19.482  26.057  1.00  0.00     0.124 S 
ATOM     76  O   UNL A   1      40.603  19.462  25.789  1.00  0.00    -0.237 OA
ATOM     77  O   UNL A   1      42.902  19.524  24.881  1.00  0.00    -0.237 OA
ATOM     78  O   UNL A   1      42.490  18.587  27.121  1.00  0.00    -0.744 OA
ENDBRANCH  74  75
ENDBRANCH  46  69
BRANCH  58  79
ATOM     79  C   UNL A   1      48.112  27.017  30.625  1.00  0.00    -0.014 A 
ATOM     80  C   UNL A   1      49.137  27.213  29.684  1.00  0.00     0.010 A 
ATOM     81  C   UNL A   1      48.425  26.463  31.880  1.00  0.00     0.010 A 
ATOM     82  C   UNL A   1      50.449  26.836  29.983  1.00  0.00     0.020 A 
ATOM     83  C   UNL A   1      49.740  26.109  32.192  1.00  0.00     0.020 A 
ATOM     84  C   UNL A   1      50.742  26.286  31.235  1.00  0.00     0.054 A 
BRANCH  84  85
ATOM     85  S   UNL A   1      52.460  25.849  31.617  1.00  0.00     0.124 S 
ATOM     86  O   UNL A   1      53.120  26.056  30.332  1.00  0.00    -0.237 OA
ATOM     87  O   UNL A   1      52.810  26.805  32.665  1.00  0.00    -0.237 OA
ATOM     88  O   UNL A   1      52.373  24.458  32.057  1.00  0.00    -0.744 OA
ENDBRANCH  84  85
ENDBRANCH  58  79
ENDBRANCH  32  33
ENDBRANCH  24  27
ENDBRANCH  22  23
ENDBRANCH  21  22
ENDBRANCH  20  21
ENDBRANCH   1  20
TORSDOF 19
ENDMDL
MODEL 2
REMARK VINA RESULT:      -8.9      3.609      9.550
REMARK SMILES C[C@H](SCC[NH3+])c1ccc(C(=O)NCCCCNC(=O)c2ccc(-c3c4nc(c(-c5ccc(S(=O)(=O)[O-])cc5)c5ccc([nH]5)c(-c5ccc(S(=O)(=O)[O-])cc5)c5nc(c(-c6ccc(S(=O)(=O)[O-])cc6)c6ccc3[nH]6)C=C5)C=C4)cc2)o1
REMARK SMILES IDX 14 1 13 2 11 3 12 4 10 6 7 7 8 8 81 9 9 10 2 11 1 12 3 13
REMARK SMILES IDX 4 14 5 15 6 16 15 20 16 21 17 22 18 23 19 24 20 26 21 27
REMARK SMILES IDX 22 28 80 29 23 30 79 31 24 32 25 33 26 34 73 35 27 36 78 37
REMARK SMILES IDX 72 38 74 39 28 40 77 41 71 42 70 43 29 45 59 46 40 47 58 48
REMARK SMILES IDX 41 49 44 50 57 51 75 52 42 53 43 54 56 56 76 57 45 58 30 59
REMARK SMILES IDX 31 60 39 61 32 62 38 63 33 64 34 65 35 66 36 67 37 68 60 69
REMARK SMILES IDX 61 70 69 71 62 72 68 73 63 74 64 75 65 76 66 77 67 78 46 79
REMARK SMILES IDX 47 80 55 81 48 82 54 83 49 84 50 85 51 86 52 87 53 88
REMARK H PARENT 13 5 6 17 6 18 6 19 18 25 74 44 44 55
REMARK Flexibility Score: inf
ROOT
ATOM      1  C   UNL A   1      37.930  23.115  25.983  1.00  0.00     0.116 C 
ENDROOT
BRANCH   1   2
ATOM      2  N   UNL A   1      37.621  22.896  24.586  1.00  0.00    -0.349 N 
ATOM      3  C   UNL A   1      36.469  23.147  23.877  1.00  0.00     0.286 C 
ATOM      4  O   UNL A   1      36.536  22.956  22.660  1.00  0.00    -0.266 OA
ATOM      5  H   UNL A   1      38.353  22.503  24.058  1.00  0.00     0.163 HD
BRANCH   3   6
ATOM      6  C   UNL A   1      35.261  23.625  24.531  1.00  0.00     0.191 A 
ATOM      7  C   UNL A   1      33.755  25.203  24.955  1.00  0.00     0.117 A 
ATOM      8  C   UNL A   1      33.351  24.083  25.648  1.00  0.00     0.047 A 
ATOM      9  O   UNL A   1      34.906  24.928  24.281  1.00  0.00    -0.455 OA
ATOM     10  C   UNL A   1      34.306  23.074  25.369  1.00  0.00     0.056 A 
BRANCH   7  11
ATOM     11  C   UNL A   1      33.229  26.591  24.807  1.00  0.00     0.110 C 
ATOM     12  C   UNL A   1      33.928  27.563  25.756  1.00  0.00     0.028 C 
BRANCH  11  13
ATOM     13  S   UNL A   1      31.429  26.659  25.157  1.00  0.00    -0.145 SA
BRANCH  13  14
ATOM     14  C   UNL A   1      30.829  27.388  23.588  1.00  0.00     0.131 C 
BRANCH  14  15
ATOM     15  C   UNL A   1      30.400  28.856  23.725  1.00  0.00     0.269 C 
BRANCH  15  16
ATOM     16  N   UNL A   1      30.792  29.707  22.603  1.00  0.00    -0.357 N 
ATOM     17  H   UNL A   1      31.154  30.593  22.958  1.00  0.00     0.344 HD
ATOM     18  H   UNL A   1      29.981  29.885  22.011  1.00  0.00     0.344 HD
ATOM     19  H   UNL A   1      31.515  29.239  22.057  1.00  0.00     0.344 HD
ENDBRANCH  15  16
ENDBRANCH  14  15
ENDBRANCH  13  14
ENDBRANCH  11  13
ENDBRANCH   7  11
ENDBRANCH   3   6
ENDBRANCH   1   2
BRANCH   1  20
ATOM     20  C   UNL A   1      39.207  22.385  26.393  1.00  0.00     0.023 C 
BRANCH  20  21
ATOM     21  C   UNL A   1      39.366  20.990  25.779  1.00  0.00     0.023 C 
BRANCH  21  22
ATOM     22  C   UNL A   1      40.008  19.944  26.688  1.00  0.00     0.116 C 
BRANCH  22  23
ATOM     23  N   UNL A   1      41.157  19.283  26.091  1.00  0.00    -0.352 N 
ATOM     24  C   UNL A   1      42.376  19.824  25.752  1.00  0.00     0.251 C 
ATOM     25  H   UNL A   1      41.049  18.322  25.904  1.00  0.00     0.163 HD
ATOM     26  O   UNL A   1      43.209  19.146  25.164  1.00  0.00    -0.269 OA
BRANCH  24  27
ATOM     27  C   UNL A   1      42.648  21.243  26.064  1.00  0.00     0.039 A 
ATOM     28  C   UNL A   1      42.917  21.599  27.388  1.00  0.00     0.014 A 
ATOM     29  C   UNL A   1      42.676  22.206  25.053  1.00  0.00     0.014 A 
ATOM     30  C   UNL A   1      43.285  22.913  27.687  1.00  0.00     0.010 A 
ATOM     31  C   UNL A   1      43.103  23.498  25.342  1.00  0.00     0.010 A 
ATOM     32  C   UNL A   1      43.418  23.864  26.660  1.00  0.00    -0.014 A 
BRANCH  32  33
ATOM     33  C   UNL A   1      43.901  25.239  26.942  1.00  0.00     0.031 A 
ATOM     34  C   UNL A   1      45.335  25.606  26.677  1.00  0.00     0.074 A 
ATOM     35  C   UNL A   1      43.065  26.134  27.505  1.00  0.00     0.049 A 
ATOM     36  N   UNL A   1      45.957  26.730  26.925  1.00  0.00    -0.248 NA
ATOM     37  C   UNL A   1      46.190  24.566  26.079  1.00  0.00     0.031 C 
ATOM     38  C   UNL A   1      41.663  25.886  27.853  1.00  0.00     0.029 A 
ATOM     39  N   UNL A   1      43.276  27.433  27.894  1.00  0.00    -0.354 N 
ATOM     40  C   UNL A   1      47.274  26.528  26.533  1.00  0.00     0.074 A 
ATOM     41  C   UNL A   1      47.374  25.161  26.070  1.00  0.00     0.031 C 
ATOM     42  C   UNL A   1      41.136  27.002  28.383  1.00  0.00     0.029 A 
ATOM     43  C   UNL A   1      42.167  28.032  28.446  1.00  0.00     0.049 A 
ATOM     44  H   UNL A   1      44.139  27.894  27.787  1.00  0.00     0.167 HD
ATOM     45  C   UNL A   1      48.305  27.406  26.541  1.00  0.00     0.031 A 
ATOM     46  C   UNL A   1      42.002  29.269  28.954  1.00  0.00     0.031 A 
ATOM     47  C   UNL A   1      48.199  28.771  26.983  1.00  0.00     0.049 A 
ATOM     48  C   UNL A   1      43.160  30.228  28.943  1.00  0.00     0.074 A 
ATOM     49  C   UNL A   1      49.171  29.757  26.971  1.00  0.00     0.029 A 
ATOM     50  N   UNL A   1      47.052  29.346  27.510  1.00  0.00    -0.354 N 
ATOM     51  N   UNL A   1      44.382  30.038  28.506  1.00  0.00    -0.248 NA
ATOM     52  C   UNL A   1      42.914  31.574  29.482  1.00  0.00     0.031 C 
ATOM     53  C   UNL A   1      48.625  30.916  27.532  1.00  0.00     0.029 A 
ATOM     54  C   UNL A   1      47.298  30.667  27.844  1.00  0.00     0.049 A 
ATOM     55  H   UNL A   1      46.192  28.883  27.629  1.00  0.00     0.167 HD
ATOM     56  C   UNL A   1      45.042  31.247  28.692  1.00  0.00     0.074 A 
ATOM     57  C   UNL A   1      44.081  32.165  29.267  1.00  0.00     0.031 C 
ATOM     58  C   UNL A   1      46.328  31.569  28.410  1.00  0.00     0.031 A 
BRANCH  45  59
ATOM     59  C   UNL A   1      49.643  26.917  26.055  1.00  0.00    -0.014 A 
ATOM     60  C   UNL A   1      50.042  27.112  24.720  1.00  0.00     0.010 A 
ATOM     61  C   UNL A   1      50.533  26.303  26.954  1.00  0.00     0.010 A 
ATOM     62  C   UNL A   1      51.294  26.670  24.286  1.00  0.00     0.020 A 
ATOM     63  C   UNL A   1      51.797  25.883  26.530  1.00  0.00     0.020 A 
ATOM     64  C   UNL A   1      52.164  26.057  25.194  1.00  0.00     0.054 A 
BRANCH  64  65
ATOM     65  S   UNL A   1      53.796  25.525  24.610  1.00  0.00     0.124 S 
ATOM     66  O   UNL A   1      53.791  26.000  23.228  1.00  0.00    -0.237 OA
ATOM     67  O   UNL A   1      54.705  26.228  25.511  1.00  0.00    -0.237 OA
ATOM     68  O   UNL A   1      53.765  24.073  24.769  1.00  0.00    -0.744 OA
ENDBRANCH  64  65
ENDBRANCH  45  59
BRANCH  46  69
ATOM     69  C   UNL A   1      40.680  29.681  29.502  1.00  0.00    -0.014 A 
ATOM     70  C   UNL A   1      40.390  29.510  30.867  1.00  0.00     0.010 A 
ATOM     71  C   UNL A   1      39.703  30.243  28.660  1.00  0.00     0.010 A 
ATOM     72  C   UNL A   1      39.139  29.868  31.375  1.00  0.00     0.020 A 
ATOM     73  C   UNL A   1      38.460  30.627  29.170  1.00  0.00     0.020 A 
ATOM     74  C   UNL A   1      38.180  30.423  30.523  1.00  0.00     0.054 A 
BRANCH  74  75
ATOM     75  S   UNL A   1      36.574  30.914  31.210  1.00  0.00     0.124 S 
ATOM     76  O   UNL A   1      35.740  30.978  30.014  1.00  0.00    -0.237 OA
ATOM     77  O   UNL A   1      36.277  29.822  32.133  1.00  0.00    -0.237 OA
ATOM     78  O   UNL A   1      36.856  32.198  31.848  1.00  0.00    -0.744 OA
ENDBRANCH  74  75
ENDBRANCH  46  69
BRANCH  58  79
ATOM     79  C   UNL A   1      46.764  32.984  28.680  1.00  0.00    -0.014 A 
ATOM     80  C   UNL A   1      47.349  33.343  29.907  1.00  0.00     0.010 A 
ATOM     81  C   UNL A   1      46.637  33.953  27.668  1.00  0.00     0.010 A 
ATOM     82  C   UNL A   1      47.774  34.656  30.127  1.00  0.00     0.020 A 
ATOM     83  C   UNL A   1      47.084  35.260  27.875  1.00  0.00     0.020 A 
ATOM     84  C   UNL A   1      47.638  35.607  29.110  1.00  0.00     0.054 A 
BRANCH  84  85
ATOM     85  S   UNL A   1      48.240  37.292  29.401  1.00  0.00     0.124 S 
ATOM     86  O   UNL A   1      48.842  37.627  28.114  1.00  0.00    -0.237 OA
ATOM     87  O   UNL A   1      47.016  38.018  29.731  1.00  0.00    -0.237 OA
ATOM     88  O   UNL A   1      49.182  37.136  30.508  1.00  0.00    -0.744 OA
ENDBRANCH  84  85
ENDBRANCH  58  79
ENDBRANCH  32  33
ENDBRANCH  24  27
ENDBRANCH  22  23
ENDBRANCH  21  22
ENDBRANCH  20  21
ENDBRANCH   1  20
TORSDOF 19
ENDMDL
MODEL 3
REMARK VINA RESULT:      -8.9      3.286      9.192
REMARK SMILES C[C@H](SCC[NH3+])c1ccc(C(=O)NCCCCNC(=O)c2ccc(-c3c4nc(c(-c5ccc(S(=O)(=O)[O-])cc5)c5ccc([nH]5)c(-c5ccc(S(=O)(=O)[O-])cc5)c5nc(c(-c6ccc(S(=O)(=O)[O-])cc6)c6ccc3[nH]6)C=C5)C=C4)cc2)o1
REMARK SMILES IDX 14 1 13 2 11 3 12 4 10 6 7 7 8 8 81 9 9 10 2 11 1 12 3 13
REMARK SMILES IDX 4 14 5 15 6 16 15 20 16 21 17 22 18 23 19 24 20 26 21 27
REMARK SMILES IDX 22 28 80 29 23 30 79 31 24 32 25 33 26 34 73 35 27 36 78 37
REMARK SMILES IDX 72 38 74 39 28 40 77 41 71 42 70 43 29 45 59 46 40 47 58 48
REMARK SMILES IDX 41 49 44 50 57 51 75 52 42 53 43 54 56 56 76 57 45 58 30 59
REMARK SMILES IDX 31 60 39 61 32 62 38 63 33 64 34 65 35 66 36 67 37 68 60 69
REMARK SMILES IDX 61 70 69 71 62 72 68 73 63 74 64 75 65 76 66 77 67 78 46 79
REMARK SMILES IDX 47 80 55 81 48 82 54 83 49 84 50 85 51 86 52 87 53 88
REMARK H PARENT 13 5 6 17 6 18 6 19 18 25 74 44 44 55
REMARK Flexibility Score: inf
ROOT
ATOM      1  C   UNL A   1      33.570  29.012  25.097  1.00  0.00     0.116 C 
ENDROOT
BRANCH   1   2
ATOM      2  N   UNL A   1      32.248  29.424  24.680  1.00  0.00    -0.349 N 
ATOM      3  C   UNL A   1      31.318  28.782  23.895  1.00  0.00     0.286 C 
ATOM      4  O   UNL A   1      30.222  29.338  23.798  1.00  0.00    -0.266 OA
ATOM      5  H   UNL A   1      31.968  30.309  25.011  1.00  0.00     0.163 HD
BRANCH   3   6
ATOM      6  C   UNL A   1      31.619  27.518  23.240  1.00  0.00     0.191 A 
ATOM      7  C   UNL A   1      32.498  25.477  23.229  1.00  0.00     0.117 A 
ATOM      8  C   UNL A   1      31.920  25.659  21.992  1.00  0.00     0.047 A 
ATOM      9  O   UNL A   1      32.316  26.597  23.983  1.00  0.00    -0.455 OA
ATOM     10  C   UNL A   1      31.350  26.957  22.003  1.00  0.00     0.056 A 
BRANCH   7  11
ATOM     11  C   UNL A   1      33.255  24.370  23.880  1.00  0.00     0.110 C 
ATOM     12  C   UNL A   1      32.980  23.026  23.206  1.00  0.00     0.028 C 
BRANCH  11  13
ATOM     13  S   UNL A   1      32.809  24.213  25.652  1.00  0.00    -0.145 SA
BRANCH  13  14
ATOM     14  C   UNL A   1      31.201  23.350  25.499  1.00  0.00     0.131 C 
BRANCH  14  15
ATOM     15  C   UNL A   1      30.410  23.301  26.815  1.00  0.00     0.269 C 
BRANCH  15  16
ATOM     16  N   UNL A   1      29.307  22.341  26.822  1.00  0.00    -0.357 N 
ATOM     17  H   UNL A   1      28.419  22.843  26.843  1.00  0.00     0.344 HD
ATOM     18  H   UNL A   1      29.380  21.745  27.647  1.00  0.00     0.344 HD
ATOM     19  H   UNL A   1      29.353  21.766  25.981  1.00  0.00     0.344 HD
ENDBRANCH  15  16
ENDBRANCH  14  15
ENDBRANCH  13  14
ENDBRANCH  11  13
ENDBRANCH   7  11
ENDBRANCH   3   6
ENDBRANCH   1   2
BRANCH   1  20
ATOM     20  C   UNL A   1      33.661  28.879  26.616  1.00  0.00     0.023 C 
BRANCH  20  21
ATOM     21  C   UNL A   1      34.410  30.022  27.309  1.00  0.00     0.023 C 
BRANCH  21  22
ATOM     22  C   UNL A   1      35.700  29.622  28.023  1.00  0.00     0.116 C 
BRANCH  22  23
ATOM     23  N   UNL A   1      35.598  29.669  29.473  1.00  0.00    -0.352 N 
ATOM     24  C   UNL A   1      36.607  29.580  30.406  1.00  0.00     0.251 C 
ATOM     25  H   UNL A   1      34.689  29.779  29.835  1.00  0.00     0.163 HD
ATOM     26  O   UNL A   1      36.340  29.541  31.600  1.00  0.00    -0.269 OA
BRANCH  24  27
ATOM     27  C   UNL A   1      38.009  29.486  29.946  1.00  0.00     0.039 A 
ATOM     28  C   UNL A   1      38.972  28.993  30.829  1.00  0.00     0.014 A 
ATOM     29  C   UNL A   1      38.360  29.846  28.643  1.00  0.00     0.014 A 
ATOM     30  C   UNL A   1      40.280  28.793  30.380  1.00  0.00     0.010 A 
ATOM     31  C   UNL A   1      39.647  29.588  28.179  1.00  0.00     0.010 A 
ATOM     32  C   UNL A   1      40.618  29.053  29.041  1.00  0.00    -0.014 A 
BRANCH  32  33
ATOM     33  C   UNL A   1      41.975  28.756  28.518  1.00  0.00     0.031 A 
ATOM     34  C   UNL A   1      42.322  27.366  28.061  1.00  0.00     0.074 A 
ATOM     35  C   UNL A   1      42.915  29.723  28.523  1.00  0.00     0.049 A 
ATOM     36  N   UNL A   1      43.470  26.899  27.643  1.00  0.00    -0.248 NA
ATOM     37  C   UNL A   1      41.246  26.361  28.105  1.00  0.00     0.031 C 
ATOM     38  C   UNL A   1      42.715  31.100  28.983  1.00  0.00     0.029 A 
ATOM     39  N   UNL A   1      44.231  29.692  28.137  1.00  0.00    -0.354 N 
ATOM     40  C   UNL A   1      43.262  25.549  27.393  1.00  0.00     0.074 A 
ATOM     41  C   UNL A   1      41.889  25.260  27.746  1.00  0.00     0.031 C 
ATOM     42  C   UNL A   1      43.861  31.785  28.833  1.00  0.00     0.029 A 
ATOM     43  C   UNL A   1      44.884  30.891  28.301  1.00  0.00     0.049 A 
ATOM     44  H   UNL A   1      44.668  28.886  27.777  1.00  0.00     0.167 HD
ATOM     45  C   UNL A   1      44.129  24.635  26.898  1.00  0.00     0.031 A 
ATOM     46  C   UNL A   1      46.164  31.232  28.058  1.00  0.00     0.031 A 
ATOM     47  C   UNL A   1      45.488  24.928  26.528  1.00  0.00     0.049 A 
ATOM     48  C   UNL A   1      47.106  30.201  27.500  1.00  0.00     0.074 A 
ATOM     49  C   UNL A   1      46.426  24.085  25.959  1.00  0.00     0.029 A 
ATOM     50  N   UNL A   1      46.102  26.162  26.685  1.00  0.00    -0.354 N 
ATOM     51  N   UNL A   1      46.869  28.944  27.207  1.00  0.00    -0.248 NA
ATOM     52  C   UNL A   1      48.483  30.636  27.225  1.00  0.00     0.031 C 
ATOM     53  C   UNL A   1      47.622  24.796  25.811  1.00  0.00     0.029 A 
ATOM     54  C   UNL A   1      47.412  26.096  26.240  1.00  0.00     0.049 A 
ATOM     55  H   UNL A   1      45.670  26.965  27.057  1.00  0.00     0.167 HD
ATOM     56  C   UNL A   1      48.060  28.447  26.689  1.00  0.00     0.074 A 
ATOM     57  C   UNL A   1      49.009  29.540  26.696  1.00  0.00     0.031 C 
ATOM     58  C   UNL A   1      48.341  27.196  26.247  1.00  0.00     0.031 A 
BRANCH  45  59
ATOM     59  C   UNL A   1      43.634  23.224  26.724  1.00  0.00    -0.014 A 
ATOM     60  C   UNL A   1      43.647  22.603  25.462  1.00  0.00     0.010 A 
ATOM     61  C   UNL A   1      43.199  22.492  27.843  1.00  0.00     0.010 A 
ATOM     62  C   UNL A   1      43.202  21.287  25.317  1.00  0.00     0.020 A 
ATOM     63  C   UNL A   1      42.777  21.166  27.707  1.00  0.00     0.020 A 
ATOM     64  C   UNL A   1      42.769  20.576  26.441  1.00  0.00     0.054 A 
BRANCH  64  65
ATOM     65  S   UNL A   1      42.229  18.858  26.229  1.00  0.00     0.124 S 
ATOM     66  O   UNL A   1      43.185  18.363  25.242  1.00  0.00    -0.237 OA
ATOM     67  O   UNL A   1      42.373  18.307  27.573  1.00  0.00    -0.237 OA
ATOM     68  O   UNL A   1      40.853  18.983  25.754  1.00  0.00    -0.744 OA
ENDBRANCH  64  65
ENDBRANCH  45  59
BRANCH  46  69
ATOM     69  C   UNL A   1      46.632  32.620  28.325  1.00  0.00    -0.014 A 
ATOM     70  C   UNL A   1      46.536  33.609  27.331  1.00  0.00     0.010 A 
ATOM     71  C   UNL A   1      47.182  32.958  29.576  1.00  0.00     0.010 A 
ATOM     72  C   UNL A   1      47.003  34.904  27.571  1.00  0.00     0.020 A 
ATOM     73  C   UNL A   1      47.626  34.259  29.828  1.00  0.00     0.020 A 
ATOM     74  C   UNL A   1      47.548  35.220  28.819  1.00  0.00     0.054 A 
BRANCH  74  75
ATOM     75  S   UNL A   1      48.117  36.916  29.122  1.00  0.00     0.124 S 
ATOM     76  O   UNL A   1      48.387  36.894  30.556  1.00  0.00    -0.237 OA
ATOM     77  O   UNL A   1      49.290  37.017  28.258  1.00  0.00    -0.237 OA
ATOM     78  O   UNL A   1      46.978  37.735  28.711  1.00  0.00    -0.744 OA
ENDBRANCH  74  75
ENDBRANCH  46  69
BRANCH  58  79
ATOM     79  C   UNL A   1      49.719  26.950  25.695  1.00  0.00    -0.014 A 
ATOM     80  C   UNL A   1      50.035  27.258  24.360  1.00  0.00     0.010 A 
ATOM     81  C   UNL A   1      50.727  26.457  26.544  1.00  0.00     0.010 A 
ATOM     82  C   UNL A   1      51.328  27.049  23.875  1.00  0.00     0.020 A 
ATOM     83  C   UNL A   1      52.028  26.271  26.070  1.00  0.00     0.020 A 
ATOM     84  C   UNL A   1      52.317  26.556  24.733  1.00  0.00     0.054 A 
BRANCH  84  85
ATOM     85  S   UNL A   1      54.000  26.338  24.095  1.00  0.00     0.124 S 
ATOM     86  O   UNL A   1      53.769  26.239  22.656  1.00  0.00    -0.237 OA
ATOM     87  O   UNL A   1      54.673  27.555  24.541  1.00  0.00    -0.237 OA
ATOM     88  O   UNL A   1      54.458  25.109  24.739  1.00  0.00    -0.744 OA
ENDBRANCH  84  85
ENDBRANCH  58  79
ENDBRANCH  32  33
ENDBRANCH  24  27
ENDBRANCH  22  23
ENDBRANCH  21  22
ENDBRANCH  20  21
ENDBRANCH   1  20
TORSDOF 19
ENDMDL
