MODEL 1
REMARK VINA RESULT:     -12.1      0.000      0.000
REMARK SMILES O=C(C[C@@H](C(=O)NCCCCNC(=O)c1ccc(-c2c3nc(c(-c4ccc(S(=O)(=O)[O-])cc4)c4ccc([nH]4)c(-c4ccc(S(=O)(=O)[O-])cc4)c4nc(c(-c5ccc(S(=O)(=O)[O-])cc5)c5ccc2[nH]5)C=C4)C=C3)cc1)c1ccccc1)Nc1cc(C(F)(F)F)ccc1-n1cncn1
REMARK SMILES IDX 9 1 8 2 7 3 5 4 6 5 4 7 3 8 2 9 1 10 81 11 82 13 83 14 91 15
REMARK SMILES IDX 84 16 90 17 89 18 92 19 93 20 96 21 94 22 95 23 85 24 86 25
REMARK SMILES IDX 87 26 88 27 75 28 76 29 80 30 77 31 79 32 78 33 10 34 11 35
REMARK SMILES IDX 12 36 13 37 14 39 15 40 16 41 74 42 17 43 73 44 18 45 19 46
REMARK SMILES IDX 20 47 67 48 21 49 72 50 66 51 68 52 22 53 71 54 65 55 64 56
REMARK SMILES IDX 23 58 53 59 34 60 52 61 35 62 38 63 51 64 69 65 36 66 37 67
REMARK SMILES IDX 50 69 70 70 39 71 24 72 25 73 33 74 26 75 32 76 27 77 28 78
REMARK SMILES IDX 29 79 30 80 31 81 54 82 55 83 63 84 56 85 62 86 57 87 58 88
REMARK SMILES IDX 59 89 60 90 61 91 40 92 41 93 49 94 42 95 48 96 43 97 44 98
REMARK SMILES IDX 45 99 46 100 47 101
REMARK H PARENT 7 6 81 12 12 38 68 57 38 68
REMARK Flexibility Score: inf
ROOT
ATOM      1  C   UNL A   1      37.211  22.661  24.693  1.00  0.00     0.023 C 
ENDROOT
BRANCH   1   2
ATOM      2  C   UNL A   1      36.006  22.205  23.869  1.00  0.00     0.116 C 
BRANCH   2   3
ATOM      3  N   UNL A   1      35.298  23.381  23.397  1.00  0.00    -0.356 N 
ATOM      4  C   UNL A   1      33.980  23.336  23.033  1.00  0.00     0.228 C 
ATOM      5  O   UNL A   1      33.692  23.528  21.851  1.00  0.00    -0.274 OA
ATOM      6  H   UNL A   1      35.781  24.236  23.338  1.00  0.00     0.163 HD
BRANCH   4   7
ATOM      7  C   UNL A   1      32.923  23.138  24.129  1.00  0.00     0.118 C 
BRANCH   7   8
ATOM      8  C   UNL A   1      33.450  23.667  25.474  1.00  0.00     0.118 C 
BRANCH   8   9
ATOM      9  C   UNL A   1      32.898  25.024  25.894  1.00  0.00     0.225 C 
ATOM     10  O   UNL A   1      32.249  25.180  26.920  1.00  0.00    -0.275 OA
ATOM     11  N   UNL A   1      33.217  26.036  24.999  1.00  0.00    -0.324 N 
ATOM     12  H   UNL A   1      33.596  25.764  24.132  1.00  0.00     0.170 HD
BRANCH  11  13
ATOM     13  C   UNL A   1      33.047  27.424  25.223  1.00  0.00     0.067 A 
ATOM     14  C   UNL A   1      34.020  28.036  26.008  1.00  0.00     0.041 A 
ATOM     15  C   UNL A   1      31.932  28.187  24.844  1.00  0.00     0.090 A 
ATOM     16  C   UNL A   1      33.934  29.378  26.403  1.00  0.00     0.058 A 
ATOM     17  C   UNL A   1      31.884  29.568  25.135  1.00  0.00     0.031 A 
ATOM     18  C   UNL A   1      32.878  30.156  25.926  1.00  0.00     0.015 A 
BRANCH  15  19
ATOM     19  N   UNL A   1      30.723  27.565  24.458  1.00  0.00    -0.219 N 
ATOM     20  C   UNL A   1      29.814  28.040  23.537  1.00  0.00     0.226 A 
ATOM     21  N   UNL A   1      30.407  26.282  24.762  1.00  0.00    -0.155 NA
ATOM     22  N   UNL A   1      28.836  27.184  23.367  1.00  0.00    -0.223 NA
ATOM     23  C   UNL A   1      29.228  26.142  24.151  1.00  0.00     0.246 A 
ENDBRANCH  15  19
BRANCH  16  24
ATOM     24  C   UNL A   1      34.908  29.856  27.448  1.00  0.00     0.416 C 
ATOM     25  F   UNL A   1      34.858  29.065  28.556  1.00  0.00    -0.166 F 
ATOM     26  F   UNL A   1      36.197  29.785  27.029  1.00  0.00    -0.166 F 
ATOM     27  F   UNL A   1      34.695  31.125  27.877  1.00  0.00    -0.166 F 
ENDBRANCH  16  24
ENDBRANCH  11  13
ENDBRANCH   8   9
ENDBRANCH   7   8
BRANCH   7  28
ATOM     28  C   UNL A   1      32.656  21.619  24.167  1.00  0.00    -0.035 A 
ATOM     29  C   UNL A   1      32.269  20.940  23.000  1.00  0.00     0.004 A 
ATOM     30  C   UNL A   1      32.969  20.851  25.306  1.00  0.00     0.004 A 
ATOM     31  C   UNL A   1      32.205  19.542  22.976  1.00  0.00     0.000 A 
ATOM     32  C   UNL A   1      32.905  19.457  25.278  1.00  0.00     0.000 A 
ATOM     33  C   UNL A   1      32.527  18.801  24.111  1.00  0.00     0.000 A 
ENDBRANCH   7  28
ENDBRANCH   4   7
ENDBRANCH   2   3
ENDBRANCH   1   2
BRANCH   1  34
ATOM     34  C   UNL A   1      37.038  23.832  25.658  1.00  0.00     0.023 C 
BRANCH  34  35
ATOM     35  C   UNL A   1      38.176  24.132  26.624  1.00  0.00     0.116 C 
BRANCH  35  36
ATOM     36  N   UNL A   1      39.519  24.161  26.063  1.00  0.00    -0.352 N 
ATOM     37  C   UNL A   1      40.711  24.718  26.487  1.00  0.00     0.251 C 
ATOM     38  H   UNL A   1      39.593  23.685  25.203  1.00  0.00     0.163 HD
ATOM     39  O   UNL A   1      41.726  24.461  25.839  1.00  0.00    -0.269 OA
BRANCH  37  40
ATOM     40  C   UNL A   1      40.799  25.703  27.601  1.00  0.00     0.039 A 
ATOM     41  C   UNL A   1      41.751  26.735  27.512  1.00  0.00     0.014 A 
ATOM     42  C   UNL A   1      39.935  25.698  28.684  1.00  0.00     0.014 A 
ATOM     43  C   UNL A   1      41.720  27.822  28.398  1.00  0.00     0.010 A 
ATOM     44  C   UNL A   1      39.823  26.822  29.493  1.00  0.00     0.010 A 
ATOM     45  C   UNL A   1      40.718  27.895  29.367  1.00  0.00    -0.014 A 
BRANCH  45  46
ATOM     46  C   UNL A   1      40.617  28.981  30.377  1.00  0.00     0.031 A 
ATOM     47  C   UNL A   1      41.502  28.886  31.594  1.00  0.00     0.074 A 
ATOM     48  C   UNL A   1      39.664  29.932  30.302  1.00  0.00     0.049 A 
ATOM     49  N   UNL A   1      41.409  29.503  32.741  1.00  0.00    -0.248 NA
ATOM     50  C   UNL A   1      42.600  27.902  31.529  1.00  0.00     0.031 C 
ATOM     51  C   UNL A   1      38.730  30.128  29.193  1.00  0.00     0.029 A 
ATOM     52  N   UNL A   1      39.304  30.899  31.211  1.00  0.00    -0.354 N 
ATOM     53  C   UNL A   1      42.381  28.929  33.551  1.00  0.00     0.074 A 
ATOM     54  C   UNL A   1      43.020  27.886  32.783  1.00  0.00     0.031 C 
ATOM     55  C   UNL A   1      37.909  31.153  29.485  1.00  0.00     0.029 A 
ATOM     56  C   UNL A   1      38.223  31.655  30.820  1.00  0.00     0.049 A 
ATOM     57  H   UNL A   1      39.777  31.037  32.063  1.00  0.00     0.167 HD
ATOM     58  C   UNL A   1      42.725  29.252  34.819  1.00  0.00     0.031 A 
ATOM     59  C   UNL A   1      37.554  32.626  31.477  1.00  0.00     0.031 A 
ATOM     60  C   UNL A   1      42.141  30.343  35.547  1.00  0.00     0.049 A 
ATOM     61  C   UNL A   1      37.984  32.995  32.877  1.00  0.00     0.074 A 
ATOM     62  C   UNL A   1      42.492  30.826  36.794  1.00  0.00     0.029 A 
ATOM     63  N   UNL A   1      41.100  31.131  35.084  1.00  0.00    -0.354 N 
ATOM     64  N   UNL A   1      38.949  32.488  33.608  1.00  0.00    -0.248 NA
ATOM     65  C   UNL A   1      37.238  34.078  33.538  1.00  0.00     0.031 C 
ATOM     66  C   UNL A   1      41.628  31.880  37.107  1.00  0.00     0.029 A 
ATOM     67  C   UNL A   1      40.781  32.088  36.029  1.00  0.00     0.049 A 
ATOM     68  H   UNL A   1      40.654  31.025  34.213  1.00  0.00     0.167 HD
ATOM     69  C   UNL A   1      38.952  33.217  34.794  1.00  0.00     0.074 A 
ATOM     70  C   UNL A   1      37.901  34.205  34.680  1.00  0.00     0.031 C 
ATOM     71  C   UNL A   1      39.752  33.083  35.880  1.00  0.00     0.031 A 
BRANCH  58  72
ATOM     72  C   UNL A   1      43.783  28.423  35.494  1.00  0.00    -0.014 A 
ATOM     73  C   UNL A   1      43.454  27.271  36.231  1.00  0.00     0.010 A 
ATOM     74  C   UNL A   1      45.137  28.779  35.351  1.00  0.00     0.010 A 
ATOM     75  C   UNL A   1      44.453  26.514  36.844  1.00  0.00     0.020 A 
ATOM     76  C   UNL A   1      46.143  28.004  35.934  1.00  0.00     0.020 A 
ATOM     77  C   UNL A   1      45.792  26.884  36.689  1.00  0.00     0.054 A 
BRANCH  77  78
ATOM     78  S   UNL A   1      47.070  25.852  37.456  1.00  0.00     0.124 S 
ATOM     79  O   UNL A   1      46.903  24.587  36.746  1.00  0.00    -0.237 OA
ATOM     80  O   UNL A   1      48.296  26.584  37.155  1.00  0.00    -0.237 OA
ATOM     81  O   UNL A   1      46.693  25.827  38.869  1.00  0.00    -0.744 OA
ENDBRANCH  77  78
ENDBRANCH  58  72
BRANCH  59  82
ATOM     82  C   UNL A   1      36.410  33.338  30.836  1.00  0.00    -0.014 A 
ATOM     83  C   UNL A   1      36.577  33.963  29.586  1.00  0.00     0.010 A 
ATOM     84  C   UNL A   1      35.165  33.440  31.484  1.00  0.00     0.010 A 
ATOM     85  C   UNL A   1      35.543  34.714  29.018  1.00  0.00     0.020 A 
ATOM     86  C   UNL A   1      34.117  34.165  30.904  1.00  0.00     0.020 A 
ATOM     87  C   UNL A   1      34.319  34.813  29.684  1.00  0.00     0.054 A 
BRANCH  87  88
ATOM     88  S   UNL A   1      32.987  35.786  28.924  1.00  0.00     0.124 S 
ATOM     89  O   UNL A   1      33.733  36.835  28.237  1.00  0.00    -0.237 OA
ATOM     90  O   UNL A   1      32.334  34.805  28.062  1.00  0.00    -0.237 OA
ATOM     91  O   UNL A   1      32.192  36.228  30.068  1.00  0.00    -0.744 OA
ENDBRANCH  87  88
ENDBRANCH  59  82
BRANCH  71  92
ATOM     92  C   UNL A   1      39.579  34.066  37.007  1.00  0.00    -0.014 A 
ATOM     93  C   UNL A   1      38.934  33.705  38.203  1.00  0.00     0.010 A 
ATOM     94  C   UNL A   1      40.155  35.346  36.896  1.00  0.00     0.010 A 
ATOM     95  C   UNL A   1      38.848  34.616  39.258  1.00  0.00     0.020 A 
ATOM     96  C   UNL A   1      40.097  36.247  37.961  1.00  0.00     0.020 A 
ATOM     97  C   UNL A   1      39.433  35.880  39.133  1.00  0.00     0.054 A 
BRANCH  97  98
ATOM     98  S   UNL A   1      39.362  37.020  40.541  1.00  0.00     0.124 S 
ATOM     99  O   UNL A   1      38.747  38.203  39.945  1.00  0.00    -0.237 OA
ATOM    100  O   UNL A   1      38.531  36.294  41.498  1.00  0.00    -0.237 OA
ATOM    101  O   UNL A   1      40.761  37.176  40.933  1.00  0.00    -0.744 OA
ENDBRANCH  97  98
ENDBRANCH  71  92
ENDBRANCH  45  46
ENDBRANCH  37  40
ENDBRANCH  35  36
ENDBRANCH  34  35
ENDBRANCH   1  34
TORSDOF 20
ENDMDL
MODEL 2
REMARK VINA RESULT:     -12.0      2.066      8.279
REMARK SMILES O=C(C[C@@H](C(=O)NCCCCNC(=O)c1ccc(-c2c3nc(c(-c4ccc(S(=O)(=O)[O-])cc4)c4ccc([nH]4)c(-c4ccc(S(=O)(=O)[O-])cc4)c4nc(c(-c5ccc(S(=O)(=O)[O-])cc5)c5ccc2[nH]5)C=C4)C=C3)cc1)c1ccccc1)Nc1cc(C(F)(F)F)ccc1-n1cncn1
REMARK SMILES IDX 9 1 8 2 7 3 5 4 6 5 4 7 3 8 2 9 1 10 81 11 82 13 83 14 91 15
REMARK SMILES IDX 84 16 90 17 89 18 92 19 93 20 96 21 94 22 95 23 85 24 86 25
REMARK SMILES IDX 87 26 88 27 75 28 76 29 80 30 77 31 79 32 78 33 10 34 11 35
REMARK SMILES IDX 12 36 13 37 14 39 15 40 16 41 74 42 17 43 73 44 18 45 19 46
REMARK SMILES IDX 20 47 67 48 21 49 72 50 66 51 68 52 22 53 71 54 65 55 64 56
REMARK SMILES IDX 23 58 53 59 34 60 52 61 35 62 38 63 51 64 69 65 36 66 37 67
REMARK SMILES IDX 50 69 70 70 39 71 24 72 25 73 33 74 26 75 32 76 27 77 28 78
REMARK SMILES IDX 29 79 30 80 31 81 54 82 55 83 63 84 56 85 62 86 57 87 58 88
REMARK SMILES IDX 59 89 60 90 61 91 40 92 41 93 49 94 42 95 48 96 43 97 44 98
REMARK SMILES IDX 45 99 46 100 47 101
REMARK H PARENT 7 6 81 12 12 38 68 57 38 68
REMARK Flexibility Score: inf
ROOT
ATOM      1  C   UNL A   1      36.527  23.738  25.434  1.00  0.00     0.023 C 
ENDROOT
BRANCH   1   2
ATOM      2  C   UNL A   1      35.506  22.954  24.607  1.00  0.00     0.116 C 
BRANCH   2   3
ATOM      3  N   UNL A   1      35.285  23.659  23.358  1.00  0.00    -0.356 N 
ATOM      4  C   UNL A   1      34.028  23.909  22.880  1.00  0.00     0.228 C 
ATOM      5  O   UNL A   1      33.676  23.353  21.838  1.00  0.00    -0.274 OA
ATOM      6  H   UNL A   1      36.063  23.967  22.840  1.00  0.00     0.163 HD
BRANCH   4   7
ATOM      7  C   UNL A   1      33.154  24.934  23.616  1.00  0.00     0.118 C 
BRANCH   7   8
ATOM      8  C   UNL A   1      34.026  26.077  24.164  1.00  0.00     0.118 C 
BRANCH   8   9
ATOM      9  C   UNL A   1      33.448  27.475  23.979  1.00  0.00     0.225 C 
ATOM     10  O   UNL A   1      33.571  28.104  22.936  1.00  0.00    -0.275 OA
ATOM     11  N   UNL A   1      32.778  27.934  25.104  1.00  0.00    -0.324 N 
ATOM     12  H   UNL A   1      32.887  27.415  25.934  1.00  0.00     0.170 HD
BRANCH  11  13
ATOM     13  C   UNL A   1      31.950  29.081  25.164  1.00  0.00     0.067 A 
ATOM     14  C   UNL A   1      30.963  29.170  24.187  1.00  0.00     0.041 A 
ATOM     15  C   UNL A   1      32.126  30.178  26.023  1.00  0.00     0.090 A 
ATOM     16  C   UNL A   1      30.135  30.293  24.053  1.00  0.00     0.058 A 
ATOM     17  C   UNL A   1      31.228  31.268  25.977  1.00  0.00     0.031 A 
ATOM     18  C   UNL A   1      30.244  31.328  24.983  1.00  0.00     0.015 A 
BRANCH  15  19
ATOM     19  N   UNL A   1      33.343  30.372  26.714  1.00  0.00    -0.219 N 
ATOM     20  C   UNL A   1      33.666  31.440  27.523  1.00  0.00     0.226 A 
ATOM     21  N   UNL A   1      34.278  29.403  26.877  1.00  0.00    -0.155 NA
ATOM     22  N   UNL A   1      34.849  31.273  28.062  1.00  0.00    -0.223 NA
ATOM     23  C   UNL A   1      35.192  30.031  27.620  1.00  0.00     0.246 A 
ENDBRANCH  15  19
BRANCH  16  24
ATOM     24  C   UNL A   1      29.281  30.380  22.815  1.00  0.00     0.416 C 
ATOM     25  F   UNL A   1      29.114  31.676  22.431  1.00  0.00    -0.166 F 
ATOM     26  F   UNL A   1      29.854  29.772  21.744  1.00  0.00    -0.166 F 
ATOM     27  F   UNL A   1      28.036  29.860  22.952  1.00  0.00    -0.166 F 
ENDBRANCH  16  24
ENDBRANCH  11  13
ENDBRANCH   8   9
ENDBRANCH   7   8
BRANCH   7  28
ATOM     28  C   UNL A   1      32.459  24.142  24.743  1.00  0.00    -0.035 A 
ATOM     29  C   UNL A   1      32.635  24.520  26.084  1.00  0.00     0.004 A 
ATOM     30  C   UNL A   1      31.497  23.154  24.455  1.00  0.00     0.004 A 
ATOM     31  C   UNL A   1      31.869  23.932  27.097  1.00  0.00     0.000 A 
ATOM     32  C   UNL A   1      30.735  22.570  25.468  1.00  0.00     0.000 A 
ATOM     33  C   UNL A   1      30.917  22.963  26.790  1.00  0.00     0.000 A 
ENDBRANCH   7  28
ENDBRANCH   4   7
ENDBRANCH   2   3
ENDBRANCH   1   2
BRANCH   1  34
ATOM     34  C   UNL A   1      37.858  23.073  25.777  1.00  0.00     0.023 C 
BRANCH  34  35
ATOM     35  C   UNL A   1      38.850  23.861  26.622  1.00  0.00     0.116 C 
BRANCH  35  36
ATOM     36  N   UNL A   1      39.832  24.659  25.901  1.00  0.00    -0.352 N 
ATOM     37  C   UNL A   1      40.562  25.786  26.230  1.00  0.00     0.251 C 
ATOM     38  H   UNL A   1      40.013  24.327  24.991  1.00  0.00     0.163 HD
ATOM     39  O   UNL A   1      41.422  26.165  25.435  1.00  0.00    -0.269 OA
BRANCH  37  40
ATOM     40  C   UNL A   1      40.271  26.624  27.428  1.00  0.00     0.039 A 
ATOM     41  C   UNL A   1      39.452  26.089  28.439  1.00  0.00     0.014 A 
ATOM     42  C   UNL A   1      40.833  27.874  27.630  1.00  0.00     0.014 A 
ATOM     43  C   UNL A   1      39.341  26.723  29.685  1.00  0.00     0.010 A 
ATOM     44  C   UNL A   1      40.823  28.448  28.895  1.00  0.00     0.010 A 
ATOM     45  C   UNL A   1      40.071  27.886  29.938  1.00  0.00    -0.014 A 
BRANCH  45  46
ATOM     46  C   UNL A   1      39.996  28.654  31.207  1.00  0.00     0.031 A 
ATOM     47  C   UNL A   1      38.977  29.763  31.293  1.00  0.00     0.074 A 
ATOM     48  C   UNL A   1      40.903  28.487  32.191  1.00  0.00     0.049 A 
ATOM     49  N   UNL A   1      38.902  30.761  32.132  1.00  0.00    -0.248 NA
ATOM     50  C   UNL A   1      37.945  29.785  30.238  1.00  0.00     0.031 C 
ATOM     51  C   UNL A   1      41.952  27.468  32.229  1.00  0.00     0.029 A 
ATOM     52  N   UNL A   1      41.103  29.210  33.344  1.00  0.00    -0.354 N 
ATOM     53  C   UNL A   1      37.869  31.563  31.661  1.00  0.00     0.074 A 
ATOM     54  C   UNL A   1      37.380  30.963  30.442  1.00  0.00     0.031 C 
ATOM     55  C   UNL A   1      42.680  27.628  33.350  1.00  0.00     0.029 A 
ATOM     56  C   UNL A   1      42.184  28.788  34.084  1.00  0.00     0.049 A 
ATOM     57  H   UNL A   1      40.525  29.959  33.614  1.00  0.00     0.167 HD
ATOM     58  C   UNL A   1      37.361  32.693  32.205  1.00  0.00     0.031 A 
ATOM     59  C   UNL A   1      42.721  29.298  35.213  1.00  0.00     0.031 A 
ATOM     60  C   UNL A   1      37.798  33.237  33.459  1.00  0.00     0.049 A 
ATOM     61  C   UNL A   1      42.108  30.537  35.821  1.00  0.00     0.074 A 
ATOM     62  C   UNL A   1      37.277  34.313  34.155  1.00  0.00     0.029 A 
ATOM     63  N   UNL A   1      38.847  32.736  34.213  1.00  0.00    -0.354 N 
ATOM     64  N   UNL A   1      41.089  31.250  35.401  1.00  0.00    -0.248 NA
ATOM     65  C   UNL A   1      42.714  31.037  37.065  1.00  0.00     0.031 C 
ATOM     66  C   UNL A   1      38.044  34.492  35.310  1.00  0.00     0.029 A 
ATOM     67  C   UNL A   1      39.002  33.491  35.359  1.00  0.00     0.049 A 
ATOM     68  H   UNL A   1      39.399  31.958  33.968  1.00  0.00     0.167 HD
ATOM     69  C   UNL A   1      40.907  32.252  36.350  1.00  0.00     0.074 A 
ATOM     70  C   UNL A   1      41.914  32.050  37.370  1.00  0.00     0.031 C 
ATOM     71  C   UNL A   1      39.991  33.250  36.378  1.00  0.00     0.031 A 
BRANCH  58  72
ATOM     72  C   UNL A   1      36.271  33.407  31.452  1.00  0.00    -0.014 A 
ATOM     73  C   UNL A   1      35.034  33.698  32.053  1.00  0.00     0.010 A 
ATOM     74  C   UNL A   1      36.508  33.835  30.133  1.00  0.00     0.010 A 
ATOM     75  C   UNL A   1      34.040  34.367  31.338  1.00  0.00     0.020 A 
ATOM     76  C   UNL A   1      35.528  34.535  29.425  1.00  0.00     0.020 A 
ATOM     77  C   UNL A   1      34.295  34.784  30.028  1.00  0.00     0.054 A 
BRANCH  77  78
ATOM     78  S   UNL A   1      33.001  35.695  29.142  1.00  0.00     0.124 S 
ATOM     79  O   UNL A   1      32.432  34.656  28.288  1.00  0.00    -0.237 OA
ATOM     80  O   UNL A   1      32.140  36.160  30.225  1.00  0.00    -0.237 OA
ATOM     81  O   UNL A   1      33.736  36.746  28.439  1.00  0.00    -0.744 OA
ENDBRANCH  77  78
ENDBRANCH  58  72
BRANCH  59  82
ATOM     82  C   UNL A   1      43.896  28.650  35.863  1.00  0.00    -0.014 A 
ATOM     83  C   UNL A   1      43.705  27.703  36.887  1.00  0.00     0.010 A 
ATOM     84  C   UNL A   1      45.210  29.006  35.506  1.00  0.00     0.010 A 
ATOM     85  C   UNL A   1      44.797  27.160  37.571  1.00  0.00     0.020 A 
ATOM     86  C   UNL A   1      46.307  28.441  36.167  1.00  0.00     0.020 A 
ATOM     87  C   UNL A   1      46.092  27.535  37.209  1.00  0.00     0.054 A 
BRANCH  87  88
ATOM     88  S   UNL A   1      47.495  26.809  38.104  1.00  0.00     0.124 S 
ATOM     89  O   UNL A   1      47.051  26.905  39.490  1.00  0.00    -0.237 OA
ATOM     90  O   UNL A   1      47.558  25.460  37.550  1.00  0.00    -0.237 OA
ATOM     91  O   UNL A   1      48.615  27.676  37.744  1.00  0.00    -0.744 OA
ENDBRANCH  87  88
ENDBRANCH  59  82
BRANCH  71  92
ATOM     92  C   UNL A   1      39.979  34.163  37.575  1.00  0.00    -0.014 A 
ATOM     93  C   UNL A   1      40.558  35.442  37.530  1.00  0.00     0.010 A 
ATOM     94  C   UNL A   1      39.294  33.759  38.738  1.00  0.00     0.010 A 
ATOM     95  C   UNL A   1      40.472  36.294  38.634  1.00  0.00     0.020 A 
ATOM     96  C   UNL A   1      39.180  34.620  39.831  1.00  0.00     0.020 A 
ATOM     97  C   UNL A   1      39.780  35.879  39.777  1.00  0.00     0.054 A 
BRANCH  97  98
ATOM     98  S   UNL A   1      39.630  37.027  41.172  1.00  0.00     0.124 S 
ATOM     99  O   UNL A   1      38.884  36.231  42.142  1.00  0.00    -0.237 OA
ATOM    100  O   UNL A   1      41.024  37.296  41.517  1.00  0.00    -0.237 OA
ATOM    101  O   UNL A   1      38.904  38.163  40.609  1.00  0.00    -0.744 OA
ENDBRANCH  97  98
ENDBRANCH  71  92
ENDBRANCH  45  46
ENDBRANCH  37  40
ENDBRANCH  35  36
ENDBRANCH  34  35
ENDBRANCH   1  34
TORSDOF 20
ENDMDL
MODEL 3
REMARK VINA RESULT:     -11.9      2.208      8.274
REMARK SMILES O=C(C[C@@H](C(=O)NCCCCNC(=O)c1ccc(-c2c3nc(c(-c4ccc(S(=O)(=O)[O-])cc4)c4ccc([nH]4)c(-c4ccc(S(=O)(=O)[O-])cc4)c4nc(c(-c5ccc(S(=O)(=O)[O-])cc5)c5ccc2[nH]5)C=C4)C=C3)cc1)c1ccccc1)Nc1cc(C(F)(F)F)ccc1-n1cncn1
REMARK SMILES IDX 9 1 8 2 7 3 5 4 6 5 4 7 3 8 2 9 1 10 81 11 82 13 83 14 91 15
REMARK SMILES IDX 84 16 90 17 89 18 92 19 93 20 96 21 94 22 95 23 85 24 86 25
REMARK SMILES IDX 87 26 88 27 75 28 76 29 80 30 77 31 79 32 78 33 10 34 11 35
REMARK SMILES IDX 12 36 13 37 14 39 15 40 16 41 74 42 17 43 73 44 18 45 19 46
REMARK SMILES IDX 20 47 67 48 21 49 72 50 66 51 68 52 22 53 71 54 65 55 64 56
REMARK SMILES IDX 23 58 53 59 34 60 52 61 35 62 38 63 51 64 69 65 36 66 37 67
REMARK SMILES IDX 50 69 70 70 39 71 24 72 25 73 33 74 26 75 32 76 27 77 28 78
REMARK SMILES IDX 29 79 30 80 31 81 54 82 55 83 63 84 56 85 62 86 57 87 58 88
REMARK SMILES IDX 59 89 60 90 61 91 40 92 41 93 49 94 42 95 48 96 43 97 44 98
REMARK SMILES IDX 45 99 46 100 47 101
REMARK H PARENT 7 6 81 12 12 38 68 57 38 68
REMARK Flexibility Score: inf
ROOT
ATOM      1  C   UNL A   1      39.541  23.548  27.140  1.00  0.00     0.023 C 
ENDROOT
BRANCH   1   2
ATOM      2  C   UNL A   1      38.278  23.309  26.311  1.00  0.00     0.116 C 
BRANCH   2   3
ATOM      3  N   UNL A   1      38.600  22.390  25.236  1.00  0.00    -0.356 N 
ATOM      4  C   UNL A   1      37.743  21.394  24.852  1.00  0.00     0.228 C 
ATOM      5  O   UNL A   1      38.084  20.225  25.036  1.00  0.00    -0.274 OA
ATOM      6  H   UNL A   1      39.460  22.486  24.768  1.00  0.00     0.163 HD
BRANCH   4   7
ATOM      7  C   UNL A   1      36.443  21.782  24.134  1.00  0.00     0.118 C 
BRANCH   7   8
ATOM      8  C   UNL A   1      36.401  23.303  23.900  1.00  0.00     0.118 C 
BRANCH   8   9
ATOM      9  C   UNL A   1      35.003  23.903  23.814  1.00  0.00     0.225 C 
ATOM     10  O   UNL A   1      34.259  23.701  22.863  1.00  0.00    -0.275 OA
ATOM     11  N   UNL A   1      34.683  24.682  24.918  1.00  0.00    -0.324 N 
ATOM     12  H   UNL A   1      35.416  24.907  25.535  1.00  0.00     0.170 HD
BRANCH  11  13
ATOM     13  C   UNL A   1      33.395  25.178  25.235  1.00  0.00     0.067 A 
ATOM     14  C   UNL A   1      32.555  24.299  25.913  1.00  0.00     0.041 A 
ATOM     15  C   UNL A   1      32.859  26.405  24.810  1.00  0.00     0.090 A 
ATOM     16  C   UNL A   1      31.219  24.608  26.203  1.00  0.00     0.058 A 
ATOM     17  C   UNL A   1      31.553  26.780  25.194  1.00  0.00     0.031 A 
ATOM     18  C   UNL A   1      30.732  25.875  25.876  1.00  0.00     0.015 A 
BRANCH  15  19
ATOM     19  N   UNL A   1      33.462  27.137  23.763  1.00  0.00    -0.219 N 
ATOM     20  C   UNL A   1      33.307  26.914  22.412  1.00  0.00     0.226 A 
ATOM     21  N   UNL A   1      34.086  28.328  23.941  1.00  0.00    -0.155 NA
ATOM     22  N   UNL A   1      33.953  27.818  21.716  1.00  0.00    -0.223 NA
ATOM     23  C   UNL A   1      34.431  28.642  22.689  1.00  0.00     0.246 A 
ENDBRANCH  15  19
BRANCH  16  24
ATOM     24  C   UNL A   1      30.346  23.492  26.714  1.00  0.00     0.416 C 
ATOM     25  F   UNL A   1      30.168  22.539  25.757  1.00  0.00    -0.166 F 
ATOM     26  F   UNL A   1      30.903  22.833  27.761  1.00  0.00    -0.166 F 
ATOM     27  F   UNL A   1      29.105  23.880  27.099  1.00  0.00    -0.166 F 
ENDBRANCH  16  24
ENDBRANCH  11  13
ENDBRANCH   8   9
ENDBRANCH   7   8
BRANCH   7  28
ATOM     28  C   UNL A   1      35.307  21.307  25.063  1.00  0.00    -0.035 A 
ATOM     29  C   UNL A   1      35.284  21.702  26.410  1.00  0.00     0.004 A 
ATOM     30  C   UNL A   1      34.181  20.630  24.553  1.00  0.00     0.004 A 
ATOM     31  C   UNL A   1      34.169  21.436  27.213  1.00  0.00     0.000 A 
ATOM     32  C   UNL A   1      33.071  20.366  25.356  1.00  0.00     0.000 A 
ATOM     33  C   UNL A   1      33.062  20.773  26.686  1.00  0.00     0.000 A 
ENDBRANCH   7  28
ENDBRANCH   4   7
ENDBRANCH   2   3
ENDBRANCH   1   2
BRANCH   1  34
ATOM     34  C   UNL A   1      40.784  22.715  26.838  1.00  0.00     0.023 C 
BRANCH  34  35
ATOM     35  C   UNL A   1      42.058  23.454  26.449  1.00  0.00     0.116 C 
BRANCH  35  36
ATOM     36  N   UNL A   1      41.901  24.627  25.602  1.00  0.00    -0.352 N 
ATOM     37  C   UNL A   1      41.921  25.987  25.853  1.00  0.00     0.251 C 
ATOM     38  H   UNL A   1      41.749  24.407  24.654  1.00  0.00     0.163 HD
ATOM     39  O   UNL A   1      41.878  26.749  24.888  1.00  0.00    -0.269 OA
BRANCH  37  40
ATOM     40  C   UNL A   1      41.863  26.562  27.227  1.00  0.00     0.039 A 
ATOM     41  C   UNL A   1      42.534  27.772  27.477  1.00  0.00     0.014 A 
ATOM     42  C   UNL A   1      41.114  26.003  28.249  1.00  0.00     0.014 A 
ATOM     43  C   UNL A   1      42.319  28.482  28.668  1.00  0.00     0.010 A 
ATOM     44  C   UNL A   1      40.805  26.750  29.378  1.00  0.00     0.010 A 
ATOM     45  C   UNL A   1      41.409  27.996  29.608  1.00  0.00    -0.014 A 
BRANCH  45  46
ATOM     46  C   UNL A   1      41.136  28.649  30.915  1.00  0.00     0.031 A 
ATOM     47  C   UNL A   1      39.987  29.623  30.982  1.00  0.00     0.074 A 
ATOM     48  C   UNL A   1      41.971  28.510  31.964  1.00  0.00     0.049 A 
ATOM     49  N   UNL A   1      39.722  30.537  31.876  1.00  0.00    -0.248 NA
ATOM     50  C   UNL A   1      39.051  29.610  29.840  1.00  0.00     0.031 C 
ATOM     51  C   UNL A   1      43.130  27.619  32.029  1.00  0.00     0.029 A 
ATOM     52  N   UNL A   1      41.986  29.159  33.176  1.00  0.00    -0.354 N 
ATOM     53  C   UNL A   1      38.642  31.250  31.368  1.00  0.00     0.074 A 
ATOM     54  C   UNL A   1      38.332  30.696  30.071  1.00  0.00     0.031 C 
ATOM     55  C   UNL A   1      43.737  27.773  33.220  1.00  0.00     0.029 A 
ATOM     56  C   UNL A   1      43.044  28.807  33.983  1.00  0.00     0.049 A 
ATOM     57  H   UNL A   1      41.301  29.813  33.443  1.00  0.00     0.167 HD
ATOM     58  C   UNL A   1      37.957  32.268  31.938  1.00  0.00     0.031 A 
ATOM     59  C   UNL A   1      43.420  29.285  35.188  1.00  0.00     0.031 A 
ATOM     60  C   UNL A   1      38.219  32.759  33.262  1.00  0.00     0.049 A 
ATOM     61  C   UNL A   1      42.613  30.394  35.821  1.00  0.00     0.074 A 
ATOM     62  C   UNL A   1      37.515  33.710  33.978  1.00  0.00     0.029 A 
ATOM     63  N   UNL A   1      39.254  32.324  34.073  1.00  0.00    -0.354 N 
ATOM     64  N   UNL A   1      41.554  31.016  35.358  1.00  0.00    -0.248 NA
ATOM     65  C   UNL A   1      43.049  30.861  37.146  1.00  0.00     0.031 C 
ATOM     66  C   UNL A   1      38.156  33.884  35.209  1.00  0.00     0.029 A 
ATOM     67  C   UNL A   1      39.221  32.999  35.278  1.00  0.00     0.049 A 
ATOM     68  H   UNL A   1      39.915  31.636  33.827  1.00  0.00     0.167 HD
ATOM     69  C   UNL A   1      41.173  31.913  36.353  1.00  0.00     0.074 A 
ATOM     70  C   UNL A   1      42.109  31.748  37.444  1.00  0.00     0.031 C 
ATOM     71  C   UNL A   1      40.144  32.794  36.364  1.00  0.00     0.031 A 
BRANCH  58  72
ATOM     72  C   UNL A   1      36.855  32.910  31.139  1.00  0.00    -0.014 A 
ATOM     73  C   UNL A   1      35.501  32.695  31.453  1.00  0.00     0.010 A 
ATOM     74  C   UNL A   1      37.183  33.778  30.082  1.00  0.00     0.010 A 
ATOM     75  C   UNL A   1      34.496  33.306  30.702  1.00  0.00     0.020 A 
ATOM     76  C   UNL A   1      36.181  34.418  29.349  1.00  0.00     0.020 A 
ATOM     77  C   UNL A   1      34.843  34.166  29.656  1.00  0.00     0.054 A 
BRANCH  77  78
ATOM     78  S   UNL A   1      33.515  34.982  28.730  1.00  0.00     0.124 S 
ATOM     79  O   UNL A   1      34.242  36.031  28.021  1.00  0.00    -0.237 OA
ATOM     80  O   UNL A   1      32.997  33.903  27.895  1.00  0.00    -0.237 OA
ATOM     81  O   UNL A   1      32.603  35.452  29.773  1.00  0.00    -0.744 OA
ENDBRANCH  77  78
ENDBRANCH  58  72
BRANCH  59  82
ATOM     82  C   UNL A   1      44.607  28.727  35.898  1.00  0.00    -0.014 A 
ATOM     83  C   UNL A   1      44.454  27.653  36.795  1.00  0.00     0.010 A 
ATOM     84  C   UNL A   1      45.885  29.291  35.727  1.00  0.00     0.010 A 
ATOM     85  C   UNL A   1      45.541  27.183  37.538  1.00  0.00     0.020 A 
ATOM     86  C   UNL A   1      46.982  28.803  36.447  1.00  0.00     0.020 A 
ATOM     87  C   UNL A   1      46.799  27.764  37.363  1.00  0.00     0.054 A 
BRANCH  87  88
ATOM     88  S   UNL A   1      48.197  27.131  38.333  1.00  0.00     0.124 S 
ATOM     89  O   UNL A   1      48.733  26.099  37.453  1.00  0.00    -0.237 OA
ATOM     90  O   UNL A   1      49.030  28.320  38.497  1.00  0.00    -0.237 OA
ATOM     91  O   UNL A   1      47.569  26.644  39.559  1.00  0.00    -0.744 OA
ENDBRANCH  87  88
ENDBRANCH  59  82
BRANCH  71  92
ATOM     92  C   UNL A   1      39.921  33.602  37.615  1.00  0.00    -0.014 A 
ATOM     93  C   UNL A   1      40.528  34.857  37.796  1.00  0.00     0.010 A 
ATOM     94  C   UNL A   1      39.015  33.130  38.584  1.00  0.00     0.010 A 
ATOM     95  C   UNL A   1      40.250  35.615  38.936  1.00  0.00     0.020 A 
ATOM     96  C   UNL A   1      38.712  33.899  39.709  1.00  0.00     0.020 A 
ATOM     97  C   UNL A   1      39.341  35.133  39.884  1.00  0.00     0.054 A 
BRANCH  97  98
ATOM     98  S   UNL A   1      38.950  36.165  41.322  1.00  0.00     0.124 S 
ATOM     99  O   UNL A   1      38.710  37.467  40.707  1.00  0.00    -0.237 OA
ATOM    100  O   UNL A   1      37.771  35.505  41.878  1.00  0.00    -0.237 OA
ATOM    101  O   UNL A   1      40.152  36.078  42.149  1.00  0.00    -0.744 OA
ENDBRANCH  97  98
ENDBRANCH  71  92
ENDBRANCH  45  46
ENDBRANCH  37  40
ENDBRANCH  35  36
ENDBRANCH  34  35
ENDBRANCH   1  34
TORSDOF 20
ENDMDL
