MODEL 1
REMARK VINA RESULT:     -13.3      0.000      0.000
REMARK SMILES Cc1nc2ccccc2c2c1C(=O)N(c1cccc(C(=O)NCCCCNC(=O)c3ccc(-c4c5nc(c(-c6ccc(S(=O)(=O)[O-])cc6)c6ccc([nH]6)c(-c6ccc(S(=O)(=O)[O-])cc6)c6nc(c(-c7ccc(S(=O)(=O)[O-])cc7)c7ccc4[nH]7)C=C6)C=C5)cc3)c1)C2=O
REMARK SMILES IDX 25 1 24 2 23 3 22 4 20 5 21 6 19 8 15 9 16 10 90 11 17 12
REMARK SMILES IDX 18 13 14 14 1 15 2 16 3 17 11 18 4 19 10 20 12 21 5 22 9 23
REMARK SMILES IDX 91 24 13 25 6 26 8 27 92 28 7 29 26 30 27 31 28 32 29 34
REMARK SMILES IDX 30 35 31 36 89 37 32 38 88 39 33 40 34 41 35 42 82 43 36 44
REMARK SMILES IDX 87 45 81 46 83 47 37 48 86 49 80 50 79 51 38 53 68 54 49 55
REMARK SMILES IDX 67 56 50 57 53 58 66 59 84 60 51 61 52 62 65 64 85 65 54 66
REMARK SMILES IDX 39 67 40 68 48 69 41 70 47 71 42 72 43 73 44 74 45 75 46 76
REMARK SMILES IDX 69 77 70 78 78 79 71 80 77 81 72 82 73 83 74 84 75 85 76 86
REMARK SMILES IDX 55 87 56 88 64 89 57 90 63 91 58 92 59 93 60 94 61 95 62 96
REMARK H PARENT 22 7 27 33 83 52 53 63
REMARK Flexibility Score: inf
ROOT
ATOM      1  C   UNL A   1      31.953  28.883  26.667  1.00  0.00     0.023 C 
ENDROOT
BRANCH   1   2
ATOM      2  C   UNL A   1      31.785  29.725  25.409  1.00  0.00     0.023 C 
BRANCH   2   3
ATOM      3  C   UNL A   1      32.684  29.388  24.224  1.00  0.00     0.116 C 
BRANCH   3   4
ATOM      4  N   UNL A   1      31.972  28.905  23.062  1.00  0.00    -0.352 N 
ATOM      5  C   UNL A   1      31.234  27.774  22.844  1.00  0.00     0.251 C 
ATOM      6  O   UNL A   1      30.590  27.740  21.793  1.00  0.00    -0.269 OA
ATOM      7  H   UNL A   1      32.029  29.501  22.282  1.00  0.00     0.163 HD
BRANCH   5   8
ATOM      8  C   UNL A   1      31.174  26.591  23.760  1.00  0.00     0.041 A 
ATOM      9  C   UNL A   1      31.656  24.288  24.412  1.00  0.00     0.053 A 
ATOM     10  C   UNL A   1      30.664  24.393  25.408  1.00  0.00     0.027 A 
ATOM     11  C   UNL A   1      31.973  25.436  23.671  1.00  0.00     0.040 A 
ATOM     12  C   UNL A   1      29.861  25.521  25.511  1.00  0.00     0.003 A 
ATOM     13  C   UNL A   1      30.094  26.596  24.666  1.00  0.00     0.014 A 
BRANCH   9  14
ATOM     14  N   UNL A   1      31.967  22.979  23.902  1.00  0.00    -0.242 N 
ATOM     15  C   UNL A   1      33.317  18.691  25.015  1.00  0.00     0.067 C 
ATOM     16  C   UNL A   1      33.924  20.020  24.705  1.00  0.00     0.052 A 
ATOM     17  N   UNL A   1      35.258  20.165  24.952  1.00  0.00    -0.252 NA
ATOM     18  C   UNL A   1      33.218  21.042  24.116  1.00  0.00     0.075 A 
ATOM     19  C   UNL A   1      35.786  21.408  24.875  1.00  0.00     0.071 A 
ATOM     20  C   UNL A   1      33.949  22.047  23.554  1.00  0.00     0.064 A 
ATOM     21  C   UNL A   1      31.975  21.758  24.568  1.00  0.00     0.268 C 
ATOM     22  C   UNL A   1      36.948  21.734  25.560  1.00  0.00     0.029 A 
ATOM     23  C   UNL A   1      35.090  22.443  24.241  1.00  0.00     0.014 A 
ATOM     24  C   UNL A   1      32.969  22.934  22.979  1.00  0.00     0.266 C 
ATOM     25  O   UNL A   1      31.272  21.362  25.482  1.00  0.00    -0.268 OA
ATOM     26  C   UNL A   1      37.286  23.067  25.825  1.00  0.00     0.002 A 
ATOM     27  C   UNL A   1      35.421  23.791  24.506  1.00  0.00     0.011 A 
ATOM     28  O   UNL A   1      33.065  23.375  21.857  1.00  0.00    -0.268 OA
ATOM     29  C   UNL A   1      36.481  24.095  25.352  1.00  0.00     0.001 A 
ENDBRANCH   9  14
ENDBRANCH   5   8
ENDBRANCH   3   4
ENDBRANCH   2   3
ENDBRANCH   1   2
BRANCH   1  30
ATOM     30  C   UNL A   1      33.227  29.131  27.463  1.00  0.00     0.116 C 
BRANCH  30  31
ATOM     31  N   UNL A   1      33.511  30.542  27.683  1.00  0.00    -0.352 N 
ATOM     32  C   UNL A   1      34.657  31.173  28.111  1.00  0.00     0.251 C 
ATOM     33  H   UNL A   1      32.758  31.146  27.494  1.00  0.00     0.163 HD
ATOM     34  O   UNL A   1      34.643  32.382  28.327  1.00  0.00    -0.269 OA
BRANCH  32  35
ATOM     35  C   UNL A   1      35.884  30.390  28.367  1.00  0.00     0.039 A 
ATOM     36  C   UNL A   1      36.060  29.703  29.566  1.00  0.00     0.014 A 
ATOM     37  C   UNL A   1      36.898  30.381  27.404  1.00  0.00     0.014 A 
ATOM     38  C   UNL A   1      37.320  29.222  29.902  1.00  0.00     0.010 A 
ATOM     39  C   UNL A   1      38.133  29.795  27.699  1.00  0.00     0.010 A 
ATOM     40  C   UNL A   1      38.378  29.277  28.979  1.00  0.00    -0.014 A 
BRANCH  40  41
ATOM     41  C   UNL A   1      39.732  28.822  29.393  1.00  0.00     0.031 A 
ATOM     42  C   UNL A   1      40.523  29.596  30.417  1.00  0.00     0.074 A 
ATOM     43  C   UNL A   1      40.212  27.655  28.919  1.00  0.00     0.049 A 
ATOM     44  N   UNL A   1      41.700  29.326  30.922  1.00  0.00    -0.248 NA
ATOM     45  C   UNL A   1      39.918  30.830  30.947  1.00  0.00     0.031 C 
ATOM     46  C   UNL A   1      39.516  26.789  27.964  1.00  0.00     0.029 A 
ATOM     47  N   UNL A   1      41.363  26.968  29.212  1.00  0.00    -0.354 N 
ATOM     48  C   UNL A   1      41.980  30.356  31.815  1.00  0.00     0.074 A 
ATOM     49  C   UNL A   1      40.867  31.277  31.759  1.00  0.00     0.031 C 
ATOM     50  C   UNL A   1      40.208  25.651  27.821  1.00  0.00     0.029 A 
ATOM     51  C   UNL A   1      41.437  25.736  28.606  1.00  0.00     0.049 A 
ATOM     52  H   UNL A   1      42.068  27.323  29.801  1.00  0.00     0.167 HD
ATOM     53  C   UNL A   1      43.058  30.511  32.619  1.00  0.00     0.031 A 
ATOM     54  C   UNL A   1      42.382  24.777  28.665  1.00  0.00     0.031 A 
ATOM     55  C   UNL A   1      44.161  29.588  32.677  1.00  0.00     0.049 A 
ATOM     56  C   UNL A   1      43.602  25.005  29.505  1.00  0.00     0.074 A 
ATOM     57  C   UNL A   1      45.314  29.676  33.438  1.00  0.00     0.029 A 
ATOM     58  N   UNL A   1      44.246  28.405  31.959  1.00  0.00    -0.354 N 
ATOM     59  N   UNL A   1      43.875  26.015  30.295  1.00  0.00    -0.248 NA
ATOM     60  C   UNL A   1      44.650  23.977  29.452  1.00  0.00     0.031 C 
ATOM     61  C   UNL A   1      46.117  28.572  33.144  1.00  0.00     0.029 A 
ATOM     62  C   UNL A   1      45.439  27.763  32.246  1.00  0.00     0.049 A 
ATOM     63  H   UNL A   1      43.560  28.071  31.337  1.00  0.00     0.167 HD
ATOM     64  C   UNL A   1      45.127  25.747  30.834  1.00  0.00     0.074 A 
ATOM     65  C   UNL A   1      45.549  24.469  30.297  1.00  0.00     0.031 C 
ATOM     66  C   UNL A   1      45.858  26.498  31.692  1.00  0.00     0.031 A 
BRANCH  53  67
ATOM     67  C   UNL A   1      43.110  31.730  33.504  1.00  0.00    -0.014 A 
ATOM     68  C   UNL A   1      42.572  31.679  34.803  1.00  0.00     0.010 A 
ATOM     69  C   UNL A   1      43.619  32.951  33.023  1.00  0.00     0.010 A 
ATOM     70  C   UNL A   1      42.529  32.826  35.602  1.00  0.00     0.020 A 
ATOM     71  C   UNL A   1      43.602  34.095  33.828  1.00  0.00     0.020 A 
ATOM     72  C   UNL A   1      43.040  34.028  35.107  1.00  0.00     0.054 A 
BRANCH  72  73
ATOM     73  S   UNL A   1      42.996  35.505  36.161  1.00  0.00     0.124 S 
ATOM     74  O   UNL A   1      42.806  34.930  37.489  1.00  0.00    -0.237 OA
ATOM     75  O   UNL A   1      44.301  36.114  35.917  1.00  0.00    -0.237 OA
ATOM     76  O   UNL A   1      41.861  36.262  35.636  1.00  0.00    -0.744 OA
ENDBRANCH  72  73
ENDBRANCH  53  67
BRANCH  54  77
ATOM     77  C   UNL A   1      42.167  23.514  27.911  1.00  0.00    -0.014 A 
ATOM     78  C   UNL A   1      41.404  22.470  28.470  1.00  0.00     0.010 A 
ATOM     79  C   UNL A   1      42.835  23.298  26.693  1.00  0.00     0.010 A 
ATOM     80  C   UNL A   1      41.377  21.211  27.868  1.00  0.00     0.020 A 
ATOM     81  C   UNL A   1      42.787  22.045  26.073  1.00  0.00     0.020 A 
ATOM     82  C   UNL A   1      42.090  21.001  26.684  1.00  0.00     0.054 A 
BRANCH  82  83
ATOM     83  S   UNL A   1      42.120  19.333  25.969  1.00  0.00     0.124 S 
ATOM     84  O   UNL A   1      42.674  18.549  27.070  1.00  0.00    -0.237 OA
ATOM     85  O   UNL A   1      40.712  19.087  25.667  1.00  0.00    -0.237 OA
ATOM     86  O   UNL A   1      42.988  19.478  24.804  1.00  0.00    -0.744 OA
ENDBRANCH  82  83
ENDBRANCH  54  77
BRANCH  66  87
ATOM     87  C   UNL A   1      47.209  25.984  32.108  1.00  0.00    -0.014 A 
ATOM     88  C   UNL A   1      48.290  26.056  31.211  1.00  0.00     0.010 A 
ATOM     89  C   UNL A   1      47.372  25.307  33.330  1.00  0.00     0.010 A 
ATOM     90  C   UNL A   1      49.503  25.431  31.512  1.00  0.00     0.020 A 
ATOM     91  C   UNL A   1      48.591  24.701  33.644  1.00  0.00     0.020 A 
ATOM     92  C   UNL A   1      49.640  24.745  32.722  1.00  0.00     0.054 A 
BRANCH  92  93
ATOM     93  S   UNL A   1      51.207  23.903  33.078  1.00  0.00     0.124 S 
ATOM     94  O   UNL A   1      51.345  23.013  31.929  1.00  0.00    -0.237 OA
ATOM     95  O   UNL A   1      52.161  25.007  33.139  1.00  0.00    -0.237 OA
ATOM     96  O   UNL A   1      50.954  23.238  34.356  1.00  0.00    -0.744 OA
ENDBRANCH  92  93
ENDBRANCH  66  87
ENDBRANCH  40  41
ENDBRANCH  32  35
ENDBRANCH  30  31
ENDBRANCH   1  30
TORSDOF 15
ENDMDL
MODEL 2
REMARK VINA RESULT:     -12.8      3.866      4.549
REMARK SMILES Cc1nc2ccccc2c2c1C(=O)N(c1cccc(C(=O)NCCCCNC(=O)c3ccc(-c4c5nc(c(-c6ccc(S(=O)(=O)[O-])cc6)c6ccc([nH]6)c(-c6ccc(S(=O)(=O)[O-])cc6)c6nc(c(-c7ccc(S(=O)(=O)[O-])cc7)c7ccc4[nH]7)C=C6)C=C5)cc3)c1)C2=O
REMARK SMILES IDX 25 1 24 2 23 3 22 4 20 5 21 6 19 8 15 9 16 10 90 11 17 12
REMARK SMILES IDX 18 13 14 14 1 15 2 16 3 17 11 18 4 19 10 20 12 21 5 22 9 23
REMARK SMILES IDX 91 24 13 25 6 26 8 27 92 28 7 29 26 30 27 31 28 32 29 34
REMARK SMILES IDX 30 35 31 36 89 37 32 38 88 39 33 40 34 41 35 42 82 43 36 44
REMARK SMILES IDX 87 45 81 46 83 47 37 48 86 49 80 50 79 51 38 53 68 54 49 55
REMARK SMILES IDX 67 56 50 57 53 58 66 59 84 60 51 61 52 62 65 64 85 65 54 66
REMARK SMILES IDX 39 67 40 68 48 69 41 70 47 71 42 72 43 73 44 74 45 75 46 76
REMARK SMILES IDX 69 77 70 78 78 79 71 80 77 81 72 82 73 83 74 84 75 85 76 86
REMARK SMILES IDX 55 87 56 88 64 89 57 90 63 91 58 92 59 93 60 94 61 95 62 96
REMARK H PARENT 22 7 27 33 83 52 53 63
REMARK Flexibility Score: inf
ROOT
ATOM      1  C   UNL A   1      34.733  31.167  27.733  1.00  0.00     0.023 C 
ENDROOT
BRANCH   1   2
ATOM      2  C   UNL A   1      34.943  29.701  27.376  1.00  0.00     0.023 C 
BRANCH   2   3
ATOM      3  C   UNL A   1      33.827  29.011  26.597  1.00  0.00     0.116 C 
BRANCH   3   4
ATOM      4  N   UNL A   1      34.144  28.764  25.208  1.00  0.00    -0.352 N 
ATOM      5  C   UNL A   1      33.578  27.945  24.270  1.00  0.00     0.251 C 
ATOM      6  O   UNL A   1      33.963  28.101  23.108  1.00  0.00    -0.269 OA
ATOM      7  H   UNL A   1      34.911  29.283  24.874  1.00  0.00     0.163 HD
BRANCH   5   8
ATOM      8  C   UNL A   1      32.564  26.880  24.552  1.00  0.00     0.041 A 
ATOM      9  C   UNL A   1      31.763  24.575  24.639  1.00  0.00     0.053 A 
ATOM     10  C   UNL A   1      30.450  25.068  24.792  1.00  0.00     0.027 A 
ATOM     11  C   UNL A   1      32.819  25.498  24.633  1.00  0.00     0.040 A 
ATOM     12  C   UNL A   1      30.176  26.427  24.710  1.00  0.00     0.003 A 
ATOM     13  C   UNL A   1      31.226  27.320  24.555  1.00  0.00     0.014 A 
BRANCH   9  14
ATOM     14  N   UNL A   1      31.931  23.266  24.068  1.00  0.00    -0.242 N 
ATOM     15  C   UNL A   1      32.934  18.833  24.958  1.00  0.00     0.067 C 
ATOM     16  C   UNL A   1      33.644  20.114  24.668  1.00  0.00     0.052 A 
ATOM     17  N   UNL A   1      34.996  20.129  24.857  1.00  0.00    -0.252 NA
ATOM     18  C   UNL A   1      33.009  21.218  24.151  1.00  0.00     0.075 A 
ATOM     19  C   UNL A   1      35.630  21.323  24.801  1.00  0.00     0.071 A 
ATOM     20  C   UNL A   1      33.803  22.176  23.593  1.00  0.00     0.064 A 
ATOM     21  C   UNL A   1      31.857  22.023  24.687  1.00  0.00     0.268 C 
ATOM     22  C   UNL A   1      36.846  21.515  25.442  1.00  0.00     0.029 A 
ATOM     23  C   UNL A   1      35.004  22.440  24.239  1.00  0.00     0.014 A 
ATOM     24  C   UNL A   1      32.883  23.170  23.097  1.00  0.00     0.266 C 
ATOM     25  O   UNL A   1      31.162  21.654  25.618  1.00  0.00    -0.268 OA
ATOM     26  C   UNL A   1      37.314  22.801  25.740  1.00  0.00     0.002 A 
ATOM     27  C   UNL A   1      35.468  23.742  24.538  1.00  0.00     0.011 A 
ATOM     28  O   UNL A   1      32.970  23.646  21.990  1.00  0.00    -0.268 OA
ATOM     29  C   UNL A   1      36.587  23.915  25.343  1.00  0.00     0.001 A 
ENDBRANCH   9  14
ENDBRANCH   5   8
ENDBRANCH   3   4
ENDBRANCH   2   3
ENDBRANCH   1   2
BRANCH   1  30
ATOM     30  C   UNL A   1      35.663  31.727  28.799  1.00  0.00     0.116 C 
BRANCH  30  31
ATOM     31  N   UNL A   1      35.599  31.010  30.065  1.00  0.00    -0.352 N 
ATOM     32  C   UNL A   1      36.561  30.299  30.747  1.00  0.00     0.251 C 
ATOM     33  H   UNL A   1      34.721  31.039  30.508  1.00  0.00     0.163 HD
ATOM     34  O   UNL A   1      36.255  29.681  31.763  1.00  0.00    -0.269 OA
BRANCH  32  35
ATOM     35  C   UNL A   1      37.942  30.232  30.227  1.00  0.00     0.039 A 
ATOM     36  C   UNL A   1      38.198  30.304  28.859  1.00  0.00     0.014 A 
ATOM     37  C   UNL A   1      38.998  30.049  31.125  1.00  0.00     0.014 A 
ATOM     38  C   UNL A   1      39.453  29.951  28.378  1.00  0.00     0.010 A 
ATOM     39  C   UNL A   1      40.288  29.807  30.641  1.00  0.00     0.010 A 
ATOM     40  C   UNL A   1      40.511  29.681  29.262  1.00  0.00    -0.014 A 
BRANCH  40  41
ATOM     41  C   UNL A   1      41.822  29.236  28.719  1.00  0.00     0.031 A 
ATOM     42  C   UNL A   1      43.025  30.143  28.776  1.00  0.00     0.074 A 
ATOM     43  C   UNL A   1      41.955  27.975  28.261  1.00  0.00     0.049 A 
ATOM     44  N   UNL A   1      44.251  29.907  28.386  1.00  0.00    -0.248 NA
ATOM     45  C   UNL A   1      42.831  31.487  29.348  1.00  0.00     0.031 C 
ATOM     46  C   UNL A   1      40.876  26.987  28.203  1.00  0.00     0.029 A 
ATOM     47  N   UNL A   1      43.057  27.292  27.810  1.00  0.00    -0.354 N 
ATOM     48  C   UNL A   1      44.969  31.069  28.652  1.00  0.00     0.074 A 
ATOM     49  C   UNL A   1      44.036  32.024  29.204  1.00  0.00     0.031 C 
ATOM     50  C   UNL A   1      41.386  25.805  27.833  1.00  0.00     0.029 A 
ATOM     51  C   UNL A   1      42.809  25.966  27.544  1.00  0.00     0.049 A 
ATOM     52  H   UNL A   1      43.940  27.711  27.689  1.00  0.00     0.167 HD
ATOM     53  C   UNL A   1      46.288  31.311  28.466  1.00  0.00     0.031 A 
ATOM     54  C   UNL A   1      43.625  24.984  27.115  1.00  0.00     0.031 A 
ATOM     55  C   UNL A   1      47.217  30.355  27.922  1.00  0.00     0.049 A 
ATOM     56  C   UNL A   1      45.066  25.296  26.846  1.00  0.00     0.074 A 
ATOM     57  C   UNL A   1      48.567  30.520  27.668  1.00  0.00     0.029 A 
ATOM     58  N   UNL A   1      46.897  29.055  27.561  1.00  0.00    -0.354 N 
ATOM     59  N   UNL A   1      45.711  26.420  27.046  1.00  0.00    -0.248 NA
ATOM     60  C   UNL A   1      45.888  24.219  26.278  1.00  0.00     0.031 C 
ATOM     61  C   UNL A   1      49.053  29.336  27.107  1.00  0.00     0.029 A 
ATOM     62  C   UNL A   1      48.021  28.412  27.070  1.00  0.00     0.049 A 
ATOM     63  H   UNL A   1      46.004  28.649  27.641  1.00  0.00     0.167 HD
ATOM     64  C   UNL A   1      47.016  26.187  26.629  1.00  0.00     0.074 A 
ATOM     65  C   UNL A   1      47.073  24.809  26.184  1.00  0.00     0.031 C 
ATOM     66  C   UNL A   1      48.065  27.044  26.613  1.00  0.00     0.031 A 
BRANCH  53  67
ATOM     67  C   UNL A   1      46.818  32.670  28.847  1.00  0.00    -0.014 A 
ATOM     68  C   UNL A   1      46.794  33.721  27.912  1.00  0.00     0.010 A 
ATOM     69  C   UNL A   1      47.413  32.889  30.104  1.00  0.00     0.010 A 
ATOM     70  C   UNL A   1      47.366  34.960  28.217  1.00  0.00     0.020 A 
ATOM     71  C   UNL A   1      47.962  34.135  30.423  1.00  0.00     0.020 A 
ATOM     72  C   UNL A   1      47.951  35.157  29.470  1.00  0.00     0.054 A 
BRANCH  72  73
ATOM     73  S   UNL A   1      48.671  36.776  29.862  1.00  0.00     0.124 S 
ATOM     74  O   UNL A   1      47.694  37.332  30.792  1.00  0.00    -0.237 OA
ATOM     75  O   UNL A   1      49.965  36.422  30.442  1.00  0.00    -0.237 OA
ATOM     76  O   UNL A   1      48.745  37.437  28.561  1.00  0.00    -0.744 OA
ENDBRANCH  72  73
ENDBRANCH  53  67
BRANCH  54  77
ATOM     77  C   UNL A   1      43.068  23.615  26.945  1.00  0.00    -0.014 A 
ATOM     78  C   UNL A   1      43.062  22.709  28.023  1.00  0.00     0.010 A 
ATOM     79  C   UNL A   1      42.669  23.169  25.673  1.00  0.00     0.010 A 
ATOM     80  C   UNL A   1      42.743  21.365  27.817  1.00  0.00     0.020 A 
ATOM     81  C   UNL A   1      42.322  21.829  25.470  1.00  0.00     0.020 A 
ATOM     82  C   UNL A   1      42.398  20.930  26.535  1.00  0.00     0.054 A 
BRANCH  82  83
ATOM     83  S   UNL A   1      42.082  19.163  26.269  1.00  0.00     0.124 S 
ATOM     84  O   UNL A   1      40.678  19.170  25.864  1.00  0.00    -0.237 OA
ATOM     85  O   UNL A   1      43.038  18.819  25.220  1.00  0.00    -0.237 OA
ATOM     86  O   UNL A   1      42.353  18.569  27.575  1.00  0.00    -0.744 OA
ENDBRANCH  82  83
ENDBRANCH  54  77
BRANCH  66  87
ATOM     87  C   UNL A   1      49.380  26.541  26.084  1.00  0.00    -0.014 A 
ATOM     88  C   UNL A   1      50.259  25.852  26.938  1.00  0.00     0.010 A 
ATOM     89  C   UNL A   1      49.801  26.871  24.784  1.00  0.00     0.010 A 
ATOM     90  C   UNL A   1      51.550  25.529  26.516  1.00  0.00     0.020 A 
ATOM     91  C   UNL A   1      51.085  26.530  24.349  1.00  0.00     0.020 A 
ATOM     92  C   UNL A   1      51.960  25.884  25.227  1.00  0.00     0.054 A 
BRANCH  92  93
ATOM     93  S   UNL A   1      53.655  25.497  24.710  1.00  0.00     0.124 S 
ATOM     94  O   UNL A   1      53.665  24.038  24.754  1.00  0.00    -0.237 OA
ATOM     95  O   UNL A   1      53.729  26.087  23.375  1.00  0.00    -0.237 OA
ATOM     96  O   UNL A   1      54.479  26.159  25.719  1.00  0.00    -0.744 OA
ENDBRANCH  92  93
ENDBRANCH  66  87
ENDBRANCH  40  41
ENDBRANCH  32  35
ENDBRANCH  30  31
ENDBRANCH   1  30
TORSDOF 15
ENDMDL
MODEL 3
REMARK VINA RESULT:     -12.7      1.984      8.068
REMARK SMILES Cc1nc2ccccc2c2c1C(=O)N(c1cccc(C(=O)NCCCCNC(=O)c3ccc(-c4c5nc(c(-c6ccc(S(=O)(=O)[O-])cc6)c6ccc([nH]6)c(-c6ccc(S(=O)(=O)[O-])cc6)c6nc(c(-c7ccc(S(=O)(=O)[O-])cc7)c7ccc4[nH]7)C=C6)C=C5)cc3)c1)C2=O
REMARK SMILES IDX 25 1 24 2 23 3 22 4 20 5 21 6 19 8 15 9 16 10 90 11 17 12
REMARK SMILES IDX 18 13 14 14 1 15 2 16 3 17 11 18 4 19 10 20 12 21 5 22 9 23
REMARK SMILES IDX 91 24 13 25 6 26 8 27 92 28 7 29 26 30 27 31 28 32 29 34
REMARK SMILES IDX 30 35 31 36 89 37 32 38 88 39 33 40 34 41 35 42 82 43 36 44
REMARK SMILES IDX 87 45 81 46 83 47 37 48 86 49 80 50 79 51 38 53 68 54 49 55
REMARK SMILES IDX 67 56 50 57 53 58 66 59 84 60 51 61 52 62 65 64 85 65 54 66
REMARK SMILES IDX 39 67 40 68 48 69 41 70 47 71 42 72 43 73 44 74 45 75 46 76
REMARK SMILES IDX 69 77 70 78 78 79 71 80 77 81 72 82 73 83 74 84 75 85 76 86
REMARK SMILES IDX 55 87 56 88 64 89 57 90 63 91 58 92 59 93 60 94 61 95 62 96
REMARK H PARENT 22 7 27 33 83 52 53 63
REMARK Flexibility Score: inf
ROOT
ATOM      1  C   UNL A   1      32.745  28.671  26.475  1.00  0.00     0.023 C 
ENDROOT
BRANCH   1   2
ATOM      2  C   UNL A   1      32.561  29.628  25.303  1.00  0.00     0.023 C 
BRANCH   2   3
ATOM      3  C   UNL A   1      33.152  29.202  23.963  1.00  0.00     0.116 C 
BRANCH   3   4
ATOM      4  N   UNL A   1      32.163  28.831  22.975  1.00  0.00    -0.352 N 
ATOM      5  C   UNL A   1      31.254  27.810  22.926  1.00  0.00     0.251 C 
ATOM      6  O   UNL A   1      30.413  27.874  22.026  1.00  0.00    -0.269 OA
ATOM      7  H   UNL A   1      32.140  29.424  22.190  1.00  0.00     0.163 HD
BRANCH   5   8
ATOM      8  C   UNL A   1      31.224  26.635  23.854  1.00  0.00     0.041 A 
ATOM      9  C   UNL A   1      31.693  24.326  24.493  1.00  0.00     0.053 A 
ATOM     10  C   UNL A   1      30.766  24.460  25.548  1.00  0.00     0.027 A 
ATOM     11  C   UNL A   1      31.990  25.461  23.725  1.00  0.00     0.040 A 
ATOM     12  C   UNL A   1      29.997  25.607  25.690  1.00  0.00     0.003 A 
ATOM     13  C   UNL A   1      30.202  26.671  24.824  1.00  0.00     0.014 A 
BRANCH   9  14
ATOM     14  N   UNL A   1      31.942  23.007  23.976  1.00  0.00    -0.242 N 
ATOM     15  C   UNL A   1      33.180  18.676  25.051  1.00  0.00     0.067 C 
ATOM     16  C   UNL A   1      33.821  19.983  24.720  1.00  0.00     0.052 A 
ATOM     17  N   UNL A   1      35.167  20.082  24.924  1.00  0.00    -0.252 NA
ATOM     18  C   UNL A   1      33.133  21.029  24.152  1.00  0.00     0.075 A 
ATOM     19  C   UNL A   1      35.734  21.306  24.828  1.00  0.00     0.071 A 
ATOM     20  C   UNL A   1      33.880  22.008  23.566  1.00  0.00     0.064 A 
ATOM     21  C   UNL A   1      31.929  21.787  24.642  1.00  0.00     0.268 C 
ATOM     22  C   UNL A   1      36.928  21.592  25.476  1.00  0.00     0.029 A 
ATOM     23  C   UNL A   1      35.054  22.364  24.215  1.00  0.00     0.014 A 
ATOM     24  C   UNL A   1      32.912  22.927  23.021  1.00  0.00     0.266 C 
ATOM     25  O   UNL A   1      31.243  21.416  25.579  1.00  0.00    -0.268 OA
ATOM     26  C   UNL A   1      37.319  22.913  25.728  1.00  0.00     0.002 A 
ATOM     27  C   UNL A   1      35.440  23.701  24.468  1.00  0.00     0.011 A 
ATOM     28  O   UNL A   1      32.987  23.364  21.896  1.00  0.00    -0.268 OA
ATOM     29  C   UNL A   1      36.536  23.968  25.279  1.00  0.00     0.001 A 
ENDBRANCH   9  14
ENDBRANCH   5   8
ENDBRANCH   3   4
ENDBRANCH   2   3
ENDBRANCH   1   2
BRANCH   1  30
ATOM     30  C   UNL A   1      34.006  28.874  27.302  1.00  0.00     0.116 C 
BRANCH  30  31
ATOM     31  N   UNL A   1      34.067  30.169  27.966  1.00  0.00    -0.352 N 
ATOM     32  C   UNL A   1      35.089  30.781  28.655  1.00  0.00     0.251 C 
ATOM     33  H   UNL A   1      33.236  30.695  27.914  1.00  0.00     0.163 HD
ATOM     34  O   UNL A   1      34.885  31.847  29.229  1.00  0.00    -0.269 OA
BRANCH  32  35
ATOM     35  C   UNL A   1      36.412  30.129  28.752  1.00  0.00     0.039 A 
ATOM     36  C   UNL A   1      36.842  29.553  29.946  1.00  0.00     0.014 A 
ATOM     37  C   UNL A   1      37.257  30.136  27.638  1.00  0.00     0.014 A 
ATOM     38  C   UNL A   1      38.180  29.211  30.099  1.00  0.00     0.010 A 
ATOM     39  C   UNL A   1      38.574  29.684  27.761  1.00  0.00     0.010 A 
ATOM     40  C   UNL A   1      39.069  29.288  29.013  1.00  0.00    -0.014 A 
BRANCH  40  41
ATOM     41  C   UNL A   1      40.509  28.985  29.225  1.00  0.00     0.031 A 
ATOM     42  C   UNL A   1      41.072  27.636  28.855  1.00  0.00     0.074 A 
ATOM     43  C   UNL A   1      41.333  29.958  29.660  1.00  0.00     0.049 A 
ATOM     44  N   UNL A   1      42.308  27.211  28.936  1.00  0.00    -0.248 NA
ATOM     45  C   UNL A   1      40.133  26.634  28.323  1.00  0.00     0.031 C 
ATOM     46  C   UNL A   1      40.915  31.320  30.001  1.00  0.00     0.029 A 
ATOM     47  N   UNL A   1      42.694  29.974  29.839  1.00  0.00    -0.354 N 
ATOM     48  C   UNL A   1      42.293  25.898  28.479  1.00  0.00     0.074 A 
ATOM     49  C   UNL A   1      40.921  25.579  28.155  1.00  0.00     0.031 C 
ATOM     50  C   UNL A   1      42.002  32.060  30.257  1.00  0.00     0.029 A 
ATOM     51  C   UNL A   1      43.188  31.210  30.183  1.00  0.00     0.049 A 
ATOM     52  H   UNL A   1      43.262  29.177  29.731  1.00  0.00     0.167 HD
ATOM     53  C   UNL A   1      43.330  25.040  28.328  1.00  0.00     0.031 A 
ATOM     54  C   UNL A   1      44.448  31.624  30.417  1.00  0.00     0.031 A 
ATOM     55  C   UNL A   1      44.697  25.363  28.646  1.00  0.00     0.049 A 
ATOM     56  C   UNL A   1      45.572  30.637  30.317  1.00  0.00     0.074 A 
ATOM     57  C   UNL A   1      45.813  24.549  28.556  1.00  0.00     0.029 A 
ATOM     58  N   UNL A   1      45.137  26.597  29.100  1.00  0.00    -0.354 N 
ATOM     59  N   UNL A   1      45.527  29.382  29.942  1.00  0.00    -0.248 NA
ATOM     60  C   UNL A   1      46.912  31.112  30.686  1.00  0.00     0.031 C 
ATOM     61  C   UNL A   1      46.919  25.276  29.003  1.00  0.00     0.029 A 
ATOM     62  C   UNL A   1      46.504  26.561  29.311  1.00  0.00     0.049 A 
ATOM     63  H   UNL A   1      44.562  27.382  29.250  1.00  0.00     0.167 HD
ATOM     64  C   UNL A   1      46.832  28.914  30.029  1.00  0.00     0.074 A 
ATOM     65  C   UNL A   1      47.647  30.027  30.473  1.00  0.00     0.031 C 
ATOM     66  C   UNL A   1      47.305  27.671  29.770  1.00  0.00     0.031 A 
BRANCH  53  67
ATOM     67  C   UNL A   1      43.035  23.659  27.802  1.00  0.00    -0.014 A 
ATOM     68  C   UNL A   1      43.056  23.415  26.417  1.00  0.00     0.010 A 
ATOM     69  C   UNL A   1      42.658  22.619  28.672  1.00  0.00     0.010 A 
ATOM     70  C   UNL A   1      42.695  22.164  25.908  1.00  0.00     0.020 A 
ATOM     71  C   UNL A   1      42.320  21.358  28.169  1.00  0.00     0.020 A 
ATOM     72  C   UNL A   1      42.323  21.145  26.788  1.00  0.00     0.054 A 
BRANCH  72  73
ATOM     73  S   UNL A   1      41.875  19.520  26.116  1.00  0.00     0.124 S 
ATOM     74  O   UNL A   1      42.191  18.629  27.227  1.00  0.00    -0.237 OA
ATOM     75  O   UNL A   1      40.453  19.676  25.815  1.00  0.00    -0.237 OA
ATOM     76  O   UNL A   1      42.736  19.389  24.942  1.00  0.00    -0.744 OA
ENDBRANCH  72  73
ENDBRANCH  53  67
BRANCH  54  77
ATOM     77  C   UNL A   1      44.682  33.056  30.746  1.00  0.00    -0.014 A 
ATOM     78  C   UNL A   1      44.520  33.520  32.066  1.00  0.00     0.010 A 
ATOM     79  C   UNL A   1      44.933  33.983  29.720  1.00  0.00     0.010 A 
ATOM     80  C   UNL A   1      44.526  34.888  32.341  1.00  0.00     0.020 A 
ATOM     81  C   UNL A   1      44.967  35.353  29.998  1.00  0.00     0.020 A 
ATOM     82  C   UNL A   1      44.726  35.798  31.299  1.00  0.00     0.054 A 
BRANCH  82  83
ATOM     83  S   UNL A   1      44.635  37.574  31.662  1.00  0.00     0.124 S 
ATOM     84  O   UNL A   1      44.058  37.573  33.004  1.00  0.00    -0.237 OA
ATOM     85  O   UNL A   1      46.032  37.991  31.577  1.00  0.00    -0.237 OA
ATOM     86  O   UNL A   1      43.767  38.092  30.608  1.00  0.00    -0.744 OA
ENDBRANCH  82  83
ENDBRANCH  54  77
BRANCH  66  87
ATOM     87  C   UNL A   1      48.775  27.418  29.968  1.00  0.00    -0.014 A 
ATOM     88  C   UNL A   1      49.253  27.030  31.233  1.00  0.00     0.010 A 
ATOM     89  C   UNL A   1      49.694  27.697  28.941  1.00  0.00     0.010 A 
ATOM     90  C   UNL A   1      50.625  26.958  31.481  1.00  0.00     0.020 A 
ATOM     91  C   UNL A   1      51.068  27.604  29.179  1.00  0.00     0.020 A 
ATOM     92  C   UNL A   1      51.525  27.260  30.454  1.00  0.00     0.054 A 
BRANCH  92  93
ATOM     93  S   UNL A   1      53.303  27.204  30.804  1.00  0.00     0.124 S 
ATOM     94  O   UNL A   1      53.328  26.819  32.211  1.00  0.00    -0.237 OA
ATOM     95  O   UNL A   1      53.787  26.194  29.866  1.00  0.00    -0.237 OA
ATOM     96  O   UNL A   1      53.750  28.567  30.520  1.00  0.00    -0.744 OA
ENDBRANCH  92  93
ENDBRANCH  66  87
ENDBRANCH  40  41
ENDBRANCH  32  35
ENDBRANCH  30  31
ENDBRANCH   1  30
TORSDOF 15
ENDMDL
