MODEL 1
REMARK VINA RESULT:     -11.9      0.000      0.000
REMARK SMILES O=C(NCCCCNC(=O)c1nccnc1C(=O)N1CCC(Cc2ccccc2)CC1)c1ccc(-c2c3nc(c(-c4ccc(S(=O)(=O)[O-])cc4)c4ccc([nH]4)c(-c4ccc(S(=O)(=O)[O-])cc4)c4nc(c(-c5ccc(S(=O)(=O)[O-])cc5)c5ccc2[nH]5)C=C4)C=C3)cc1
REMARK SMILES IDX 5 1 4 2 3 3 1 4 2 5 32 7 33 8 91 9 34 10 90 11 35 12 36 13
REMARK SMILES IDX 37 14 84 15 38 16 89 17 83 18 85 19 39 20 88 21 82 22 81 23
REMARK SMILES IDX 40 25 70 26 51 27 69 28 52 29 55 30 68 31 86 32 53 33 54 34
REMARK SMILES IDX 67 36 87 37 56 38 41 39 42 40 50 41 43 42 49 43 44 44 45 45
REMARK SMILES IDX 46 46 47 47 48 48 71 49 72 50 80 51 73 52 79 53 74 54 75 55
REMARK SMILES IDX 76 56 77 57 78 58 57 59 58 60 66 61 59 62 65 63 60 64 61 65
REMARK SMILES IDX 62 66 63 67 64 68 6 69 7 70 8 71 9 72 10 74 11 75 12 76
REMARK SMILES IDX 16 77 13 78 15 79 14 80 17 81 18 82 19 83 20 84 31 85 21 86
REMARK SMILES IDX 30 87 22 88 23 89 24 90 25 91 29 92 26 93 28 94 27 95
REMARK H PARENT 3 6 85 24 55 35 8 73
REMARK Flexibility Score: inf
ROOT
ATOM      1  C   UNL A   1      38.183  23.034  26.393  1.00  0.00     0.023 C 
ENDROOT
BRANCH   1   2
ATOM      2  C   UNL A   1      38.783  24.435  26.397  1.00  0.00     0.116 C 
BRANCH   2   3
ATOM      3  N   UNL A   1      40.110  24.495  25.807  1.00  0.00    -0.352 N 
ATOM      4  O   UNL A   1      42.194  25.277  25.463  1.00  0.00    -0.269 OA
ATOM      5  C   UNL A   1      41.174  25.296  26.147  1.00  0.00     0.251 C 
ATOM      6  H   UNL A   1      40.269  23.876  25.058  1.00  0.00     0.163 HD
BRANCH   5   7
ATOM      7  C   UNL A   1      41.075  26.202  27.313  1.00  0.00     0.039 A 
ATOM      8  C   UNL A   1      40.264  25.883  28.404  1.00  0.00     0.014 A 
ATOM      9  C   UNL A   1      41.815  27.388  27.312  1.00  0.00     0.014 A 
ATOM     10  C   UNL A   1      40.091  26.806  29.431  1.00  0.00     0.010 A 
ATOM     11  C   UNL A   1      41.697  28.280  28.380  1.00  0.00     0.010 A 
ATOM     12  C   UNL A   1      40.815  28.007  29.437  1.00  0.00    -0.014 A 
BRANCH  12  13
ATOM     13  C   UNL A   1      40.699  28.929  30.595  1.00  0.00     0.031 A 
ATOM     14  C   UNL A   1      41.607  28.804  31.786  1.00  0.00     0.074 A 
ATOM     15  C   UNL A   1      39.755  29.890  30.558  1.00  0.00     0.049 A 
ATOM     16  N   UNL A   1      41.630  29.525  32.878  1.00  0.00    -0.248 NA
ATOM     17  C   UNL A   1      42.616  27.733  31.754  1.00  0.00     0.031 C 
ATOM     18  C   UNL A   1      38.806  30.097  29.460  1.00  0.00     0.029 A 
ATOM     19  N   UNL A   1      39.437  30.871  31.461  1.00  0.00    -0.354 N 
ATOM     20  C   UNL A   1      42.633  28.985  33.673  1.00  0.00     0.074 A 
ATOM     21  C   UNL A   1      43.190  27.866  32.944  1.00  0.00     0.031 C 
ATOM     22  C   UNL A   1      38.033  31.157  29.741  1.00  0.00     0.029 A 
ATOM     23  C   UNL A   1      38.390  31.666  31.059  1.00  0.00     0.049 A 
ATOM     24  H   UNL A   1      39.912  30.994  32.314  1.00  0.00     0.167 HD
ATOM     25  C   UNL A   1      43.049  29.388  34.899  1.00  0.00     0.031 A 
ATOM     26  C   UNL A   1      37.765  32.678  31.690  1.00  0.00     0.031 A 
ATOM     27  C   UNL A   1      42.495  30.507  35.615  1.00  0.00     0.049 A 
ATOM     28  C   UNL A   1      38.229  33.084  33.058  1.00  0.00     0.074 A 
ATOM     29  C   UNL A   1      42.890  31.027  36.835  1.00  0.00     0.029 A 
ATOM     30  N   UNL A   1      41.420  31.270  35.185  1.00  0.00    -0.354 N 
ATOM     31  N   UNL A   1      39.218  32.596  33.766  1.00  0.00    -0.248 NA
ATOM     32  C   UNL A   1      37.491  34.172  33.713  1.00  0.00     0.031 C 
ATOM     33  C   UNL A   1      42.022  32.072  37.167  1.00  0.00     0.029 A 
ATOM     34  C   UNL A   1      41.115  32.234  36.131  1.00  0.00     0.049 A 
ATOM     35  H   UNL A   1      40.942  31.146  34.332  1.00  0.00     0.167 HD
ATOM     36  C   UNL A   1      39.226  33.322  34.950  1.00  0.00     0.074 A 
ATOM     37  C   UNL A   1      38.158  34.296  34.852  1.00  0.00     0.031 C 
ATOM     38  C   UNL A   1      40.042  33.189  36.023  1.00  0.00     0.031 A 
BRANCH  25  39
ATOM     39  C   UNL A   1      44.143  28.596  35.565  1.00  0.00    -0.014 A 
ATOM     40  C   UNL A   1      45.496  28.944  35.406  1.00  0.00     0.010 A 
ATOM     41  C   UNL A   1      43.806  27.532  36.422  1.00  0.00     0.010 A 
ATOM     42  C   UNL A   1      46.495  28.223  36.068  1.00  0.00     0.020 A 
ATOM     43  C   UNL A   1      44.799  26.821  37.102  1.00  0.00     0.020 A 
ATOM     44  C   UNL A   1      46.139  27.162  36.909  1.00  0.00     0.054 A 
BRANCH  44  45
ATOM     45  S   UNL A   1      47.452  26.261  37.778  1.00  0.00     0.124 S 
ATOM     46  O   UNL A   1      47.017  24.875  37.625  1.00  0.00    -0.237 OA
ATOM     47  O   UNL A   1      48.648  26.630  37.026  1.00  0.00    -0.237 OA
ATOM     48  O   UNL A   1      47.390  26.786  39.140  1.00  0.00    -0.744 OA
ENDBRANCH  44  45
ENDBRANCH  25  39
BRANCH  26  49
ATOM     49  C   UNL A   1      36.609  33.347  31.037  1.00  0.00    -0.014 A 
ATOM     50  C   UNL A   1      35.358  33.400  31.672  1.00  0.00     0.010 A 
ATOM     51  C   UNL A   1      36.770  33.964  29.782  1.00  0.00     0.010 A 
ATOM     52  C   UNL A   1      34.283  34.051  31.059  1.00  0.00     0.020 A 
ATOM     53  C   UNL A   1      35.706  34.639  29.179  1.00  0.00     0.020 A 
ATOM     54  C   UNL A   1      34.466  34.667  29.817  1.00  0.00     0.054 A 
BRANCH  54  55
ATOM     55  S   UNL A   1      33.077  35.559  29.064  1.00  0.00     0.124 S 
ATOM     56  O   UNL A   1      32.453  34.517  28.253  1.00  0.00    -0.237 OA
ATOM     57  O   UNL A   1      32.311  35.997  30.228  1.00  0.00    -0.237 OA
ATOM     58  O   UNL A   1      33.727  36.632  28.317  1.00  0.00    -0.744 OA
ENDBRANCH  54  55
ENDBRANCH  26  49
BRANCH  38  59
ATOM     59  C   UNL A   1      39.816  34.126  37.176  1.00  0.00    -0.014 A 
ATOM     60  C   UNL A   1      40.324  35.437  37.149  1.00  0.00     0.010 A 
ATOM     61  C   UNL A   1      39.041  33.710  38.274  1.00  0.00     0.010 A 
ATOM     62  C   UNL A   1      40.079  36.309  38.212  1.00  0.00     0.020 A 
ATOM     63  C   UNL A   1      38.775  34.587  39.327  1.00  0.00     0.020 A 
ATOM     64  C   UNL A   1      39.305  35.879  39.295  1.00  0.00     0.054 A 
BRANCH  64  65
ATOM     65  S   UNL A   1      38.955  37.046  40.637  1.00  0.00     0.124 S 
ATOM     66  O   UNL A   1      38.263  38.121  39.932  1.00  0.00    -0.237 OA
ATOM     67  O   UNL A   1      38.126  36.255  41.544  1.00  0.00    -0.237 OA
ATOM     68  O   UNL A   1      40.278  37.388  41.152  1.00  0.00    -0.744 OA
ENDBRANCH  64  65
ENDBRANCH  38  59
ENDBRANCH  12  13
ENDBRANCH   5   7
ENDBRANCH   2   3
ENDBRANCH   1   2
BRANCH   1  69
ATOM     69  C   UNL A   1      37.284  22.706  25.203  1.00  0.00     0.023 C 
BRANCH  69  70
ATOM     70  C   UNL A   1      36.377  21.492  25.384  1.00  0.00     0.116 C 
BRANCH  70  71
ATOM     71  N   UNL A   1      35.498  21.588  26.543  1.00  0.00    -0.351 N 
ATOM     72  C   UNL A   1      34.164  21.236  26.650  1.00  0.00     0.272 C 
ATOM     73  H   UNL A   1      35.909  21.951  27.360  1.00  0.00     0.163 HD
ATOM     74  O   UNL A   1      33.589  21.314  27.730  1.00  0.00    -0.267 OA
BRANCH  72  75
ATOM     75  C   UNL A   1      33.455  20.770  25.441  1.00  0.00     0.159 A 
ATOM     76  N   UNL A   1      33.675  19.442  25.153  1.00  0.00    -0.247 NA
ATOM     77  C   UNL A   1      32.639  21.577  24.661  1.00  0.00     0.159 A 
ATOM     78  C   UNL A   1      33.058  18.959  24.059  1.00  0.00     0.132 A 
ATOM     79  N   UNL A   1      32.069  21.069  23.517  1.00  0.00    -0.247 NA
ATOM     80  C   UNL A   1      32.286  19.762  23.247  1.00  0.00     0.132 A 
BRANCH  77  81
ATOM     81  C   UNL A   1      32.056  22.887  25.090  1.00  0.00     0.274 C 
ATOM     82  O   UNL A   1      30.834  22.896  25.288  1.00  0.00    -0.267 OA
ATOM     83  N   UNL A   1      32.810  24.033  25.336  1.00  0.00    -0.337 N 
ATOM     84  C   UNL A   1      32.342  24.900  26.414  1.00  0.00     0.120 C 
ATOM     85  C   UNL A   1      34.050  24.444  24.680  1.00  0.00     0.120 C 
ATOM     86  C   UNL A   1      32.237  26.348  25.973  1.00  0.00     0.025 C 
ATOM     87  C   UNL A   1      34.009  25.921  24.260  1.00  0.00     0.025 C 
ATOM     88  C   UNL A   1      33.590  26.834  25.432  1.00  0.00    -0.003 C 
BRANCH  88  89
ATOM     89  C   UNL A   1      33.543  28.315  25.006  1.00  0.00     0.039 C 
BRANCH  89  90
ATOM     90  C   UNL A   1      33.818  29.281  26.141  1.00  0.00    -0.048 A 
ATOM     91  C   UNL A   1      34.994  29.167  26.898  1.00  0.00     0.004 A 
ATOM     92  C   UNL A   1      32.921  30.314  26.442  1.00  0.00     0.004 A 
ATOM     93  C   UNL A   1      35.271  30.074  27.923  1.00  0.00     0.000 A 
ATOM     94  C   UNL A   1      33.202  31.224  27.465  1.00  0.00     0.000 A 
ATOM     95  C   UNL A   1      34.376  31.104  28.203  1.00  0.00     0.000 A 
ENDBRANCH  89  90
ENDBRANCH  88  89
ENDBRANCH  77  81
ENDBRANCH  72  75
ENDBRANCH  70  71
ENDBRANCH  69  70
ENDBRANCH   1  69
TORSDOF 17
ENDMDL
MODEL 2
REMARK VINA RESULT:     -11.8      1.688      2.310
REMARK SMILES O=C(NCCCCNC(=O)c1nccnc1C(=O)N1CCC(Cc2ccccc2)CC1)c1ccc(-c2c3nc(c(-c4ccc(S(=O)(=O)[O-])cc4)c4ccc([nH]4)c(-c4ccc(S(=O)(=O)[O-])cc4)c4nc(c(-c5ccc(S(=O)(=O)[O-])cc5)c5ccc2[nH]5)C=C4)C=C3)cc1
REMARK SMILES IDX 5 1 4 2 3 3 1 4 2 5 32 7 33 8 91 9 34 10 90 11 35 12 36 13
REMARK SMILES IDX 37 14 84 15 38 16 89 17 83 18 85 19 39 20 88 21 82 22 81 23
REMARK SMILES IDX 40 25 70 26 51 27 69 28 52 29 55 30 68 31 86 32 53 33 54 34
REMARK SMILES IDX 67 36 87 37 56 38 41 39 42 40 50 41 43 42 49 43 44 44 45 45
REMARK SMILES IDX 46 46 47 47 48 48 71 49 72 50 80 51 73 52 79 53 74 54 75 55
REMARK SMILES IDX 76 56 77 57 78 58 57 59 58 60 66 61 59 62 65 63 60 64 61 65
REMARK SMILES IDX 62 66 63 67 64 68 6 69 7 70 8 71 9 72 10 74 11 75 12 76
REMARK SMILES IDX 16 77 13 78 15 79 14 80 17 81 18 82 19 83 20 84 31 85 21 86
REMARK SMILES IDX 30 87 22 88 23 89 24 90 25 91 29 92 26 93 28 94 27 95
REMARK H PARENT 3 6 85 24 55 35 8 73
REMARK Flexibility Score: inf
ROOT
ATOM      1  C   UNL A   1      37.767  23.653  25.593  1.00  0.00     0.023 C 
ENDROOT
BRANCH   1   2
ATOM      2  C   UNL A   1      38.802  24.158  26.591  1.00  0.00     0.116 C 
BRANCH   2   3
ATOM      3  N   UNL A   1      40.157  24.160  26.064  1.00  0.00    -0.352 N 
ATOM      4  O   UNL A   1      42.280  24.866  25.801  1.00  0.00    -0.269 OA
ATOM      5  C   UNL A   1      41.230  24.935  26.435  1.00  0.00     0.251 C 
ATOM      6  H   UNL A   1      40.331  23.517  25.340  1.00  0.00     0.163 HD
BRANCH   5   7
ATOM      7  C   UNL A   1      41.106  25.873  27.573  1.00  0.00     0.039 A 
ATOM      8  C   UNL A   1      40.082  25.734  28.512  1.00  0.00     0.014 A 
ATOM      9  C   UNL A   1      42.039  26.907  27.701  1.00  0.00     0.014 A 
ATOM     10  C   UNL A   1      39.912  26.699  29.500  1.00  0.00     0.010 A 
ATOM     11  C   UNL A   1      41.911  27.833  28.739  1.00  0.00     0.010 A 
ATOM     12  C   UNL A   1      40.832  27.750  29.632  1.00  0.00    -0.014 A 
BRANCH  12  13
ATOM     13  C   UNL A   1      40.696  28.707  30.759  1.00  0.00     0.031 A 
ATOM     14  C   UNL A   1      41.568  28.605  31.979  1.00  0.00     0.074 A 
ATOM     15  C   UNL A   1      39.767  29.679  30.667  1.00  0.00     0.049 A 
ATOM     16  N   UNL A   1      41.569  29.358  33.050  1.00  0.00    -0.248 NA
ATOM     17  C   UNL A   1      42.562  27.521  32.008  1.00  0.00     0.031 C 
ATOM     18  C   UNL A   1      38.853  29.867  29.536  1.00  0.00     0.029 A 
ATOM     19  N   UNL A   1      39.438  30.691  31.531  1.00  0.00    -0.354 N 
ATOM     20  C   UNL A   1      42.542  28.828  33.889  1.00  0.00     0.074 A 
ATOM     21  C   UNL A   1      43.104  27.681  33.210  1.00  0.00     0.031 C 
ATOM     22  C   UNL A   1      38.088  30.945  29.764  1.00  0.00     0.029 A 
ATOM     23  C   UNL A   1      38.414  31.488  31.076  1.00  0.00     0.049 A 
ATOM     24  H   UNL A   1      39.890  30.833  32.393  1.00  0.00     0.167 HD
ATOM     25  C   UNL A   1      42.928  29.261  35.114  1.00  0.00     0.031 A 
ATOM     26  C   UNL A   1      37.786  32.526  31.659  1.00  0.00     0.031 A 
ATOM     27  C   UNL A   1      42.370  30.408  35.781  1.00  0.00     0.049 A 
ATOM     28  C   UNL A   1      38.216  32.965  33.027  1.00  0.00     0.074 A 
ATOM     29  C   UNL A   1      42.737  30.959  36.996  1.00  0.00     0.029 A 
ATOM     30  N   UNL A   1      41.319  31.173  35.298  1.00  0.00    -0.354 N 
ATOM     31  N   UNL A   1      39.177  32.485  33.778  1.00  0.00    -0.248 NA
ATOM     32  C   UNL A   1      37.474  34.082  33.628  1.00  0.00     0.031 C 
ATOM     33  C   UNL A   1      41.875  32.025  37.273  1.00  0.00     0.029 A 
ATOM     34  C   UNL A   1      41.001  32.168  36.207  1.00  0.00     0.049 A 
ATOM     35  H   UNL A   1      40.864  31.030  34.436  1.00  0.00     0.167 HD
ATOM     36  C   UNL A   1      39.161  33.246  34.939  1.00  0.00     0.074 A 
ATOM     37  C   UNL A   1      38.111  34.231  34.783  1.00  0.00     0.031 C 
ATOM     38  C   UNL A   1      39.945  33.134  36.040  1.00  0.00     0.031 A 
BRANCH  25  39
ATOM     39  C   UNL A   1      43.991  28.475  35.835  1.00  0.00    -0.014 A 
ATOM     40  C   UNL A   1      45.353  28.799  35.704  1.00  0.00     0.010 A 
ATOM     41  C   UNL A   1      43.614  27.443  36.714  1.00  0.00     0.010 A 
ATOM     42  C   UNL A   1      46.322  28.084  36.415  1.00  0.00     0.020 A 
ATOM     43  C   UNL A   1      44.577  26.738  37.442  1.00  0.00     0.020 A 
ATOM     44  C   UNL A   1      45.927  27.055  37.278  1.00  0.00     0.054 A 
BRANCH  44  45
ATOM     45  S   UNL A   1      47.202  26.162  38.210  1.00  0.00     0.124 S 
ATOM     46  O   UNL A   1      48.247  25.993  37.203  1.00  0.00    -0.237 OA
ATOM     47  O   UNL A   1      47.518  27.090  39.293  1.00  0.00    -0.237 OA
ATOM     48  O   UNL A   1      46.531  24.932  38.624  1.00  0.00    -0.744 OA
ENDBRANCH  44  45
ENDBRANCH  25  39
BRANCH  26  49
ATOM     49  C   UNL A   1      36.658  33.191  30.953  1.00  0.00    -0.014 A 
ATOM     50  C   UNL A   1      35.335  33.011  31.387  1.00  0.00     0.010 A 
ATOM     51  C   UNL A   1      36.915  34.037  29.858  1.00  0.00     0.010 A 
ATOM     52  C   UNL A   1      34.284  33.659  30.729  1.00  0.00     0.020 A 
ATOM     53  C   UNL A   1      35.871  34.707  29.216  1.00  0.00     0.020 A 
ATOM     54  C   UNL A   1      34.560  34.503  29.650  1.00  0.00     0.054 A 
BRANCH  54  55
ATOM     55  S   UNL A   1      33.191  35.382  28.847  1.00  0.00     0.124 S 
ATOM     56  O   UNL A   1      33.894  36.424  28.105  1.00  0.00    -0.237 OA
ATOM     57  O   UNL A   1      32.572  34.336  28.037  1.00  0.00    -0.237 OA
ATOM     58  O   UNL A   1      32.381  35.848  29.970  1.00  0.00    -0.744 OA
ENDBRANCH  54  55
ENDBRANCH  26  49
BRANCH  38  59
ATOM     59  C   UNL A   1      39.699  34.108  37.158  1.00  0.00    -0.014 A 
ATOM     60  C   UNL A   1      38.990  33.721  38.308  1.00  0.00     0.010 A 
ATOM     61  C   UNL A   1      40.232  35.408  37.081  1.00  0.00     0.010 A 
ATOM     62  C   UNL A   1      38.797  34.625  39.355  1.00  0.00     0.020 A 
ATOM     63  C   UNL A   1      40.060  36.307  38.136  1.00  0.00     0.020 A 
ATOM     64  C   UNL A   1      39.334  35.913  39.263  1.00  0.00     0.054 A 
BRANCH  64  65
ATOM     65  S   UNL A   1      39.118  37.052  40.656  1.00  0.00     0.124 S 
ATOM     66  O   UNL A   1      38.450  36.205  41.640  1.00  0.00    -0.237 OA
ATOM     67  O   UNL A   1      40.492  37.428  40.981  1.00  0.00    -0.237 OA
ATOM     68  O   UNL A   1      38.300  38.127  40.100  1.00  0.00    -0.744 OA
ENDBRANCH  64  65
ENDBRANCH  38  59
ENDBRANCH  12  13
ENDBRANCH   5   7
ENDBRANCH   2   3
ENDBRANCH   1   2
BRANCH   1  69
ATOM     69  C   UNL A   1      37.683  22.136  25.444  1.00  0.00     0.023 C 
BRANCH  69  70
ATOM     70  C   UNL A   1      36.329  21.519  25.786  1.00  0.00     0.116 C 
BRANCH  70  71
ATOM     71  N   UNL A   1      35.429  22.434  26.479  1.00  0.00    -0.351 N 
ATOM     72  C   UNL A   1      34.089  22.678  26.238  1.00  0.00     0.272 C 
ATOM     73  H   UNL A   1      35.829  22.946  27.217  1.00  0.00     0.163 HD
ATOM     74  O   UNL A   1      33.457  23.433  26.970  1.00  0.00    -0.267 OA
BRANCH  72  75
ATOM     75  C   UNL A   1      33.443  22.015  25.087  1.00  0.00     0.159 A 
ATOM     76  N   UNL A   1      32.830  20.827  25.411  1.00  0.00    -0.247 NA
ATOM     77  C   UNL A   1      33.441  22.529  23.798  1.00  0.00     0.159 A 
ATOM     78  C   UNL A   1      32.226  20.173  24.401  1.00  0.00     0.132 A 
ATOM     79  N   UNL A   1      32.865  21.809  22.777  1.00  0.00    -0.247 NA
ATOM     80  C   UNL A   1      32.260  20.645  23.107  1.00  0.00     0.132 A 
BRANCH  77  81
ATOM     81  C   UNL A   1      33.741  23.949  23.433  1.00  0.00     0.274 C 
ATOM     82  O   UNL A   1      34.921  24.199  23.157  1.00  0.00    -0.267 OA
ATOM     83  N   UNL A   1      32.774  24.948  23.327  1.00  0.00    -0.337 N 
ATOM     84  C   UNL A   1      32.991  25.954  22.291  1.00  0.00     0.120 C 
ATOM     85  C   UNL A   1      31.536  25.078  24.093  1.00  0.00     0.120 C 
ATOM     86  C   UNL A   1      32.866  27.365  22.834  1.00  0.00     0.025 C 
ATOM     87  C   UNL A   1      31.342  26.507  24.622  1.00  0.00     0.025 C 
ATOM     88  C   UNL A   1      31.494  27.555  23.498  1.00  0.00    -0.003 C 
BRANCH  88  89
ATOM     89  C   UNL A   1      31.305  28.989  24.033  1.00  0.00     0.039 C 
BRANCH  89  90
ATOM     90  C   UNL A   1      30.039  29.658  23.538  1.00  0.00    -0.048 A 
ATOM     91  C   UNL A   1      29.267  29.056  22.533  1.00  0.00     0.004 A 
ATOM     92  C   UNL A   1      29.605  30.873  24.084  1.00  0.00     0.004 A 
ATOM     93  C   UNL A   1      28.081  29.650  22.096  1.00  0.00     0.000 A 
ATOM     94  C   UNL A   1      28.416  31.464  23.648  1.00  0.00     0.000 A 
ATOM     95  C   UNL A   1      27.655  30.852  22.656  1.00  0.00     0.000 A 
ENDBRANCH  89  90
ENDBRANCH  88  89
ENDBRANCH  77  81
ENDBRANCH  72  75
ENDBRANCH  70  71
ENDBRANCH  69  70
ENDBRANCH   1  69
TORSDOF 17
ENDMDL
MODEL 3
REMARK VINA RESULT:     -11.8      0.452      7.989
REMARK SMILES O=C(NCCCCNC(=O)c1nccnc1C(=O)N1CCC(Cc2ccccc2)CC1)c1ccc(-c2c3nc(c(-c4ccc(S(=O)(=O)[O-])cc4)c4ccc([nH]4)c(-c4ccc(S(=O)(=O)[O-])cc4)c4nc(c(-c5ccc(S(=O)(=O)[O-])cc5)c5ccc2[nH]5)C=C4)C=C3)cc1
REMARK SMILES IDX 5 1 4 2 3 3 1 4 2 5 32 7 33 8 91 9 34 10 90 11 35 12 36 13
REMARK SMILES IDX 37 14 84 15 38 16 89 17 83 18 85 19 39 20 88 21 82 22 81 23
REMARK SMILES IDX 40 25 70 26 51 27 69 28 52 29 55 30 68 31 86 32 53 33 54 34
REMARK SMILES IDX 67 36 87 37 56 38 41 39 42 40 50 41 43 42 49 43 44 44 45 45
REMARK SMILES IDX 46 46 47 47 48 48 71 49 72 50 80 51 73 52 79 53 74 54 75 55
REMARK SMILES IDX 76 56 77 57 78 58 57 59 58 60 66 61 59 62 65 63 60 64 61 65
REMARK SMILES IDX 62 66 63 67 64 68 6 69 7 70 8 71 9 72 10 74 11 75 12 76
REMARK SMILES IDX 16 77 13 78 15 79 14 80 17 81 18 82 19 83 20 84 31 85 21 86
REMARK SMILES IDX 30 87 22 88 23 89 24 90 25 91 29 92 26 93 28 94 27 95
REMARK H PARENT 3 6 85 24 55 35 8 73
REMARK Flexibility Score: inf
ROOT
ATOM      1  C   UNL A   1      38.513  23.029  26.225  1.00  0.00     0.023 C 
ENDROOT
BRANCH   1   2
ATOM      2  C   UNL A   1      39.054  24.395  26.634  1.00  0.00     0.116 C 
BRANCH   2   3
ATOM      3  N   UNL A   1      40.195  24.823  25.842  1.00  0.00    -0.352 N 
ATOM      4  O   UNL A   1      41.884  26.163  25.192  1.00  0.00    -0.269 OA
ATOM      5  C   UNL A   1      41.026  25.901  26.030  1.00  0.00     0.251 C 
ATOM      6  H   UNL A   1      40.402  24.262  25.060  1.00  0.00     0.163 HD
BRANCH   5   7
ATOM      7  C   UNL A   1      40.860  26.762  27.223  1.00  0.00     0.039 A 
ATOM      8  C   UNL A   1      41.487  28.008  27.304  1.00  0.00     0.014 A 
ATOM      9  C   UNL A   1      40.057  26.311  28.275  1.00  0.00     0.014 A 
ATOM     10  C   UNL A   1      41.418  28.742  28.484  1.00  0.00     0.010 A 
ATOM     11  C   UNL A   1      39.928  27.086  29.431  1.00  0.00     0.010 A 
ATOM     12  C   UNL A   1      40.628  28.296  29.554  1.00  0.00    -0.014 A 
BRANCH  12  13
ATOM     13  C   UNL A   1      40.479  29.146  30.762  1.00  0.00     0.031 A 
ATOM     14  C   UNL A   1      39.429  30.219  30.837  1.00  0.00     0.074 A 
ATOM     15  C   UNL A   1      41.312  28.937  31.800  1.00  0.00     0.049 A 
ATOM     16  N   UNL A   1      39.175  31.049  31.816  1.00  0.00    -0.248 NA
ATOM     17  C   UNL A   1      38.553  30.387  29.666  1.00  0.00     0.031 C 
ATOM     18  C   UNL A   1      42.380  27.934  31.834  1.00  0.00     0.029 A 
ATOM     19  N   UNL A   1      41.392  29.549  33.024  1.00  0.00    -0.354 N 
ATOM     20  C   UNL A   1      38.131  31.853  31.375  1.00  0.00     0.074 A 
ATOM     21  C   UNL A   1      37.805  31.421  30.033  1.00  0.00     0.031 C 
ATOM     22  C   UNL A   1      42.989  27.980  33.029  1.00  0.00     0.029 A 
ATOM     23  C   UNL A   1      42.396  29.050  33.820  1.00  0.00     0.049 A 
ATOM     24  H   UNL A   1      40.790  30.274  33.305  1.00  0.00     0.167 HD
ATOM     25  C   UNL A   1      37.504  32.860  32.032  1.00  0.00     0.031 A 
ATOM     26  C   UNL A   1      42.814  29.428  35.043  1.00  0.00     0.031 A 
ATOM     27  C   UNL A   1      37.829  33.280  33.370  1.00  0.00     0.049 A 
ATOM     28  C   UNL A   1      42.120  30.563  35.734  1.00  0.00     0.074 A 
ATOM     29  C   UNL A   1      37.211  34.250  34.140  1.00  0.00     0.029 A 
ATOM     30  N   UNL A   1      38.868  32.767  34.132  1.00  0.00    -0.354 N 
ATOM     31  N   UNL A   1      41.097  31.272  35.322  1.00  0.00    -0.248 NA
ATOM     32  C   UNL A   1      42.638  30.954  37.052  1.00  0.00     0.031 C 
ATOM     33  C   UNL A   1      37.908  34.360  35.348  1.00  0.00     0.029 A 
ATOM     34  C   UNL A   1      38.931  33.424  35.349  1.00  0.00     0.049 A 
ATOM     35  H   UNL A   1      39.473  32.042  33.850  1.00  0.00     0.167 HD
ATOM     36  C   UNL A   1      40.844  32.190  36.332  1.00  0.00     0.074 A 
ATOM     37  C   UNL A   1      41.806  31.932  37.385  1.00  0.00     0.031 C 
ATOM     38  C   UNL A   1      39.901  33.163  36.381  1.00  0.00     0.031 A 
BRANCH  25  39
ATOM     39  C   UNL A   1      36.416  33.604  31.304  1.00  0.00    -0.014 A 
ATOM     40  C   UNL A   1      36.544  33.938  29.944  1.00  0.00     0.010 A 
ATOM     41  C   UNL A   1      35.218  33.910  31.975  1.00  0.00     0.010 A 
ATOM     42  C   UNL A   1      35.504  34.591  29.276  1.00  0.00     0.020 A 
ATOM     43  C   UNL A   1      34.167  34.545  31.305  1.00  0.00     0.020 A 
ATOM     44  C   UNL A   1      34.323  34.894  29.962  1.00  0.00     0.054 A 
BRANCH  44  45
ATOM     45  S   UNL A   1      32.978  35.717  29.064  1.00  0.00     0.124 S 
ATOM     46  O   UNL A   1      32.148  36.217  30.157  1.00  0.00    -0.237 OA
ATOM     47  O   UNL A   1      33.684  36.739  28.294  1.00  0.00    -0.237 OA
ATOM     48  O   UNL A   1      32.384  34.644  28.270  1.00  0.00    -0.744 OA
ENDBRANCH  44  45
ENDBRANCH  25  39
BRANCH  26  49
ATOM     49  C   UNL A   1      43.974  28.738  35.666  1.00  0.00    -0.014 A 
ATOM     50  C   UNL A   1      45.287  29.156  35.396  1.00  0.00     0.010 A 
ATOM     51  C   UNL A   1      43.761  27.674  36.564  1.00  0.00     0.010 A 
ATOM     52  C   UNL A   1      46.370  28.514  36.005  1.00  0.00     0.020 A 
ATOM     53  C   UNL A   1      44.839  27.050  37.195  1.00  0.00     0.020 A 
ATOM     54  C   UNL A   1      46.138  27.466  36.902  1.00  0.00     0.054 A 
BRANCH  54  55
ATOM     55  S   UNL A   1      47.552  26.686  37.728  1.00  0.00     0.124 S 
ATOM     56  O   UNL A   1      47.480  27.269  39.064  1.00  0.00    -0.237 OA
ATOM     57  O   UNL A   1      47.227  25.264  37.640  1.00  0.00    -0.237 OA
ATOM     58  O   UNL A   1      48.693  27.106  36.919  1.00  0.00    -0.744 OA
ENDBRANCH  54  55
ENDBRANCH  26  49
BRANCH  38  59
ATOM     59  C   UNL A   1      39.860  34.015  37.618  1.00  0.00    -0.014 A 
ATOM     60  C   UNL A   1      40.594  35.212  37.693  1.00  0.00     0.010 A 
ATOM     61  C   UNL A   1      39.036  33.644  38.696  1.00  0.00     0.010 A 
ATOM     62  C   UNL A   1      40.521  36.013  38.835  1.00  0.00     0.020 A 
ATOM     63  C   UNL A   1      38.943  34.454  39.830  1.00  0.00     0.020 A 
ATOM     64  C   UNL A   1      39.696  35.629  39.897  1.00  0.00     0.054 A 
BRANCH  64  65
ATOM     65  S   UNL A   1      39.575  36.711  41.346  1.00  0.00     0.124 S 
ATOM     66  O   UNL A   1      38.966  37.911  40.779  1.00  0.00    -0.237 OA
ATOM     67  O   UNL A   1      38.724  35.943  42.252  1.00  0.00    -0.237 OA
ATOM     68  O   UNL A   1      40.962  36.861  41.781  1.00  0.00    -0.744 OA
ENDBRANCH  64  65
ENDBRANCH  38  59
ENDBRANCH  12  13
ENDBRANCH   5   7
ENDBRANCH   2   3
ENDBRANCH   1   2
BRANCH   1  69
ATOM     69  C   UNL A   1      37.277  23.052  25.330  1.00  0.00     0.023 C 
BRANCH  69  70
ATOM     70  C   UNL A   1      36.374  21.825  25.430  1.00  0.00     0.116 C 
BRANCH  70  71
ATOM     71  N   UNL A   1      35.508  21.833  26.602  1.00  0.00    -0.351 N 
ATOM     72  C   UNL A   1      34.210  21.369  26.723  1.00  0.00     0.272 C 
ATOM     73  H   UNL A   1      35.899  22.219  27.418  1.00  0.00     0.163 HD
ATOM     74  O   UNL A   1      33.646  21.385  27.812  1.00  0.00    -0.267 OA
BRANCH  72  75
ATOM     75  C   UNL A   1      33.524  20.860  25.517  1.00  0.00     0.159 A 
ATOM     76  N   UNL A   1      33.837  19.554  25.218  1.00  0.00    -0.247 NA
ATOM     77  C   UNL A   1      32.644  21.611  24.751  1.00  0.00     0.159 A 
ATOM     78  C   UNL A   1      33.245  19.034  24.127  1.00  0.00     0.132 A 
ATOM     79  N   UNL A   1      32.100  21.070  23.609  1.00  0.00    -0.247 NA
ATOM     80  C   UNL A   1      32.409  19.784  23.328  1.00  0.00     0.132 A 
BRANCH  77  81
ATOM     81  C   UNL A   1      31.971  22.872  25.195  1.00  0.00     0.274 C 
ATOM     82  O   UNL A   1      30.749  22.799  25.376  1.00  0.00    -0.267 OA
ATOM     83  N   UNL A   1      32.647  24.060  25.473  1.00  0.00    -0.337 N 
ATOM     84  C   UNL A   1      32.109  24.874  26.559  1.00  0.00     0.120 C 
ATOM     85  C   UNL A   1      33.866  24.562  24.843  1.00  0.00     0.120 C 
ATOM     86  C   UNL A   1      31.916  26.320  26.143  1.00  0.00     0.025 C 
ATOM     87  C   UNL A   1      33.735  26.041  24.448  1.00  0.00     0.025 C 
ATOM     88  C   UNL A   1      33.243  26.903  25.631  1.00  0.00    -0.003 C 
BRANCH  88  89
ATOM     89  C   UNL A   1      33.105  28.386  25.231  1.00  0.00     0.039 C 
BRANCH  89  90
ATOM     90  C   UNL A   1      33.663  29.345  26.262  1.00  0.00    -0.048 A 
ATOM     91  C   UNL A   1      32.990  30.540  26.554  1.00  0.00     0.004 A 
ATOM     92  C   UNL A   1      34.844  29.050  26.956  1.00  0.00     0.004 A 
ATOM     93  C   UNL A   1      33.480  31.413  27.529  1.00  0.00     0.000 A 
ATOM     94  C   UNL A   1      35.331  29.922  27.934  1.00  0.00     0.000 A 
ATOM     95  C   UNL A   1      34.648  31.102  28.220  1.00  0.00     0.000 A 
ENDBRANCH  89  90
ENDBRANCH  88  89
ENDBRANCH  77  81
ENDBRANCH  72  75
ENDBRANCH  70  71
ENDBRANCH  69  70
ENDBRANCH   1  69
TORSDOF 17
ENDMDL
