MODEL 1
REMARK VINA RESULT:     -11.9      0.000      0.000
REMARK SMILES Cc1csc2nc(C(=O)NCCCCNC(=O)c3ccc(-c4c5nc(c(-c6ccc(S(=O)(=O)[O-])cc6)c6ccc([nH]6)c(-c6ccc(S(=O)(=O)[O-])cc6)c6nc(c(-c7ccc(S(=O)(=O)[O-])cc7)c7ccc4[nH]7)C=C6)C=C5)cc3)cn12
REMARK SMILES IDX 14 1 13 2 12 3 11 4 10 5 8 6 9 7 7 9 1 10 2 11 3 12 79 13
REMARK SMILES IDX 4 14 5 15 78 16 6 17 15 18 16 19 17 21 18 22 19 23 77 24
REMARK SMILES IDX 20 25 76 26 21 27 22 28 23 29 70 30 24 31 75 32 69 33 71 34
REMARK SMILES IDX 25 35 74 36 68 37 67 38 26 40 56 41 37 42 55 43 38 44 41 45
REMARK SMILES IDX 54 46 72 47 39 48 40 49 53 51 73 52 42 53 27 54 28 55 36 56
REMARK SMILES IDX 29 57 35 58 30 59 31 60 32 61 33 62 34 63 57 64 58 65 66 66
REMARK SMILES IDX 59 67 65 68 60 69 61 70 62 71 63 72 64 73 43 74 44 75 52 76
REMARK SMILES IDX 45 77 51 78 46 79 47 80 48 81 49 82 50 83
REMARK H PARENT 10 8 15 20 71 39 41 50
REMARK Flexibility Score: inf
ROOT
ATOM      1  C   UNL A   1      37.682  22.888  25.649  1.00  0.00     0.116 C 
ENDROOT
BRANCH   1   2
ATOM      2  C   UNL A   1      37.073  22.216  24.422  1.00  0.00     0.023 C 
BRANCH   2   3
ATOM      3  C   UNL A   1      36.521  23.180  23.357  1.00  0.00     0.023 C 
BRANCH   3   4
ATOM      4  C   UNL A   1      34.996  23.192  23.201  1.00  0.00     0.116 C 
BRANCH   4   5
ATOM      5  N   UNL A   1      34.309  23.272  24.479  1.00  0.00    -0.351 N 
ATOM      6  C   UNL A   1      33.636  22.309  25.203  1.00  0.00     0.271 C 
ATOM      7  O   UNL A   1      33.145  22.643  26.278  1.00  0.00    -0.267 OA
ATOM      8  H   UNL A   1      34.327  24.162  24.901  1.00  0.00     0.163 HD
BRANCH   6   9
ATOM      9  C   UNL A   1      33.513  20.931  24.703  1.00  0.00     0.148 A 
ATOM     10  C   UNL A   1      35.238  16.778  25.071  1.00  0.00     0.066 C 
ATOM     11  C   UNL A   1      34.192  17.447  24.255  1.00  0.00     0.032 A 
ATOM     12  C   UNL A   1      33.399  16.861  23.334  1.00  0.00     0.090 A 
ATOM     13  N   UNL A   1      33.890  18.793  24.381  1.00  0.00    -0.294 N 
ATOM     14  S   UNL A   1      32.236  17.971  22.597  1.00  0.00    -0.105 S 
ATOM     15  C   UNL A   1      32.873  19.237  23.594  1.00  0.00     0.194 A 
ATOM     16  C   UNL A   1      34.323  19.864  25.104  1.00  0.00     0.128 A 
ATOM     17  N   UNL A   1      32.578  20.491  23.769  1.00  0.00    -0.214 NA
ENDBRANCH   6   9
ENDBRANCH   4   5
ENDBRANCH   3   4
ENDBRANCH   2   3
ENDBRANCH   1   2
BRANCH   1  18
ATOM     18  N   UNL A   1      38.626  22.037  26.380  1.00  0.00    -0.352 N 
ATOM     19  C   UNL A   1      39.836  22.398  26.962  1.00  0.00     0.251 C 
ATOM     20  H   UNL A   1      38.372  21.090  26.470  1.00  0.00     0.163 HD
ATOM     21  O   UNL A   1      40.704  21.563  27.165  1.00  0.00    -0.269 OA
BRANCH  19  22
ATOM     22  C   UNL A   1      40.041  23.809  27.350  1.00  0.00     0.039 A 
ATOM     23  C   UNL A   1      39.060  24.792  27.191  1.00  0.00     0.014 A 
ATOM     24  C   UNL A   1      41.271  24.129  27.913  1.00  0.00     0.014 A 
ATOM     25  C   UNL A   1      39.314  26.078  27.677  1.00  0.00     0.010 A 
ATOM     26  C   UNL A   1      41.429  25.311  28.580  1.00  0.00     0.010 A 
ATOM     27  C   UNL A   1      40.501  26.322  28.386  1.00  0.00    -0.014 A 
BRANCH  27  28
ATOM     28  C   UNL A   1      40.770  27.582  29.072  1.00  0.00     0.031 A 
ATOM     29  C   UNL A   1      41.867  28.356  28.444  1.00  0.00     0.074 A 
ATOM     30  C   UNL A   1      39.926  28.105  29.993  1.00  0.00     0.049 A 
ATOM     31  N   UNL A   1      43.077  28.487  28.875  1.00  0.00    -0.248 NA
ATOM     32  C   UNL A   1      41.669  28.871  27.074  1.00  0.00     0.031 C 
ATOM     33  C   UNL A   1      38.636  27.555  30.441  1.00  0.00     0.029 A 
ATOM     34  N   UNL A   1      39.969  29.302  30.645  1.00  0.00    -0.354 N 
ATOM     35  C   UNL A   1      43.694  29.353  27.979  1.00  0.00     0.074 A 
ATOM     36  C   UNL A   1      42.890  29.329  26.785  1.00  0.00     0.031 C 
ATOM     37  C   UNL A   1      37.927  28.507  31.090  1.00  0.00     0.029 A 
ATOM     38  C   UNL A   1      38.773  29.672  31.265  1.00  0.00     0.049 A 
ATOM     39  H   UNL A   1      40.779  29.862  30.676  1.00  0.00     0.167 HD
ATOM     40  C   UNL A   1      44.588  30.283  28.420  1.00  0.00     0.031 A 
ATOM     41  C   UNL A   1      38.499  30.847  31.889  1.00  0.00     0.031 A 
ATOM     42  C   UNL A   1      44.919  30.049  29.804  1.00  0.00     0.049 A 
ATOM     43  C   UNL A   1      39.802  31.441  32.259  1.00  0.00     0.074 A 
ATOM     44  C   UNL A   1      45.616  29.101  30.519  1.00  0.00     0.029 A 
ATOM     45  N   UNL A   1      44.087  30.702  30.682  1.00  0.00    -0.354 N 
ATOM     46  N   UNL A   1      40.609  30.889  33.122  1.00  0.00    -0.248 NA
ATOM     47  C   UNL A   1      40.408  32.434  31.385  1.00  0.00     0.031 C 
ATOM     48  C   UNL A   1      44.988  29.045  31.799  1.00  0.00     0.029 A 
ATOM     49  C   UNL A   1      43.979  30.007  31.855  1.00  0.00     0.049 A 
ATOM     50  H   UNL A   1      43.633  31.555  30.493  1.00  0.00     0.167 HD
ATOM     51  C   UNL A   1      41.870  31.114  32.601  1.00  0.00     0.074 A 
ATOM     52  C   UNL A   1      41.698  32.205  31.647  1.00  0.00     0.031 C 
ATOM     53  C   UNL A   1      42.861  30.190  32.760  1.00  0.00     0.031 A 
BRANCH  40  54
ATOM     54  C   UNL A   1      44.747  31.668  27.824  1.00  0.00    -0.014 A 
ATOM     55  C   UNL A   1      46.006  32.028  27.298  1.00  0.00     0.010 A 
ATOM     56  C   UNL A   1      43.821  32.712  28.016  1.00  0.00     0.010 A 
ATOM     57  C   UNL A   1      46.338  33.365  27.037  1.00  0.00     0.020 A 
ATOM     58  C   UNL A   1      44.127  34.045  27.726  1.00  0.00     0.020 A 
ATOM     59  C   UNL A   1      45.395  34.366  27.263  1.00  0.00     0.054 A 
BRANCH  59  60
ATOM     60  S   UNL A   1      45.852  36.097  26.996  1.00  0.00     0.124 S 
ATOM     61  O   UNL A   1      46.677  36.375  28.168  1.00  0.00    -0.237 OA
ATOM     62  O   UNL A   1      46.559  36.034  25.720  1.00  0.00    -0.237 OA
ATOM     63  O   UNL A   1      44.565  36.787  26.956  1.00  0.00    -0.744 OA
ENDBRANCH  59  60
ENDBRANCH  40  54
BRANCH  41  64
ATOM     64  C   UNL A   1      37.226  31.605  32.015  1.00  0.00    -0.014 A 
ATOM     65  C   UNL A   1      36.777  32.096  33.258  1.00  0.00     0.010 A 
ATOM     66  C   UNL A   1      36.610  32.115  30.854  1.00  0.00     0.010 A 
ATOM     67  C   UNL A   1      35.798  33.105  33.333  1.00  0.00     0.020 A 
ATOM     68  C   UNL A   1      35.636  33.123  30.922  1.00  0.00     0.020 A 
ATOM     69  C   UNL A   1      35.249  33.630  32.161  1.00  0.00     0.054 A 
BRANCH  69  70
ATOM     70  S   UNL A   1      34.120  35.056  32.256  1.00  0.00     0.124 S 
ATOM     71  O   UNL A   1      32.945  34.483  32.907  1.00  0.00    -0.237 OA
ATOM     72  O   UNL A   1      34.879  36.014  33.053  1.00  0.00    -0.237 OA
ATOM     73  O   UNL A   1      33.927  35.436  30.857  1.00  0.00    -0.744 OA
ENDBRANCH  69  70
ENDBRANCH  41  64
BRANCH  53  74
ATOM     74  C   UNL A   1      42.719  29.200  33.887  1.00  0.00    -0.014 A 
ATOM     75  C   UNL A   1      43.125  29.430  35.216  1.00  0.00     0.010 A 
ATOM     76  C   UNL A   1      42.052  28.002  33.585  1.00  0.00     0.010 A 
ATOM     77  C   UNL A   1      42.887  28.466  36.210  1.00  0.00     0.020 A 
ATOM     78  C   UNL A   1      41.796  27.049  34.570  1.00  0.00     0.020 A 
ATOM     79  C   UNL A   1      42.225  27.280  35.876  1.00  0.00     0.054 A 
BRANCH  79  80
ATOM     80  S   UNL A   1      41.898  26.038  37.159  1.00  0.00     0.124 S 
ATOM     81  O   UNL A   1      42.905  26.350  38.167  1.00  0.00    -0.237 OA
ATOM     82  O   UNL A   1      40.515  26.322  37.540  1.00  0.00    -0.237 OA
ATOM     83  O   UNL A   1      42.089  24.764  36.466  1.00  0.00    -0.744 OA
ENDBRANCH  79  80
ENDBRANCH  53  74
ENDBRANCH  27  28
ENDBRANCH  19  22
ENDBRANCH   1  18
TORSDOF 14
ENDMDL
MODEL 2
REMARK VINA RESULT:     -11.7      2.168      3.456
REMARK SMILES Cc1csc2nc(C(=O)NCCCCNC(=O)c3ccc(-c4c5nc(c(-c6ccc(S(=O)(=O)[O-])cc6)c6ccc([nH]6)c(-c6ccc(S(=O)(=O)[O-])cc6)c6nc(c(-c7ccc(S(=O)(=O)[O-])cc7)c7ccc4[nH]7)C=C6)C=C5)cc3)cn12
REMARK SMILES IDX 14 1 13 2 12 3 11 4 10 5 8 6 9 7 7 9 1 10 2 11 3 12 79 13
REMARK SMILES IDX 4 14 5 15 78 16 6 17 15 18 16 19 17 21 18 22 19 23 77 24
REMARK SMILES IDX 20 25 76 26 21 27 22 28 23 29 70 30 24 31 75 32 69 33 71 34
REMARK SMILES IDX 25 35 74 36 68 37 67 38 26 40 56 41 37 42 55 43 38 44 41 45
REMARK SMILES IDX 54 46 72 47 39 48 40 49 53 51 73 52 42 53 27 54 28 55 36 56
REMARK SMILES IDX 29 57 35 58 30 59 31 60 32 61 33 62 34 63 57 64 58 65 66 66
REMARK SMILES IDX 59 67 65 68 60 69 61 70 62 71 63 72 64 73 43 74 44 75 52 76
REMARK SMILES IDX 45 77 51 78 46 79 47 80 48 81 49 82 50 83
REMARK H PARENT 10 8 15 20 71 39 41 50
REMARK Flexibility Score: inf
ROOT
ATOM      1  C   UNL A   1      37.634  23.028  25.454  1.00  0.00     0.116 C 
ENDROOT
BRANCH   1   2
ATOM      2  C   UNL A   1      36.177  22.578  25.399  1.00  0.00     0.023 C 
BRANCH   2   3
ATOM      3  C   UNL A   1      35.152  23.629  25.862  1.00  0.00     0.023 C 
BRANCH   3   4
ATOM      4  C   UNL A   1      33.768  23.537  25.210  1.00  0.00     0.116 C 
BRANCH   4   5
ATOM      5  N   UNL A   1      32.719  23.256  26.175  1.00  0.00    -0.351 N 
ATOM      6  C   UNL A   1      31.694  24.049  26.650  1.00  0.00     0.271 C 
ATOM      7  O   UNL A   1      30.925  23.557  27.472  1.00  0.00    -0.267 OA
ATOM      8  H   UNL A   1      32.742  22.347  26.554  1.00  0.00     0.163 HD
BRANCH   6   9
ATOM      9  C   UNL A   1      31.531  25.436  26.188  1.00  0.00     0.148 A 
ATOM     10  C   UNL A   1      29.932  27.959  22.807  1.00  0.00     0.066 C 
ATOM     11  C   UNL A   1      30.655  28.193  24.083  1.00  0.00     0.032 A 
ATOM     12  C   UNL A   1      31.017  29.390  24.590  1.00  0.00     0.090 A 
ATOM     13  N   UNL A   1      31.024  27.165  24.935  1.00  0.00    -0.294 N 
ATOM     14  S   UNL A   1      31.823  29.275  26.160  1.00  0.00    -0.105 S 
ATOM     15  C   UNL A   1      31.637  27.554  26.084  1.00  0.00     0.194 A 
ATOM     16  C   UNL A   1      30.946  25.805  24.972  1.00  0.00     0.128 A 
ATOM     17  N   UNL A   1      31.927  26.573  26.887  1.00  0.00    -0.214 NA
ENDBRANCH   6   9
ENDBRANCH   4   5
ENDBRANCH   3   4
ENDBRANCH   2   3
ENDBRANCH   1   2
BRANCH   1  18
ATOM     18  N   UNL A   1      38.494  22.146  26.248  1.00  0.00    -0.352 N 
ATOM     19  C   UNL A   1      39.670  22.466  26.916  1.00  0.00     0.251 C 
ATOM     20  H   UNL A   1      38.202  21.208  26.319  1.00  0.00     0.163 HD
ATOM     21  O   UNL A   1      40.493  21.602  27.178  1.00  0.00    -0.269 OA
BRANCH  19  22
ATOM     22  C   UNL A   1      39.895  23.869  27.321  1.00  0.00     0.039 A 
ATOM     23  C   UNL A   1      38.920  24.863  27.196  1.00  0.00     0.014 A 
ATOM     24  C   UNL A   1      41.138  24.171  27.864  1.00  0.00     0.014 A 
ATOM     25  C   UNL A   1      39.194  26.139  27.696  1.00  0.00     0.010 A 
ATOM     26  C   UNL A   1      41.320  25.341  28.545  1.00  0.00     0.010 A 
ATOM     27  C   UNL A   1      40.396  26.362  28.385  1.00  0.00    -0.014 A 
BRANCH  27  28
ATOM     28  C   UNL A   1      40.690  27.610  29.084  1.00  0.00     0.031 A 
ATOM     29  C   UNL A   1      41.782  28.383  28.446  1.00  0.00     0.074 A 
ATOM     30  C   UNL A   1      39.867  28.127  30.028  1.00  0.00     0.049 A 
ATOM     31  N   UNL A   1      43.001  28.497  28.857  1.00  0.00    -0.248 NA
ATOM     32  C   UNL A   1      41.564  28.919  27.088  1.00  0.00     0.031 C 
ATOM     33  C   UNL A   1      38.580  27.582  30.491  1.00  0.00     0.029 A 
ATOM     34  N   UNL A   1      39.933  29.314  30.695  1.00  0.00    -0.354 N 
ATOM     35  C   UNL A   1      43.609  29.371  27.963  1.00  0.00     0.074 A 
ATOM     36  C   UNL A   1      42.783  29.372  26.784  1.00  0.00     0.031 C 
ATOM     37  C   UNL A   1      37.892  28.531  31.166  1.00  0.00     0.029 A 
ATOM     38  C   UNL A   1      38.752  29.685  31.343  1.00  0.00     0.049 A 
ATOM     39  H   UNL A   1      40.748  29.866  30.719  1.00  0.00     0.167 HD
ATOM     40  C   UNL A   1      44.519  30.286  28.401  1.00  0.00     0.031 A 
ATOM     41  C   UNL A   1      38.500  30.854  31.989  1.00  0.00     0.031 A 
ATOM     42  C   UNL A   1      44.874  30.029  29.774  1.00  0.00     0.049 A 
ATOM     43  C   UNL A   1      39.815  31.430  32.343  1.00  0.00     0.074 A 
ATOM     44  C   UNL A   1      45.574  29.065  30.463  1.00  0.00     0.029 A 
ATOM     45  N   UNL A   1      44.064  30.677  30.677  1.00  0.00    -0.354 N 
ATOM     46  N   UNL A   1      40.633  30.858  33.183  1.00  0.00    -0.248 NA
ATOM     47  C   UNL A   1      40.414  32.431  31.472  1.00  0.00     0.031 C 
ATOM     48  C   UNL A   1      44.970  28.996  31.753  1.00  0.00     0.029 A 
ATOM     49  C   UNL A   1      43.971  29.965  31.841  1.00  0.00     0.049 A 
ATOM     50  H   UNL A   1      43.614  31.536  30.508  1.00  0.00     0.167 HD
ATOM     51  C   UNL A   1      41.886  31.080  32.643  1.00  0.00     0.074 A 
ATOM     52  C   UNL A   1      41.706  32.186  31.708  1.00  0.00     0.031 C 
ATOM     53  C   UNL A   1      42.872  30.145  32.770  1.00  0.00     0.031 A 
BRANCH  40  54
ATOM     54  C   UNL A   1      44.680  31.678  27.822  1.00  0.00    -0.014 A 
ATOM     55  C   UNL A   1      45.858  31.969  27.100  1.00  0.00     0.010 A 
ATOM     56  C   UNL A   1      43.879  32.776  28.194  1.00  0.00     0.010 A 
ATOM     57  C   UNL A   1      46.241  33.289  26.821  1.00  0.00     0.020 A 
ATOM     58  C   UNL A   1      44.232  34.094  27.890  1.00  0.00     0.020 A 
ATOM     59  C   UNL A   1      45.426  34.344  27.228  1.00  0.00     0.054 A 
BRANCH  59  60
ATOM     60  S   UNL A   1      45.961  36.047  26.933  1.00  0.00     0.124 S 
ATOM     61  O   UNL A   1      44.690  36.727  26.701  1.00  0.00    -0.237 OA
ATOM     62  O   UNL A   1      46.641  36.376  28.182  1.00  0.00    -0.237 OA
ATOM     63  O   UNL A   1      46.833  35.932  25.766  1.00  0.00    -0.744 OA
ENDBRANCH  59  60
ENDBRANCH  40  54
BRANCH  41  64
ATOM     64  C   UNL A   1      37.237  31.620  32.148  1.00  0.00    -0.014 A 
ATOM     65  C   UNL A   1      36.922  32.285  33.352  1.00  0.00     0.010 A 
ATOM     66  C   UNL A   1      36.486  31.958  31.004  1.00  0.00     0.010 A 
ATOM     67  C   UNL A   1      35.940  33.294  33.393  1.00  0.00     0.020 A 
ATOM     68  C   UNL A   1      35.509  32.965  31.038  1.00  0.00     0.020 A 
ATOM     69  C   UNL A   1      35.255  33.645  32.228  1.00  0.00     0.054 A 
BRANCH  69  70
ATOM     70  S   UNL A   1      34.119  35.069  32.245  1.00  0.00     0.124 S 
ATOM     71  O   UNL A   1      34.853  36.045  33.046  1.00  0.00    -0.237 OA
ATOM     72  O   UNL A   1      33.984  35.389  30.828  1.00  0.00    -0.237 OA
ATOM     73  O   UNL A   1      32.911  34.538  32.874  1.00  0.00    -0.744 OA
ENDBRANCH  69  70
ENDBRANCH  41  64
BRANCH  53  74
ATOM     74  C   UNL A   1      42.741  29.140  33.885  1.00  0.00    -0.014 A 
ATOM     75  C   UNL A   1      43.270  29.302  35.180  1.00  0.00     0.010 A 
ATOM     76  C   UNL A   1      41.957  28.007  33.615  1.00  0.00     0.010 A 
ATOM     77  C   UNL A   1      43.036  28.334  36.171  1.00  0.00     0.020 A 
ATOM     78  C   UNL A   1      41.704  27.052  34.599  1.00  0.00     0.020 A 
ATOM     79  C   UNL A   1      42.254  27.213  35.870  1.00  0.00     0.054 A 
BRANCH  79  80
ATOM     80  S   UNL A   1      41.932  25.968  37.150  1.00  0.00     0.124 S 
ATOM     81  O   UNL A   1      42.919  26.300  38.172  1.00  0.00    -0.237 OA
ATOM     82  O   UNL A   1      40.539  26.227  37.510  1.00  0.00    -0.237 OA
ATOM     83  O   UNL A   1      42.158  24.696  36.462  1.00  0.00    -0.744 OA
ENDBRANCH  79  80
ENDBRANCH  53  74
ENDBRANCH  27  28
ENDBRANCH  19  22
ENDBRANCH   1  18
TORSDOF 14
ENDMDL
MODEL 3
REMARK VINA RESULT:     -11.7      3.879      6.253
REMARK SMILES Cc1csc2nc(C(=O)NCCCCNC(=O)c3ccc(-c4c5nc(c(-c6ccc(S(=O)(=O)[O-])cc6)c6ccc([nH]6)c(-c6ccc(S(=O)(=O)[O-])cc6)c6nc(c(-c7ccc(S(=O)(=O)[O-])cc7)c7ccc4[nH]7)C=C6)C=C5)cc3)cn12
REMARK SMILES IDX 14 1 13 2 12 3 11 4 10 5 8 6 9 7 7 9 1 10 2 11 3 12 79 13
REMARK SMILES IDX 4 14 5 15 78 16 6 17 15 18 16 19 17 21 18 22 19 23 77 24
REMARK SMILES IDX 20 25 76 26 21 27 22 28 23 29 70 30 24 31 75 32 69 33 71 34
REMARK SMILES IDX 25 35 74 36 68 37 67 38 26 40 56 41 37 42 55 43 38 44 41 45
REMARK SMILES IDX 54 46 72 47 39 48 40 49 53 51 73 52 42 53 27 54 28 55 36 56
REMARK SMILES IDX 29 57 35 58 30 59 31 60 32 61 33 62 34 63 57 64 58 65 66 66
REMARK SMILES IDX 59 67 65 68 60 69 61 70 62 71 63 72 64 73 43 74 44 75 52 76
REMARK SMILES IDX 45 77 51 78 46 79 47 80 48 81 49 82 50 83
REMARK H PARENT 10 8 15 20 71 39 41 50
REMARK Flexibility Score: inf
ROOT
ATOM      1  C   UNL A   1      42.657  22.520  25.237  1.00  0.00     0.116 C 
ENDROOT
BRANCH   1   2
ATOM      2  C   UNL A   1      43.822  21.793  25.902  1.00  0.00     0.023 C 
BRANCH   2   3
ATOM      3  C   UNL A   1      45.091  21.669  25.040  1.00  0.00     0.023 C 
BRANCH   3   4
ATOM      4  C   UNL A   1      46.219  22.651  25.376  1.00  0.00     0.116 C 
BRANCH   4   5
ATOM      5  N   UNL A   1      45.986  23.972  24.817  1.00  0.00    -0.351 N 
ATOM      6  C   UNL A   1      46.045  25.221  25.400  1.00  0.00     0.271 C 
ATOM      7  O   UNL A   1      45.808  26.195  24.689  1.00  0.00    -0.267 OA
ATOM      8  H   UNL A   1      45.747  23.978  23.861  1.00  0.00     0.163 HD
BRANCH   6   9
ATOM      9  C   UNL A   1      46.380  25.380  26.824  1.00  0.00     0.148 A 
ATOM     10  C   UNL A   1      44.592  25.587  30.961  1.00  0.00     0.066 C 
ATOM     11  C   UNL A   1      45.945  25.709  30.360  1.00  0.00     0.032 A 
ATOM     12  C   UNL A   1      47.101  25.911  31.025  1.00  0.00     0.090 A 
ATOM     13  N   UNL A   1      46.173  25.596  28.998  1.00  0.00    -0.294 N 
ATOM     14  S   UNL A   1      48.521  25.955  29.971  1.00  0.00    -0.105 S 
ATOM     15  C   UNL A   1      47.475  25.686  28.617  1.00  0.00     0.194 A 
ATOM     16  C   UNL A   1      45.444  25.404  27.863  1.00  0.00     0.128 A 
ATOM     17  N   UNL A   1      47.665  25.526  27.340  1.00  0.00    -0.214 NA
ENDBRANCH   6   9
ENDBRANCH   4   5
ENDBRANCH   3   4
ENDBRANCH   2   3
ENDBRANCH   1   2
BRANCH   1  18
ATOM     18  N   UNL A   1      41.340  22.036  25.661  1.00  0.00    -0.352 N 
ATOM     19  C   UNL A   1      40.534  22.520  26.685  1.00  0.00     0.251 C 
ATOM     20  H   UNL A   1      40.979  21.271  25.156  1.00  0.00     0.163 HD
ATOM     21  O   UNL A   1      39.690  21.807  27.204  1.00  0.00    -0.269 OA
BRANCH  19  22
ATOM     22  C   UNL A   1      40.706  23.922  27.118  1.00  0.00     0.039 A 
ATOM     23  C   UNL A   1      39.854  24.954  26.714  1.00  0.00     0.014 A 
ATOM     24  C   UNL A   1      41.763  24.184  27.982  1.00  0.00     0.014 A 
ATOM     25  C   UNL A   1      40.040  26.229  27.254  1.00  0.00     0.010 A 
ATOM     26  C   UNL A   1      41.805  25.362  28.671  1.00  0.00     0.010 A 
ATOM     27  C   UNL A   1      41.014  26.418  28.247  1.00  0.00    -0.014 A 
BRANCH  27  28
ATOM     28  C   UNL A   1      41.162  27.669  28.985  1.00  0.00     0.031 A 
ATOM     29  C   UNL A   1      42.236  28.534  28.440  1.00  0.00     0.074 A 
ATOM     30  C   UNL A   1      40.238  28.105  29.874  1.00  0.00     0.049 A 
ATOM     31  N   UNL A   1      43.410  28.730  28.939  1.00  0.00    -0.248 NA
ATOM     32  C   UNL A   1      42.075  29.080  27.078  1.00  0.00     0.031 C 
ATOM     33  C   UNL A   1      38.966  27.457  30.235  1.00  0.00     0.029 A 
ATOM     34  N   UNL A   1      40.166  29.279  30.563  1.00  0.00    -0.354 N 
ATOM     35  C   UNL A   1      44.013  29.663  28.105  1.00  0.00     0.074 A 
ATOM     36  C   UNL A   1      43.275  29.627  26.869  1.00  0.00     0.031 C 
ATOM     37  C   UNL A   1      38.162  28.338  30.873  1.00  0.00     0.029 A 
ATOM     38  C   UNL A   1      38.918  29.550  31.129  1.00  0.00     0.049 A 
ATOM     39  H   UNL A   1      40.934  29.890  30.654  1.00  0.00     0.167 HD
ATOM     40  C   UNL A   1      44.818  30.635  28.621  1.00  0.00     0.031 A 
ATOM     41  C   UNL A   1      38.534  30.683  31.772  1.00  0.00     0.031 A 
ATOM     42  C   UNL A   1      45.093  30.376  30.013  1.00  0.00     0.049 A 
ATOM     43  C   UNL A   1      39.774  31.347  32.229  1.00  0.00     0.074 A 
ATOM     44  C   UNL A   1      45.813  29.453  30.735  1.00  0.00     0.029 A 
ATOM     45  N   UNL A   1      44.175  30.944  30.864  1.00  0.00    -0.354 N 
ATOM     46  N   UNL A   1      40.570  30.821  33.117  1.00  0.00    -0.248 NA
ATOM     47  C   UNL A   1      40.356  32.407  31.419  1.00  0.00     0.031 C 
ATOM     48  C   UNL A   1      45.125  29.313  31.977  1.00  0.00     0.029 A 
ATOM     49  C   UNL A   1      44.053  30.204  32.008  1.00  0.00     0.049 A 
ATOM     50  H   UNL A   1      43.674  31.771  30.676  1.00  0.00     0.167 HD
ATOM     51  C   UNL A   1      41.838  31.145  32.673  1.00  0.00     0.074 A 
ATOM     52  C   UNL A   1      41.643  32.254  31.744  1.00  0.00     0.031 C 
ATOM     53  C   UNL A   1      42.880  30.283  32.857  1.00  0.00     0.031 A 
BRANCH  40  54
ATOM     54  C   UNL A   1      44.915  32.046  28.076  1.00  0.00    -0.014 A 
ATOM     55  C   UNL A   1      46.198  32.581  27.831  1.00  0.00     0.010 A 
ATOM     56  C   UNL A   1      43.840  32.956  28.070  1.00  0.00     0.010 A 
ATOM     57  C   UNL A   1      46.398  33.957  27.650  1.00  0.00     0.020 A 
ATOM     58  C   UNL A   1      44.021  34.325  27.855  1.00  0.00     0.020 A 
ATOM     59  C   UNL A   1      45.304  34.821  27.673  1.00  0.00     0.054 A 
BRANCH  59  60
ATOM     60  S   UNL A   1      45.575  36.603  27.514  1.00  0.00     0.124 S 
ATOM     61  O   UNL A   1      44.215  37.100  27.334  1.00  0.00    -0.237 OA
ATOM     62  O   UNL A   1      46.210  36.931  28.788  1.00  0.00    -0.237 OA
ATOM     63  O   UNL A   1      46.444  36.713  26.344  1.00  0.00    -0.744 OA
ENDBRANCH  59  60
ENDBRANCH  40  54
BRANCH  41  64
ATOM     64  C   UNL A   1      37.208  31.351  31.851  1.00  0.00    -0.014 A 
ATOM     65  C   UNL A   1      36.675  31.792  33.079  1.00  0.00     0.010 A 
ATOM     66  C   UNL A   1      36.608  31.834  30.671  1.00  0.00     0.010 A 
ATOM     67  C   UNL A   1      35.627  32.733  33.124  1.00  0.00     0.020 A 
ATOM     68  C   UNL A   1      35.566  32.773  30.709  1.00  0.00     0.020 A 
ATOM     69  C   UNL A   1      35.094  33.236  31.935  1.00  0.00     0.054 A 
BRANCH  69  70
ATOM     70  S   UNL A   1      33.867  34.581  31.998  1.00  0.00     0.124 S 
ATOM     71  O   UNL A   1      32.908  34.085  32.980  1.00  0.00    -0.237 OA
ATOM     72  O   UNL A   1      34.668  35.726  32.420  1.00  0.00    -0.237 OA
ATOM     73  O   UNL A   1      33.366  34.653  30.626  1.00  0.00    -0.744 OA
ENDBRANCH  69  70
ENDBRANCH  41  64
BRANCH  53  74
ATOM     74  C   UNL A   1      42.746  29.248  33.944  1.00  0.00    -0.014 A 
ATOM     75  C   UNL A   1      43.221  29.400  35.262  1.00  0.00     0.010 A 
ATOM     76  C   UNL A   1      42.015  28.094  33.621  1.00  0.00     0.010 A 
ATOM     77  C   UNL A   1      42.987  28.402  36.222  1.00  0.00     0.020 A 
ATOM     78  C   UNL A   1      41.763  27.108  34.574  1.00  0.00     0.020 A 
ATOM     79  C   UNL A   1      42.259  27.260  35.867  1.00  0.00     0.054 A 
BRANCH  79  80
ATOM     80  S   UNL A   1      41.937  25.975  37.107  1.00  0.00     0.124 S 
ATOM     81  O   UNL A   1      42.229  24.747  36.376  1.00  0.00    -0.237 OA
ATOM     82  O   UNL A   1      42.877  26.312  38.175  1.00  0.00    -0.237 OA
ATOM     83  O   UNL A   1      40.528  26.170  37.452  1.00  0.00    -0.744 OA
ENDBRANCH  79  80
ENDBRANCH  53  74
ENDBRANCH  27  28
ENDBRANCH  19  22
ENDBRANCH   1  18
TORSDOF 14
ENDMDL
