MODEL 1
REMARK VINA RESULT:     -10.5      0.000      0.000
REMARK SMILES C[C@@H](C(=O)NCCCCNC(=O)c1ccc(-c2c3nc(c(-c4ccc(S(=O)(=O)[O-])cc4)c4ccc([nH]4)c(-c4ccc(S(=O)(=O)[O-])cc4)c4nc(c(-c5ccc(S(=O)(=O)[O-])cc5)c5ccc2[nH]5)C=C4)C=C3)cc1)c1ccccc1-c1ccn(C(F)F)c(=O)c1
REMARK SMILES IDX 7 1 6 2 5 3 3 4 4 5 2 7 1 8 73 9 74 10 78 11 75 12 77 13
REMARK SMILES IDX 76 14 79 15 80 16 88 17 81 18 86 19 82 20 87 21 83 22 84 23
REMARK SMILES IDX 85 24 8 25 9 26 10 27 11 28 12 30 13 31 14 32 72 33 15 34
REMARK SMILES IDX 71 35 16 36 17 37 18 38 65 39 19 40 70 41 64 42 66 43 20 44
REMARK SMILES IDX 69 45 63 46 62 47 21 49 51 50 32 51 50 52 33 53 36 54 49 55
REMARK SMILES IDX 67 56 34 57 35 58 48 60 68 61 37 62 22 63 23 64 31 65 24 66
REMARK SMILES IDX 30 67 25 68 26 69 27 70 28 71 29 72 52 73 53 74 61 75 54 76
REMARK SMILES IDX 60 77 55 78 56 79 57 80 58 81 59 82 38 83 39 84 47 85 40 86
REMARK SMILES IDX 46 87 41 88 42 89 43 90 44 91 45 92
REMARK H PARENT 5 6 10 29 66 48 36 59
REMARK Flexibility Score: inf
ROOT
ATOM      1  C   UNL A   1      34.767  22.442  26.209  1.00  0.00     0.023 C 
ENDROOT
BRANCH   1   2
ATOM      2  C   UNL A   1      33.802  23.265  27.069  1.00  0.00     0.116 C 
BRANCH   2   3
ATOM      3  N   UNL A   1      32.472  22.699  26.960  1.00  0.00    -0.356 N 
ATOM      4  C   UNL A   1      31.286  23.376  26.871  1.00  0.00     0.227 C 
ATOM      5  O   UNL A   1      30.290  22.855  27.377  1.00  0.00    -0.274 OA
ATOM      6  H   UNL A   1      32.415  21.716  26.948  1.00  0.00     0.163 HD
BRANCH   4   7
ATOM      7  C   UNL A   1      31.246  24.717  26.132  1.00  0.00     0.106 C 
ATOM      8  C   UNL A   1      29.780  25.183  26.138  1.00  0.00     0.023 C 
BRANCH   7   9
ATOM      9  C   UNL A   1      31.898  24.634  24.737  1.00  0.00    -0.028 A 
ATOM     10  C   UNL A   1      31.697  23.492  23.931  1.00  0.00     0.005 A 
ATOM     11  C   UNL A   1      32.693  25.684  24.200  1.00  0.00    -0.014 A 
ATOM     12  C   UNL A   1      32.287  23.363  22.672  1.00  0.00     0.000 A 
ATOM     13  C   UNL A   1      33.306  25.520  22.941  1.00  0.00     0.009 A 
ATOM     14  C   UNL A   1      33.106  24.369  22.183  1.00  0.00     0.001 A 
BRANCH  11  15
ATOM     15  C   UNL A   1      32.900  26.998  24.854  1.00  0.00    -0.011 A 
ATOM     16  C   UNL A   1      34.044  27.321  25.683  1.00  0.00     0.027 A 
ATOM     17  C   UNL A   1      31.994  27.959  24.607  1.00  0.00     0.080 A 
ATOM     18  C   UNL A   1      34.112  28.492  26.327  1.00  0.00     0.095 A 
ATOM     19  C   UNL A   1      32.111  29.306  25.232  1.00  0.00     0.255 A 
ATOM     20  N   UNL A   1      33.141  29.458  26.146  1.00  0.00    -0.258 N 
ATOM     21  O   UNL A   1      31.295  30.167  24.920  1.00  0.00    -0.269 OA
BRANCH  20  22
ATOM     22  C   UNL A   1      33.215  30.711  26.853  1.00  0.00     0.451 C 
ATOM     23  F   UNL A   1      32.106  30.904  27.607  1.00  0.00    -0.185 F 
ATOM     24  F   UNL A   1      34.294  30.747  27.674  1.00  0.00    -0.185 F 
ENDBRANCH  20  22
ENDBRANCH  11  15
ENDBRANCH   7   9
ENDBRANCH   4   7
ENDBRANCH   2   3
ENDBRANCH   1   2
BRANCH   1  25
ATOM     25  C   UNL A   1      35.325  23.199  24.998  1.00  0.00     0.023 C 
BRANCH  25  26
ATOM     26  C   UNL A   1      36.704  23.819  25.208  1.00  0.00     0.116 C 
BRANCH  26  27
ATOM     27  N   UNL A   1      37.717  22.819  25.493  1.00  0.00    -0.352 N 
ATOM     28  C   UNL A   1      38.928  22.958  26.121  1.00  0.00     0.251 C 
ATOM     29  H   UNL A   1      37.502  21.907  25.191  1.00  0.00     0.163 HD
ATOM     30  O   UNL A   1      39.721  22.020  26.107  1.00  0.00    -0.269 OA
BRANCH  28  31
ATOM     31  C   UNL A   1      39.290  24.229  26.785  1.00  0.00     0.039 A 
ATOM     32  C   UNL A   1      38.852  24.440  28.094  1.00  0.00     0.014 A 
ATOM     33  C   UNL A   1      40.026  25.217  26.125  1.00  0.00     0.014 A 
ATOM     34  C   UNL A   1      39.194  25.619  28.757  1.00  0.00     0.010 A 
ATOM     35  C   UNL A   1      40.426  26.364  26.812  1.00  0.00     0.010 A 
ATOM     36  C   UNL A   1      40.011  26.578  28.134  1.00  0.00    -0.014 A 
BRANCH  36  37
ATOM     37  C   UNL A   1      40.443  27.790  28.875  1.00  0.00     0.031 A 
ATOM     38  C   UNL A   1      41.805  27.861  29.512  1.00  0.00     0.074 A 
ATOM     39  C   UNL A   1      39.592  28.829  28.987  1.00  0.00     0.049 A 
ATOM     40  N   UNL A   1      42.356  28.854  30.164  1.00  0.00    -0.248 NA
ATOM     41  C   UNL A   1      42.650  26.659  29.425  1.00  0.00     0.031 C 
ATOM     42  C   UNL A   1      38.222  28.860  28.465  1.00  0.00     0.029 A 
ATOM     43  N   UNL A   1      39.750  30.061  29.568  1.00  0.00    -0.354 N 
ATOM     44  C   UNL A   1      43.610  28.401  30.559  1.00  0.00     0.074 A 
ATOM     45  C   UNL A   1      43.715  27.024  30.126  1.00  0.00     0.031 C 
ATOM     46  C   UNL A   1      37.680  30.061  28.719  1.00  0.00     0.029 A 
ATOM     47  C   UNL A   1      38.649  30.875  29.446  1.00  0.00     0.049 A 
ATOM     48  H   UNL A   1      40.576  30.337  30.029  1.00  0.00     0.167 HD
ATOM     49  C   UNL A   1      44.594  29.076  31.198  1.00  0.00     0.031 A 
ATOM     50  C   UNL A   1      38.440  32.137  29.868  1.00  0.00     0.031 A 
ATOM     51  C   UNL A   1      44.488  30.447  31.629  1.00  0.00     0.049 A 
ATOM     52  C   UNL A   1      39.552  32.866  30.569  1.00  0.00     0.074 A 
ATOM     53  C   UNL A   1      45.444  31.230  32.253  1.00  0.00     0.029 A 
ATOM     54  N   UNL A   1      43.361  31.240  31.478  1.00  0.00    -0.354 N 
ATOM     55  N   UNL A   1      40.754  32.439  30.874  1.00  0.00    -0.248 NA
ATOM     56  C   UNL A   1      39.285  34.255  30.964  1.00  0.00     0.031 C 
ATOM     57  C   UNL A   1      44.879  32.482  32.521  1.00  0.00     0.029 A 
ATOM     58  C   UNL A   1      43.590  32.497  32.013  1.00  0.00     0.049 A 
ATOM     59  H   UNL A   1      42.520  30.952  31.054  1.00  0.00     0.167 HD
ATOM     60  C   UNL A   1      41.392  33.513  31.483  1.00  0.00     0.074 A 
ATOM     61  C   UNL A   1      40.454  34.618  31.473  1.00  0.00     0.031 C 
ATOM     62  C   UNL A   1      42.640  33.580  32.011  1.00  0.00     0.031 A 
BRANCH  49  63
ATOM     63  C   UNL A   1      45.886  28.345  31.460  1.00  0.00    -0.014 A 
ATOM     64  C   UNL A   1      46.969  28.456  30.569  1.00  0.00     0.010 A 
ATOM     65  C   UNL A   1      46.043  27.588  32.636  1.00  0.00     0.010 A 
ATOM     66  C   UNL A   1      48.174  27.800  30.832  1.00  0.00     0.020 A 
ATOM     67  C   UNL A   1      47.257  26.953  32.917  1.00  0.00     0.020 A 
ATOM     68  C   UNL A   1      48.310  27.052  32.005  1.00  0.00     0.054 A 
BRANCH  68  69
ATOM     69  S   UNL A   1      49.901  26.247  32.341  1.00  0.00     0.124 S 
ATOM     70  O   UNL A   1      49.871  26.117  33.795  1.00  0.00    -0.237 OA
ATOM     71  O   UNL A   1      49.789  24.996  31.595  1.00  0.00    -0.237 OA
ATOM     72  O   UNL A   1      50.886  27.193  31.820  1.00  0.00    -0.744 OA
ENDBRANCH  68  69
ENDBRANCH  49  63
BRANCH  50  73
ATOM     73  C   UNL A   1      37.125  32.793  29.631  1.00  0.00    -0.014 A 
ATOM     74  C   UNL A   1      36.894  33.545  28.466  1.00  0.00     0.010 A 
ATOM     75  C   UNL A   1      36.093  32.669  30.580  1.00  0.00     0.010 A 
ATOM     76  C   UNL A   1      35.667  34.186  28.269  1.00  0.00     0.020 A 
ATOM     77  C   UNL A   1      34.856  33.283  30.373  1.00  0.00     0.020 A 
ATOM     78  C   UNL A   1      34.656  34.052  29.225  1.00  0.00     0.054 A 
BRANCH  78  79
ATOM     79  S   UNL A   1      33.059  34.863  28.935  1.00  0.00     0.124 S 
ATOM     80  O   UNL A   1      33.469  36.146  28.373  1.00  0.00    -0.237 OA
ATOM     81  O   UNL A   1      32.402  33.946  28.008  1.00  0.00    -0.237 OA
ATOM     82  O   UNL A   1      32.461  34.923  30.267  1.00  0.00    -0.744 OA
ENDBRANCH  78  79
ENDBRANCH  50  73
BRANCH  62  83
ATOM     83  C   UNL A   1      43.060  34.899  32.604  1.00  0.00    -0.014 A 
ATOM     84  C   UNL A   1      42.751  35.229  33.936  1.00  0.00     0.010 A 
ATOM     85  C   UNL A   1      43.779  35.819  31.819  1.00  0.00     0.010 A 
ATOM     86  C   UNL A   1      43.102  36.478  34.455  1.00  0.00     0.020 A 
ATOM     87  C   UNL A   1      44.161  37.056  32.345  1.00  0.00     0.020 A 
ATOM     88  C   UNL A   1      43.798  37.387  33.652  1.00  0.00     0.054 A 
BRANCH  88  89
ATOM     89  S   UNL A   1      44.242  39.002  34.347  1.00  0.00     0.124 S 
ATOM     90  O   UNL A   1      43.100  39.824  33.957  1.00  0.00    -0.237 OA
ATOM     91  O   UNL A   1      44.354  38.718  35.777  1.00  0.00    -0.237 OA
ATOM     92  O   UNL A   1      45.502  39.329  33.683  1.00  0.00    -0.744 OA
ENDBRANCH  88  89
ENDBRANCH  62  83
ENDBRANCH  36  37
ENDBRANCH  28  31
ENDBRANCH  26  27
ENDBRANCH  25  26
ENDBRANCH   1  25
TORSDOF 17
ENDMDL
MODEL 2
REMARK VINA RESULT:     -10.5      4.048      5.354
REMARK SMILES C[C@@H](C(=O)NCCCCNC(=O)c1ccc(-c2c3nc(c(-c4ccc(S(=O)(=O)[O-])cc4)c4ccc([nH]4)c(-c4ccc(S(=O)(=O)[O-])cc4)c4nc(c(-c5ccc(S(=O)(=O)[O-])cc5)c5ccc2[nH]5)C=C4)C=C3)cc1)c1ccccc1-c1ccn(C(F)F)c(=O)c1
REMARK SMILES IDX 7 1 6 2 5 3 3 4 4 5 2 7 1 8 73 9 74 10 78 11 75 12 77 13
REMARK SMILES IDX 76 14 79 15 80 16 88 17 81 18 86 19 82 20 87 21 83 22 84 23
REMARK SMILES IDX 85 24 8 25 9 26 10 27 11 28 12 30 13 31 14 32 72 33 15 34
REMARK SMILES IDX 71 35 16 36 17 37 18 38 65 39 19 40 70 41 64 42 66 43 20 44
REMARK SMILES IDX 69 45 63 46 62 47 21 49 51 50 32 51 50 52 33 53 36 54 49 55
REMARK SMILES IDX 67 56 34 57 35 58 48 60 68 61 37 62 22 63 23 64 31 65 24 66
REMARK SMILES IDX 30 67 25 68 26 69 27 70 28 71 29 72 52 73 53 74 61 75 54 76
REMARK SMILES IDX 60 77 55 78 56 79 57 80 58 81 59 82 38 83 39 84 47 85 40 86
REMARK SMILES IDX 46 87 41 88 42 89 43 90 44 91 45 92
REMARK H PARENT 5 6 10 29 66 48 36 59
REMARK Flexibility Score: inf
ROOT
ATOM      1  C   UNL A   1      37.056  22.117  24.498  1.00  0.00     0.023 C 
ENDROOT
BRANCH   1   2
ATOM      2  C   UNL A   1      36.342  22.811  25.663  1.00  0.00     0.116 C 
BRANCH   2   3
ATOM      3  N   UNL A   1      35.624  21.817  26.436  1.00  0.00    -0.356 N 
ATOM      4  C   UNL A   1      34.312  21.856  26.825  1.00  0.00     0.227 C 
ATOM      5  O   UNL A   1      34.018  21.331  27.901  1.00  0.00    -0.274 OA
ATOM      6  H   UNL A   1      36.137  21.024  26.714  1.00  0.00     0.163 HD
BRANCH   4   7
ATOM      7  C   UNL A   1      33.280  22.514  25.904  1.00  0.00     0.106 C 
ATOM      8  C   UNL A   1      32.119  22.979  26.800  1.00  0.00     0.023 C 
BRANCH   7   9
ATOM      9  C   UNL A   1      32.874  21.596  24.734  1.00  0.00    -0.028 A 
ATOM     10  C   UNL A   1      32.959  20.194  24.874  1.00  0.00     0.005 A 
ATOM     11  C   UNL A   1      32.385  22.104  23.498  1.00  0.00    -0.014 A 
ATOM     12  C   UNL A   1      32.624  19.326  23.833  1.00  0.00     0.000 A 
ATOM     13  C   UNL A   1      32.084  21.211  22.449  1.00  0.00     0.009 A 
ATOM     14  C   UNL A   1      32.204  19.834  22.614  1.00  0.00     0.001 A 
BRANCH  11  15
ATOM     15  C   UNL A   1      32.112  23.535  23.227  1.00  0.00    -0.011 A 
ATOM     16  C   UNL A   1      30.953  24.249  23.725  1.00  0.00     0.027 A 
ATOM     17  C   UNL A   1      33.034  24.217  22.526  1.00  0.00     0.080 A 
ATOM     18  C   UNL A   1      30.717  25.512  23.353  1.00  0.00     0.095 A 
ATOM     19  C   UNL A   1      32.839  25.655  22.193  1.00  0.00     0.255 A 
ATOM     20  N   UNL A   1      31.619  26.198  22.561  1.00  0.00    -0.258 N 
ATOM     21  O   UNL A   1      33.741  26.246  21.609  1.00  0.00    -0.269 OA
BRANCH  20  22
ATOM     22  C   UNL A   1      31.351  27.554  22.154  1.00  0.00     0.451 C 
ATOM     23  F   UNL A   1      30.020  27.805  22.159  1.00  0.00    -0.185 F 
ATOM     24  F   UNL A   1      31.950  28.442  22.986  1.00  0.00    -0.185 F 
ENDBRANCH  20  22
ENDBRANCH  11  15
ENDBRANCH   7   9
ENDBRANCH   4   7
ENDBRANCH   2   3
ENDBRANCH   1   2
BRANCH   1  25
ATOM     25  C   UNL A   1      37.836  20.860  24.905  1.00  0.00     0.023 C 
BRANCH  25  26
ATOM     26  C   UNL A   1      38.968  21.102  25.899  1.00  0.00     0.116 C 
BRANCH  26  27
ATOM     27  N   UNL A   1      39.922  20.007  25.920  1.00  0.00    -0.352 N 
ATOM     28  C   UNL A   1      41.282  20.037  26.095  1.00  0.00     0.251 C 
ATOM     29  H   UNL A   1      39.535  19.112  25.790  1.00  0.00     0.163 HD
ATOM     30  O   UNL A   1      41.933  19.014  25.904  1.00  0.00    -0.269 OA
BRANCH  28  31
ATOM     31  C   UNL A   1      41.962  21.291  26.485  1.00  0.00     0.039 A 
ATOM     32  C   UNL A   1      42.271  22.215  25.484  1.00  0.00     0.014 A 
ATOM     33  C   UNL A   1      42.319  21.551  27.811  1.00  0.00     0.014 A 
ATOM     34  C   UNL A   1      42.893  23.418  25.820  1.00  0.00     0.010 A 
ATOM     35  C   UNL A   1      42.877  22.782  28.155  1.00  0.00     0.010 A 
ATOM     36  C   UNL A   1      43.173  23.727  27.162  1.00  0.00    -0.014 A 
BRANCH  36  37
ATOM     37  C   UNL A   1      43.755  25.045  27.521  1.00  0.00     0.031 A 
ATOM     38  C   UNL A   1      45.219  25.325  27.316  1.00  0.00     0.074 A 
ATOM     39  C   UNL A   1      42.955  25.992  28.052  1.00  0.00     0.049 A 
ATOM     40  N   UNL A   1      45.883  26.431  27.540  1.00  0.00    -0.248 NA
ATOM     41  C   UNL A   1      46.050  24.219  26.813  1.00  0.00     0.031 C 
ATOM     42  C   UNL A   1      41.530  25.823  28.355  1.00  0.00     0.029 A 
ATOM     43  N   UNL A   1      43.220  27.285  28.423  1.00  0.00    -0.354 N 
ATOM     44  C   UNL A   1      47.203  26.157  27.203  1.00  0.00     0.074 A 
ATOM     45  C   UNL A   1      47.259  24.764  26.815  1.00  0.00     0.031 C 
ATOM     46  C   UNL A   1      41.042  26.978  28.833  1.00  0.00     0.029 A 
ATOM     47  C   UNL A   1      42.120  27.959  28.898  1.00  0.00     0.049 A 
ATOM     48  H   UNL A   1      44.114  27.693  28.357  1.00  0.00     0.167 HD
ATOM     49  C   UNL A   1      48.268  26.995  27.190  1.00  0.00     0.031 A 
ATOM     50  C   UNL A   1      41.989  29.227  29.336  1.00  0.00     0.031 A 
ATOM     51  C   UNL A   1      48.212  28.381  27.575  1.00  0.00     0.049 A 
ATOM     52  C   UNL A   1      43.185  30.138  29.303  1.00  0.00     0.074 A 
ATOM     53  C   UNL A   1      49.229  29.321  27.562  1.00  0.00     0.029 A 
ATOM     54  N   UNL A   1      47.078  29.030  28.041  1.00  0.00    -0.354 N 
ATOM     55  N   UNL A   1      44.411  29.875  28.918  1.00  0.00    -0.248 NA
ATOM     56  C   UNL A   1      42.973  31.522  29.747  1.00  0.00     0.031 C 
ATOM     57  C   UNL A   1      48.721  30.525  28.063  1.00  0.00     0.029 A 
ATOM     58  C   UNL A   1      47.373  30.351  28.335  1.00  0.00     0.049 A 
ATOM     59  H   UNL A   1      46.193  28.612  28.148  1.00  0.00     0.167 HD
ATOM     60  C   UNL A   1      45.113  31.066  29.057  1.00  0.00     0.074 A 
ATOM     61  C   UNL A   1      44.167  32.057  29.531  1.00  0.00     0.031 C 
ATOM     62  C   UNL A   1      46.425  31.319  28.822  1.00  0.00     0.031 A 
BRANCH  49  63
ATOM     63  C   UNL A   1      49.589  26.437  26.727  1.00  0.00    -0.014 A 
ATOM     64  C   UNL A   1      49.948  26.471  25.367  1.00  0.00     0.010 A 
ATOM     65  C   UNL A   1      50.507  25.926  27.663  1.00  0.00     0.010 A 
ATOM     66  C   UNL A   1      51.187  25.980  24.948  1.00  0.00     0.020 A 
ATOM     67  C   UNL A   1      51.759  25.459  27.251  1.00  0.00     0.020 A 
ATOM     68  C   UNL A   1      52.085  25.477  25.893  1.00  0.00     0.054 A 
BRANCH  68  69
ATOM     69  S   UNL A   1      53.703  24.885  25.323  1.00  0.00     0.124 S 
ATOM     70  O   UNL A   1      53.932  25.721  24.148  1.00  0.00    -0.237 OA
ATOM     71  O   UNL A   1      54.566  25.163  26.469  1.00  0.00    -0.237 OA
ATOM     72  O   UNL A   1      53.477  23.468  25.046  1.00  0.00    -0.744 OA
ENDBRANCH  68  69
ENDBRANCH  49  63
BRANCH  50  73
ATOM     73  C   UNL A   1      40.672  29.711  29.833  1.00  0.00    -0.014 A 
ATOM     74  C   UNL A   1      39.696  30.189  28.943  1.00  0.00     0.010 A 
ATOM     75  C   UNL A   1      40.392  29.698  31.213  1.00  0.00     0.010 A 
ATOM     76  C   UNL A   1      38.475  30.674  29.424  1.00  0.00     0.020 A 
ATOM     77  C   UNL A   1      39.162  30.153  31.695  1.00  0.00     0.020 A 
ATOM     78  C   UNL A   1      38.217  30.653  30.797  1.00  0.00     0.054 A 
BRANCH  78  79
ATOM     79  S   UNL A   1      36.614  31.255  31.399  1.00  0.00     0.124 S 
ATOM     80  O   UNL A   1      35.841  31.343  30.165  1.00  0.00    -0.237 OA
ATOM     81  O   UNL A   1      36.210  30.202  32.327  1.00  0.00    -0.237 OA
ATOM     82  O   UNL A   1      36.944  32.533  32.026  1.00  0.00    -0.744 OA
ENDBRANCH  78  79
ENDBRANCH  50  73
BRANCH  62  83
ATOM     83  C   UNL A   1      46.902  32.727  29.061  1.00  0.00    -0.014 A 
ATOM     84  C   UNL A   1      47.406  33.122  30.313  1.00  0.00     0.010 A 
ATOM     85  C   UNL A   1      46.849  33.668  28.015  1.00  0.00     0.010 A 
ATOM     86  C   UNL A   1      47.796  34.446  30.533  1.00  0.00     0.020 A 
ATOM     87  C   UNL A   1      47.268  34.985  28.222  1.00  0.00     0.020 A 
ATOM     88  C   UNL A   1      47.716  35.371  29.487  1.00  0.00     0.054 A 
BRANCH  88  89
ATOM     89  S   UNL A   1      48.225  37.084  29.796  1.00  0.00     0.124 S 
ATOM     90  O   UNL A   1      48.740  37.487  28.491  1.00  0.00    -0.237 OA
ATOM     91  O   UNL A   1      46.976  37.723  30.205  1.00  0.00    -0.237 OA
ATOM     92  O   UNL A   1      49.229  36.960  30.852  1.00  0.00    -0.744 OA
ENDBRANCH  88  89
ENDBRANCH  62  83
ENDBRANCH  36  37
ENDBRANCH  28  31
ENDBRANCH  26  27
ENDBRANCH  25  26
ENDBRANCH   1  25
TORSDOF 17
ENDMDL
MODEL 3
REMARK VINA RESULT:     -10.1      3.558      4.460
REMARK SMILES C[C@@H](C(=O)NCCCCNC(=O)c1ccc(-c2c3nc(c(-c4ccc(S(=O)(=O)[O-])cc4)c4ccc([nH]4)c(-c4ccc(S(=O)(=O)[O-])cc4)c4nc(c(-c5ccc(S(=O)(=O)[O-])cc5)c5ccc2[nH]5)C=C4)C=C3)cc1)c1ccccc1-c1ccn(C(F)F)c(=O)c1
REMARK SMILES IDX 7 1 6 2 5 3 3 4 4 5 2 7 1 8 73 9 74 10 78 11 75 12 77 13
REMARK SMILES IDX 76 14 79 15 80 16 88 17 81 18 86 19 82 20 87 21 83 22 84 23
REMARK SMILES IDX 85 24 8 25 9 26 10 27 11 28 12 30 13 31 14 32 72 33 15 34
REMARK SMILES IDX 71 35 16 36 17 37 18 38 65 39 19 40 70 41 64 42 66 43 20 44
REMARK SMILES IDX 69 45 63 46 62 47 21 49 51 50 32 51 50 52 33 53 36 54 49 55
REMARK SMILES IDX 67 56 34 57 35 58 48 60 68 61 37 62 22 63 23 64 31 65 24 66
REMARK SMILES IDX 30 67 25 68 26 69 27 70 28 71 29 72 52 73 53 74 61 75 54 76
REMARK SMILES IDX 60 77 55 78 56 79 57 80 58 81 59 82 38 83 39 84 47 85 40 86
REMARK SMILES IDX 46 87 41 88 42 89 43 90 44 91 45 92
REMARK H PARENT 5 6 10 29 66 48 36 59
REMARK Flexibility Score: inf
ROOT
ATOM      1  C   UNL A   1      37.799  22.253  25.415  1.00  0.00     0.023 C 
ENDROOT
BRANCH   1   2
ATOM      2  C   UNL A   1      36.430  22.855  25.745  1.00  0.00     0.116 C 
BRANCH   2   3
ATOM      3  N   UNL A   1      35.660  21.889  26.504  1.00  0.00    -0.356 N 
ATOM      4  C   UNL A   1      34.369  22.015  26.940  1.00  0.00     0.227 C 
ATOM      5  O   UNL A   1      34.068  21.471  28.004  1.00  0.00    -0.274 OA
ATOM      6  H   UNL A   1      36.117  21.048  26.733  1.00  0.00     0.163 HD
BRANCH   4   7
ATOM      7  C   UNL A   1      33.364  22.790  26.082  1.00  0.00     0.106 C 
ATOM      8  C   UNL A   1      32.219  23.216  27.017  1.00  0.00     0.023 C 
BRANCH   7   9
ATOM      9  C   UNL A   1      32.926  21.994  24.835  1.00  0.00    -0.028 A 
ATOM     10  C   UNL A   1      32.516  20.650  24.964  1.00  0.00     0.005 A 
ATOM     11  C   UNL A   1      32.894  22.568  23.534  1.00  0.00    -0.014 A 
ATOM     12  C   UNL A   1      32.135  19.884  23.860  1.00  0.00     0.000 A 
ATOM     13  C   UNL A   1      32.537  21.769  22.429  1.00  0.00     0.009 A 
ATOM     14  C   UNL A   1      32.162  20.438  22.590  1.00  0.00     0.001 A 
BRANCH  11  15
ATOM     15  C   UNL A   1      33.167  23.995  23.239  1.00  0.00    -0.011 A 
ATOM     16  C   UNL A   1      33.674  24.943  24.212  1.00  0.00     0.027 A 
ATOM     17  C   UNL A   1      32.985  24.409  21.974  1.00  0.00     0.080 A 
ATOM     18  C   UNL A   1      33.796  26.239  23.904  1.00  0.00     0.095 A 
ATOM     19  C   UNL A   1      33.219  25.828  21.587  1.00  0.00     0.255 A 
ATOM     20  N   UNL A   1      33.531  26.691  22.625  1.00  0.00    -0.258 N 
ATOM     21  O   UNL A   1      33.103  26.137  20.406  1.00  0.00    -0.269 OA
BRANCH  20  22
ATOM     22  C   UNL A   1      33.653  28.091  22.305  1.00  0.00     0.451 C 
ATOM     23  F   UNL A   1      32.475  28.732  22.496  1.00  0.00    -0.185 F 
ATOM     24  F   UNL A   1      34.590  28.690  23.080  1.00  0.00    -0.185 F 
ENDBRANCH  20  22
ENDBRANCH  11  15
ENDBRANCH   7   9
ENDBRANCH   4   7
ENDBRANCH   2   3
ENDBRANCH   1   2
BRANCH   1  25
ATOM     25  C   UNL A   1      38.913  22.664  26.386  1.00  0.00     0.023 C 
BRANCH  25  26
ATOM     26  C   UNL A   1      39.097  24.170  26.552  1.00  0.00     0.116 C 
BRANCH  26  27
ATOM     27  N   UNL A   1      40.206  24.677  25.764  1.00  0.00    -0.352 N 
ATOM     28  C   UNL A   1      40.980  25.791  25.963  1.00  0.00     0.251 C 
ATOM     29  H   UNL A   1      40.436  24.141  24.971  1.00  0.00     0.163 HD
ATOM     30  O   UNL A   1      41.759  26.145  25.082  1.00  0.00    -0.269 OA
BRANCH  28  31
ATOM     31  C   UNL A   1      40.862  26.576  27.211  1.00  0.00     0.039 A 
ATOM     32  C   UNL A   1      41.598  27.758  27.322  1.00  0.00     0.014 A 
ATOM     33  C   UNL A   1      40.060  26.148  28.273  1.00  0.00     0.014 A 
ATOM     34  C   UNL A   1      41.492  28.533  28.477  1.00  0.00     0.010 A 
ATOM     35  C   UNL A   1      39.902  26.959  29.397  1.00  0.00     0.010 A 
ATOM     36  C   UNL A   1      40.619  28.158  29.513  1.00  0.00    -0.014 A 
BRANCH  36  37
ATOM     37  C   UNL A   1      40.446  29.032  30.700  1.00  0.00     0.031 A 
ATOM     38  C   UNL A   1      41.304  28.854  31.923  1.00  0.00     0.074 A 
ATOM     39  C   UNL A   1      39.493  29.986  30.678  1.00  0.00     0.049 A 
ATOM     40  N   UNL A   1      41.311  29.551  33.031  1.00  0.00    -0.248 NA
ATOM     41  C   UNL A   1      42.265  27.739  31.911  1.00  0.00     0.031 C 
ATOM     42  C   UNL A   1      38.556  30.221  29.575  1.00  0.00     0.029 A 
ATOM     43  N   UNL A   1      39.158  30.940  31.604  1.00  0.00    -0.354 N 
ATOM     44  C   UNL A   1      42.275  28.966  33.843  1.00  0.00     0.074 A 
ATOM     45  C   UNL A   1      42.791  27.820  33.126  1.00  0.00     0.031 C 
ATOM     46  C   UNL A   1      37.778  31.273  29.874  1.00  0.00     0.029 A 
ATOM     47  C   UNL A   1      38.137  31.768  31.199  1.00  0.00     0.049 A 
ATOM     48  H   UNL A   1      39.605  31.025  32.477  1.00  0.00     0.167 HD
ATOM     49  C   UNL A   1      42.712  29.361  35.063  1.00  0.00     0.031 A 
ATOM     50  C   UNL A   1      37.556  32.812  31.820  1.00  0.00     0.031 A 
ATOM     51  C   UNL A   1      42.198  30.502  35.777  1.00  0.00     0.049 A 
ATOM     52  C   UNL A   1      38.065  33.235  33.171  1.00  0.00     0.074 A 
ATOM     53  C   UNL A   1      42.600  31.005  37.002  1.00  0.00     0.029 A 
ATOM     54  N   UNL A   1      41.172  31.321  35.329  1.00  0.00    -0.354 N 
ATOM     55  N   UNL A   1      39.023  32.706  33.892  1.00  0.00    -0.248 NA
ATOM     56  C   UNL A   1      37.426  34.409  33.779  1.00  0.00     0.031 C 
ATOM     57  C   UNL A   1      41.787  32.099  37.317  1.00  0.00     0.029 A 
ATOM     58  C   UNL A   1      40.916  32.314  36.260  1.00  0.00     0.049 A 
ATOM     59  H   UNL A   1      40.696  31.212  34.474  1.00  0.00     0.167 HD
ATOM     60  C   UNL A   1      39.113  33.492  35.034  1.00  0.00     0.074 A 
ATOM     61  C   UNL A   1      38.134  34.552  34.891  1.00  0.00     0.031 C 
ATOM     62  C   UNL A   1      39.927  33.349  36.111  1.00  0.00     0.031 A 
BRANCH  49  63
ATOM     63  C   UNL A   1      43.816  28.559  35.703  1.00  0.00    -0.014 A 
ATOM     64  C   UNL A   1      43.520  27.495  36.575  1.00  0.00     0.010 A 
ATOM     65  C   UNL A   1      45.160  28.830  35.386  1.00  0.00     0.010 A 
ATOM     66  C   UNL A   1      44.547  26.736  37.141  1.00  0.00     0.020 A 
ATOM     67  C   UNL A   1      46.190  28.055  35.930  1.00  0.00     0.020 A 
ATOM     68  C   UNL A   1      45.876  27.021  36.815  1.00  0.00     0.054 A 
BRANCH  68  69
ATOM     69  S   UNL A   1      47.185  25.990  37.532  1.00  0.00     0.124 S 
ATOM     70  O   UNL A   1      46.479  24.736  37.780  1.00  0.00    -0.237 OA
ATOM     71  O   UNL A   1      48.182  25.950  36.465  1.00  0.00    -0.237 OA
ATOM     72  O   UNL A   1      47.589  26.724  38.730  1.00  0.00    -0.744 OA
ENDBRANCH  68  69
ENDBRANCH  49  63
BRANCH  50  73
ATOM     73  C   UNL A   1      36.431  33.536  31.166  1.00  0.00    -0.014 A 
ATOM     74  C   UNL A   1      35.276  33.880  31.890  1.00  0.00     0.010 A 
ATOM     75  C   UNL A   1      36.513  33.882  29.804  1.00  0.00     0.010 A 
ATOM     76  C   UNL A   1      34.211  34.529  31.257  1.00  0.00     0.020 A 
ATOM     77  C   UNL A   1      35.464  34.558  29.176  1.00  0.00     0.020 A 
ATOM     78  C   UNL A   1      34.312  34.863  29.903  1.00  0.00     0.054 A 
BRANCH  78  79
ATOM     79  S   UNL A   1      32.934  35.735  29.108  1.00  0.00     0.124 S 
ATOM     80  O   UNL A   1      32.390  34.704  28.229  1.00  0.00    -0.237 OA
ATOM     81  O   UNL A   1      32.096  36.105  30.245  1.00  0.00    -0.237 OA
ATOM     82  O   UNL A   1      33.585  36.856  28.434  1.00  0.00    -0.744 OA
ENDBRANCH  78  79
ENDBRANCH  50  73
BRANCH  62  83
ATOM     83  C   UNL A   1      39.797  34.376  37.205  1.00  0.00    -0.014 A 
ATOM     84  C   UNL A   1      40.506  35.590  37.152  1.00  0.00     0.010 A 
ATOM     85  C   UNL A   1      38.951  34.124  38.301  1.00  0.00     0.010 A 
ATOM     86  C   UNL A   1      40.415  36.508  38.201  1.00  0.00     0.020 A 
ATOM     87  C   UNL A   1      38.832  35.054  39.336  1.00  0.00     0.020 A 
ATOM     88  C   UNL A   1      39.585  36.230  39.291  1.00  0.00     0.054 A 
BRANCH  88  89
ATOM     89  S   UNL A   1      39.484  37.436  40.641  1.00  0.00     0.124 S 
ATOM     90  O   UNL A   1      39.115  36.593  41.774  1.00  0.00    -0.237 OA
ATOM     91  O   UNL A   1      40.837  37.989  40.682  1.00  0.00    -0.237 OA
ATOM     92  O   UNL A   1      38.450  38.368  40.195  1.00  0.00    -0.744 OA
ENDBRANCH  88  89
ENDBRANCH  62  83
ENDBRANCH  36  37
ENDBRANCH  28  31
ENDBRANCH  26  27
ENDBRANCH  25  26
ENDBRANCH   1  25
TORSDOF 17
ENDMDL
