MODEL 1
REMARK VINA RESULT:     -12.9      0.000      0.000
REMARK SMILES COc1ccc(-n2ccnc2C[N@@H+]2Cc3[nH]cnc3C[C@H]2C(=O)NCCCCNC(=O)c2ccc(-c3c4nc(c(-c5ccc(S(=O)(=O)[O-])cc5)c5ccc([nH]5)c(-c5ccc(S(=O)(=O)[O-])cc5)c5nc(c(-c6ccc(S(=O)(=O)[O-])cc6)c6ccc3[nH]6)C=C5)C=C4)cc2)cc1
REMARK SMILES IDX 26 1 25 2 24 3 22 4 23 5 21 7 13 8 14 9 15 11 20 12 16 13
REMARK SMILES IDX 19 14 17 15 18 17 12 18 11 19 7 20 8 21 9 22 10 23 6 24 3 25
REMARK SMILES IDX 4 26 93 27 5 28 92 29 2 30 1 31 27 32 28 33 29 34 30 35
REMARK SMILES IDX 31 37 32 38 33 39 91 40 34 41 90 42 35 43 36 44 37 45 84 46
REMARK SMILES IDX 38 47 89 48 83 49 85 50 39 51 88 52 82 53 81 54 40 56 70 57
REMARK SMILES IDX 51 58 69 59 52 60 55 61 68 62 86 63 53 64 54 65 67 67 87 68
REMARK SMILES IDX 56 69 41 70 42 71 50 72 43 73 49 74 44 75 45 76 46 77 47 78
REMARK SMILES IDX 48 79 71 80 72 81 80 82 73 83 79 84 74 85 75 86 76 87 77 88
REMARK SMILES IDX 78 89 57 90 58 91 66 92 59 93 65 94 60 95 61 96 62 97 63 98
REMARK SMILES IDX 64 99
REMARK H PARENT 24 6 13 10 16 16 29 36 85 55 55 66
REMARK Flexibility Score: inf
ROOT
ATOM      1  C   UNL A   1      36.227  22.560  23.522  1.00  0.00     0.023 C 
ENDROOT
BRANCH   1   2
ATOM      2  C   UNL A   1      34.691  22.645  23.548  1.00  0.00     0.116 C 
BRANCH   2   3
ATOM      3  N   UNL A   1      34.137  23.784  22.822  1.00  0.00    -0.351 N 
ATOM      4  C   UNL A   1      33.626  25.000  23.147  1.00  0.00     0.278 C 
ATOM      5  O   UNL A   1      33.706  25.836  22.229  1.00  0.00    -0.268 OA
ATOM      6  H   UNL A   1      34.133  23.632  21.849  1.00  0.00     0.163 HD
BRANCH   4   7
ATOM      7  C   UNL A   1      32.967  25.460  24.473  1.00  0.00     0.280 C 
ATOM      8  N   UNL A   1      31.495  25.127  24.554  1.00  0.00    -0.313 N 
ATOM      9  C   UNL A   1      31.216  23.795  25.105  1.00  0.00     0.320 C 
ATOM     10  H   UNL A   1      31.127  25.038  23.607  1.00  0.00     0.349 HD
ATOM     11  C   UNL A   1      32.263  23.298  26.021  1.00  0.00     0.093 A 
ATOM     12  C   UNL A   1      33.818  25.217  25.744  1.00  0.00     0.134 C 
ATOM     13  N   UNL A   1      32.353  22.062  26.602  1.00  0.00    -0.344 N 
ATOM     14  C   UNL A   1      33.448  23.918  26.324  1.00  0.00     0.074 A 
ATOM     15  C   UNL A   1      33.572  22.003  27.227  1.00  0.00     0.197 A 
ATOM     16  H   UNL A   1      31.673  21.352  26.577  1.00  0.00     0.167 HD
ATOM     17  N   UNL A   1      34.248  23.123  27.091  1.00  0.00    -0.241 NA
BRANCH   8  18
ATOM     18  C   UNL A   1      30.763  26.248  25.190  1.00  0.00     0.340 C 
BRANCH  18  19
ATOM     19  C   UNL A   1      30.468  27.437  24.311  1.00  0.00     0.168 A 
ATOM     20  N   UNL A   1      31.026  28.703  24.492  1.00  0.00    -0.299 N 
ATOM     21  C   UNL A   1      30.273  29.568  23.727  1.00  0.00     0.113 A 
ATOM     22  C   UNL A   1      29.405  28.781  23.013  1.00  0.00     0.132 A 
ATOM     23  N   UNL A   1      29.537  27.470  23.369  1.00  0.00    -0.236 NA
BRANCH  20  24
ATOM     24  C   UNL A   1      32.026  29.088  25.420  1.00  0.00     0.047 A 
ATOM     25  C   UNL A   1      34.044  30.034  27.091  1.00  0.00     0.119 A 
ATOM     26  C   UNL A   1      32.712  30.326  27.378  1.00  0.00     0.048 A 
ATOM     27  C   UNL A   1      34.370  29.224  26.004  1.00  0.00     0.048 A 
ATOM     28  C   UNL A   1      31.699  29.862  26.537  1.00  0.00     0.030 A 
ATOM     29  C   UNL A   1      33.361  28.735  25.172  1.00  0.00     0.030 A 
BRANCH  25  30
ATOM     30  O   UNL A   1      34.996  30.471  27.970  1.00  0.00    -0.497 OA
ATOM     31  C   UNL A   1      36.289  29.947  27.660  1.00  0.00     0.278 C 
ENDBRANCH  25  30
ENDBRANCH  20  24
ENDBRANCH  18  19
ENDBRANCH   8  18
ENDBRANCH   4   7
ENDBRANCH   2   3
ENDBRANCH   1   2
BRANCH   1  32
ATOM     32  C   UNL A   1      36.895  21.747  24.637  1.00  0.00     0.023 C 
BRANCH  32  33
ATOM     33  C   UNL A   1      37.875  22.535  25.499  1.00  0.00     0.116 C 
BRANCH  33  34
ATOM     34  N   UNL A   1      38.739  21.694  26.330  1.00  0.00    -0.352 N 
ATOM     35  C   UNL A   1      39.905  22.083  26.965  1.00  0.00     0.251 C 
ATOM     36  H   UNL A   1      38.461  20.756  26.449  1.00  0.00     0.163 HD
ATOM     37  O   UNL A   1      40.715  21.275  27.365  1.00  0.00    -0.269 OA
BRANCH  35  38
ATOM     38  C   UNL A   1      40.122  23.535  27.139  1.00  0.00     0.039 A 
ATOM     39  C   UNL A   1      39.039  24.397  27.314  1.00  0.00     0.014 A 
ATOM     40  C   UNL A   1      41.436  23.979  27.283  1.00  0.00     0.014 A 
ATOM     41  C   UNL A   1      39.284  25.696  27.754  1.00  0.00     0.010 A 
ATOM     42  C   UNL A   1      41.667  25.242  27.794  1.00  0.00     0.010 A 
ATOM     43  C   UNL A   1      40.598  26.108  28.038  1.00  0.00    -0.014 A 
BRANCH  43  44
ATOM     44  C   UNL A   1      40.823  27.382  28.729  1.00  0.00     0.031 A 
ATOM     45  C   UNL A   1      41.937  28.235  28.209  1.00  0.00     0.074 A 
ATOM     46  C   UNL A   1      39.979  27.924  29.631  1.00  0.00     0.049 A 
ATOM     47  N   UNL A   1      43.041  28.548  28.804  1.00  0.00    -0.248 NA
ATOM     48  C   UNL A   1      41.837  28.750  26.834  1.00  0.00     0.031 C 
ATOM     49  C   UNL A   1      38.660  27.439  30.047  1.00  0.00     0.029 A 
ATOM     50  N   UNL A   1      40.083  29.119  30.282  1.00  0.00    -0.354 N 
ATOM     51  C   UNL A   1      43.696  29.454  27.969  1.00  0.00     0.074 A 
ATOM     52  C   UNL A   1      42.980  29.430  26.717  1.00  0.00     0.031 C 
ATOM     53  C   UNL A   1      37.993  28.434  30.672  1.00  0.00     0.029 A 
ATOM     54  C   UNL A   1      38.899  29.554  30.858  1.00  0.00     0.049 A 
ATOM     55  H   UNL A   1      40.925  29.627  30.338  1.00  0.00     0.167 HD
ATOM     56  C   UNL A   1      44.657  30.306  28.430  1.00  0.00     0.031 A 
ATOM     57  C   UNL A   1      38.662  30.759  31.428  1.00  0.00     0.031 A 
ATOM     58  C   UNL A   1      45.080  29.974  29.765  1.00  0.00     0.049 A 
ATOM     59  C   UNL A   1      39.969  31.338  31.810  1.00  0.00     0.074 A 
ATOM     60  C   UNL A   1      45.635  28.868  30.375  1.00  0.00     0.029 A 
ATOM     61  N   UNL A   1      44.603  30.766  30.784  1.00  0.00    -0.354 N 
ATOM     62  N   UNL A   1      40.732  30.836  32.740  1.00  0.00    -0.248 NA
ATOM     63  C   UNL A   1      40.624  32.268  30.906  1.00  0.00     0.031 C 
ATOM     64  C   UNL A   1      45.034  28.821  31.668  1.00  0.00     0.029 A 
ATOM     65  C   UNL A   1      44.192  29.929  31.787  1.00  0.00     0.049 A 
ATOM     66  H   UNL A   1      44.565  31.749  30.790  1.00  0.00     0.167 HD
ATOM     67  C   UNL A   1      42.025  31.034  32.284  1.00  0.00     0.074 A 
ATOM     68  C   UNL A   1      41.900  32.032  31.227  1.00  0.00     0.031 C 
ATOM     69  C   UNL A   1      43.031  30.170  32.618  1.00  0.00     0.031 A 
BRANCH  56  70
ATOM     70  C   UNL A   1      44.967  31.662  27.836  1.00  0.00    -0.014 A 
ATOM     71  C   UNL A   1      46.304  31.972  27.500  1.00  0.00     0.010 A 
ATOM     72  C   UNL A   1      44.053  32.734  27.862  1.00  0.00     0.010 A 
ATOM     73  C   UNL A   1      46.717  33.294  27.280  1.00  0.00     0.020 A 
ATOM     74  C   UNL A   1      44.445  34.051  27.598  1.00  0.00     0.020 A 
ATOM     75  C   UNL A   1      45.784  34.327  27.349  1.00  0.00     0.054 A 
BRANCH  75  76
ATOM     76  S   UNL A   1      46.345  36.041  27.186  1.00  0.00     0.124 S 
ATOM     77  O   UNL A   1      46.813  36.073  25.805  1.00  0.00    -0.237 OA
ATOM     78  O   UNL A   1      45.124  36.796  27.460  1.00  0.00    -0.237 OA
ATOM     79  O   UNL A   1      47.384  36.157  28.206  1.00  0.00    -0.744 OA
ENDBRANCH  75  76
ENDBRANCH  56  70
BRANCH  57  80
ATOM     80  C   UNL A   1      37.398  31.531  31.454  1.00  0.00    -0.014 A 
ATOM     81  C   UNL A   1      36.558  31.495  32.580  1.00  0.00     0.010 A 
ATOM     82  C   UNL A   1      37.159  32.526  30.484  1.00  0.00     0.010 A 
ATOM     83  C   UNL A   1      35.566  32.470  32.769  1.00  0.00     0.020 A 
ATOM     84  C   UNL A   1      36.165  33.494  30.659  1.00  0.00     0.020 A 
ATOM     85  C   UNL A   1      35.393  33.479  31.819  1.00  0.00     0.054 A 
BRANCH  85  86
ATOM     86  S   UNL A   1      34.261  34.854  32.176  1.00  0.00     0.124 S 
ATOM     87  O   UNL A   1      33.209  34.198  32.948  1.00  0.00    -0.237 OA
ATOM     88  O   UNL A   1      35.110  35.778  32.923  1.00  0.00    -0.237 OA
ATOM     89  O   UNL A   1      33.859  35.322  30.851  1.00  0.00    -0.744 OA
ENDBRANCH  85  86
ENDBRANCH  57  80
BRANCH  69  90
ATOM     90  C   UNL A   1      42.813  29.219  33.772  1.00  0.00    -0.014 A 
ATOM     91  C   UNL A   1      42.877  29.597  35.128  1.00  0.00     0.010 A 
ATOM     92  C   UNL A   1      42.408  27.907  33.464  1.00  0.00     0.010 A 
ATOM     93  C   UNL A   1      42.593  28.674  36.145  1.00  0.00     0.020 A 
ATOM     94  C   UNL A   1      42.101  26.989  34.472  1.00  0.00     0.020 A 
ATOM     95  C   UNL A   1      42.211  27.372  35.808  1.00  0.00     0.054 A 
BRANCH  95  96
ATOM     96  S   UNL A   1      41.823  26.188  37.127  1.00  0.00     0.124 S 
ATOM     97  O   UNL A   1      41.773  24.917  36.409  1.00  0.00    -0.237 OA
ATOM     98  O   UNL A   1      42.947  26.346  38.047  1.00  0.00    -0.237 OA
ATOM     99  O   UNL A   1      40.539  26.654  37.649  1.00  0.00    -0.744 OA
ENDBRANCH  95  96
ENDBRANCH  69  90
ENDBRANCH  43  44
ENDBRANCH  35  38
ENDBRANCH  33  34
ENDBRANCH  32  33
ENDBRANCH   1  32
TORSDOF 18
ENDMDL
MODEL 2
REMARK VINA RESULT:     -12.9      2.715      9.381
REMARK SMILES COc1ccc(-n2ccnc2C[N@@H+]2Cc3[nH]cnc3C[C@H]2C(=O)NCCCCNC(=O)c2ccc(-c3c4nc(c(-c5ccc(S(=O)(=O)[O-])cc5)c5ccc([nH]5)c(-c5ccc(S(=O)(=O)[O-])cc5)c5nc(c(-c6ccc(S(=O)(=O)[O-])cc6)c6ccc3[nH]6)C=C5)C=C4)cc2)cc1
REMARK SMILES IDX 26 1 25 2 24 3 22 4 23 5 21 7 13 8 14 9 15 11 20 12 16 13
REMARK SMILES IDX 19 14 17 15 18 17 12 18 11 19 7 20 8 21 9 22 10 23 6 24 3 25
REMARK SMILES IDX 4 26 93 27 5 28 92 29 2 30 1 31 27 32 28 33 29 34 30 35
REMARK SMILES IDX 31 37 32 38 33 39 91 40 34 41 90 42 35 43 36 44 37 45 84 46
REMARK SMILES IDX 38 47 89 48 83 49 85 50 39 51 88 52 82 53 81 54 40 56 70 57
REMARK SMILES IDX 51 58 69 59 52 60 55 61 68 62 86 63 53 64 54 65 67 67 87 68
REMARK SMILES IDX 56 69 41 70 42 71 50 72 43 73 49 74 44 75 45 76 46 77 47 78
REMARK SMILES IDX 48 79 71 80 72 81 80 82 73 83 79 84 74 85 75 86 76 87 77 88
REMARK SMILES IDX 78 89 57 90 58 91 66 92 59 93 65 94 60 95 61 96 62 97 63 98
REMARK SMILES IDX 64 99
REMARK H PARENT 24 6 13 10 16 16 29 36 85 55 55 66
REMARK Flexibility Score: inf
ROOT
ATOM      1  C   UNL A   1      31.697  28.211  27.396  1.00  0.00     0.023 C 
ENDROOT
BRANCH   1   2
ATOM      2  C   UNL A   1      31.083  27.335  26.290  1.00  0.00     0.116 C 
BRANCH   2   3
ATOM      3  N   UNL A   1      31.001  25.915  26.618  1.00  0.00    -0.351 N 
ATOM      4  C   UNL A   1      31.816  24.835  26.511  1.00  0.00     0.278 C 
ATOM      5  O   UNL A   1      31.555  23.930  27.323  1.00  0.00    -0.268 OA
ATOM      6  H   UNL A   1      30.133  25.682  27.021  1.00  0.00     0.163 HD
BRANCH   4   7
ATOM      7  C   UNL A   1      32.990  24.591  25.526  1.00  0.00     0.280 C 
ATOM      8  N   UNL A   1      32.547  24.010  24.204  1.00  0.00    -0.313 N 
ATOM      9  C   UNL A   1      32.176  25.020  23.204  1.00  0.00     0.320 C 
ATOM     10  H   UNL A   1      31.663  23.522  24.341  1.00  0.00     0.349 HD
ATOM     11  C   UNL A   1      32.855  26.319  23.390  1.00  0.00     0.093 A 
ATOM     12  C   UNL A   1      34.052  25.718  25.484  1.00  0.00     0.134 C 
ATOM     13  N   UNL A   1      32.642  27.483  22.704  1.00  0.00    -0.344 N 
ATOM     14  C   UNL A   1      33.703  26.662  24.412  1.00  0.00     0.074 A 
ATOM     15  C   UNL A   1      33.373  28.457  23.334  1.00  0.00     0.197 A 
ATOM     16  H   UNL A   1      32.075  27.599  21.908  1.00  0.00     0.167 HD
ATOM     17  N   UNL A   1      34.041  27.981  24.362  1.00  0.00    -0.241 NA
BRANCH   8  18
ATOM     18  C   UNL A   1      33.527  22.993  23.752  1.00  0.00     0.340 C 
BRANCH  18  19
ATOM     19  C   UNL A   1      33.289  21.580  24.223  1.00  0.00     0.168 A 
ATOM     20  N   UNL A   1      34.264  20.776  24.812  1.00  0.00    -0.299 N 
ATOM     21  C   UNL A   1      33.767  19.490  24.788  1.00  0.00     0.113 A 
ATOM     22  C   UNL A   1      32.476  19.593  24.333  1.00  0.00     0.132 A 
ATOM     23  N   UNL A   1      32.185  20.883  23.998  1.00  0.00    -0.236 NA
BRANCH  20  24
ATOM     24  C   UNL A   1      35.584  21.138  25.180  1.00  0.00     0.047 A 
ATOM     25  C   UNL A   1      38.211  21.923  25.668  1.00  0.00     0.119 A 
ATOM     26  C   UNL A   1      37.159  22.760  26.032  1.00  0.00     0.048 A 
ATOM     27  C   UNL A   1      37.956  20.670  25.112  1.00  0.00     0.048 A 
ATOM     28  C   UNL A   1      35.841  22.374  25.780  1.00  0.00     0.030 A 
ATOM     29  C   UNL A   1      36.641  20.266  24.879  1.00  0.00     0.030 A 
BRANCH  25  30
ATOM     30  O   UNL A   1      39.482  22.324  25.978  1.00  0.00    -0.497 OA
ATOM     31  C   UNL A   1      40.277  21.244  26.470  1.00  0.00     0.278 C 
ENDBRANCH  25  30
ENDBRANCH  20  24
ENDBRANCH  18  19
ENDBRANCH   8  18
ENDBRANCH   4   7
ENDBRANCH   2   3
ENDBRANCH   1   2
BRANCH   1  32
ATOM     32  C   UNL A   1      32.184  29.606  26.986  1.00  0.00     0.023 C 
BRANCH  32  33
ATOM     33  C   UNL A   1      33.524  30.013  27.587  1.00  0.00     0.116 C 
BRANCH  33  34
ATOM     34  N   UNL A   1      33.917  31.389  27.275  1.00  0.00    -0.352 N 
ATOM     35  C   UNL A   1      35.043  32.050  27.734  1.00  0.00     0.251 C 
ATOM     36  H   UNL A   1      33.319  31.895  26.677  1.00  0.00     0.163 HD
ATOM     37  O   UNL A   1      35.137  33.257  27.692  1.00  0.00    -0.269 OA
BRANCH  35  38
ATOM     38  C   UNL A   1      36.134  31.216  28.281  1.00  0.00     0.039 A 
ATOM     39  C   UNL A   1      36.477  30.009  27.671  1.00  0.00     0.014 A 
ATOM     40  C   UNL A   1      36.902  31.752  29.314  1.00  0.00     0.014 A 
ATOM     41  C   UNL A   1      37.675  29.394  28.031  1.00  0.00     0.010 A 
ATOM     42  C   UNL A   1      38.125  31.181  29.610  1.00  0.00     0.010 A 
ATOM     43  C   UNL A   1      38.524  30.004  28.970  1.00  0.00    -0.014 A 
BRANCH  43  44
ATOM     44  C   UNL A   1      39.884  29.486  29.160  1.00  0.00     0.031 A 
ATOM     45  C   UNL A   1      40.293  29.189  30.568  1.00  0.00     0.074 A 
ATOM     46  C   UNL A   1      40.687  29.060  28.164  1.00  0.00     0.049 A 
ATOM     47  N   UNL A   1      41.201  29.782  31.272  1.00  0.00    -0.248 NA
ATOM     48  C   UNL A   1      39.561  28.145  31.302  1.00  0.00     0.031 C 
ATOM     49  C   UNL A   1      40.377  28.935  26.737  1.00  0.00     0.029 A 
ATOM     50  N   UNL A   1      41.938  28.521  28.251  1.00  0.00    -0.354 N 
ATOM     51  C   UNL A   1      41.297  29.074  32.470  1.00  0.00     0.074 A 
ATOM     52  C   UNL A   1      40.172  28.170  32.489  1.00  0.00     0.031 C 
ATOM     53  C   UNL A   1      41.296  28.141  26.146  1.00  0.00     0.029 A 
ATOM     54  C   UNL A   1      42.349  27.857  27.105  1.00  0.00     0.049 A 
ATOM     55  H   UNL A   1      42.499  28.598  29.057  1.00  0.00     0.167 HD
ATOM     56  C   UNL A   1      42.403  29.136  33.267  1.00  0.00     0.031 A 
ATOM     57  C   UNL A   1      43.462  27.101  26.953  1.00  0.00     0.031 A 
ATOM     58  C   UNL A   1      43.298  30.191  32.869  1.00  0.00     0.049 A 
ATOM     59  C   UNL A   1      44.424  27.506  28.002  1.00  0.00     0.074 A 
ATOM     60  C   UNL A   1      43.205  31.561  32.729  1.00  0.00     0.029 A 
ATOM     61  N   UNL A   1      44.432  29.819  32.186  1.00  0.00    -0.354 N 
ATOM     62  N   UNL A   1      44.994  28.678  28.039  1.00  0.00    -0.248 NA
ATOM     63  C   UNL A   1      44.483  26.749  29.241  1.00  0.00     0.031 C 
ATOM     64  C   UNL A   1      43.995  31.867  31.582  1.00  0.00     0.029 A 
ATOM     65  C   UNL A   1      44.565  30.676  31.126  1.00  0.00     0.049 A 
ATOM     66  H   UNL A   1      45.035  29.076  32.417  1.00  0.00     0.167 HD
ATOM     67  C   UNL A   1      45.091  28.984  29.387  1.00  0.00     0.074 A 
ATOM     68  C   UNL A   1      44.888  27.712  30.074  1.00  0.00     0.031 C 
ATOM     69  C   UNL A   1      45.052  30.280  29.821  1.00  0.00     0.031 A 
BRANCH  56  70
ATOM     70  C   UNL A   1      42.873  28.028  34.183  1.00  0.00    -0.014 A 
ATOM     71  C   UNL A   1      43.236  28.346  35.511  1.00  0.00     0.010 A 
ATOM     72  C   UNL A   1      43.240  26.752  33.711  1.00  0.00     0.010 A 
ATOM     73  C   UNL A   1      43.995  27.464  36.294  1.00  0.00     0.020 A 
ATOM     74  C   UNL A   1      43.956  25.846  34.500  1.00  0.00     0.020 A 
ATOM     75  C   UNL A   1      44.364  26.225  35.773  1.00  0.00     0.054 A 
BRANCH  75  76
ATOM     76  S   UNL A   1      45.446  25.142  36.742  1.00  0.00     0.124 S 
ATOM     77  O   UNL A   1      44.482  24.401  37.549  1.00  0.00    -0.237 OA
ATOM     78  O   UNL A   1      46.129  24.374  35.704  1.00  0.00    -0.237 OA
ATOM     79  O   UNL A   1      46.294  26.078  37.477  1.00  0.00    -0.744 OA
ENDBRANCH  75  76
ENDBRANCH  56  70
BRANCH  57  80
ATOM     80  C   UNL A   1      43.650  25.903  26.104  1.00  0.00    -0.014 A 
ATOM     81  C   UNL A   1      44.897  25.630  25.514  1.00  0.00     0.010 A 
ATOM     82  C   UNL A   1      42.682  24.878  26.105  1.00  0.00     0.010 A 
ATOM     83  C   UNL A   1      45.193  24.351  25.017  1.00  0.00     0.020 A 
ATOM     84  C   UNL A   1      42.966  23.604  25.600  1.00  0.00     0.020 A 
ATOM     85  C   UNL A   1      44.233  23.339  25.087  1.00  0.00     0.054 A 
BRANCH  85  86
ATOM     86  S   UNL A   1      44.697  21.640  24.642  1.00  0.00     0.124 S 
ATOM     87  O   UNL A   1      46.038  21.525  25.209  1.00  0.00    -0.237 OA
ATOM     88  O   UNL A   1      43.663  20.846  25.300  1.00  0.00    -0.237 OA
ATOM     89  O   UNL A   1      44.637  21.638  23.181  1.00  0.00    -0.744 OA
ENDBRANCH  85  86
ENDBRANCH  57  80
BRANCH  69  90
ATOM     90  C   UNL A   1      45.272  31.386  28.814  1.00  0.00    -0.014 A 
ATOM     91  C   UNL A   1      46.541  31.872  28.444  1.00  0.00     0.010 A 
ATOM     92  C   UNL A   1      44.145  31.873  28.127  1.00  0.00     0.010 A 
ATOM     93  C   UNL A   1      46.672  32.853  27.450  1.00  0.00     0.020 A 
ATOM     94  C   UNL A   1      44.270  32.833  27.120  1.00  0.00     0.020 A 
ATOM     95  C   UNL A   1      45.532  33.330  26.797  1.00  0.00     0.054 A 
BRANCH  95  96
ATOM     96  S   UNL A   1      45.709  34.583  25.497  1.00  0.00     0.124 S 
ATOM     97  O   UNL A   1      47.138  34.530  25.198  1.00  0.00    -0.237 OA
ATOM     98  O   UNL A   1      44.828  34.085  24.442  1.00  0.00    -0.237 OA
ATOM     99  O   UNL A   1      45.257  35.817  26.137  1.00  0.00    -0.744 OA
ENDBRANCH  95  96
ENDBRANCH  69  90
ENDBRANCH  43  44
ENDBRANCH  35  38
ENDBRANCH  33  34
ENDBRANCH  32  33
ENDBRANCH   1  32
TORSDOF 18
ENDMDL
MODEL 3
REMARK VINA RESULT:     -12.5      1.775      2.720
REMARK SMILES COc1ccc(-n2ccnc2C[N@@H+]2Cc3[nH]cnc3C[C@H]2C(=O)NCCCCNC(=O)c2ccc(-c3c4nc(c(-c5ccc(S(=O)(=O)[O-])cc5)c5ccc([nH]5)c(-c5ccc(S(=O)(=O)[O-])cc5)c5nc(c(-c6ccc(S(=O)(=O)[O-])cc6)c6ccc3[nH]6)C=C5)C=C4)cc2)cc1
REMARK SMILES IDX 26 1 25 2 24 3 22 4 23 5 21 7 13 8 14 9 15 11 20 12 16 13
REMARK SMILES IDX 19 14 17 15 18 17 12 18 11 19 7 20 8 21 9 22 10 23 6 24 3 25
REMARK SMILES IDX 4 26 93 27 5 28 92 29 2 30 1 31 27 32 28 33 29 34 30 35
REMARK SMILES IDX 31 37 32 38 33 39 91 40 34 41 90 42 35 43 36 44 37 45 84 46
REMARK SMILES IDX 38 47 89 48 83 49 85 50 39 51 88 52 82 53 81 54 40 56 70 57
REMARK SMILES IDX 51 58 69 59 52 60 55 61 68 62 86 63 53 64 54 65 67 67 87 68
REMARK SMILES IDX 56 69 41 70 42 71 50 72 43 73 49 74 44 75 45 76 46 77 47 78
REMARK SMILES IDX 48 79 71 80 72 81 80 82 73 83 79 84 74 85 75 86 76 87 77 88
REMARK SMILES IDX 78 89 57 90 58 91 66 92 59 93 65 94 60 95 61 96 62 97 63 98
REMARK SMILES IDX 64 99
REMARK H PARENT 24 6 13 10 16 16 29 36 85 55 55 66
REMARK Flexibility Score: inf
ROOT
ATOM      1  C   UNL A   1      38.072  22.318  25.606  1.00  0.00     0.023 C 
ENDROOT
BRANCH   1   2
ATOM      2  C   UNL A   1      37.321  21.156  24.932  1.00  0.00     0.116 C 
BRANCH   2   3
ATOM      3  N   UNL A   1      36.032  20.836  25.538  1.00  0.00    -0.351 N 
ATOM      4  C   UNL A   1      34.798  21.402  25.576  1.00  0.00     0.278 C 
ATOM      5  O   UNL A   1      33.883  20.590  25.797  1.00  0.00    -0.268 OA
ATOM      6  H   UNL A   1      36.066  19.996  26.049  1.00  0.00     0.163 HD
BRANCH   4   7
ATOM      7  C   UNL A   1      34.400  22.891  25.394  1.00  0.00     0.280 C 
ATOM      8  N   UNL A   1      33.796  23.184  24.041  1.00  0.00    -0.313 N 
ATOM      9  C   UNL A   1      32.341  22.991  23.984  1.00  0.00     0.320 C 
ATOM     10  H   UNL A   1      34.122  22.482  23.377  1.00  0.00     0.349 HD
ATOM     11  C   UNL A   1      31.666  23.170  25.286  1.00  0.00     0.093 A 
ATOM     12  C   UNL A   1      33.725  23.542  26.627  1.00  0.00     0.134 C 
ATOM     13  N   UNL A   1      30.350  22.950  25.586  1.00  0.00    -0.344 N 
ATOM     14  C   UNL A   1      32.267  23.415  26.494  1.00  0.00     0.074 A 
ATOM     15  C   UNL A   1      30.222  23.081  26.945  1.00  0.00     0.197 A 
ATOM     16  H   UNL A   1      29.630  22.739  24.948  1.00  0.00     0.167 HD
ATOM     17  N   UNL A   1      31.367  23.383  27.517  1.00  0.00    -0.241 NA
BRANCH   8  18
ATOM     18  C   UNL A   1      34.286  24.493  23.547  1.00  0.00     0.340 C 
BRANCH  18  19
ATOM     19  C   UNL A   1      33.483  25.135  22.444  1.00  0.00     0.168 A 
ATOM     20  N   UNL A   1      32.653  26.242  22.621  1.00  0.00    -0.299 N 
ATOM     21  C   UNL A   1      31.860  26.311  21.495  1.00  0.00     0.113 A 
ATOM     22  C   UNL A   1      32.339  25.354  20.637  1.00  0.00     0.132 A 
ATOM     23  N   UNL A   1      33.345  24.641  21.222  1.00  0.00    -0.236 NA
BRANCH  20  24
ATOM     24  C   UNL A   1      32.488  27.028  23.789  1.00  0.00     0.047 A 
ATOM     25  C   UNL A   1      32.022  28.724  25.948  1.00  0.00     0.119 A 
ATOM     26  C   UNL A   1      31.297  27.540  25.827  1.00  0.00     0.048 A 
ATOM     27  C   UNL A   1      33.019  29.038  25.025  1.00  0.00     0.048 A 
ATOM     28  C   UNL A   1      31.521  26.693  24.740  1.00  0.00     0.030 A 
ATOM     29  C   UNL A   1      33.266  28.184  23.950  1.00  0.00     0.030 A 
BRANCH  25  30
ATOM     30  O   UNL A   1      31.800  29.498  27.054  1.00  0.00    -0.497 OA
ATOM     31  C   UNL A   1      31.919  30.891  26.763  1.00  0.00     0.278 C 
ENDBRANCH  25  30
ENDBRANCH  20  24
ENDBRANCH  18  19
ENDBRANCH   8  18
ENDBRANCH   4   7
ENDBRANCH   2   3
ENDBRANCH   1   2
BRANCH   1  32
ATOM     32  C   UNL A   1      39.246  21.947  26.518  1.00  0.00     0.023 C 
BRANCH  32  33
ATOM     33  C   UNL A   1      40.417  22.922  26.474  1.00  0.00     0.116 C 
BRANCH  33  34
ATOM     34  N   UNL A   1      41.584  22.409  25.752  1.00  0.00    -0.352 N 
ATOM     35  C   UNL A   1      42.665  23.147  25.299  1.00  0.00     0.251 C 
ATOM     36  H   UNL A   1      41.602  21.441  25.570  1.00  0.00     0.163 HD
ATOM     37  O   UNL A   1      43.421  22.721  24.455  1.00  0.00    -0.269 OA
BRANCH  35  38
ATOM     38  C   UNL A   1      42.859  24.486  25.895  1.00  0.00     0.039 A 
ATOM     39  C   UNL A   1      42.265  25.610  25.320  1.00  0.00     0.014 A 
ATOM     40  C   UNL A   1      43.512  24.558  27.125  1.00  0.00     0.014 A 
ATOM     41  C   UNL A   1      42.231  26.796  26.052  1.00  0.00     0.010 A 
ATOM     42  C   UNL A   1      43.405  25.712  27.877  1.00  0.00     0.010 A 
ATOM     43  C   UNL A   1      42.762  26.836  27.353  1.00  0.00    -0.014 A 
BRANCH  43  44
ATOM     44  C   UNL A   1      42.504  28.002  28.205  1.00  0.00     0.031 A 
ATOM     45  C   UNL A   1      43.538  29.084  28.183  1.00  0.00     0.074 A 
ATOM     46  C   UNL A   1      41.329  28.262  28.814  1.00  0.00     0.049 A 
ATOM     47  N   UNL A   1      44.312  29.461  29.147  1.00  0.00    -0.248 NA
ATOM     48  C   UNL A   1      43.781  29.791  26.916  1.00  0.00     0.031 C 
ATOM     49  C   UNL A   1      40.067  27.524  28.704  1.00  0.00     0.029 A 
ATOM     50  N   UNL A   1      40.986  29.339  29.578  1.00  0.00    -0.354 N 
ATOM     51  C   UNL A   1      45.009  30.575  28.682  1.00  0.00     0.074 A 
ATOM     52  C   UNL A   1      44.747  30.645  27.265  1.00  0.00     0.031 C 
ATOM     53  C   UNL A   1      39.056  28.296  29.161  1.00  0.00     0.029 A 
ATOM     54  C   UNL A   1      39.620  29.494  29.757  1.00  0.00     0.049 A 
ATOM     55  H   UNL A   1      41.651  29.952  29.969  1.00  0.00     0.167 HD
ATOM     56  C   UNL A   1      45.589  31.478  29.526  1.00  0.00     0.031 A 
ATOM     57  C   UNL A   1      38.984  30.544  30.330  1.00  0.00     0.031 A 
ATOM     58  C   UNL A   1      45.622  31.004  30.885  1.00  0.00     0.049 A 
ATOM     59  C   UNL A   1      39.963  31.243  31.191  1.00  0.00     0.074 A 
ATOM     60  C   UNL A   1      46.158  29.909  31.533  1.00  0.00     0.029 A 
ATOM     61  N   UNL A   1      44.702  31.542  31.753  1.00  0.00    -0.354 N 
ATOM     62  N   UNL A   1      40.474  30.719  32.270  1.00  0.00    -0.248 NA
ATOM     63  C   UNL A   1      40.678  32.393  30.662  1.00  0.00     0.031 C 
ATOM     64  C   UNL A   1      45.199  29.568  32.532  1.00  0.00     0.029 A 
ATOM     65  C   UNL A   1      44.165  30.504  32.468  1.00  0.00     0.049 A 
ATOM     66  H   UNL A   1      44.473  32.495  31.845  1.00  0.00     0.167 HD
ATOM     67  C   UNL A   1      41.781  31.179  32.304  1.00  0.00     0.074 A 
ATOM     68  C   UNL A   1      41.806  32.302  31.374  1.00  0.00     0.031 C 
ATOM     69  C   UNL A   1      42.776  30.433  32.873  1.00  0.00     0.031 A 
BRANCH  56  70
ATOM     70  C   UNL A   1      45.802  32.942  29.213  1.00  0.00    -0.014 A 
ATOM     71  C   UNL A   1      44.675  33.777  29.046  1.00  0.00     0.010 A 
ATOM     72  C   UNL A   1      47.045  33.461  28.798  1.00  0.00     0.010 A 
ATOM     73  C   UNL A   1      44.776  35.030  28.425  1.00  0.00     0.020 A 
ATOM     74  C   UNL A   1      47.164  34.729  28.220  1.00  0.00     0.020 A 
ATOM     75  C   UNL A   1      46.022  35.488  28.001  1.00  0.00     0.054 A 
BRANCH  75  76
ATOM     76  S   UNL A   1      46.130  37.051  27.090  1.00  0.00     0.124 S 
ATOM     77  O   UNL A   1      46.964  37.857  27.976  1.00  0.00    -0.237 OA
ATOM     78  O   UNL A   1      46.752  36.638  25.835  1.00  0.00    -0.237 OA
ATOM     79  O   UNL A   1      44.737  37.476  26.978  1.00  0.00    -0.744 OA
ENDBRANCH  75  76
ENDBRANCH  56  70
BRANCH  57  80
ATOM     80  C   UNL A   1      37.654  31.103  30.001  1.00  0.00    -0.014 A 
ATOM     81  C   UNL A   1      36.719  31.377  31.014  1.00  0.00     0.010 A 
ATOM     82  C   UNL A   1      37.409  31.634  28.717  1.00  0.00     0.010 A 
ATOM     83  C   UNL A   1      35.622  32.218  30.774  1.00  0.00     0.020 A 
ATOM     84  C   UNL A   1      36.311  32.464  28.466  1.00  0.00     0.020 A 
ATOM     85  C   UNL A   1      35.440  32.778  29.506  1.00  0.00     0.054 A 
BRANCH  85  86
ATOM     86  S   UNL A   1      34.148  34.031  29.264  1.00  0.00     0.124 S 
ATOM     87  O   UNL A   1      33.642  34.223  30.621  1.00  0.00    -0.237 OA
ATOM     88  O   UNL A   1      34.896  35.153  28.704  1.00  0.00    -0.237 OA
ATOM     89  O   UNL A   1      33.215  33.390  28.339  1.00  0.00    -0.744 OA
ENDBRANCH  85  86
ENDBRANCH  57  80
BRANCH  69  90
ATOM     90  C   UNL A   1      42.392  29.287  33.781  1.00  0.00    -0.014 A 
ATOM     91  C   UNL A   1      41.881  28.057  33.323  1.00  0.00     0.010 A 
ATOM     92  C   UNL A   1      42.672  29.424  35.153  1.00  0.00     0.010 A 
ATOM     93  C   UNL A   1      41.612  27.013  34.220  1.00  0.00     0.020 A 
ATOM     94  C   UNL A   1      42.429  28.380  36.049  1.00  0.00     0.020 A 
ATOM     95  C   UNL A   1      41.884  27.184  35.580  1.00  0.00     0.054 A 
BRANCH  95  96
ATOM     96  S   UNL A   1      41.556  25.823  36.733  1.00  0.00     0.124 S 
ATOM     97  O   UNL A   1      40.409  26.318  37.490  1.00  0.00    -0.237 OA
ATOM     98  O   UNL A   1      41.281  24.699  35.841  1.00  0.00    -0.237 OA
ATOM     99  O   UNL A   1      42.797  25.705  37.498  1.00  0.00    -0.744 OA
ENDBRANCH  95  96
ENDBRANCH  69  90
ENDBRANCH  43  44
ENDBRANCH  35  38
ENDBRANCH  33  34
ENDBRANCH  32  33
ENDBRANCH   1  32
TORSDOF 18
ENDMDL
