MODEL 1
REMARK VINA RESULT:     -10.5      0.000      0.000
REMARK SMILES CCc1cc(C[NH+]2CCC(CC(=O)NCCCCNC(=O)c3ccc(-c4c5nc(c(-c6ccc(S(=O)(=O)[O-])cc6)c6ccc([nH]6)c(-c6ccc(S(=O)(=O)[O-])cc6)c6nc(c(-c7ccc(S(=O)(=O)[O-])cc7)c7ccc4[nH]7)C=C6)C=C5)cc3)CC2)n(C)n1
REMARK SMILES IDX 16 1 15 2 14 3 12 4 13 5 11 7 10 8 7 9 8 10 83 11 9 13 82 14
REMARK SMILES IDX 6 15 5 16 3 17 4 18 86 19 84 20 85 21 2 22 1 23 17 24 18 25
REMARK SMILES IDX 19 26 20 27 21 29 22 30 23 31 81 32 24 33 80 34 25 35 26 36
REMARK SMILES IDX 27 37 74 38 28 39 79 40 73 41 75 42 29 43 78 44 72 45 71 46
REMARK SMILES IDX 30 48 60 49 41 50 59 51 42 52 45 53 58 54 76 55 43 56 44 57
REMARK SMILES IDX 57 59 77 60 46 61 31 62 32 63 40 64 33 65 39 66 34 67 35 68
REMARK SMILES IDX 36 69 37 70 38 71 61 72 62 73 70 74 63 75 69 76 64 77 65 78
REMARK SMILES IDX 66 79 67 80 68 81 47 82 48 83 56 84 49 85 55 86 50 87 51 88
REMARK SMILES IDX 52 89 53 90 54 91
REMARK H PARENT 14 6 7 12 19 28 75 47 45 58
REMARK Flexibility Score: inf
ROOT
ATOM      1  C   UNL A   1      35.757  21.657  25.901  1.00  0.00     0.023 C 
ENDROOT
BRANCH   1   2
ATOM      2  C   UNL A   1      35.488  20.455  24.984  1.00  0.00     0.116 C 
BRANCH   2   3
ATOM      3  N   UNL A   1      34.180  19.859  25.222  1.00  0.00    -0.356 N 
ATOM      4  C   UNL A   1      32.936  20.214  24.778  1.00  0.00     0.220 C 
ATOM      5  O   UNL A   1      31.973  19.538  25.147  1.00  0.00    -0.275 OA
ATOM      6  H   UNL A   1      34.194  19.064  25.802  1.00  0.00     0.163 HD
BRANCH   4   7
ATOM      7  C   UNL A   1      32.724  21.422  23.869  1.00  0.00     0.104 C 
BRANCH   7   8
ATOM      8  C   UNL A   1      31.703  22.431  24.434  1.00  0.00     0.009 C 
ATOM      9  N   UNL A   1      31.319  25.197  25.409  1.00  0.00    -0.330 N 
ATOM     10  C   UNL A   1      31.422  24.098  26.366  1.00  0.00     0.262 C 
ATOM     11  C   UNL A   1      30.653  24.741  24.183  1.00  0.00     0.262 C 
ATOM     12  H   UNL A   1      32.256  25.494  25.137  1.00  0.00     0.348 HD
ATOM     13  C   UNL A   1      32.181  22.933  25.784  1.00  0.00     0.066 C 
ATOM     14  C   UNL A   1      31.466  23.624  23.499  1.00  0.00     0.066 C 
BRANCH   9  15
ATOM     15  C   UNL A   1      30.707  26.396  26.017  1.00  0.00     0.319 C 
BRANCH  15  16
ATOM     16  C   UNL A   1      31.621  27.576  26.065  1.00  0.00     0.093 A 
ATOM     17  C   UNL A   1      33.337  28.923  26.476  1.00  0.00     0.063 A 
ATOM     18  C   UNL A   1      32.477  27.978  27.072  1.00  0.00     0.055 A 
ATOM     19  N   UNL A   1      32.947  29.220  25.233  1.00  0.00    -0.178 NA
ATOM     20  N   UNL A   1      31.891  28.413  25.007  1.00  0.00    -0.267 N 
ATOM     21  C   UNL A   1      31.311  28.444  23.683  1.00  0.00     0.174 C 
BRANCH  17  22
ATOM     22  C   UNL A   1      34.605  29.462  27.047  1.00  0.00     0.055 C 
ATOM     23  C   UNL A   1      34.459  30.801  27.750  1.00  0.00     0.011 C 
ENDBRANCH  17  22
ENDBRANCH  15  16
ENDBRANCH   9  15
ENDBRANCH   7   8
ENDBRANCH   4   7
ENDBRANCH   2   3
ENDBRANCH   1   2
BRANCH   1  24
ATOM     24  C   UNL A   1      35.754  23.019  25.236  1.00  0.00     0.023 C 
BRANCH  24  25
ATOM     25  C   UNL A   1      37.125  23.646  25.105  1.00  0.00     0.116 C 
BRANCH  25  26
ATOM     26  N   UNL A   1      38.221  22.731  25.404  1.00  0.00    -0.352 N 
ATOM     27  C   UNL A   1      39.352  22.977  26.152  1.00  0.00     0.251 C 
ATOM     28  H   UNL A   1      38.143  21.825  25.025  1.00  0.00     0.163 HD
ATOM     29  O   UNL A   1      40.235  22.138  26.255  1.00  0.00    -0.269 OA
BRANCH  27  30
ATOM     30  C   UNL A   1      39.488  24.307  26.782  1.00  0.00     0.039 A 
ATOM     31  C   UNL A   1      39.002  24.499  28.077  1.00  0.00     0.014 A 
ATOM     32  C   UNL A   1      40.223  25.304  26.139  1.00  0.00     0.014 A 
ATOM     33  C   UNL A   1      39.336  25.668  28.764  1.00  0.00     0.010 A 
ATOM     34  C   UNL A   1      40.647  26.407  26.863  1.00  0.00     0.010 A 
ATOM     35  C   UNL A   1      40.204  26.605  28.180  1.00  0.00    -0.014 A 
BRANCH  35  36
ATOM     36  C   UNL A   1      40.643  27.829  28.897  1.00  0.00     0.031 A 
ATOM     37  C   UNL A   1      41.993  27.837  29.563  1.00  0.00     0.074 A 
ATOM     38  C   UNL A   1      39.808  28.877  29.032  1.00  0.00     0.049 A 
ATOM     39  N   UNL A   1      42.506  28.719  30.380  1.00  0.00    -0.248 NA
ATOM     40  C   UNL A   1      42.862  26.673  29.313  1.00  0.00     0.031 C 
ATOM     41  C   UNL A   1      38.452  28.971  28.481  1.00  0.00     0.029 A 
ATOM     42  N   UNL A   1      39.974  30.068  29.695  1.00  0.00    -0.354 N 
ATOM     43  C   UNL A   1      43.734  28.199  30.767  1.00  0.00     0.074 A 
ATOM     44  C   UNL A   1      43.865  26.901  30.146  1.00  0.00     0.031 C 
ATOM     45  C   UNL A   1      37.922  30.161  28.812  1.00  0.00     0.029 A 
ATOM     46  C   UNL A   1      38.880  30.898  29.627  1.00  0.00     0.049 A 
ATOM     47  H   UNL A   1      40.800  30.305  30.176  1.00  0.00     0.167 HD
ATOM     48  C   UNL A   1      44.686  28.764  31.545  1.00  0.00     0.031 A 
ATOM     49  C   UNL A   1      38.671  32.114  30.170  1.00  0.00     0.031 A 
ATOM     50  C   UNL A   1      44.575  30.074  32.119  1.00  0.00     0.049 A 
ATOM     51  C   UNL A   1      39.766  32.744  30.990  1.00  0.00     0.074 A 
ATOM     52  C   UNL A   1      45.498  30.759  32.890  1.00  0.00     0.029 A 
ATOM     53  N   UNL A   1      43.481  30.911  31.963  1.00  0.00    -0.354 N 
ATOM     54  N   UNL A   1      40.935  32.248  31.320  1.00  0.00    -0.248 NA
ATOM     55  C   UNL A   1      39.519  34.101  31.499  1.00  0.00     0.031 C 
ATOM     56  C   UNL A   1      44.954  32.006  33.212  1.00  0.00     0.029 A 
ATOM     57  C   UNL A   1      43.709  32.109  32.611  1.00  0.00     0.049 A 
ATOM     58  H   UNL A   1      42.663  30.684  31.463  1.00  0.00     0.167 HD
ATOM     59  C   UNL A   1      41.575  33.244  32.049  1.00  0.00     0.074 A 
ATOM     60  C   UNL A   1      40.669  34.373  32.103  1.00  0.00     0.031 C 
ATOM     61  C   UNL A   1      42.800  33.226  32.627  1.00  0.00     0.031 A 
BRANCH  48  62
ATOM     62  C   UNL A   1      45.938  27.967  31.791  1.00  0.00    -0.014 A 
ATOM     63  C   UNL A   1      47.085  28.171  31.002  1.00  0.00     0.010 A 
ATOM     64  C   UNL A   1      45.979  27.020  32.830  1.00  0.00     0.010 A 
ATOM     65  C   UNL A   1      48.236  27.412  31.218  1.00  0.00     0.020 A 
ATOM     66  C   UNL A   1      47.139  26.277  33.067  1.00  0.00     0.020 A 
ATOM     67  C   UNL A   1      48.255  26.466  32.247  1.00  0.00     0.054 A 
BRANCH  67  68
ATOM     68  S   UNL A   1      49.771  25.510  32.520  1.00  0.00     0.124 S 
ATOM     69  O   UNL A   1      49.966  24.879  31.217  1.00  0.00    -0.237 OA
ATOM     70  O   UNL A   1      50.744  26.542  32.869  1.00  0.00    -0.237 OA
ATOM     71  O   UNL A   1      49.414  24.600  33.607  1.00  0.00    -0.744 OA
ENDBRANCH  67  68
ENDBRANCH  48  62
BRANCH  49  72
ATOM     72  C   UNL A   1      37.385  32.828  29.945  1.00  0.00    -0.014 A 
ATOM     73  C   UNL A   1      36.384  32.822  30.933  1.00  0.00     0.010 A 
ATOM     74  C   UNL A   1      37.148  33.506  28.736  1.00  0.00     0.010 A 
ATOM     75  C   UNL A   1      35.157  33.452  30.703  1.00  0.00     0.020 A 
ATOM     76  C   UNL A   1      35.931  34.159  28.513  1.00  0.00     0.020 A 
ATOM     77  C   UNL A   1      34.936  34.113  29.493  1.00  0.00     0.054 A 
BRANCH  77  78
ATOM     78  S   UNL A   1      33.348  34.948  29.223  1.00  0.00     0.124 S 
ATOM     79  O   UNL A   1      32.757  34.137  28.163  1.00  0.00    -0.237 OA
ATOM     80  O   UNL A   1      32.707  34.843  30.532  1.00  0.00    -0.237 OA
ATOM     81  O   UNL A   1      33.738  36.301  28.837  1.00  0.00    -0.744 OA
ENDBRANCH  77  78
ENDBRANCH  49  72
BRANCH  61  82
ATOM     82  C   UNL A   1      43.259  34.477  33.320  1.00  0.00    -0.014 A 
ATOM     83  C   UNL A   1      43.877  35.518  32.606  1.00  0.00     0.010 A 
ATOM     84  C   UNL A   1      42.994  34.643  34.692  1.00  0.00     0.010 A 
ATOM     85  C   UNL A   1      44.240  36.698  33.258  1.00  0.00     0.020 A 
ATOM     86  C   UNL A   1      43.336  35.829  35.342  1.00  0.00     0.020 A 
ATOM     87  C   UNL A   1      43.966  36.847  34.622  1.00  0.00     0.054 A 
BRANCH  87  88
ATOM     88  S   UNL A   1      44.387  38.414  35.434  1.00  0.00     0.124 S 
ATOM     89  O   UNL A   1      43.651  39.381  34.626  1.00  0.00    -0.237 OA
ATOM     90  O   UNL A   1      43.886  38.218  36.791  1.00  0.00    -0.237 OA
ATOM     91  O   UNL A   1      45.842  38.482  35.317  1.00  0.00    -0.744 OA
ENDBRANCH  87  88
ENDBRANCH  61  82
ENDBRANCH  35  36
ENDBRANCH  27  30
ENDBRANCH  25  26
ENDBRANCH  24  25
ENDBRANCH   1  24
TORSDOF 18
ENDMDL
MODEL 2
REMARK VINA RESULT:     -10.1      4.188     11.233
REMARK SMILES CCc1cc(C[NH+]2CCC(CC(=O)NCCCCNC(=O)c3ccc(-c4c5nc(c(-c6ccc(S(=O)(=O)[O-])cc6)c6ccc([nH]6)c(-c6ccc(S(=O)(=O)[O-])cc6)c6nc(c(-c7ccc(S(=O)(=O)[O-])cc7)c7ccc4[nH]7)C=C6)C=C5)cc3)CC2)n(C)n1
REMARK SMILES IDX 16 1 15 2 14 3 12 4 13 5 11 7 10 8 7 9 8 10 83 11 9 13 82 14
REMARK SMILES IDX 6 15 5 16 3 17 4 18 86 19 84 20 85 21 2 22 1 23 17 24 18 25
REMARK SMILES IDX 19 26 20 27 21 29 22 30 23 31 81 32 24 33 80 34 25 35 26 36
REMARK SMILES IDX 27 37 74 38 28 39 79 40 73 41 75 42 29 43 78 44 72 45 71 46
REMARK SMILES IDX 30 48 60 49 41 50 59 51 42 52 45 53 58 54 76 55 43 56 44 57
REMARK SMILES IDX 57 59 77 60 46 61 31 62 32 63 40 64 33 65 39 66 34 67 35 68
REMARK SMILES IDX 36 69 37 70 38 71 61 72 62 73 70 74 63 75 69 76 64 77 65 78
REMARK SMILES IDX 66 79 67 80 68 81 47 82 48 83 56 84 49 85 55 86 50 87 51 88
REMARK SMILES IDX 52 89 53 90 54 91
REMARK H PARENT 14 6 7 12 19 28 75 47 45 58
REMARK Flexibility Score: inf
ROOT
ATOM      1  C   UNL A   1      34.315  35.200  28.706  1.00  0.00     0.023 C 
ENDROOT
BRANCH   1   2
ATOM      2  C   UNL A   1      33.011  35.338  29.504  1.00  0.00     0.116 C 
BRANCH   2   3
ATOM      3  N   UNL A   1      33.019  36.504  30.378  1.00  0.00    -0.356 N 
ATOM      4  C   UNL A   1      33.214  36.616  31.727  1.00  0.00     0.220 C 
ATOM      5  O   UNL A   1      33.152  37.739  32.232  1.00  0.00    -0.275 OA
ATOM      6  H   UNL A   1      32.854  37.359  29.919  1.00  0.00     0.163 HD
BRANCH   4   7
ATOM      7  C   UNL A   1      33.481  35.393  32.601  1.00  0.00     0.104 C 
BRANCH   7   8
ATOM      8  C   UNL A   1      34.897  35.385  33.213  1.00  0.00     0.009 C 
ATOM      9  N   UNL A   1      37.184  33.681  33.999  1.00  0.00    -0.330 N 
ATOM     10  C   UNL A   1      36.269  34.185  35.022  1.00  0.00     0.262 C 
ATOM     11  C   UNL A   1      37.324  34.662  32.917  1.00  0.00     0.262 C 
ATOM     12  H   UNL A   1      36.787  32.840  33.580  1.00  0.00     0.348 HD
ATOM     13  C   UNL A   1      34.912  34.491  34.440  1.00  0.00     0.066 C 
ATOM     14  C   UNL A   1      35.970  34.913  32.224  1.00  0.00     0.066 C 
BRANCH   9  15
ATOM     15  C   UNL A   1      38.467  33.240  34.583  1.00  0.00     0.319 C 
BRANCH  15  16
ATOM     16  C   UNL A   1      38.712  31.772  34.452  1.00  0.00     0.093 A 
ATOM     17  C   UNL A   1      38.997  29.727  33.638  1.00  0.00     0.063 A 
ATOM     18  C   UNL A   1      38.186  30.877  33.543  1.00  0.00     0.055 A 
ATOM     19  N   UNL A   1      39.865  29.827  34.649  1.00  0.00    -0.178 NA
ATOM     20  N   UNL A   1      39.663  31.063  35.148  1.00  0.00    -0.267 N 
ATOM     21  C   UNL A   1      40.545  31.496  36.209  1.00  0.00     0.174 C 
BRANCH  17  22
ATOM     22  C   UNL A   1      39.028  28.575  32.692  1.00  0.00     0.055 C 
ATOM     23  C   UNL A   1      40.349  27.825  32.657  1.00  0.00     0.011 C 
ENDBRANCH  17  22
ENDBRANCH  15  16
ENDBRANCH   9  15
ENDBRANCH   7   8
ENDBRANCH   4   7
ENDBRANCH   2   3
ENDBRANCH   1   2
BRANCH   1  24
ATOM     24  C   UNL A   1      35.279  34.130  29.182  1.00  0.00     0.023 C 
BRANCH  24  25
ATOM     25  C   UNL A   1      35.568  33.057  28.155  1.00  0.00     0.116 C 
BRANCH  25  26
ATOM     26  N   UNL A   1      34.444  32.160  27.909  1.00  0.00    -0.352 N 
ATOM     27  C   UNL A   1      34.456  30.783  27.842  1.00  0.00     0.251 C 
ATOM     28  H   UNL A   1      33.569  32.592  27.776  1.00  0.00     0.163 HD
ATOM     29  O   UNL A   1      33.448  30.157  27.547  1.00  0.00    -0.269 OA
BRANCH  27  30
ATOM     30  C   UNL A   1      35.738  30.090  28.087  1.00  0.00     0.039 A 
ATOM     31  C   UNL A   1      36.693  30.046  27.069  1.00  0.00     0.014 A 
ATOM     32  C   UNL A   1      36.035  29.619  29.366  1.00  0.00     0.014 A 
ATOM     33  C   UNL A   1      37.986  29.610  27.366  1.00  0.00     0.010 A 
ATOM     34  C   UNL A   1      37.345  29.297  29.683  1.00  0.00     0.010 A 
ATOM     35  C   UNL A   1      38.333  29.282  28.686  1.00  0.00    -0.014 A 
BRANCH  35  36
ATOM     36  C   UNL A   1      39.711  28.879  29.064  1.00  0.00     0.031 A 
ATOM     37  C   UNL A   1      40.608  29.888  29.729  1.00  0.00     0.074 A 
ATOM     38  C   UNL A   1      40.183  27.662  28.728  1.00  0.00     0.049 A 
ATOM     39  N   UNL A   1      41.887  29.814  29.986  1.00  0.00    -0.248 NA
ATOM     40  C   UNL A   1      39.992  31.172  30.112  1.00  0.00     0.031 C 
ATOM     41  C   UNL A   1      39.431  26.613  28.032  1.00  0.00     0.029 A 
ATOM     42  N   UNL A   1      41.423  27.105  28.916  1.00  0.00    -0.354 N 
ATOM     43  C   UNL A   1      42.232  31.047  30.524  1.00  0.00     0.074 A 
ATOM     44  C   UNL A   1      41.046  31.872  30.501  1.00  0.00     0.031 C 
ATOM     45  C   UNL A   1      40.219  25.537  27.872  1.00  0.00     0.029 A 
ATOM     46  C   UNL A   1      41.540  25.829  28.416  1.00  0.00     0.049 A 
ATOM     47  H   UNL A   1      42.162  27.577  29.366  1.00  0.00     0.167 HD
ATOM     48  C   UNL A   1      43.423  31.451  31.023  1.00  0.00     0.031 A 
ATOM     49  C   UNL A   1      42.597  24.993  28.394  1.00  0.00     0.031 A 
ATOM     50  C   UNL A   1      44.587  30.613  31.091  1.00  0.00     0.049 A 
ATOM     51  C   UNL A   1      43.898  25.447  29.002  1.00  0.00     0.074 A 
ATOM     52  C   UNL A   1      45.833  30.909  31.615  1.00  0.00     0.029 A 
ATOM     53  N   UNL A   1      44.639  29.302  30.642  1.00  0.00    -0.354 N 
ATOM     54  N   UNL A   1      44.196  26.608  29.534  1.00  0.00    -0.248 NA
ATOM     55  C   UNL A   1      45.000  24.474  29.019  1.00  0.00     0.031 C 
ATOM     56  C   UNL A   1      46.644  29.779  31.469  1.00  0.00     0.029 A 
ATOM     57  C   UNL A   1      45.890  28.771  30.888  1.00  0.00     0.049 A 
ATOM     58  H   UNL A   1      43.894  28.822  30.213  1.00  0.00     0.167 HD
ATOM     59  C   UNL A   1      45.509  26.495  29.976  1.00  0.00     0.074 A 
ATOM     60  C   UNL A   1      45.944  25.150  29.660  1.00  0.00     0.031 C 
ATOM     61  C   UNL A   1      46.289  27.421  30.586  1.00  0.00     0.031 A 
BRANCH  48  62
ATOM     62  C   UNL A   1      43.507  32.854  31.556  1.00  0.00    -0.014 A 
ATOM     63  C   UNL A   1      43.883  33.920  30.717  1.00  0.00     0.010 A 
ATOM     64  C   UNL A   1      43.190  33.119  32.901  1.00  0.00     0.010 A 
ATOM     65  C   UNL A   1      43.984  35.217  31.224  1.00  0.00     0.020 A 
ATOM     66  C   UNL A   1      43.263  34.420  33.404  1.00  0.00     0.020 A 
ATOM     67  C   UNL A   1      43.678  35.459  32.565  1.00  0.00     0.054 A 
BRANCH  67  68
ATOM     68  S   UNL A   1      43.794  37.157  33.190  1.00  0.00     0.124 S 
ATOM     69  O   UNL A   1      43.738  37.935  31.955  1.00  0.00    -0.237 OA
ATOM     70  O   UNL A   1      42.621  37.264  34.053  1.00  0.00    -0.237 OA
ATOM     71  O   UNL A   1      45.080  37.181  33.885  1.00  0.00    -0.744 OA
ENDBRANCH  67  68
ENDBRANCH  48  62
BRANCH  49  72
ATOM     72  C   UNL A   1      42.472  23.638  27.793  1.00  0.00    -0.014 A 
ATOM     73  C   UNL A   1      41.879  22.588  28.518  1.00  0.00     0.010 A 
ATOM     74  C   UNL A   1      42.957  23.384  26.498  1.00  0.00     0.010 A 
ATOM     75  C   UNL A   1      41.802  21.304  27.973  1.00  0.00     0.020 A 
ATOM     76  C   UNL A   1      42.860  22.105  25.939  1.00  0.00     0.020 A 
ATOM     77  C   UNL A   1      42.298  21.068  26.688  1.00  0.00     0.054 A 
BRANCH  77  78
ATOM     78  S   UNL A   1      42.167  19.400  25.986  1.00  0.00     0.124 S 
ATOM     79  O   UNL A   1      42.760  18.582  27.040  1.00  0.00    -0.237 OA
ATOM     80  O   UNL A   1      40.726  19.246  25.799  1.00  0.00    -0.237 OA
ATOM     81  O   UNL A   1      42.941  19.491  24.750  1.00  0.00    -0.744 OA
ENDBRANCH  77  78
ENDBRANCH  49  72
BRANCH  61  82
ATOM     82  C   UNL A   1      47.670  27.001  31.000  1.00  0.00    -0.014 A 
ATOM     83  C   UNL A   1      48.798  27.379  30.252  1.00  0.00     0.010 A 
ATOM     84  C   UNL A   1      47.843  26.286  32.200  1.00  0.00     0.010 A 
ATOM     85  C   UNL A   1      50.078  27.031  30.689  1.00  0.00     0.020 A 
ATOM     86  C   UNL A   1      49.122  25.956  32.650  1.00  0.00     0.020 A 
ATOM     87  C   UNL A   1      50.232  26.323  31.886  1.00  0.00     0.054 A 
BRANCH  87  88
ATOM     88  S   UNL A   1      51.907  25.939  32.466  1.00  0.00     0.124 S 
ATOM     89  O   UNL A   1      52.231  27.121  33.260  1.00  0.00    -0.237 OA
ATOM     90  O   UNL A   1      51.711  24.707  33.225  1.00  0.00    -0.237 OA
ATOM     91  O   UNL A   1      52.674  25.787  31.232  1.00  0.00    -0.744 OA
ENDBRANCH  87  88
ENDBRANCH  61  82
ENDBRANCH  35  36
ENDBRANCH  27  30
ENDBRANCH  25  26
ENDBRANCH  24  25
ENDBRANCH   1  24
TORSDOF 18
ENDMDL
MODEL 3
REMARK VINA RESULT:     -10.0      2.584      9.322
REMARK SMILES CCc1cc(C[NH+]2CCC(CC(=O)NCCCCNC(=O)c3ccc(-c4c5nc(c(-c6ccc(S(=O)(=O)[O-])cc6)c6ccc([nH]6)c(-c6ccc(S(=O)(=O)[O-])cc6)c6nc(c(-c7ccc(S(=O)(=O)[O-])cc7)c7ccc4[nH]7)C=C6)C=C5)cc3)CC2)n(C)n1
REMARK SMILES IDX 16 1 15 2 14 3 12 4 13 5 11 7 10 8 7 9 8 10 83 11 9 13 82 14
REMARK SMILES IDX 6 15 5 16 3 17 4 18 86 19 84 20 85 21 2 22 1 23 17 24 18 25
REMARK SMILES IDX 19 26 20 27 21 29 22 30 23 31 81 32 24 33 80 34 25 35 26 36
REMARK SMILES IDX 27 37 74 38 28 39 79 40 73 41 75 42 29 43 78 44 72 45 71 46
REMARK SMILES IDX 30 48 60 49 41 50 59 51 42 52 45 53 58 54 76 55 43 56 44 57
REMARK SMILES IDX 57 59 77 60 46 61 31 62 32 63 40 64 33 65 39 66 34 67 35 68
REMARK SMILES IDX 36 69 37 70 38 71 61 72 62 73 70 74 63 75 69 76 64 77 65 78
REMARK SMILES IDX 66 79 67 80 68 81 47 82 48 83 56 84 49 85 55 86 50 87 51 88
REMARK SMILES IDX 52 89 53 90 54 91
REMARK H PARENT 14 6 7 12 19 28 75 47 45 58
REMARK Flexibility Score: inf
ROOT
ATOM      1  C   UNL A   1      33.602  28.557  24.915  1.00  0.00     0.023 C 
ENDROOT
BRANCH   1   2
ATOM      2  C   UNL A   1      32.843  28.972  23.647  1.00  0.00     0.116 C 
BRANCH   2   3
ATOM      3  N   UNL A   1      31.441  28.577  23.686  1.00  0.00    -0.356 N 
ATOM      4  C   UNL A   1      30.756  27.621  22.988  1.00  0.00     0.220 C 
ATOM      5  O   UNL A   1      29.548  27.499  23.203  1.00  0.00    -0.275 OA
ATOM      6  H   UNL A   1      30.891  29.086  24.325  1.00  0.00     0.163 HD
BRANCH   4   7
ATOM      7  C   UNL A   1      31.446  26.737  21.952  1.00  0.00     0.104 C 
BRANCH   7   8
ATOM      8  C   UNL A   1      32.405  25.705  22.582  1.00  0.00     0.009 C 
ATOM      9  N   UNL A   1      32.692  22.899  23.475  1.00  0.00    -0.330 N 
ATOM     10  C   UNL A   1      32.481  23.957  24.462  1.00  0.00     0.262 C 
ATOM     11  C   UNL A   1      33.485  23.407  22.350  1.00  0.00     0.262 C 
ATOM     12  H   UNL A   1      31.791  22.615  23.091  1.00  0.00     0.348 HD
ATOM     13  C   UNL A   1      31.785  25.147  23.850  1.00  0.00     0.066 C 
ATOM     14  C   UNL A   1      32.746  24.552  21.629  1.00  0.00     0.066 C 
BRANCH   9  15
ATOM     15  C   UNL A   1      33.239  21.676  24.095  1.00  0.00     0.319 C 
BRANCH  15  16
ATOM     16  C   UNL A   1      34.419  21.926  24.975  1.00  0.00     0.093 A 
ATOM     17  C   UNL A   1      36.324  22.702  25.811  1.00  0.00     0.063 A 
ATOM     18  C   UNL A   1      35.719  22.233  24.626  1.00  0.00     0.055 A 
ATOM     19  N   UNL A   1      35.516  22.545  26.864  1.00  0.00    -0.178 NA
ATOM     20  N   UNL A   1      34.374  22.050  26.345  1.00  0.00    -0.267 N 
ATOM     21  C   UNL A   1      33.264  21.868  27.252  1.00  0.00     0.174 C 
BRANCH  17  22
ATOM     22  C   UNL A   1      37.631  23.410  25.927  1.00  0.00     0.055 C 
ATOM     23  C   UNL A   1      38.833  22.493  26.074  1.00  0.00     0.011 C 
ENDBRANCH  17  22
ENDBRANCH  15  16
ENDBRANCH   9  15
ENDBRANCH   7   8
ENDBRANCH   4   7
ENDBRANCH   2   3
ENDBRANCH   1   2
BRANCH   1  24
ATOM     24  C   UNL A   1      32.748  28.165  26.106  1.00  0.00     0.023 C 
BRANCH  24  25
ATOM     25  C   UNL A   1      33.324  28.579  27.442  1.00  0.00     0.116 C 
BRANCH  25  26
ATOM     26  N   UNL A   1      33.387  30.025  27.633  1.00  0.00    -0.352 N 
ATOM     27  C   UNL A   1      34.472  30.783  28.020  1.00  0.00     0.251 C 
ATOM     28  H   UNL A   1      32.553  30.519  27.464  1.00  0.00     0.163 HD
ATOM     29  O   UNL A   1      34.362  31.984  28.220  1.00  0.00    -0.269 OA
BRANCH  27  30
ATOM     30  C   UNL A   1      35.758  30.089  28.236  1.00  0.00     0.039 A 
ATOM     31  C   UNL A   1      36.707  30.080  27.212  1.00  0.00     0.014 A 
ATOM     32  C   UNL A   1      36.065  29.582  29.499  1.00  0.00     0.014 A 
ATOM     33  C   UNL A   1      38.004  29.642  27.488  1.00  0.00     0.010 A 
ATOM     34  C   UNL A   1      37.379  29.257  29.799  1.00  0.00     0.010 A 
ATOM     35  C   UNL A   1      38.361  29.277  28.796  1.00  0.00    -0.014 A 
BRANCH  35  36
ATOM     36  C   UNL A   1      39.743  28.869  29.153  1.00  0.00     0.031 A 
ATOM     37  C   UNL A   1      40.652  29.874  29.810  1.00  0.00     0.074 A 
ATOM     38  C   UNL A   1      40.207  27.652  28.807  1.00  0.00     0.049 A 
ATOM     39  N   UNL A   1      41.934  29.796  30.049  1.00  0.00    -0.248 NA
ATOM     40  C   UNL A   1      40.044  31.158  30.205  1.00  0.00     0.031 C 
ATOM     41  C   UNL A   1      39.443  26.608  28.118  1.00  0.00     0.029 A 
ATOM     42  N   UNL A   1      41.449  27.092  28.976  1.00  0.00    -0.354 N 
ATOM     43  C   UNL A   1      42.289  31.028  30.585  1.00  0.00     0.074 A 
ATOM     44  C   UNL A   1      41.104  31.854  30.582  1.00  0.00     0.031 C 
ATOM     45  C   UNL A   1      40.228  25.530  27.943  1.00  0.00     0.029 A 
ATOM     46  C   UNL A   1      41.556  25.818  28.471  1.00  0.00     0.049 A 
ATOM     47  H   UNL A   1      42.195  27.561  29.417  1.00  0.00     0.167 HD
ATOM     48  C   UNL A   1      43.488  31.427  31.069  1.00  0.00     0.031 A 
ATOM     49  C   UNL A   1      42.611  24.980  28.431  1.00  0.00     0.031 A 
ATOM     50  C   UNL A   1      44.650  30.587  31.119  1.00  0.00     0.049 A 
ATOM     51  C   UNL A   1      43.922  25.428  29.022  1.00  0.00     0.074 A 
ATOM     52  C   UNL A   1      45.904  30.877  31.626  1.00  0.00     0.029 A 
ATOM     53  N   UNL A   1      44.693  29.277  30.665  1.00  0.00    -0.354 N 
ATOM     54  N   UNL A   1      44.229  26.588  29.554  1.00  0.00    -0.248 NA
ATOM     55  C   UNL A   1      45.021  24.453  29.021  1.00  0.00     0.031 C 
ATOM     56  C   UNL A   1      46.710  29.747  31.465  1.00  0.00     0.029 A 
ATOM     57  C   UNL A   1      45.946  28.742  30.891  1.00  0.00     0.049 A 
ATOM     58  H   UNL A   1      43.942  28.800  30.244  1.00  0.00     0.167 HD
ATOM     59  C   UNL A   1      45.548  26.470  29.978  1.00  0.00     0.074 A 
ATOM     60  C   UNL A   1      45.975  25.125  29.650  1.00  0.00     0.031 C 
ATOM     61  C   UNL A   1      46.338  27.392  30.579  1.00  0.00     0.031 A 
BRANCH  48  62
ATOM     62  C   UNL A   1      43.582  32.828  31.606  1.00  0.00    -0.014 A 
ATOM     63  C   UNL A   1      43.388  33.087  32.976  1.00  0.00     0.010 A 
ATOM     64  C   UNL A   1      43.886  33.896  30.743  1.00  0.00     0.010 A 
ATOM     65  C   UNL A   1      43.451  34.392  33.465  1.00  0.00     0.020 A 
ATOM     66  C   UNL A   1      43.978  35.201  31.234  1.00  0.00     0.020 A 
ATOM     67  C   UNL A   1      43.742  35.443  32.591  1.00  0.00     0.054 A 
BRANCH  67  68
ATOM     68  S   UNL A   1      43.842  37.126  33.258  1.00  0.00     0.124 S 
ATOM     69  O   UNL A   1      42.631  37.198  34.071  1.00  0.00    -0.237 OA
ATOM     70  O   UNL A   1      45.097  37.102  34.004  1.00  0.00    -0.237 OA
ATOM     71  O   UNL A   1      43.845  37.970  32.065  1.00  0.00    -0.744 OA
ENDBRANCH  67  68
ENDBRANCH  48  62
BRANCH  49  72
ATOM     72  C   UNL A   1      42.475  23.627  27.827  1.00  0.00    -0.014 A 
ATOM     73  C   UNL A   1      41.917  22.568  28.567  1.00  0.00     0.010 A 
ATOM     74  C   UNL A   1      42.914  23.384  26.513  1.00  0.00     0.010 A 
ATOM     75  C   UNL A   1      41.831  21.286  28.018  1.00  0.00     0.020 A 
ATOM     76  C   UNL A   1      42.807  22.107  25.951  1.00  0.00     0.020 A 
ATOM     77  C   UNL A   1      42.281  21.062  26.714  1.00  0.00     0.054 A 
BRANCH  77  78
ATOM     78  S   UNL A   1      42.138  19.396  26.008  1.00  0.00     0.124 S 
ATOM     79  O   UNL A   1      42.652  18.564  27.092  1.00  0.00    -0.237 OA
ATOM     80  O   UNL A   1      40.704  19.283  25.748  1.00  0.00    -0.237 OA
ATOM     81  O   UNL A   1      42.976  19.461  24.814  1.00  0.00    -0.744 OA
ENDBRANCH  77  78
ENDBRANCH  49  72
BRANCH  61  82
ATOM     82  C   UNL A   1      47.724  26.968  30.973  1.00  0.00    -0.014 A 
ATOM     83  C   UNL A   1      48.807  27.117  30.090  1.00  0.00     0.010 A 
ATOM     84  C   UNL A   1      47.954  26.489  32.276  1.00  0.00     0.010 A 
ATOM     85  C   UNL A   1      50.098  26.775  30.498  1.00  0.00     0.020 A 
ATOM     86  C   UNL A   1      49.246  26.166  32.694  1.00  0.00     0.020 A 
ATOM     87  C   UNL A   1      50.309  26.303  31.799  1.00  0.00     0.054 A 
BRANCH  87  88
ATOM     88  S   UNL A   1      52.003  25.926  32.328  1.00  0.00     0.124 S 
ATOM     89  O   UNL A   1      51.941  26.199  33.760  1.00  0.00    -0.237 OA
ATOM     90  O   UNL A   1      52.149  24.519  31.962  1.00  0.00    -0.237 OA
ATOM     91  O   UNL A   1      52.822  26.853  31.550  1.00  0.00    -0.744 OA
ENDBRANCH  87  88
ENDBRANCH  61  82
ENDBRANCH  35  36
ENDBRANCH  27  30
ENDBRANCH  25  26
ENDBRANCH  24  25
ENDBRANCH   1  24
TORSDOF 18
ENDMDL
