MODEL 1
REMARK VINA RESULT:     -10.5      0.000      0.000
REMARK SMILES CN(c1ccc(C(N)=O)nn1)[C@H]1COC[C@@H]1C(=O)NCCCCNC(=O)c1ccc(-c2c3nc(c(-c4ccc(S(=O)(=O)[O-])cc4)c4ccc([nH]4)c(-c4ccc(S(=O)(=O)[O-])cc4)c4nc(c(-c5ccc(S(=O)(=O)[O-])cc5)c5ccc2[nH]5)C=C4)C=C3)cc1
REMARK SMILES IDX 21 1 20 2 19 3 17 4 18 5 16 7 12 8 13 9 14 10 15 11 2 12
REMARK SMILES IDX 1 13 3 14 4 15 11 16 5 17 10 18 6 19 7 20 8 21 9 22 22 25
REMARK SMILES IDX 23 26 24 27 25 28 26 30 27 31 28 32 86 33 29 34 85 35 30 36
REMARK SMILES IDX 31 37 32 38 79 39 33 40 84 41 78 42 80 43 34 44 83 45 77 46
REMARK SMILES IDX 76 47 35 49 65 50 46 51 64 52 47 53 50 54 63 55 81 56 48 57
REMARK SMILES IDX 49 58 62 60 82 61 51 62 36 63 37 64 45 65 38 66 44 67 39 68
REMARK SMILES IDX 40 69 41 70 42 71 43 72 66 73 67 74 75 75 68 76 74 77 69 78
REMARK SMILES IDX 70 79 71 80 72 81 73 82 52 83 53 84 61 85 54 86 60 87 55 88
REMARK SMILES IDX 56 89 57 90 58 91 59 92
REMARK H PARENT 19 6 8 23 8 24 24 29 80 48 50 59
REMARK Flexibility Score: inf
ROOT
ATOM      1  C   UNL A   1      38.754  20.824  25.257  1.00  0.00     0.023 C 
ENDROOT
BRANCH   1   2
ATOM      2  C   UNL A   1      37.234  20.832  25.352  1.00  0.00     0.116 C 
BRANCH   2   3
ATOM      3  N   UNL A   1      36.704  22.037  25.966  1.00  0.00    -0.356 N 
ATOM      4  C   UNL A   1      35.456  22.477  26.260  1.00  0.00     0.227 C 
ATOM      5  O   UNL A   1      35.414  23.522  26.925  1.00  0.00    -0.275 OA
ATOM      6  H   UNL A   1      37.407  22.675  26.227  1.00  0.00     0.163 HD
BRANCH   4   7
ATOM      7  C   UNL A   1      34.133  21.789  25.914  1.00  0.00     0.129 C 
ATOM      8  C   UNL A   1      33.862  21.812  24.412  1.00  0.00     0.124 C 
ATOM      9  C   UNL A   1      33.127  23.158  24.327  1.00  0.00     0.186 C 
ATOM     10  O   UNL A   1      32.298  23.245  25.502  1.00  0.00    -0.378 OA
ATOM     11  C   UNL A   1      32.864  22.362  26.495  1.00  0.00     0.176 C 
BRANCH   8  12
ATOM     12  N   UNL A   1      33.020  20.705  23.850  1.00  0.00    -0.352 N 
ATOM     13  C   UNL A   1      32.080  21.009  22.774  1.00  0.00     0.145 C 
BRANCH  12  14
ATOM     14  C   UNL A   1      33.090  19.389  24.272  1.00  0.00     0.151 A 
ATOM     15  C   UNL A   1      34.289  18.677  24.221  1.00  0.00     0.051 A 
ATOM     16  N   UNL A   1      31.981  18.737  24.678  1.00  0.00    -0.132 NA
ATOM     17  C   UNL A   1      34.335  17.325  24.561  1.00  0.00     0.040 A 
ATOM     18  N   UNL A   1      32.003  17.403  25.039  1.00  0.00    -0.143 NA
ATOM     19  C   UNL A   1      33.164  16.722  24.967  1.00  0.00     0.150 A 
BRANCH  19  20
ATOM     20  C   UNL A   1      33.128  15.283  25.343  1.00  0.00     0.269 C 
ATOM     21  N   UNL A   1      31.892  14.762  25.618  1.00  0.00    -0.364 N 
ATOM     22  O   UNL A   1      34.142  14.597  25.406  1.00  0.00    -0.268 OA
ATOM     23  H   UNL A   1      31.092  15.334  25.560  1.00  0.00     0.160 HD
ATOM     24  H   UNL A   1      31.802  13.816  25.873  1.00  0.00     0.160 HD
ENDBRANCH  19  20
ENDBRANCH  12  14
ENDBRANCH   8  12
ENDBRANCH   4   7
ENDBRANCH   2   3
ENDBRANCH   1   2
BRANCH   1  25
ATOM     25  C   UNL A   1      39.475  21.550  26.389  1.00  0.00     0.023 C 
BRANCH  25  26
ATOM     26  C   UNL A   1      40.503  20.725  27.156  1.00  0.00     0.116 C 
BRANCH  26  27
ATOM     27  N   UNL A   1      41.279  19.816  26.320  1.00  0.00    -0.352 N 
ATOM     28  C   UNL A   1      42.483  20.047  25.697  1.00  0.00     0.251 C 
ATOM     29  H   UNL A   1      40.890  18.921  26.185  1.00  0.00     0.163 HD
ATOM     30  O   UNL A   1      42.985  19.195  24.971  1.00  0.00    -0.269 OA
BRANCH  28  31
ATOM     31  C   UNL A   1      43.137  21.358  25.880  1.00  0.00     0.039 A 
ATOM     32  C   UNL A   1      42.995  22.328  24.886  1.00  0.00     0.014 A 
ATOM     33  C   UNL A   1      43.807  21.648  27.071  1.00  0.00     0.014 A 
ATOM     34  C   UNL A   1      43.451  23.625  25.125  1.00  0.00     0.010 A 
ATOM     35  C   UNL A   1      44.190  22.958  27.336  1.00  0.00     0.010 A 
ATOM     36  C   UNL A   1      44.009  23.960  26.370  1.00  0.00    -0.014 A 
BRANCH  36  37
ATOM     37  C   UNL A   1      44.402  25.356  26.691  1.00  0.00     0.031 A 
ATOM     38  C   UNL A   1      45.825  25.797  26.492  1.00  0.00     0.074 A 
ATOM     39  C   UNL A   1      43.503  26.197  27.241  1.00  0.00     0.049 A 
ATOM     40  N   UNL A   1      46.386  26.938  26.800  1.00  0.00    -0.248 NA
ATOM     41  C   UNL A   1      46.748  24.814  25.899  1.00  0.00     0.031 C 
ATOM     42  C   UNL A   1      42.103  25.872  27.531  1.00  0.00     0.029 A 
ATOM     43  N   UNL A   1      43.635  27.494  27.667  1.00  0.00    -0.354 N 
ATOM     44  C   UNL A   1      47.727  26.803  26.462  1.00  0.00     0.074 A 
ATOM     45  C   UNL A   1      47.906  25.454  25.972  1.00  0.00     0.031 C 
ATOM     46  C   UNL A   1      41.503  26.950  28.065  1.00  0.00     0.029 A 
ATOM     47  C   UNL A   1      42.480  28.026  28.191  1.00  0.00     0.049 A 
ATOM     48  H   UNL A   1      44.478  27.998  27.603  1.00  0.00     0.167 HD
ATOM     49  C   UNL A   1      48.717  27.723  26.535  1.00  0.00     0.031 A 
ATOM     50  C   UNL A   1      42.235  29.241  28.719  1.00  0.00     0.031 A 
ATOM     51  C   UNL A   1      48.529  29.071  27.001  1.00  0.00     0.049 A 
ATOM     52  C   UNL A   1      43.347  30.252  28.775  1.00  0.00     0.074 A 
ATOM     53  C   UNL A   1      49.455  30.098  27.053  1.00  0.00     0.029 A 
ATOM     54  N   UNL A   1      47.337  29.579  27.492  1.00  0.00    -0.354 N 
ATOM     55  N   UNL A   1      44.595  30.126  28.391  1.00  0.00    -0.248 NA
ATOM     56  C   UNL A   1      43.015  31.574  29.326  1.00  0.00     0.031 C 
ATOM     57  C   UNL A   1      48.832  31.217  27.615  1.00  0.00     0.029 A 
ATOM     58  C   UNL A   1      47.505  30.900  27.864  1.00  0.00     0.049 A 
ATOM     59  H   UNL A   1      46.494  29.074  27.564  1.00  0.00     0.167 HD
ATOM     60  C   UNL A   1      45.190  31.360  28.627  1.00  0.00     0.074 A 
ATOM     61  C   UNL A   1      44.163  32.222  29.176  1.00  0.00     0.031 C 
ATOM     62  C   UNL A   1      46.471  31.746  28.405  1.00  0.00     0.031 A 
BRANCH  49  63
ATOM     63  C   UNL A   1      50.093  27.297  26.100  1.00  0.00    -0.014 A 
ATOM     64  C   UNL A   1      51.056  26.883  27.038  1.00  0.00     0.010 A 
ATOM     65  C   UNL A   1      50.420  27.283  24.731  1.00  0.00     0.010 A 
ATOM     66  C   UNL A   1      52.335  26.509  26.621  1.00  0.00     0.020 A 
ATOM     67  C   UNL A   1      51.690  26.881  24.308  1.00  0.00     0.020 A 
ATOM     68  C   UNL A   1      52.646  26.515  25.258  1.00  0.00     0.054 A 
BRANCH  68  69
ATOM     69  S   UNL A   1      54.310  26.010  24.743  1.00  0.00     0.124 S 
ATOM     70  O   UNL A   1      54.381  26.549  23.387  1.00  0.00    -0.237 OA
ATOM     71  O   UNL A   1      55.165  26.670  25.727  1.00  0.00    -0.237 OA
ATOM     72  O   UNL A   1      54.273  24.552  24.832  1.00  0.00    -0.744 OA
ENDBRANCH  68  69
ENDBRANCH  49  63
BRANCH  50  73
ATOM     73  C   UNL A   1      40.874  29.574  29.218  1.00  0.00    -0.014 A 
ATOM     74  C   UNL A   1      40.620  29.649  30.600  1.00  0.00     0.010 A 
ATOM     75  C   UNL A   1      39.825  29.834  28.316  1.00  0.00     0.010 A 
ATOM     76  C   UNL A   1      39.342  29.960  31.071  1.00  0.00     0.020 A 
ATOM     77  C   UNL A   1      38.551  30.171  28.785  1.00  0.00     0.020 A 
ATOM     78  C   UNL A   1      38.315  30.221  30.160  1.00  0.00     0.054 A 
BRANCH  78  79
ATOM     79  S   UNL A   1      36.677  30.677  30.792  1.00  0.00     0.124 S 
ATOM     80  O   UNL A   1      35.926  30.897  29.560  1.00  0.00    -0.237 OA
ATOM     81  O   UNL A   1      36.296  29.496  31.563  1.00  0.00    -0.237 OA
ATOM     82  O   UNL A   1      36.940  31.873  31.590  1.00  0.00    -0.744 OA
ENDBRANCH  78  79
ENDBRANCH  50  73
BRANCH  62  83
ATOM     83  C   UNL A   1      46.831  33.171  28.721  1.00  0.00    -0.014 A 
ATOM     84  C   UNL A   1      46.669  34.193  27.770  1.00  0.00     0.010 A 
ATOM     85  C   UNL A   1      47.274  33.501  30.016  1.00  0.00     0.010 A 
ATOM     86  C   UNL A   1      46.969  35.517  28.101  1.00  0.00     0.020 A 
ATOM     87  C   UNL A   1      47.550  34.827  30.358  1.00  0.00     0.020 A 
ATOM     88  C   UNL A   1      47.407  35.826  29.393  1.00  0.00     0.054 A 
BRANCH  88  89
ATOM     89  S   UNL A   1      47.737  37.559  29.814  1.00  0.00     0.124 S 
ATOM     90  O   UNL A   1      49.079  37.753  29.271  1.00  0.00    -0.237 OA
ATOM     91  O   UNL A   1      46.668  38.269  29.116  1.00  0.00    -0.237 OA
ATOM     92  O   UNL A   1      47.645  37.585  31.272  1.00  0.00    -0.744 OA
ENDBRANCH  88  89
ENDBRANCH  62  83
ENDBRANCH  36  37
ENDBRANCH  28  31
ENDBRANCH  26  27
ENDBRANCH  25  26
ENDBRANCH   1  25
TORSDOF 17
ENDMDL
MODEL 2
REMARK VINA RESULT:      -9.7      5.278     10.295
REMARK SMILES CN(c1ccc(C(N)=O)nn1)[C@H]1COC[C@@H]1C(=O)NCCCCNC(=O)c1ccc(-c2c3nc(c(-c4ccc(S(=O)(=O)[O-])cc4)c4ccc([nH]4)c(-c4ccc(S(=O)(=O)[O-])cc4)c4nc(c(-c5ccc(S(=O)(=O)[O-])cc5)c5ccc2[nH]5)C=C4)C=C3)cc1
REMARK SMILES IDX 21 1 20 2 19 3 17 4 18 5 16 7 12 8 13 9 14 10 15 11 2 12
REMARK SMILES IDX 1 13 3 14 4 15 11 16 5 17 10 18 6 19 7 20 8 21 9 22 22 25
REMARK SMILES IDX 23 26 24 27 25 28 26 30 27 31 28 32 86 33 29 34 85 35 30 36
REMARK SMILES IDX 31 37 32 38 79 39 33 40 84 41 78 42 80 43 34 44 83 45 77 46
REMARK SMILES IDX 76 47 35 49 65 50 46 51 64 52 47 53 50 54 63 55 81 56 48 57
REMARK SMILES IDX 49 58 62 60 82 61 51 62 36 63 37 64 45 65 38 66 44 67 39 68
REMARK SMILES IDX 40 69 41 70 42 71 43 72 66 73 67 74 75 75 68 76 74 77 69 78
REMARK SMILES IDX 70 79 71 80 72 81 73 82 52 83 53 84 61 85 54 86 60 87 55 88
REMARK SMILES IDX 56 89 57 90 58 91 59 92
REMARK H PARENT 19 6 8 23 8 24 24 29 80 48 50 59
REMARK Flexibility Score: inf
ROOT
ATOM      1  C   UNL A   1      32.689  27.099  24.646  1.00  0.00     0.023 C 
ENDROOT
BRANCH   1   2
ATOM      2  C   UNL A   1      31.363  26.385  24.418  1.00  0.00     0.116 C 
BRANCH   2   3
ATOM      3  N   UNL A   1      30.908  25.635  25.575  1.00  0.00    -0.356 N 
ATOM      4  C   UNL A   1      31.057  24.353  25.988  1.00  0.00     0.227 C 
ATOM      5  O   UNL A   1      30.628  24.118  27.127  1.00  0.00    -0.275 OA
ATOM      6  H   UNL A   1      30.372  26.179  26.197  1.00  0.00     0.163 HD
BRANCH   4   7
ATOM      7  C   UNL A   1      31.746  23.217  25.228  1.00  0.00     0.129 C 
ATOM      8  C   UNL A   1      33.255  23.222  25.455  1.00  0.00     0.124 C 
ATOM      9  C   UNL A   1      33.662  24.166  24.314  1.00  0.00     0.186 C 
ATOM     10  O   UNL A   1      32.812  23.844  23.196  1.00  0.00    -0.378 OA
ATOM     11  C   UNL A   1      31.631  23.200  23.723  1.00  0.00     0.176 C 
BRANCH   8  12
ATOM     12  N   UNL A   1      33.970  21.908  25.344  1.00  0.00    -0.352 N 
ATOM     13  C   UNL A   1      33.186  20.692  25.138  1.00  0.00     0.145 C 
BRANCH  12  14
ATOM     14  C   UNL A   1      35.345  21.768  25.402  1.00  0.00     0.151 A 
ATOM     15  C   UNL A   1      35.979  20.638  24.882  1.00  0.00     0.051 A 
ATOM     16  N   UNL A   1      36.105  22.690  26.029  1.00  0.00    -0.132 NA
ATOM     17  C   UNL A   1      37.354  20.459  25.025  1.00  0.00     0.040 A 
ATOM     18  N   UNL A   1      37.473  22.546  26.166  1.00  0.00    -0.143 NA
ATOM     19  C   UNL A   1      38.069  21.442  25.676  1.00  0.00     0.150 A 
BRANCH  19  20
ATOM     20  C   UNL A   1      39.539  21.324  25.871  1.00  0.00     0.269 C 
ATOM     21  N   UNL A   1      40.238  22.500  25.915  1.00  0.00    -0.364 N 
ATOM     22  O   UNL A   1      40.100  20.240  25.986  1.00  0.00    -0.268 OA
ATOM     23  H   UNL A   1      39.764  23.359  25.820  1.00  0.00     0.160 HD
ATOM     24  H   UNL A   1      41.214  22.489  26.042  1.00  0.00     0.160 HD
ENDBRANCH  19  20
ENDBRANCH  12  14
ENDBRANCH   8  12
ENDBRANCH   4   7
ENDBRANCH   2   3
ENDBRANCH   1   2
BRANCH   1  25
ATOM     25  C   UNL A   1      32.731  28.005  25.873  1.00  0.00     0.023 C 
BRANCH  25  26
ATOM     26  C   UNL A   1      34.004  28.828  26.045  1.00  0.00     0.116 C 
BRANCH  26  27
ATOM     27  N   UNL A   1      33.779  30.169  26.569  1.00  0.00    -0.352 N 
ATOM     28  C   UNL A   1      34.539  30.871  27.475  1.00  0.00     0.251 C 
ATOM     29  H   UNL A   1      32.979  30.633  26.230  1.00  0.00     0.163 HD
ATOM     30  O   UNL A   1      34.182  31.976  27.867  1.00  0.00    -0.269 OA
BRANCH  28  31
ATOM     31  C   UNL A   1      35.768  30.247  28.004  1.00  0.00     0.039 A 
ATOM     32  C   UNL A   1      36.965  30.416  27.305  1.00  0.00     0.014 A 
ATOM     33  C   UNL A   1      35.746  29.579  29.230  1.00  0.00     0.014 A 
ATOM     34  C   UNL A   1      38.161  29.988  27.883  1.00  0.00     0.010 A 
ATOM     35  C   UNL A   1      36.945  29.224  29.836  1.00  0.00     0.010 A 
ATOM     36  C   UNL A   1      38.165  29.433  29.173  1.00  0.00    -0.014 A 
BRANCH  36  37
ATOM     37  C   UNL A   1      39.432  29.071  29.857  1.00  0.00     0.031 A 
ATOM     38  C   UNL A   1      39.901  29.874  31.038  1.00  0.00     0.074 A 
ATOM     39  C   UNL A   1      40.202  28.080  29.363  1.00  0.00     0.049 A 
ATOM     40  N   UNL A   1      41.019  29.778  31.710  1.00  0.00    -0.248 NA
ATOM     41  C   UNL A   1      39.008  30.948  31.507  1.00  0.00     0.031 C 
ATOM     42  C   UNL A   1      39.883  27.260  28.191  1.00  0.00     0.029 A 
ATOM     43  N   UNL A   1      41.420  27.602  29.778  1.00  0.00    -0.354 N 
ATOM     44  C   UNL A   1      40.976  30.791  32.660  1.00  0.00     0.074 A 
ATOM     45  C   UNL A   1      39.745  31.520  32.448  1.00  0.00     0.031 C 
ATOM     46  C   UNL A   1      40.868  26.366  27.998  1.00  0.00     0.029 A 
ATOM     47  C   UNL A   1      41.904  26.574  29.004  1.00  0.00     0.049 A 
ATOM     48  H   UNL A   1      41.901  27.962  30.558  1.00  0.00     0.167 HD
ATOM     49  C   UNL A   1      41.871  31.079  33.634  1.00  0.00     0.031 A 
ATOM     50  C   UNL A   1      43.056  25.879  29.089  1.00  0.00     0.031 A 
ATOM     51  C   UNL A   1      43.083  30.337  33.857  1.00  0.00     0.049 A 
ATOM     52  C   UNL A   1      44.028  26.206  30.190  1.00  0.00     0.074 A 
ATOM     53  C   UNL A   1      44.024  30.508  34.858  1.00  0.00     0.029 A 
ATOM     54  N   UNL A   1      43.520  29.282  33.071  1.00  0.00    -0.354 N 
ATOM     55  N   UNL A   1      43.939  27.127  31.120  1.00  0.00    -0.248 NA
ATOM     56  C   UNL A   1      45.249  25.392  30.260  1.00  0.00     0.031 C 
ATOM     57  C   UNL A   1      45.052  29.583  34.652  1.00  0.00     0.029 A 
ATOM     58  C   UNL A   1      44.725  28.802  33.553  1.00  0.00     0.049 A 
ATOM     59  H   UNL A   1      43.044  28.926  32.286  1.00  0.00     0.167 HD
ATOM     60  C   UNL A   1      45.079  26.985  31.902  1.00  0.00     0.074 A 
ATOM     61  C   UNL A   1      45.836  25.883  31.343  1.00  0.00     0.031 C 
ATOM     62  C   UNL A   1      45.463  27.701  32.988  1.00  0.00     0.031 A 
BRANCH  49  63
ATOM     63  C   UNL A   1      41.568  32.248  34.531  1.00  0.00    -0.014 A 
ATOM     64  C   UNL A   1      40.844  32.078  35.725  1.00  0.00     0.010 A 
ATOM     65  C   UNL A   1      42.036  33.531  34.190  1.00  0.00     0.010 A 
ATOM     66  C   UNL A   1      40.553  33.176  36.539  1.00  0.00     0.020 A 
ATOM     67  C   UNL A   1      41.771  34.626  35.017  1.00  0.00     0.020 A 
ATOM     68  C   UNL A   1      41.014  34.444  36.177  1.00  0.00     0.054 A 
BRANCH  68  69
ATOM     69  S   UNL A   1      40.635  35.850  37.259  1.00  0.00     0.124 S 
ATOM     70  O   UNL A   1      39.999  35.190  38.396  1.00  0.00    -0.237 OA
ATOM     71  O   UNL A   1      41.955  36.419  37.521  1.00  0.00    -0.237 OA
ATOM     72  O   UNL A   1      39.751  36.683  36.448  1.00  0.00    -0.744 OA
ENDBRANCH  68  69
ENDBRANCH  49  63
BRANCH  50  73
ATOM     73  C   UNL A   1      43.342  24.792  28.115  1.00  0.00    -0.014 A 
ATOM     74  C   UNL A   1      43.969  25.081  26.889  1.00  0.00     0.010 A 
ATOM     75  C   UNL A   1      43.005  23.458  28.412  1.00  0.00     0.010 A 
ATOM     76  C   UNL A   1      44.238  24.062  25.972  1.00  0.00     0.020 A 
ATOM     77  C   UNL A   1      43.295  22.433  27.507  1.00  0.00     0.020 A 
ATOM     78  C   UNL A   1      43.901  22.743  26.288  1.00  0.00     0.054 A 
BRANCH  78  79
ATOM     79  S   UNL A   1      44.308  21.427  25.106  1.00  0.00     0.124 S 
ATOM     80  O   UNL A   1      43.265  20.442  25.377  1.00  0.00    -0.237 OA
ATOM     81  O   UNL A   1      44.211  22.115  23.822  1.00  0.00    -0.237 OA
ATOM     82  O   UNL A   1      45.661  21.031  25.490  1.00  0.00    -0.744 OA
ENDBRANCH  78  79
ENDBRANCH  50  73
BRANCH  62  83
ATOM     83  C   UNL A   1      46.741  27.296  33.669  1.00  0.00    -0.014 A 
ATOM     84  C   UNL A   1      47.971  27.882  33.322  1.00  0.00     0.010 A 
ATOM     85  C   UNL A   1      46.698  26.362  34.721  1.00  0.00     0.010 A 
ATOM     86  C   UNL A   1      49.138  27.522  33.999  1.00  0.00     0.020 A 
ATOM     87  C   UNL A   1      47.859  26.018  35.417  1.00  0.00     0.020 A 
ATOM     88  C   UNL A   1      49.075  26.593  35.043  1.00  0.00     0.054 A 
BRANCH  88  89
ATOM     89  S   UNL A   1      50.596  26.182  35.941  1.00  0.00     0.124 S 
ATOM     90  O   UNL A   1      50.615  24.724  35.856  1.00  0.00    -0.237 OA
ATOM     91  O   UNL A   1      51.625  26.871  35.166  1.00  0.00    -0.237 OA
ATOM     92  O   UNL A   1      50.365  26.726  37.279  1.00  0.00    -0.744 OA
ENDBRANCH  88  89
ENDBRANCH  62  83
ENDBRANCH  36  37
ENDBRANCH  28  31
ENDBRANCH  26  27
ENDBRANCH  25  26
ENDBRANCH   1  25
TORSDOF 17
ENDMDL
MODEL 3
REMARK VINA RESULT:      -9.7      8.236     14.207
REMARK SMILES CN(c1ccc(C(N)=O)nn1)[C@H]1COC[C@@H]1C(=O)NCCCCNC(=O)c1ccc(-c2c3nc(c(-c4ccc(S(=O)(=O)[O-])cc4)c4ccc([nH]4)c(-c4ccc(S(=O)(=O)[O-])cc4)c4nc(c(-c5ccc(S(=O)(=O)[O-])cc5)c5ccc2[nH]5)C=C4)C=C3)cc1
REMARK SMILES IDX 21 1 20 2 19 3 17 4 18 5 16 7 12 8 13 9 14 10 15 11 2 12
REMARK SMILES IDX 1 13 3 14 4 15 11 16 5 17 10 18 6 19 7 20 8 21 9 22 22 25
REMARK SMILES IDX 23 26 24 27 25 28 26 30 27 31 28 32 86 33 29 34 85 35 30 36
REMARK SMILES IDX 31 37 32 38 79 39 33 40 84 41 78 42 80 43 34 44 83 45 77 46
REMARK SMILES IDX 76 47 35 49 65 50 46 51 64 52 47 53 50 54 63 55 81 56 48 57
REMARK SMILES IDX 49 58 62 60 82 61 51 62 36 63 37 64 45 65 38 66 44 67 39 68
REMARK SMILES IDX 40 69 41 70 42 71 43 72 66 73 67 74 75 75 68 76 74 77 69 78
REMARK SMILES IDX 70 79 71 80 72 81 73 82 52 83 53 84 61 85 54 86 60 87 55 88
REMARK SMILES IDX 56 89 57 90 58 91 59 92
REMARK H PARENT 19 6 8 23 8 24 24 29 80 48 50 59
REMARK Flexibility Score: inf
ROOT
ATOM      1  C   UNL A   1      50.311  24.402  36.178  1.00  0.00     0.023 C 
ENDROOT
BRANCH   1   2
ATOM      2  C   UNL A   1      50.113  23.299  35.146  1.00  0.00     0.116 C 
BRANCH   2   3
ATOM      3  N   UNL A   1      49.739  22.025  35.731  1.00  0.00    -0.356 N 
ATOM      4  C   UNL A   1      48.619  21.261  35.695  1.00  0.00     0.227 C 
ATOM      5  O   UNL A   1      48.732  20.145  36.221  1.00  0.00    -0.275 OA
ATOM      6  H   UNL A   1      50.457  21.627  36.275  1.00  0.00     0.163 HD
BRANCH   4   7
ATOM      7  C   UNL A   1      47.288  21.612  35.026  1.00  0.00     0.129 C 
ATOM      8  C   UNL A   1      46.460  22.564  35.885  1.00  0.00     0.124 C 
ATOM      9  C   UNL A   1      45.706  21.524  36.728  1.00  0.00     0.186 C 
ATOM     10  O   UNL A   1      45.390  20.433  35.842  1.00  0.00    -0.378 OA
ATOM     11  C   UNL A   1      46.321  20.488  34.740  1.00  0.00     0.176 C 
BRANCH   8  12
ATOM     12  N   UNL A   1      45.503  23.473  35.173  1.00  0.00    -0.352 N 
ATOM     13  C   UNL A   1      45.792  23.866  33.796  1.00  0.00     0.145 C 
BRANCH  12  14
ATOM     14  C   UNL A   1      44.333  23.956  35.733  1.00  0.00     0.151 A 
ATOM     15  C   UNL A   1      43.108  23.815  35.079  1.00  0.00     0.051 A 
ATOM     16  N   UNL A   1      44.358  24.642  36.894  1.00  0.00    -0.132 NA
ATOM     17  C   UNL A   1      41.947  24.384  35.602  1.00  0.00     0.040 A 
ATOM     18  N   UNL A   1      43.218  25.198  37.444  1.00  0.00    -0.143 NA
ATOM     19  C   UNL A   1      42.045  25.070  36.793  1.00  0.00     0.150 A 
BRANCH  19  20
ATOM     20  C   UNL A   1      40.854  25.709  37.415  1.00  0.00     0.269 C 
ATOM     21  N   UNL A   1      39.966  24.863  38.026  1.00  0.00    -0.364 N 
ATOM     22  O   UNL A   1      40.670  26.920  37.386  1.00  0.00    -0.268 OA
ATOM     23  H   UNL A   1      40.137  23.893  38.035  1.00  0.00     0.160 HD
ATOM     24  H   UNL A   1      39.158  25.224  38.455  1.00  0.00     0.160 HD
ENDBRANCH  19  20
ENDBRANCH  12  14
ENDBRANCH   8  12
ENDBRANCH   4   7
ENDBRANCH   2   3
ENDBRANCH   1   2
BRANCH   1  25
ATOM     25  C   UNL A   1      49.166  25.405  36.278  1.00  0.00     0.023 C 
BRANCH  25  26
ATOM     26  C   UNL A   1      49.578  26.866  36.429  1.00  0.00     0.116 C 
BRANCH  26  27
ATOM     27  N   UNL A   1      49.345  27.415  37.759  1.00  0.00    -0.352 N 
ATOM     28  C   UNL A   1      48.287  28.177  38.195  1.00  0.00     0.251 C 
ATOM     29  H   UNL A   1      50.035  27.213  38.433  1.00  0.00     0.163 HD
ATOM     30  O   UNL A   1      48.263  28.619  39.339  1.00  0.00    -0.269 OA
BRANCH  28  31
ATOM     31  C   UNL A   1      47.202  28.494  37.245  1.00  0.00     0.039 A 
ATOM     32  C   UNL A   1      45.982  27.825  37.365  1.00  0.00     0.014 A 
ATOM     33  C   UNL A   1      47.367  29.513  36.304  1.00  0.00     0.014 A 
ATOM     34  C   UNL A   1      44.895  28.240  36.596  1.00  0.00     0.010 A 
ATOM     35  C   UNL A   1      46.264  29.974  35.596  1.00  0.00     0.010 A 
ATOM     36  C   UNL A   1      45.015  29.348  35.740  1.00  0.00    -0.014 A 
BRANCH  36  37
ATOM     37  C   UNL A   1      43.848  29.879  34.993  1.00  0.00     0.031 A 
ATOM     38  C   UNL A   1      42.944  30.892  35.640  1.00  0.00     0.074 A 
ATOM     39  C   UNL A   1      43.551  29.388  33.773  1.00  0.00     0.049 A 
ATOM     40  N   UNL A   1      41.826  31.406  35.193  1.00  0.00    -0.248 NA
ATOM     41  C   UNL A   1      43.330  31.367  36.980  1.00  0.00     0.031 C 
ATOM     42  C   UNL A   1      44.321  28.366  33.058  1.00  0.00     0.029 A 
ATOM     43  N   UNL A   1      42.514  29.675  32.921  1.00  0.00    -0.354 N 
ATOM     44  C   UNL A   1      41.365  32.241  36.203  1.00  0.00     0.074 A 
ATOM     45  C   UNL A   1      42.296  32.129  37.304  1.00  0.00     0.031 C 
ATOM     46  C   UNL A   1      43.742  28.131  31.868  1.00  0.00     0.029 A 
ATOM     47  C   UNL A   1      42.542  28.953  31.752  1.00  0.00     0.049 A 
ATOM     48  H   UNL A   1      41.816  30.337  33.128  1.00  0.00     0.167 HD
ATOM     49  C   UNL A   1      40.275  33.043  36.208  1.00  0.00     0.031 A 
ATOM     50  C   UNL A   1      41.695  28.947  30.704  1.00  0.00     0.031 A 
ATOM     51  C   UNL A   1      39.364  33.169  35.102  1.00  0.00     0.049 A 
ATOM     52  C   UNL A   1      40.498  29.858  30.725  1.00  0.00     0.074 A 
ATOM     53  C   UNL A   1      38.266  34.003  34.984  1.00  0.00     0.029 A 
ATOM     54  N   UNL A   1      39.447  32.444  33.923  1.00  0.00    -0.354 N 
ATOM     55  N   UNL A   1      40.114  30.690  31.664  1.00  0.00    -0.248 NA
ATOM     56  C   UNL A   1      39.629  29.840  29.540  1.00  0.00     0.031 C 
ATOM     57  C   UNL A   1      37.660  33.752  33.748  1.00  0.00     0.029 A 
ATOM     58  C   UNL A   1      38.411  32.799  33.078  1.00  0.00     0.049 A 
ATOM     59  H   UNL A   1      40.141  31.776  33.718  1.00  0.00     0.167 HD
ATOM     60  C   UNL A   1      38.973  31.314  31.172  1.00  0.00     0.074 A 
ATOM     61  C   UNL A   1      38.737  30.772  29.848  1.00  0.00     0.031 C 
ATOM     62  C   UNL A   1      38.193  32.254  31.761  1.00  0.00     0.031 A 
BRANCH  49  63
ATOM     63  C   UNL A   1      40.011  33.847  37.453  1.00  0.00    -0.014 A 
ATOM     64  C   UNL A   1      40.590  35.115  37.634  1.00  0.00     0.010 A 
ATOM     65  C   UNL A   1      39.151  33.338  38.444  1.00  0.00     0.010 A 
ATOM     66  C   UNL A   1      40.352  35.842  38.803  1.00  0.00     0.020 A 
ATOM     67  C   UNL A   1      38.887  34.075  39.601  1.00  0.00     0.020 A 
ATOM     68  C   UNL A   1      39.505  35.315  39.782  1.00  0.00     0.054 A 
BRANCH  68  69
ATOM     69  S   UNL A   1      39.201  36.286  41.284  1.00  0.00     0.124 S 
ATOM     70  O   UNL A   1      38.157  35.503  41.941  1.00  0.00    -0.237 OA
ATOM     71  O   UNL A   1      40.505  36.273  41.944  1.00  0.00    -0.237 OA
ATOM     72  O   UNL A   1      38.777  37.588  40.775  1.00  0.00    -0.744 OA
ENDBRANCH  68  69
ENDBRANCH  49  63
BRANCH  50  73
ATOM     73  C   UNL A   1      41.959  28.061  29.538  1.00  0.00    -0.014 A 
ATOM     74  C   UNL A   1      41.313  26.817  29.427  1.00  0.00     0.010 A 
ATOM     75  C   UNL A   1      42.848  28.462  28.523  1.00  0.00     0.010 A 
ATOM     76  C   UNL A   1      41.561  25.983  28.334  1.00  0.00     0.020 A 
ATOM     77  C   UNL A   1      43.079  27.641  27.415  1.00  0.00     0.020 A 
ATOM     78  C   UNL A   1      42.442  26.401  27.333  1.00  0.00     0.054 A 
BRANCH  78  79
ATOM     79  S   UNL A   1      42.708  25.327  25.895  1.00  0.00     0.124 S 
ATOM     80  O   UNL A   1      44.115  24.965  26.042  1.00  0.00    -0.237 OA
ATOM     81  O   UNL A   1      41.750  24.249  26.125  1.00  0.00    -0.237 OA
ATOM     82  O   UNL A   1      42.398  26.194  24.760  1.00  0.00    -0.744 OA
ENDBRANCH  78  79
ENDBRANCH  50  73
BRANCH  62  83
ATOM     83  C   UNL A   1      37.030  32.786  30.970  1.00  0.00    -0.014 A 
ATOM     84  C   UNL A   1      35.717  32.356  31.224  1.00  0.00     0.010 A 
ATOM     85  C   UNL A   1      37.252  33.784  30.003  1.00  0.00     0.010 A 
ATOM     86  C   UNL A   1      34.647  32.897  30.507  1.00  0.00     0.020 A 
ATOM     87  C   UNL A   1      36.183  34.346  29.301  1.00  0.00     0.020 A 
ATOM     88  C   UNL A   1      34.887  33.889  29.550  1.00  0.00     0.054 A 
BRANCH  88  89
ATOM     89  S   UNL A   1      33.477  34.614  28.670  1.00  0.00     0.124 S 
ATOM     90  O   UNL A   1      33.101  33.537  27.758  1.00  0.00    -0.237 OA
ATOM     91  O   UNL A   1      32.528  34.885  29.748  1.00  0.00    -0.237 OA
ATOM     92  O   UNL A   1      34.040  35.803  28.032  1.00  0.00    -0.744 OA
ENDBRANCH  88  89
ENDBRANCH  62  83
ENDBRANCH  36  37
ENDBRANCH  28  31
ENDBRANCH  26  27
ENDBRANCH  25  26
ENDBRANCH   1  25
TORSDOF 17
ENDMDL
