MODEL 1
REMARK VINA RESULT:     -13.8      0.000      0.000
REMARK SMILES Cc1c(NC(=O)[C@@H]2CC=CC[C@@H]2C(=O)NCCCCNC(=O)c2ccc(-c3c4nc(c(-c5ccc(S(=O)(=O)[O-])cc5)c5ccc([nH]5)c(-c5ccc(S(=O)(=O)[O-])cc5)c5nc(c(-c6ccc(S(=O)(=O)[O-])cc6)c6ccc3[nH]6)C=C5)C=C4)cc2)cccc1C(=O)N1CCOCC1
REMARK SMILES IDX 17 1 16 2 15 3 13 4 14 5 12 7 7 8 8 9 9 10 11 11 10 12 5 13
REMARK SMILES IDX 4 14 6 16 3 17 1 18 2 19 86 20 83 21 85 22 84 23 87 24 88 25
REMARK SMILES IDX 89 26 90 27 94 28 91 29 93 30 92 31 18 32 19 33 20 34 21 35
REMARK SMILES IDX 22 37 23 38 24 39 82 40 25 41 81 42 26 43 27 44 28 45 75 46
REMARK SMILES IDX 29 47 80 48 74 49 76 50 30 51 79 52 73 53 72 54 31 56 61 57
REMARK SMILES IDX 42 58 60 59 43 60 46 61 59 62 77 63 44 64 45 65 58 67 78 68
REMARK SMILES IDX 47 69 32 70 33 71 41 72 34 73 40 74 35 75 36 76 37 77 38 78
REMARK SMILES IDX 39 79 62 80 63 81 71 82 64 83 70 84 65 85 66 86 67 87 68 88
REMARK SMILES IDX 69 89 48 90 49 91 57 92 50 93 56 94 51 95 52 96 53 97 54 98
REMARK SMILES IDX 55 99
REMARK H PARENT 15 6 4 15 20 36 76 55 46 66
REMARK Flexibility Score: inf
ROOT
ATOM      1  C   UNL A   1      36.446  21.115  25.519  1.00  0.00     0.023 C 
ENDROOT
BRANCH   1   2
ATOM      2  C   UNL A   1      36.250  22.571  26.101  1.00  0.00     0.116 C 
BRANCH   2   3
ATOM      3  N   UNL A   1      35.122  22.814  27.024  1.00  0.00    -0.356 N 
ATOM      4  C   UNL A   1      33.799  23.103  26.848  1.00  0.00     0.224 C 
ATOM      5  O   UNL A   1      33.033  22.726  27.754  1.00  0.00    -0.275 OA
ATOM      6  H   UNL A   1      35.381  22.755  27.972  1.00  0.00     0.163 HD
BRANCH   4   7
ATOM      7  C   UNL A   1      33.159  23.949  25.719  1.00  0.00     0.095 C 
ATOM      8  C   UNL A   1      31.692  23.759  25.287  1.00  0.00     0.095 C 
ATOM      9  C   UNL A   1      31.505  22.335  24.737  1.00  0.00     0.041 C 
ATOM     10  C   UNL A   1      32.525  21.995  23.695  1.00  0.00    -0.030 C 
ATOM     11  C   UNL A   1      34.047  23.831  24.451  1.00  0.00     0.041 C 
ATOM     12  C   UNL A   1      33.672  22.678  23.559  1.00  0.00    -0.030 C 
BRANCH   8  13
ATOM     13  C   UNL A   1      30.754  24.319  26.346  1.00  0.00     0.228 C 
ATOM     14  N   UNL A   1      30.593  25.632  26.636  1.00  0.00    -0.326 N 
ATOM     15  H   UNL A   1      29.854  25.767  27.274  1.00  0.00     0.169 HD
ATOM     16  O   UNL A   1      30.081  23.562  27.057  1.00  0.00    -0.274 OA
BRANCH  14  17
ATOM     17  C   UNL A   1      31.186  26.855  26.280  1.00  0.00     0.044 A 
ATOM     18  C   UNL A   1      30.214  26.479  24.005  1.00  0.00     0.047 C 
ATOM     19  C   UNL A   1      30.868  27.391  24.995  1.00  0.00    -0.015 A 
ATOM     20  C   UNL A   1      31.303  28.675  24.617  1.00  0.00     0.045 A 
ATOM     21  C   UNL A   1      32.043  27.563  27.113  1.00  0.00     0.026 A 
ATOM     22  C   UNL A   1      32.222  29.321  25.460  1.00  0.00     0.014 A 
ATOM     23  C   UNL A   1      32.608  28.759  26.678  1.00  0.00     0.003 A 
BRANCH  20  24
ATOM     24  C   UNL A   1      31.055  29.315  23.279  1.00  0.00     0.254 C 
ATOM     25  O   UNL A   1      31.866  29.075  22.381  1.00  0.00    -0.269 OA
ATOM     26  N   UNL A   1      29.912  30.070  23.019  1.00  0.00    -0.334 N 
ATOM     27  C   UNL A   1      29.305  31.089  23.891  1.00  0.00     0.148 C 
ATOM     28  C   UNL A   1      29.412  30.092  21.644  1.00  0.00     0.148 C 
ATOM     29  C   UNL A   1      27.771  31.168  23.725  1.00  0.00     0.181 C 
ATOM     30  C   UNL A   1      27.883  30.066  21.638  1.00  0.00     0.181 C 
ATOM     31  O   UNL A   1      27.373  31.207  22.344  1.00  0.00    -0.378 OA
ENDBRANCH  20  24
ENDBRANCH  14  17
ENDBRANCH   8  13
ENDBRANCH   4   7
ENDBRANCH   2   3
ENDBRANCH   1   2
BRANCH   1  32
ATOM     32  C   UNL A   1      37.730  20.416  24.802  1.00  0.00     0.023 C 
BRANCH  32  33
ATOM     33  C   UNL A   1      38.676  19.349  25.542  1.00  0.00     0.116 C 
BRANCH  33  34
ATOM     34  N   UNL A   1      40.182  19.633  25.894  1.00  0.00    -0.352 N 
ATOM     35  C   UNL A   1      40.948  20.284  26.932  1.00  0.00     0.251 C 
ATOM     36  H   UNL A   1      40.778  19.258  25.206  1.00  0.00     0.163 HD
ATOM     37  O   UNL A   1      41.766  19.540  27.502  1.00  0.00    -0.269 OA
BRANCH  35  38
ATOM     38  C   UNL A   1      40.986  21.760  27.443  1.00  0.00     0.039 A 
ATOM     39  C   UNL A   1      40.213  22.770  26.810  1.00  0.00     0.014 A 
ATOM     40  C   UNL A   1      41.830  22.244  28.432  1.00  0.00     0.014 A 
ATOM     41  C   UNL A   1      40.683  24.131  26.758  1.00  0.00     0.010 A 
ATOM     42  C   UNL A   1      42.312  23.587  28.369  1.00  0.00     0.010 A 
ATOM     43  C   UNL A   1      41.878  24.498  27.394  1.00  0.00    -0.014 A 
BRANCH  43  44
ATOM     44  C   UNL A   1      42.748  25.662  26.962  1.00  0.00     0.031 A 
ATOM     45  C   UNL A   1      44.179  25.541  26.715  1.00  0.00     0.074 A 
ATOM     46  C   UNL A   1      42.345  26.904  26.572  1.00  0.00     0.049 A 
ATOM     47  N   UNL A   1      45.082  26.334  27.199  1.00  0.00    -0.248 NA
ATOM     48  C   UNL A   1      44.658  24.599  25.720  1.00  0.00     0.031 C 
ATOM     49  C   UNL A   1      43.034  28.090  26.029  1.00  0.00     0.029 A 
ATOM     50  N   UNL A   1      41.063  27.375  26.561  1.00  0.00    -0.354 N 
ATOM     51  C   UNL A   1      46.147  26.242  26.330  1.00  0.00     0.074 A 
ATOM     52  C   UNL A   1      45.909  25.031  25.561  1.00  0.00     0.031 C 
ATOM     53  C   UNL A   1      42.247  29.181  26.174  1.00  0.00     0.029 A 
ATOM     54  C   UNL A   1      41.023  28.745  26.800  1.00  0.00     0.049 A 
ATOM     55  H   UNL A   1      40.268  26.816  26.405  1.00  0.00     0.167 HD
ATOM     56  C   UNL A   1      46.986  27.297  26.089  1.00  0.00     0.031 A 
ATOM     57  C   UNL A   1      40.391  29.166  27.938  1.00  0.00     0.031 A 
ATOM     58  C   UNL A   1      46.490  28.569  26.650  1.00  0.00     0.049 A 
ATOM     59  C   UNL A   1      41.402  29.622  28.940  1.00  0.00     0.074 A 
ATOM     60  C   UNL A   1      46.042  29.743  26.053  1.00  0.00     0.029 A 
ATOM     61  N   UNL A   1      46.106  28.663  27.989  1.00  0.00    -0.354 N 
ATOM     62  N   UNL A   1      42.670  29.505  28.684  1.00  0.00    -0.248 NA
ATOM     63  C   UNL A   1      41.169  30.254  30.235  1.00  0.00     0.031 C 
ATOM     64  C   UNL A   1      45.300  30.483  27.014  1.00  0.00     0.029 A 
ATOM     65  C   UNL A   1      45.326  29.786  28.210  1.00  0.00     0.049 A 
ATOM     66  H   UNL A   1      46.358  28.013  28.685  1.00  0.00     0.167 HD
ATOM     67  C   UNL A   1      43.420  30.048  29.664  1.00  0.00     0.074 A 
ATOM     68  C   UNL A   1      42.437  30.501  30.635  1.00  0.00     0.031 C 
ATOM     69  C   UNL A   1      44.776  30.075  29.539  1.00  0.00     0.031 A 
BRANCH  56  70
ATOM     70  C   UNL A   1      48.097  27.207  25.049  1.00  0.00    -0.014 A 
ATOM     71  C   UNL A   1      49.418  26.862  25.398  1.00  0.00     0.010 A 
ATOM     72  C   UNL A   1      47.866  27.415  23.672  1.00  0.00     0.010 A 
ATOM     73  C   UNL A   1      50.454  26.823  24.445  1.00  0.00     0.020 A 
ATOM     74  C   UNL A   1      48.895  27.450  22.724  1.00  0.00     0.020 A 
ATOM     75  C   UNL A   1      50.189  27.140  23.114  1.00  0.00     0.054 A 
BRANCH  75  76
ATOM     76  S   UNL A   1      51.521  27.073  21.888  1.00  0.00     0.124 S 
ATOM     77  O   UNL A   1      52.488  26.172  22.509  1.00  0.00    -0.237 OA
ATOM     78  O   UNL A   1      50.833  26.545  20.712  1.00  0.00    -0.237 OA
ATOM     79  O   UNL A   1      51.961  28.462  21.772  1.00  0.00    -0.744 OA
ENDBRANCH  75  76
ENDBRANCH  56  70
BRANCH  57  80
ATOM     80  C   UNL A   1      39.044  28.468  28.107  1.00  0.00    -0.014 A 
ATOM     81  C   UNL A   1      39.233  27.317  28.905  1.00  0.00     0.010 A 
ATOM     82  C   UNL A   1      37.951  29.247  28.460  1.00  0.00     0.010 A 
ATOM     83  C   UNL A   1      38.881  27.307  30.274  1.00  0.00     0.020 A 
ATOM     84  C   UNL A   1      37.585  29.209  29.831  1.00  0.00     0.020 A 
ATOM     85  C   UNL A   1      38.190  28.378  30.788  1.00  0.00     0.054 A 
BRANCH  85  86
ATOM     86  S   UNL A   1      38.358  29.022  32.643  1.00  0.00     0.124 S 
ATOM     87  O   UNL A   1      38.263  30.467  32.649  1.00  0.00    -0.237 OA
ATOM     88  O   UNL A   1      37.207  28.416  33.303  1.00  0.00    -0.237 OA
ATOM     89  O   UNL A   1      39.656  28.581  33.058  1.00  0.00    -0.744 OA
ENDBRANCH  85  86
ENDBRANCH  57  80
BRANCH  69  90
ATOM     90  C   UNL A   1      45.718  30.491  30.619  1.00  0.00    -0.014 A 
ATOM     91  C   UNL A   1      46.140  31.813  30.812  1.00  0.00     0.010 A 
ATOM     92  C   UNL A   1      46.112  29.526  31.572  1.00  0.00     0.010 A 
ATOM     93  C   UNL A   1      46.983  32.143  31.875  1.00  0.00     0.020 A 
ATOM     94  C   UNL A   1      46.909  29.855  32.663  1.00  0.00     0.020 A 
ATOM     95  C   UNL A   1      47.366  31.159  32.789  1.00  0.00     0.054 A 
BRANCH  95  96
ATOM     96  S   UNL A   1      48.428  31.613  34.176  1.00  0.00     0.124 S 
ATOM     97  O   UNL A   1      49.068  32.826  33.675  1.00  0.00    -0.237 OA
ATOM     98  O   UNL A   1      47.472  31.813  35.263  1.00  0.00    -0.237 OA
ATOM     99  O   UNL A   1      49.307  30.457  34.331  1.00  0.00    -0.744 OA
ENDBRANCH  95  96
ENDBRANCH  69  90
ENDBRANCH  43  44
ENDBRANCH  35  38
ENDBRANCH  33  34
ENDBRANCH  32  33
ENDBRANCH   1  32
TORSDOF 17
ENDMDL
MODEL 2
REMARK VINA RESULT:     -13.6      3.768      7.539
REMARK SMILES Cc1c(NC(=O)[C@@H]2CC=CC[C@@H]2C(=O)NCCCCNC(=O)c2ccc(-c3c4nc(c(-c5ccc(S(=O)(=O)[O-])cc5)c5ccc([nH]5)c(-c5ccc(S(=O)(=O)[O-])cc5)c5nc(c(-c6ccc(S(=O)(=O)[O-])cc6)c6ccc3[nH]6)C=C5)C=C4)cc2)cccc1C(=O)N1CCOCC1
REMARK SMILES IDX 17 1 16 2 15 3 13 4 14 5 12 7 7 8 8 9 9 10 11 11 10 12 5 13
REMARK SMILES IDX 4 14 6 16 3 17 1 18 2 19 86 20 83 21 85 22 84 23 87 24 88 25
REMARK SMILES IDX 89 26 90 27 94 28 91 29 93 30 92 31 18 32 19 33 20 34 21 35
REMARK SMILES IDX 22 37 23 38 24 39 82 40 25 41 81 42 26 43 27 44 28 45 75 46
REMARK SMILES IDX 29 47 80 48 74 49 76 50 30 51 79 52 73 53 72 54 31 56 61 57
REMARK SMILES IDX 42 58 60 59 43 60 46 61 59 62 77 63 44 64 45 65 58 67 78 68
REMARK SMILES IDX 47 69 32 70 33 71 41 72 34 73 40 74 35 75 36 76 37 77 38 78
REMARK SMILES IDX 39 79 62 80 63 81 71 82 64 83 70 84 65 85 66 86 67 87 68 88
REMARK SMILES IDX 69 89 48 90 49 91 57 92 50 93 56 94 51 95 52 96 53 97 54 98
REMARK SMILES IDX 55 99
REMARK H PARENT 15 6 4 15 20 36 76 55 46 66
REMARK Flexibility Score: inf
ROOT
ATOM      1  C   UNL A   1      34.493  30.747  27.386  1.00  0.00     0.023 C 
ENDROOT
BRANCH   1   2
ATOM      2  C   UNL A   1      33.818  29.414  26.872  1.00  0.00     0.116 C 
BRANCH   2   3
ATOM      3  N   UNL A   1      33.861  29.117  25.425  1.00  0.00    -0.356 N 
ATOM      4  C   UNL A   1      32.907  28.945  24.463  1.00  0.00     0.224 C 
ATOM      5  O   UNL A   1      33.244  29.237  23.302  1.00  0.00    -0.275 OA
ATOM      6  H   UNL A   1      34.778  29.022  25.079  1.00  0.00     0.163 HD
BRANCH   4   7
ATOM      7  C   UNL A   1      31.502  28.313  24.630  1.00  0.00     0.095 C 
ATOM      8  C   UNL A   1      31.293  26.788  24.680  1.00  0.00     0.095 C 
ATOM      9  C   UNL A   1      31.743  26.170  23.346  1.00  0.00     0.041 C 
ATOM     10  C   UNL A   1      31.125  26.859  22.169  1.00  0.00    -0.030 C 
ATOM     11  C   UNL A   1      30.571  28.885  23.527  1.00  0.00     0.041 C 
ATOM     12  C   UNL A   1      30.586  28.084  22.253  1.00  0.00    -0.030 C 
BRANCH   8  13
ATOM     13  C   UNL A   1      31.788  26.231  26.007  1.00  0.00     0.228 C 
ATOM     14  N   UNL A   1      32.677  25.220  26.151  1.00  0.00    -0.326 N 
ATOM     15  H   UNL A   1      32.935  25.103  27.095  1.00  0.00     0.169 HD
ATOM     16  O   UNL A   1      31.353  26.672  27.079  1.00  0.00    -0.274 OA
BRANCH  14  17
ATOM     17  C   UNL A   1      33.336  24.291  25.327  1.00  0.00     0.044 A 
ATOM     18  C   UNL A   1      31.202  22.984  25.370  1.00  0.00     0.047 C 
ATOM     19  C   UNL A   1      32.555  23.228  24.779  1.00  0.00    -0.015 A 
ATOM     20  C   UNL A   1      33.102  22.340  23.833  1.00  0.00     0.045 A 
ATOM     21  C   UNL A   1      34.687  24.365  25.016  1.00  0.00     0.026 A 
ATOM     22  C   UNL A   1      34.485  22.410  23.603  1.00  0.00     0.014 A 
ATOM     23  C   UNL A   1      35.272  23.392  24.209  1.00  0.00     0.003 A 
BRANCH  20  24
ATOM     24  C   UNL A   1      32.379  21.171  23.224  1.00  0.00     0.254 C 
ATOM     25  O   UNL A   1      31.772  21.371  22.169  1.00  0.00    -0.269 OA
ATOM     26  N   UNL A   1      32.459  19.887  23.763  1.00  0.00    -0.334 N 
ATOM     27  C   UNL A   1      32.369  19.515  25.185  1.00  0.00     0.148 C 
ATOM     28  C   UNL A   1      32.326  18.757  22.844  1.00  0.00     0.148 C 
ATOM     29  C   UNL A   1      33.208  18.262  25.520  1.00  0.00     0.181 C 
ATOM     30  C   UNL A   1      33.289  17.636  23.243  1.00  0.00     0.181 C 
ATOM     31  O   UNL A   1      32.998  17.197  24.578  1.00  0.00    -0.378 OA
ENDBRANCH  20  24
ENDBRANCH  14  17
ENDBRANCH   8  13
ENDBRANCH   4   7
ENDBRANCH   2   3
ENDBRANCH   1   2
BRANCH   1  32
ATOM     32  C   UNL A   1      33.889  31.980  28.263  1.00  0.00     0.023 C 
BRANCH  32  33
ATOM     33  C   UNL A   1      34.776  32.850  29.282  1.00  0.00     0.116 C 
BRANCH  33  34
ATOM     34  N   UNL A   1      35.887  32.225  30.205  1.00  0.00    -0.352 N 
ATOM     35  C   UNL A   1      37.162  31.559  30.066  1.00  0.00     0.251 C 
ATOM     36  H   UNL A   1      35.641  32.314  31.154  1.00  0.00     0.163 HD
ATOM     37  O   UNL A   1      38.099  32.132  30.650  1.00  0.00    -0.269 OA
BRANCH  35  38
ATOM     38  C   UNL A   1      37.583  30.226  29.370  1.00  0.00     0.039 A 
ATOM     39  C   UNL A   1      37.680  29.017  30.111  1.00  0.00     0.014 A 
ATOM     40  C   UNL A   1      38.009  30.108  28.055  1.00  0.00     0.014 A 
ATOM     41  C   UNL A   1      38.646  28.010  29.750  1.00  0.00     0.010 A 
ATOM     42  C   UNL A   1      38.981  29.123  27.702  1.00  0.00     0.010 A 
ATOM     43  C   UNL A   1      39.458  28.174  28.618  1.00  0.00    -0.014 A 
BRANCH  43  44
ATOM     44  C   UNL A   1      40.827  27.543  28.456  1.00  0.00     0.031 A 
ATOM     45  C   UNL A   1      41.027  26.118  28.217  1.00  0.00     0.074 A 
ATOM     46  C   UNL A   1      42.027  28.175  28.327  1.00  0.00     0.049 A 
ATOM     47  N   UNL A   1      41.854  25.368  28.875  1.00  0.00    -0.248 NA
ATOM     48  C   UNL A   1      40.418  25.494  27.058  1.00  0.00     0.031 C 
ATOM     49  C   UNL A   1      43.407  27.728  28.057  1.00  0.00     0.029 A 
ATOM     50  N   UNL A   1      42.245  29.522  28.389  1.00  0.00    -0.354 N 
ATOM     51  C   UNL A   1      42.144  24.321  28.026  1.00  0.00     0.074 A 
ATOM     52  C   UNL A   1      41.098  24.347  27.016  1.00  0.00     0.031 C 
ATOM     53  C   UNL A   1      44.279  28.700  28.412  1.00  0.00     0.029 A 
ATOM     54  C   UNL A   1      43.504  29.809  28.908  1.00  0.00     0.049 A 
ATOM     55  H   UNL A   1      41.594  30.203  28.104  1.00  0.00     0.167 HD
ATOM     56  C   UNL A   1      43.362  23.697  28.029  1.00  0.00     0.031 A 
ATOM     57  C   UNL A   1      43.553  30.486  30.096  1.00  0.00     0.031 A 
ATOM     58  C   UNL A   1      44.375  24.409  28.833  1.00  0.00     0.049 A 
ATOM     59  C   UNL A   1      43.968  29.557  31.191  1.00  0.00     0.074 A 
ATOM     60  C   UNL A   1      45.544  25.077  28.486  1.00  0.00     0.029 A 
ATOM     61  N   UNL A   1      44.114  24.776  30.154  1.00  0.00    -0.354 N 
ATOM     62  N   UNL A   1      44.143  28.295  30.942  1.00  0.00    -0.248 NA
ATOM     63  C   UNL A   1      44.261  29.877  32.585  1.00  0.00     0.031 C 
ATOM     64  C   UNL A   1      45.917  25.923  29.566  1.00  0.00     0.029 A 
ATOM     65  C   UNL A   1      45.003  25.746  30.590  1.00  0.00     0.049 A 
ATOM     66  H   UNL A   1      43.391  24.395  30.704  1.00  0.00     0.167 HD
ATOM     67  C   UNL A   1      44.599  27.639  32.028  1.00  0.00     0.074 A 
ATOM     68  C   UNL A   1      44.649  28.670  33.053  1.00  0.00     0.031 C 
ATOM     69  C   UNL A   1      44.900  26.313  31.939  1.00  0.00     0.031 A 
BRANCH  56  70
ATOM     70  C   UNL A   1      43.699  22.609  27.015  1.00  0.00    -0.014 A 
ATOM     71  C   UNL A   1      42.784  21.591  26.684  1.00  0.00     0.010 A 
ATOM     72  C   UNL A   1      44.922  22.580  26.311  1.00  0.00     0.010 A 
ATOM     73  C   UNL A   1      43.109  20.560  25.781  1.00  0.00     0.020 A 
ATOM     74  C   UNL A   1      45.290  21.525  25.467  1.00  0.00     0.020 A 
ATOM     75  C   UNL A   1      44.373  20.522  25.194  1.00  0.00     0.054 A 
BRANCH  75  76
ATOM     76  S   UNL A   1      44.784  19.203  24.021  1.00  0.00     0.124 S 
ATOM     77  O   UNL A   1      44.454  19.804  22.732  1.00  0.00    -0.237 OA
ATOM     78  O   UNL A   1      46.208  18.997  24.274  1.00  0.00    -0.237 OA
ATOM     79  O   UNL A   1      43.920  18.095  24.424  1.00  0.00    -0.744 OA
ENDBRANCH  75  76
ENDBRANCH  56  70
BRANCH  57  80
ATOM     80  C   UNL A   1      42.599  31.678  30.089  1.00  0.00    -0.014 A 
ATOM     81  C   UNL A   1      41.392  31.289  30.714  1.00  0.00     0.010 A 
ATOM     82  C   UNL A   1      43.095  32.907  30.499  1.00  0.00     0.010 A 
ATOM     83  C   UNL A   1      41.101  31.662  32.046  1.00  0.00     0.020 A 
ATOM     84  C   UNL A   1      42.774  33.288  31.828  1.00  0.00     0.020 A 
ATOM     85  C   UNL A   1      41.929  32.557  32.679  1.00  0.00     0.054 A 
BRANCH  85  86
ATOM     86  S   UNL A   1      42.294  32.556  34.615  1.00  0.00     0.124 S 
ATOM     87  O   UNL A   1      41.862  31.293  35.175  1.00  0.00    -0.237 OA
ATOM     88  O   UNL A   1      43.745  32.690  34.672  1.00  0.00    -0.237 OA
ATOM     89  O   UNL A   1      41.517  33.647  35.126  1.00  0.00    -0.744 OA
ENDBRANCH  85  86
ENDBRANCH  57  80
BRANCH  69  90
ATOM     90  C   UNL A   1      45.248  25.443  33.100  1.00  0.00    -0.014 A 
ATOM     91  C   UNL A   1      46.533  24.937  33.332  1.00  0.00     0.010 A 
ATOM     92  C   UNL A   1      44.261  25.216  34.085  1.00  0.00     0.010 A 
ATOM     93  C   UNL A   1      46.803  24.171  34.467  1.00  0.00     0.020 A 
ATOM     94  C   UNL A   1      44.533  24.497  35.244  1.00  0.00     0.020 A 
ATOM     95  C   UNL A   1      45.799  23.952  35.412  1.00  0.00     0.054 A 
BRANCH  95  96
ATOM     96  S   UNL A   1      46.176  22.988  36.890  1.00  0.00     0.124 S 
ATOM     97  O   UNL A   1      45.450  21.748  36.629  1.00  0.00    -0.237 OA
ATOM     98  O   UNL A   1      47.633  22.882  36.844  1.00  0.00    -0.237 OA
ATOM     99  O   UNL A   1      45.650  23.805  37.980  1.00  0.00    -0.744 OA
ENDBRANCH  95  96
ENDBRANCH  69  90
ENDBRANCH  43  44
ENDBRANCH  35  38
ENDBRANCH  33  34
ENDBRANCH  32  33
ENDBRANCH   1  32
TORSDOF 17
ENDMDL
MODEL 3
REMARK VINA RESULT:     -13.5      4.637     10.821
REMARK SMILES Cc1c(NC(=O)[C@@H]2CC=CC[C@@H]2C(=O)NCCCCNC(=O)c2ccc(-c3c4nc(c(-c5ccc(S(=O)(=O)[O-])cc5)c5ccc([nH]5)c(-c5ccc(S(=O)(=O)[O-])cc5)c5nc(c(-c6ccc(S(=O)(=O)[O-])cc6)c6ccc3[nH]6)C=C5)C=C4)cc2)cccc1C(=O)N1CCOCC1
REMARK SMILES IDX 17 1 16 2 15 3 13 4 14 5 12 7 7 8 8 9 9 10 11 11 10 12 5 13
REMARK SMILES IDX 4 14 6 16 3 17 1 18 2 19 86 20 83 21 85 22 84 23 87 24 88 25
REMARK SMILES IDX 89 26 90 27 94 28 91 29 93 30 92 31 18 32 19 33 20 34 21 35
REMARK SMILES IDX 22 37 23 38 24 39 82 40 25 41 81 42 26 43 27 44 28 45 75 46
REMARK SMILES IDX 29 47 80 48 74 49 76 50 30 51 79 52 73 53 72 54 31 56 61 57
REMARK SMILES IDX 42 58 60 59 43 60 46 61 59 62 77 63 44 64 45 65 58 67 78 68
REMARK SMILES IDX 47 69 32 70 33 71 41 72 34 73 40 74 35 75 36 76 37 77 38 78
REMARK SMILES IDX 39 79 62 80 63 81 71 82 64 83 70 84 65 85 66 86 67 87 68 88
REMARK SMILES IDX 69 89 48 90 49 91 57 92 50 93 56 94 51 95 52 96 53 97 54 98
REMARK SMILES IDX 55 99
REMARK H PARENT 15 6 4 15 20 36 76 55 46 66
REMARK Flexibility Score: inf
ROOT
ATOM      1  C   UNL A   1      32.023  30.439  25.734  1.00  0.00     0.023 C 
ENDROOT
BRANCH   1   2
ATOM      2  C   UNL A   1      33.321  29.544  25.828  1.00  0.00     0.116 C 
BRANCH   2   3
ATOM      3  N   UNL A   1      33.877  28.978  24.581  1.00  0.00    -0.356 N 
ATOM      4  C   UNL A   1      33.648  27.831  23.876  1.00  0.00     0.224 C 
ATOM      5  O   UNL A   1      33.857  27.893  22.651  1.00  0.00    -0.275 OA
ATOM      6  H   UNL A   1      34.563  29.553  24.169  1.00  0.00     0.163 HD
BRANCH   4   7
ATOM      7  C   UNL A   1      33.281  26.435  24.438  1.00  0.00     0.095 C 
ATOM      8  C   UNL A   1      32.166  25.572  23.816  1.00  0.00     0.095 C 
ATOM      9  C   UNL A   1      30.822  26.310  23.943  1.00  0.00     0.041 C 
ATOM     10  C   UNL A   1      30.564  26.772  25.344  1.00  0.00    -0.030 C 
ATOM     11  C   UNL A   1      32.982  26.578  25.955  1.00  0.00     0.041 C 
ATOM     12  C   UNL A   1      31.539  26.885  26.257  1.00  0.00    -0.030 C 
BRANCH   8  13
ATOM     13  C   UNL A   1      32.622  25.002  22.481  1.00  0.00     0.228 C 
ATOM     14  N   UNL A   1      33.485  23.970  22.323  1.00  0.00    -0.326 N 
ATOM     15  H   UNL A   1      33.547  23.700  21.378  1.00  0.00     0.169 HD
ATOM     16  O   UNL A   1      32.235  25.500  21.416  1.00  0.00    -0.274 OA
BRANCH  14  17
ATOM     17  C   UNL A   1      34.317  23.178  23.133  1.00  0.00     0.044 A 
ATOM     18  C   UNL A   1      32.209  22.218  24.079  1.00  0.00     0.047 C 
ATOM     19  C   UNL A   1      33.695  22.158  23.916  1.00  0.00    -0.015 A 
ATOM     20  C   UNL A   1      34.466  21.230  24.641  1.00  0.00     0.045 A 
ATOM     21  C   UNL A   1      35.696  23.330  23.196  1.00  0.00     0.026 A 
ATOM     22  C   UNL A   1      35.847  21.466  24.731  1.00  0.00     0.014 A 
ATOM     23  C   UNL A   1      36.450  22.519  24.040  1.00  0.00     0.003 A 
BRANCH  20  24
ATOM     24  C   UNL A   1      33.912  20.145  25.522  1.00  0.00     0.254 C 
ATOM     25  O   UNL A   1      33.479  20.482  26.627  1.00  0.00    -0.269 OA
ATOM     26  N   UNL A   1      33.795  18.825  25.087  1.00  0.00    -0.334 N 
ATOM     27  C   UNL A   1      34.797  18.045  24.343  1.00  0.00     0.148 C 
ATOM     28  C   UNL A   1      32.718  18.016  25.658  1.00  0.00     0.148 C 
ATOM     29  C   UNL A   1      34.151  17.006  23.399  1.00  0.00     0.181 C 
ATOM     30  C   UNL A   1      32.110  17.112  24.584  1.00  0.00     0.181 C 
ATOM     31  O   UNL A   1      33.120  16.244  24.049  1.00  0.00    -0.378 OA
ENDBRANCH  20  24
ENDBRANCH  14  17
ENDBRANCH   8  13
ENDBRANCH   4   7
ENDBRANCH   2   3
ENDBRANCH   1   2
BRANCH   1  32
ATOM     32  C   UNL A   1      31.402  31.532  26.770  1.00  0.00     0.023 C 
BRANCH  32  33
ATOM     33  C   UNL A   1      31.732  33.102  26.692  1.00  0.00     0.116 C 
BRANCH  33  34
ATOM     34  N   UNL A   1      32.640  33.844  27.740  1.00  0.00    -0.352 N 
ATOM     35  C   UNL A   1      34.044  34.096  27.972  1.00  0.00     0.251 C 
ATOM     36  H   UNL A   1      32.091  34.257  28.446  1.00  0.00     0.163 HD
ATOM     37  O   UNL A   1      34.340  35.303  28.026  1.00  0.00    -0.269 OA
BRANCH  35  38
ATOM     38  C   UNL A   1      35.257  33.144  28.222  1.00  0.00     0.039 A 
ATOM     39  C   UNL A   1      35.063  31.747  28.393  1.00  0.00     0.014 A 
ATOM     40  C   UNL A   1      36.568  33.552  28.421  1.00  0.00     0.014 A 
ATOM     41  C   UNL A   1      35.936  30.983  29.248  1.00  0.00     0.010 A 
ATOM     42  C   UNL A   1      37.427  32.806  29.284  1.00  0.00     0.010 A 
ATOM     43  C   UNL A   1      37.037  31.591  29.869  1.00  0.00    -0.014 A 
BRANCH  43  44
ATOM     44  C   UNL A   1      37.653  31.109  31.167  1.00  0.00     0.031 A 
ATOM     45  C   UNL A   1      37.800  31.957  32.345  1.00  0.00     0.074 A 
ATOM     46  C   UNL A   1      37.987  29.833  31.509  1.00  0.00     0.049 A 
ATOM     47  N   UNL A   1      38.893  32.087  33.029  1.00  0.00    -0.248 NA
ATOM     48  C   UNL A   1      36.627  32.572  32.936  1.00  0.00     0.031 C 
ATOM     49  C   UNL A   1      38.481  29.189  32.741  1.00  0.00     0.029 A 
ATOM     50  N   UNL A   1      37.897  28.730  30.710  1.00  0.00    -0.354 N 
ATOM     51  C   UNL A   1      38.486  32.477  34.287  1.00  0.00     0.074 A 
ATOM     52  C   UNL A   1      37.118  32.943  34.119  1.00  0.00     0.031 C 
ATOM     53  C   UNL A   1      39.019  27.984  32.441  1.00  0.00     0.029 A 
ATOM     54  C   UNL A   1      38.882  27.797  31.019  1.00  0.00     0.049 A 
ATOM     55  H   UNL A   1      37.221  28.610  30.004  1.00  0.00     0.167 HD
ATOM     56  C   UNL A   1      39.172  32.123  35.418  1.00  0.00     0.031 A 
ATOM     57  C   UNL A   1      39.809  27.519  30.051  1.00  0.00     0.031 A 
ATOM     58  C   UNL A   1      40.211  31.105  35.168  1.00  0.00     0.049 A 
ATOM     59  C   UNL A   1      41.120  28.140  30.412  1.00  0.00     0.074 A 
ATOM     60  C   UNL A   1      40.336  29.779  35.568  1.00  0.00     0.029 A 
ATOM     61  N   UNL A   1      41.165  31.283  34.164  1.00  0.00    -0.354 N 
ATOM     62  N   UNL A   1      41.217  28.885  31.472  1.00  0.00    -0.248 NA
ATOM     63  C   UNL A   1      42.403  28.001  29.732  1.00  0.00     0.031 C 
ATOM     64  C   UNL A   1      41.290  29.142  34.726  1.00  0.00     0.029 A 
ATOM     65  C   UNL A   1      41.780  30.085  33.839  1.00  0.00     0.049 A 
ATOM     66  H   UNL A   1      41.372  32.148  33.742  1.00  0.00     0.167 HD
ATOM     67  C   UNL A   1      42.489  29.280  31.679  1.00  0.00     0.074 A 
ATOM     68  C   UNL A   1      43.210  28.713  30.550  1.00  0.00     0.031 C 
ATOM     69  C   UNL A   1      42.795  30.019  32.782  1.00  0.00     0.031 A 
BRANCH  56  70
ATOM     70  C   UNL A   1      38.652  32.479  36.806  1.00  0.00    -0.014 A 
ATOM     71  C   UNL A   1      39.027  33.669  37.460  1.00  0.00     0.010 A 
ATOM     72  C   UNL A   1      37.729  31.667  37.501  1.00  0.00     0.010 A 
ATOM     73  C   UNL A   1      38.582  33.977  38.760  1.00  0.00     0.020 A 
ATOM     74  C   UNL A   1      37.334  31.922  38.820  1.00  0.00     0.020 A 
ATOM     75  C   UNL A   1      37.754  33.087  39.442  1.00  0.00     0.054 A 
BRANCH  75  76
ATOM     76  S   UNL A   1      37.171  33.494  41.109  1.00  0.00     0.124 S 
ATOM     77  O   UNL A   1      37.801  32.464  41.931  1.00  0.00    -0.237 OA
ATOM     78  O   UNL A   1      37.683  34.849  41.294  1.00  0.00    -0.237 OA
ATOM     79  O   UNL A   1      35.716  33.394  41.004  1.00  0.00    -0.744 OA
ENDBRANCH  75  76
ENDBRANCH  56  70
BRANCH  57  80
ATOM     80  C   UNL A   1      39.139  27.288  28.699  1.00  0.00    -0.014 A 
ATOM     81  C   UNL A   1      39.112  28.514  27.997  1.00  0.00     0.010 A 
ATOM     82  C   UNL A   1      39.554  26.197  27.948  1.00  0.00     0.010 A 
ATOM     83  C   UNL A   1      40.037  28.789  26.964  1.00  0.00     0.020 A 
ATOM     84  C   UNL A   1      40.460  26.486  26.894  1.00  0.00     0.020 A 
ATOM     85  C   UNL A   1      40.861  27.781  26.527  1.00  0.00     0.054 A 
BRANCH  85  86
ATOM     86  S   UNL A   1      42.688  28.056  25.842  1.00  0.00     0.124 S 
ATOM     87  O   UNL A   1      42.670  27.953  24.398  1.00  0.00    -0.237 OA
ATOM     88  O   UNL A   1      42.993  29.417  26.270  1.00  0.00    -0.237 OA
ATOM     89  O   UNL A   1      43.454  26.999  26.433  1.00  0.00    -0.744 OA
ENDBRANCH  85  86
ENDBRANCH  57  80
BRANCH  69  90
ATOM     90  C   UNL A   1      44.121  30.656  33.034  1.00  0.00    -0.014 A 
ATOM     91  C   UNL A   1      44.999  30.243  34.043  1.00  0.00     0.010 A 
ATOM     92  C   UNL A   1      44.569  31.646  32.132  1.00  0.00     0.010 A 
ATOM     93  C   UNL A   1      46.248  30.849  34.192  1.00  0.00     0.020 A 
ATOM     94  C   UNL A   1      45.832  32.219  32.241  1.00  0.00     0.020 A 
ATOM     95  C   UNL A   1      46.653  31.836  33.293  1.00  0.00     0.054 A 
BRANCH  95  96
ATOM     96  S   UNL A   1      48.285  32.582  33.481  1.00  0.00     0.124 S 
ATOM     97  O   UNL A   1      48.336  33.479  32.328  1.00  0.00    -0.237 OA
ATOM     98  O   UNL A   1      48.192  33.241  34.782  1.00  0.00    -0.237 OA
ATOM     99  O   UNL A   1      49.195  31.441  33.429  1.00  0.00    -0.744 OA
ENDBRANCH  95  96
ENDBRANCH  69  90
ENDBRANCH  43  44
ENDBRANCH  35  38
ENDBRANCH  33  34
ENDBRANCH  32  33
ENDBRANCH   1  32
TORSDOF 17
ENDMDL
