MODEL 1
REMARK VINA RESULT:     -12.7      0.000      0.000
REMARK SMILES Cc1cnn(C2(C(=O)NCCCCNC(=O)c3ccc(-c4c5nc(c(-c6ccc(S(=O)(=O)[O-])cc6)c6ccc([nH]6)c(-c6ccc(S(=O)(=O)[O-])cc6)c6nc(c(-c7ccc(S(=O)(=O)[O-])cc7)c7ccc4[nH]7)C=C6)C=C5)cc3)CCN(C(=O)c3cc4ccccc4[nH]3)CC2)c1
REMARK SMILES IDX 12 1 11 2 10 3 9 4 7 5 8 6 6 8 77 9 92 10 78 11 91 12 79 13
REMARK SMILES IDX 80 14 81 15 5 16 1 17 2 18 3 19 93 20 4 21 82 22 83 23 90 24
REMARK SMILES IDX 84 25 89 26 85 28 88 29 86 30 87 31 13 32 14 33 15 34 16 36
REMARK SMILES IDX 17 37 18 38 76 39 19 40 75 41 20 42 21 43 22 44 69 45 23 46
REMARK SMILES IDX 74 47 68 48 70 49 24 50 73 51 67 52 66 53 25 55 55 56 36 57
REMARK SMILES IDX 54 58 37 59 40 60 53 61 71 62 38 63 39 64 52 66 72 67 41 68
REMARK SMILES IDX 26 69 27 70 35 71 28 72 34 73 29 74 30 75 31 76 32 77 33 78
REMARK SMILES IDX 56 79 57 80 65 81 58 82 64 83 59 84 60 85 61 86 62 87 63 88
REMARK SMILES IDX 42 89 43 90 51 91 44 92 50 93 45 94 46 95 47 96 48 97 49 98
REMARK H PARENT 9 7 90 27 14 35 70 54 40 65
REMARK Flexibility Score: inf
ROOT
ATOM      1  C   UNL A   1      32.863  29.364  25.790  1.00  0.00     0.023 C 
ENDROOT
BRANCH   1   2
ATOM      2  C   UNL A   1      31.721  28.960  26.740  1.00  0.00     0.023 C 
BRANCH   2   3
ATOM      3  C   UNL A   1      31.443  27.456  26.846  1.00  0.00     0.116 C 
BRANCH   3   4
ATOM      4  N   UNL A   1      32.676  26.683  26.823  1.00  0.00    -0.354 N 
ATOM      5  C   UNL A   1      33.236  25.833  25.903  1.00  0.00     0.248 C 
ATOM      6  O   UNL A   1      34.418  25.570  26.145  1.00  0.00    -0.272 OA
ATOM      7  H   UNL A   1      33.220  26.793  27.636  1.00  0.00     0.163 HD
BRANCH   5   8
ATOM      8  C   UNL A   1      32.485  25.367  24.613  1.00  0.00     0.144 C 
ATOM      9  C   UNL A   1      31.015  24.972  24.919  1.00  0.00     0.062 C 
ATOM     10  C   UNL A   1      32.656  26.553  23.616  1.00  0.00     0.062 C 
ATOM     11  C   UNL A   1      30.123  25.131  23.698  1.00  0.00     0.123 C 
ATOM     12  C   UNL A   1      31.472  26.906  22.715  1.00  0.00     0.123 C 
ATOM     13  N   UNL A   1      30.177  26.513  23.254  1.00  0.00    -0.337 N 
ATOM     14  C   UNL A   1      29.038  27.307  23.441  1.00  0.00     0.270 C 
ATOM     15  O   UNL A   1      28.047  26.845  24.009  1.00  0.00    -0.267 OA
BRANCH   8  16
ATOM     16  N   UNL A   1      33.101  24.115  24.069  1.00  0.00    -0.257 N 
ATOM     17  C   UNL A   1      34.494  20.734  24.358  1.00  0.00     0.048 C 
ATOM     18  C   UNL A   1      34.059  22.113  24.046  1.00  0.00    -0.013 A 
ATOM     19  C   UNL A   1      34.618  22.985  23.095  1.00  0.00     0.138 A 
ATOM     20  C   UNL A   1      33.058  22.858  24.635  1.00  0.00     0.113 A 
ATOM     21  N   UNL A   1      34.117  24.214  23.177  1.00  0.00    -0.180 NA
ENDBRANCH   8  16
BRANCH  14  22
ATOM     22  C   UNL A   1      29.039  28.710  23.078  1.00  0.00     0.105 A 
ATOM     23  C   UNL A   1      29.468  29.875  23.691  1.00  0.00     0.042 A 
ATOM     24  N   UNL A   1      28.578  29.099  21.834  1.00  0.00    -0.351 N 
ATOM     25  C   UNL A   1      28.993  30.979  22.931  1.00  0.00     0.000 A 
ATOM     26  C   UNL A   1      28.463  30.464  21.752  1.00  0.00     0.046 A 
ATOM     27  H   UNL A   1      28.360  28.478  21.102  1.00  0.00     0.167 HD
ATOM     28  C   UNL A   1      28.959  32.369  23.144  1.00  0.00     0.010 A 
ATOM     29  C   UNL A   1      27.935  31.275  20.743  1.00  0.00     0.026 A 
ATOM     30  C   UNL A   1      28.389  33.192  22.167  1.00  0.00     0.001 A 
ATOM     31  C   UNL A   1      27.898  32.653  20.979  1.00  0.00     0.002 A 
ENDBRANCH  14  22
ENDBRANCH   5   8
ENDBRANCH   3   4
ENDBRANCH   2   3
ENDBRANCH   1   2
BRANCH   1  32
ATOM     32  C   UNL A   1      34.138  29.799  26.498  1.00  0.00     0.116 C 
BRANCH  32  33
ATOM     33  N   UNL A   1      34.001  31.086  27.190  1.00  0.00    -0.352 N 
ATOM     34  C   UNL A   1      34.681  31.536  28.314  1.00  0.00     0.251 C 
ATOM     35  H   UNL A   1      33.343  31.711  26.808  1.00  0.00     0.163 HD
ATOM     36  O   UNL A   1      34.233  32.442  28.999  1.00  0.00    -0.269 OA
BRANCH  34  37
ATOM     37  C   UNL A   1      35.975  30.908  28.641  1.00  0.00     0.039 A 
ATOM     38  C   UNL A   1      36.217  29.533  28.528  1.00  0.00     0.014 A 
ATOM     39  C   UNL A   1      36.980  31.772  29.056  1.00  0.00     0.014 A 
ATOM     40  C   UNL A   1      37.500  29.056  28.803  1.00  0.00     0.010 A 
ATOM     41  C   UNL A   1      38.272  31.344  29.070  1.00  0.00     0.010 A 
ATOM     42  C   UNL A   1      38.516  29.979  29.077  1.00  0.00    -0.014 A 
BRANCH  42  43
ATOM     43  C   UNL A   1      39.903  29.617  29.320  1.00  0.00     0.031 A 
ATOM     44  C   UNL A   1      40.208  29.375  30.753  1.00  0.00     0.074 A 
ATOM     45  C   UNL A   1      40.683  29.182  28.302  1.00  0.00     0.049 A 
ATOM     46  N   UNL A   1      40.919  30.107  31.545  1.00  0.00    -0.248 NA
ATOM     47  C   UNL A   1      39.473  28.297  31.444  1.00  0.00     0.031 C 
ATOM     48  C   UNL A   1      40.316  29.013  26.886  1.00  0.00     0.029 A 
ATOM     49  N   UNL A   1      41.928  28.643  28.337  1.00  0.00    -0.354 N 
ATOM     50  C   UNL A   1      40.933  29.427  32.759  1.00  0.00     0.074 A 
ATOM     51  C   UNL A   1      39.824  28.512  32.713  1.00  0.00     0.031 C 
ATOM     52  C   UNL A   1      41.205  28.194  26.279  1.00  0.00     0.029 A 
ATOM     53  C   UNL A   1      42.281  27.903  27.209  1.00  0.00     0.049 A 
ATOM     54  H   UNL A   1      42.535  28.766  29.102  1.00  0.00     0.167 HD
ATOM     55  C   UNL A   1      42.037  29.420  33.559  1.00  0.00     0.031 A 
ATOM     56  C   UNL A   1      43.353  27.074  27.080  1.00  0.00     0.031 A 
ATOM     57  C   UNL A   1      43.014  30.381  33.104  1.00  0.00     0.049 A 
ATOM     58  C   UNL A   1      44.294  27.423  28.176  1.00  0.00     0.074 A 
ATOM     59  C   UNL A   1      43.013  31.744  32.893  1.00  0.00     0.029 A 
ATOM     60  N   UNL A   1      44.069  29.879  32.374  1.00  0.00    -0.354 N 
ATOM     61  N   UNL A   1      44.890  28.582  28.263  1.00  0.00    -0.248 NA
ATOM     62  C   UNL A   1      44.172  26.692  29.428  1.00  0.00     0.031 C 
ATOM     63  C   UNL A   1      43.750  31.926  31.687  1.00  0.00     0.029 A 
ATOM     64  C   UNL A   1      44.245  30.684  31.280  1.00  0.00     0.049 A 
ATOM     65  H   UNL A   1      44.602  29.082  32.598  1.00  0.00     0.167 HD
ATOM     66  C   UNL A   1      44.815  28.919  29.608  1.00  0.00     0.074 A 
ATOM     67  C   UNL A   1      44.440  27.679  30.289  1.00  0.00     0.031 C 
ATOM     68  C   UNL A   1      44.762  30.225  30.006  1.00  0.00     0.031 A 
BRANCH  55  69
ATOM     69  C   UNL A   1      42.434  28.266  34.452  1.00  0.00    -0.014 A 
ATOM     70  C   UNL A   1      42.808  28.548  35.782  1.00  0.00     0.010 A 
ATOM     71  C   UNL A   1      42.714  26.967  33.977  1.00  0.00     0.010 A 
ATOM     72  C   UNL A   1      43.499  27.611  36.561  1.00  0.00     0.020 A 
ATOM     73  C   UNL A   1      43.360  26.009  34.760  1.00  0.00     0.020 A 
ATOM     74  C   UNL A   1      43.781  26.351  36.036  1.00  0.00     0.054 A 
BRANCH  74  75
ATOM     75  S   UNL A   1      44.757  25.183  37.012  1.00  0.00     0.124 S 
ATOM     76  O   UNL A   1      46.111  25.693  36.820  1.00  0.00    -0.237 OA
ATOM     77  O   UNL A   1      44.196  25.355  38.348  1.00  0.00    -0.237 OA
ATOM     78  O   UNL A   1      44.476  23.894  36.384  1.00  0.00    -0.744 OA
ENDBRANCH  74  75
ENDBRANCH  55  69
BRANCH  56  79
ATOM     79  C   UNL A   1      43.462  25.803  26.308  1.00  0.00    -0.014 A 
ATOM     80  C   UNL A   1      44.514  25.578  25.397  1.00  0.00     0.010 A 
ATOM     81  C   UNL A   1      42.682  24.687  26.679  1.00  0.00     0.010 A 
ATOM     82  C   UNL A   1      44.810  24.283  24.923  1.00  0.00     0.020 A 
ATOM     83  C   UNL A   1      42.967  23.397  26.210  1.00  0.00     0.020 A 
ATOM     84  C   UNL A   1      44.045  23.195  25.350  1.00  0.00     0.054 A 
BRANCH  84  85
ATOM     85  S   UNL A   1      44.530  21.504  24.880  1.00  0.00     0.124 S 
ATOM     86  O   UNL A   1      43.437  20.703  25.421  1.00  0.00    -0.237 OA
ATOM     87  O   UNL A   1      44.595  21.584  23.424  1.00  0.00    -0.237 OA
ATOM     88  O   UNL A   1      45.819  21.320  25.546  1.00  0.00    -0.744 OA
ENDBRANCH  84  85
ENDBRANCH  56  79
BRANCH  68  89
ATOM     89  C   UNL A   1      45.066  31.307  28.993  1.00  0.00    -0.014 A 
ATOM     90  C   UNL A   1      44.110  31.876  28.128  1.00  0.00     0.010 A 
ATOM     91  C   UNL A   1      46.342  31.890  29.058  1.00  0.00     0.010 A 
ATOM     92  C   UNL A   1      44.436  32.991  27.336  1.00  0.00     0.020 A 
ATOM     93  C   UNL A   1      46.666  33.008  28.289  1.00  0.00     0.020 A 
ATOM     94  C   UNL A   1      45.716  33.550  27.424  1.00  0.00     0.054 A 
BRANCH  94  95
ATOM     95  S   UNL A   1      46.127  35.016  26.437  1.00  0.00     0.124 S 
ATOM     96  O   UNL A   1      44.890  35.791  26.491  1.00  0.00    -0.237 OA
ATOM     97  O   UNL A   1      47.260  35.588  27.160  1.00  0.00    -0.237 OA
ATOM     98  O   UNL A   1      46.455  34.468  25.121  1.00  0.00    -0.744 OA
ENDBRANCH  94  95
ENDBRANCH  68  89
ENDBRANCH  42  43
ENDBRANCH  34  37
ENDBRANCH  32  33
ENDBRANCH   1  32
TORSDOF 16
ENDMDL
MODEL 2
REMARK VINA RESULT:     -12.6      1.622      4.731
REMARK SMILES Cc1cnn(C2(C(=O)NCCCCNC(=O)c3ccc(-c4c5nc(c(-c6ccc(S(=O)(=O)[O-])cc6)c6ccc([nH]6)c(-c6ccc(S(=O)(=O)[O-])cc6)c6nc(c(-c7ccc(S(=O)(=O)[O-])cc7)c7ccc4[nH]7)C=C6)C=C5)cc3)CCN(C(=O)c3cc4ccccc4[nH]3)CC2)c1
REMARK SMILES IDX 12 1 11 2 10 3 9 4 7 5 8 6 6 8 77 9 92 10 78 11 91 12 79 13
REMARK SMILES IDX 80 14 81 15 5 16 1 17 2 18 3 19 93 20 4 21 82 22 83 23 90 24
REMARK SMILES IDX 84 25 89 26 85 28 88 29 86 30 87 31 13 32 14 33 15 34 16 36
REMARK SMILES IDX 17 37 18 38 76 39 19 40 75 41 20 42 21 43 22 44 69 45 23 46
REMARK SMILES IDX 74 47 68 48 70 49 24 50 73 51 67 52 66 53 25 55 55 56 36 57
REMARK SMILES IDX 54 58 37 59 40 60 53 61 71 62 38 63 39 64 52 66 72 67 41 68
REMARK SMILES IDX 26 69 27 70 35 71 28 72 34 73 29 74 30 75 31 76 32 77 33 78
REMARK SMILES IDX 56 79 57 80 65 81 58 82 64 83 59 84 60 85 61 86 62 87 63 88
REMARK SMILES IDX 42 89 43 90 51 91 44 92 50 93 45 94 46 95 47 96 48 97 49 98
REMARK H PARENT 9 7 90 27 14 35 70 54 40 65
REMARK Flexibility Score: inf
ROOT
ATOM      1  C   UNL A   1      33.652  31.447  27.618  1.00  0.00     0.023 C 
ENDROOT
BRANCH   1   2
ATOM      2  C   UNL A   1      34.172  30.081  27.135  1.00  0.00     0.023 C 
BRANCH   2   3
ATOM      3  C   UNL A   1      33.344  29.403  26.038  1.00  0.00     0.116 C 
BRANCH   3   4
ATOM      4  N   UNL A   1      32.273  28.593  26.600  1.00  0.00    -0.354 N 
ATOM      5  C   UNL A   1      31.462  27.615  26.084  1.00  0.00     0.248 C 
ATOM      6  O   UNL A   1      30.846  26.989  26.951  1.00  0.00    -0.272 OA
ATOM      7  H   UNL A   1      32.094  28.788  27.549  1.00  0.00     0.163 HD
BRANCH   5   8
ATOM      8  C   UNL A   1      31.438  27.251  24.563  1.00  0.00     0.144 C 
ATOM      9  C   UNL A   1      32.871  27.181  23.969  1.00  0.00     0.062 C 
ATOM     10  C   UNL A   1      30.631  25.919  24.498  1.00  0.00     0.062 C 
ATOM     11  C   UNL A   1      32.935  26.260  22.761  1.00  0.00     0.123 C 
ATOM     12  C   UNL A   1      31.092  24.851  23.505  1.00  0.00     0.123 C 
ATOM     13  N   UNL A   1      32.505  24.931  23.160  1.00  0.00    -0.337 N 
ATOM     14  C   UNL A   1      33.472  23.921  23.227  1.00  0.00     0.270 C 
ATOM     15  O   UNL A   1      34.656  24.179  22.996  1.00  0.00    -0.267 OA
BRANCH   8  16
ATOM     16  N   UNL A   1      30.760  28.329  23.775  1.00  0.00    -0.257 N 
ATOM     17  C   UNL A   1      28.784  31.398  23.413  1.00  0.00     0.048 C 
ATOM     18  C   UNL A   1      29.507  30.110  23.343  1.00  0.00    -0.013 A 
ATOM     19  C   UNL A   1      29.339  29.093  22.387  1.00  0.00     0.138 A 
ATOM     20  C   UNL A   1      30.457  29.603  24.206  1.00  0.00     0.113 A 
ATOM     21  N   UNL A   1      30.009  27.987  22.699  1.00  0.00    -0.180 NA
ENDBRANCH   8  16
BRANCH  14  22
ATOM     22  C   UNL A   1      33.128  22.586  23.675  1.00  0.00     0.105 A 
ATOM     23  C   UNL A   1      33.115  21.943  24.900  1.00  0.00     0.042 A 
ATOM     24  N   UNL A   1      32.635  21.663  22.771  1.00  0.00    -0.351 N 
ATOM     25  C   UNL A   1      32.894  20.557  24.674  1.00  0.00     0.000 A 
ATOM     26  C   UNL A   1      32.565  20.411  23.329  1.00  0.00     0.046 A 
ATOM     27  H   UNL A   1      32.370  21.875  21.847  1.00  0.00     0.167 HD
ATOM     28  C   UNL A   1      32.952  19.413  25.489  1.00  0.00     0.010 A 
ATOM     29  C   UNL A   1      32.244  19.176  22.758  1.00  0.00     0.026 A 
ATOM     30  C   UNL A   1      32.682  18.161  24.924  1.00  0.00     0.001 A 
ATOM     31  C   UNL A   1      32.320  18.049  23.583  1.00  0.00     0.002 A 
ENDBRANCH  14  22
ENDBRANCH   5   8
ENDBRANCH   3   4
ENDBRANCH   2   3
ENDBRANCH   1   2
BRANCH   1  32
ATOM     32  C   UNL A   1      34.734  32.369  28.162  1.00  0.00     0.116 C 
BRANCH  32  33
ATOM     33  N   UNL A   1      34.401  32.933  29.476  1.00  0.00    -0.352 N 
ATOM     34  C   UNL A   1      34.847  32.525  30.726  1.00  0.00     0.251 C 
ATOM     35  H   UNL A   1      33.783  33.699  29.469  1.00  0.00     0.163 HD
ATOM     36  O   UNL A   1      34.233  32.819  31.739  1.00  0.00    -0.269 OA
BRANCH  34  37
ATOM     37  C   UNL A   1      36.101  31.751  30.797  1.00  0.00     0.039 A 
ATOM     38  C   UNL A   1      36.142  30.354  30.893  1.00  0.00     0.014 A 
ATOM     39  C   UNL A   1      37.274  32.492  30.741  1.00  0.00     0.014 A 
ATOM     40  C   UNL A   1      37.387  29.721  30.889  1.00  0.00     0.010 A 
ATOM     41  C   UNL A   1      38.454  31.866  30.480  1.00  0.00     0.010 A 
ATOM     42  C   UNL A   1      38.534  30.497  30.685  1.00  0.00    -0.014 A 
BRANCH  42  43
ATOM     43  C   UNL A   1      39.880  29.954  30.600  1.00  0.00     0.031 A 
ATOM     44  C   UNL A   1      40.538  29.794  31.922  1.00  0.00     0.074 A 
ATOM     45  C   UNL A   1      40.291  29.321  29.475  1.00  0.00     0.049 A 
ATOM     46  N   UNL A   1      41.522  30.477  32.404  1.00  0.00    -0.248 NA
ATOM     47  C   UNL A   1      39.898  28.901  32.909  1.00  0.00     0.031 C 
ATOM     48  C   UNL A   1      39.530  29.087  28.236  1.00  0.00     0.029 A 
ATOM     49  N   UNL A   1      41.424  28.608  29.250  1.00  0.00    -0.354 N 
ATOM     50  C   UNL A   1      41.789  29.910  33.647  1.00  0.00     0.074 A 
ATOM     51  C   UNL A   1      40.608  29.171  34.005  1.00  0.00     0.031 C 
ATOM     52  C   UNL A   1      40.112  28.095  27.525  1.00  0.00     0.029 A 
ATOM     53  C   UNL A   1      41.360  27.729  28.170  1.00  0.00     0.049 A 
ATOM     54  H   UNL A   1      42.229  28.704  29.808  1.00  0.00     0.167 HD
ATOM     55  C   UNL A   1      43.062  29.808  34.124  1.00  0.00     0.031 A 
ATOM     56  C   UNL A   1      42.247  26.740  27.868  1.00  0.00     0.031 A 
ATOM     57  C   UNL A   1      43.983  30.569  33.315  1.00  0.00     0.049 A 
ATOM     58  C   UNL A   1      43.489  27.039  28.628  1.00  0.00     0.074 A 
ATOM     59  C   UNL A   1      44.089  31.894  32.945  1.00  0.00     0.029 A 
ATOM     60  N   UNL A   1      44.727  29.854  32.403  1.00  0.00    -0.354 N 
ATOM     61  N   UNL A   1      44.221  28.099  28.413  1.00  0.00    -0.248 NA
ATOM     62  C   UNL A   1      43.630  26.445  29.949  1.00  0.00     0.031 C 
ATOM     63  C   UNL A   1      44.481  31.859  31.575  1.00  0.00     0.029 A 
ATOM     64  C   UNL A   1      44.691  30.527  31.209  1.00  0.00     0.049 A 
ATOM     65  H   UNL A   1      45.202  29.009  32.576  1.00  0.00     0.167 HD
ATOM     66  C   UNL A   1      44.560  28.558  29.678  1.00  0.00     0.074 A 
ATOM     67  C   UNL A   1      44.242  27.452  30.582  1.00  0.00     0.031 C 
ATOM     68  C   UNL A   1      44.777  29.888  29.912  1.00  0.00     0.031 A 
BRANCH  55  69
ATOM     69  C   UNL A   1      43.548  28.689  35.018  1.00  0.00    -0.014 A 
ATOM     70  C   UNL A   1      44.400  29.016  36.094  1.00  0.00     0.010 A 
ATOM     71  C   UNL A   1      43.430  27.321  34.696  1.00  0.00     0.010 A 
ATOM     72  C   UNL A   1      45.153  28.035  36.752  1.00  0.00     0.020 A 
ATOM     73  C   UNL A   1      44.140  26.330  35.376  1.00  0.00     0.020 A 
ATOM     74  C   UNL A   1      45.026  26.699  36.377  1.00  0.00     0.054 A 
BRANCH  74  75
ATOM     75  S   UNL A   1      46.074  25.454  37.164  1.00  0.00     0.124 S 
ATOM     76  O   UNL A   1      47.337  25.636  36.457  1.00  0.00    -0.237 OA
ATOM     77  O   UNL A   1      46.059  25.879  38.561  1.00  0.00    -0.237 OA
ATOM     78  O   UNL A   1      45.376  24.199  36.892  1.00  0.00    -0.744 OA
ENDBRANCH  74  75
ENDBRANCH  55  69
BRANCH  56  79
ATOM     79  C   UNL A   1      41.985  25.406  27.258  1.00  0.00    -0.014 A 
ATOM     80  C   UNL A   1      42.893  24.812  26.358  1.00  0.00     0.010 A 
ATOM     81  C   UNL A   1      40.968  24.581  27.783  1.00  0.00     0.010 A 
ATOM     82  C   UNL A   1      42.822  23.440  26.042  1.00  0.00     0.020 A 
ATOM     83  C   UNL A   1      40.888  23.216  27.472  1.00  0.00     0.020 A 
ATOM     84  C   UNL A   1      41.829  22.644  26.619  1.00  0.00     0.054 A 
BRANCH  84  85
ATOM     85  S   UNL A   1      41.840  20.843  26.351  1.00  0.00     0.124 S 
ATOM     86  O   UNL A   1      40.466  20.581  25.934  1.00  0.00    -0.237 OA
ATOM     87  O   UNL A   1      42.858  20.680  25.318  1.00  0.00    -0.237 OA
ATOM     88  O   UNL A   1      42.200  20.304  27.662  1.00  0.00    -0.744 OA
ENDBRANCH  84  85
ENDBRANCH  56  79
BRANCH  68  89
ATOM     89  C   UNL A   1      44.918  30.820  28.729  1.00  0.00    -0.014 A 
ATOM     90  C   UNL A   1      43.837  31.294  27.958  1.00  0.00     0.010 A 
ATOM     91  C   UNL A   1      46.189  31.376  28.512  1.00  0.00     0.010 A 
ATOM     92  C   UNL A   1      44.034  32.287  26.984  1.00  0.00     0.020 A 
ATOM     93  C   UNL A   1      46.389  32.375  27.559  1.00  0.00     0.020 A 
ATOM     94  C   UNL A   1      45.313  32.822  26.793  1.00  0.00     0.054 A 
BRANCH  94  95
ATOM     95  S   UNL A   1      45.565  34.137  25.567  1.00  0.00     0.124 S 
ATOM     96  O   UNL A   1      44.961  35.297  26.218  1.00  0.00    -0.237 OA
ATOM     97  O   UNL A   1      47.019  34.179  25.427  1.00  0.00    -0.237 OA
ATOM     98  O   UNL A   1      44.852  33.652  24.386  1.00  0.00    -0.744 OA
ENDBRANCH  94  95
ENDBRANCH  68  89
ENDBRANCH  42  43
ENDBRANCH  34  37
ENDBRANCH  32  33
ENDBRANCH   1  32
TORSDOF 16
ENDMDL
MODEL 3
REMARK VINA RESULT:     -12.1      1.605      5.115
REMARK SMILES Cc1cnn(C2(C(=O)NCCCCNC(=O)c3ccc(-c4c5nc(c(-c6ccc(S(=O)(=O)[O-])cc6)c6ccc([nH]6)c(-c6ccc(S(=O)(=O)[O-])cc6)c6nc(c(-c7ccc(S(=O)(=O)[O-])cc7)c7ccc4[nH]7)C=C6)C=C5)cc3)CCN(C(=O)c3cc4ccccc4[nH]3)CC2)c1
REMARK SMILES IDX 12 1 11 2 10 3 9 4 7 5 8 6 6 8 77 9 92 10 78 11 91 12 79 13
REMARK SMILES IDX 80 14 81 15 5 16 1 17 2 18 3 19 93 20 4 21 82 22 83 23 90 24
REMARK SMILES IDX 84 25 89 26 85 28 88 29 86 30 87 31 13 32 14 33 15 34 16 36
REMARK SMILES IDX 17 37 18 38 76 39 19 40 75 41 20 42 21 43 22 44 69 45 23 46
REMARK SMILES IDX 74 47 68 48 70 49 24 50 73 51 67 52 66 53 25 55 55 56 36 57
REMARK SMILES IDX 54 58 37 59 40 60 53 61 71 62 38 63 39 64 52 66 72 67 41 68
REMARK SMILES IDX 26 69 27 70 35 71 28 72 34 73 29 74 30 75 31 76 32 77 33 78
REMARK SMILES IDX 56 79 57 80 65 81 58 82 64 83 59 84 60 85 61 86 62 87 63 88
REMARK SMILES IDX 42 89 43 90 51 91 44 92 50 93 45 94 46 95 47 96 48 97 49 98
REMARK H PARENT 9 7 90 27 14 35 70 54 40 65
REMARK Flexibility Score: inf
ROOT
ATOM      1  C   UNL A   1      33.134  28.567  27.681  1.00  0.00     0.023 C 
ENDROOT
BRANCH   1   2
ATOM      2  C   UNL A   1      31.617  28.308  27.657  1.00  0.00     0.023 C 
BRANCH   2   3
ATOM      3  C   UNL A   1      31.094  27.524  26.449  1.00  0.00     0.116 C 
BRANCH   3   4
ATOM      4  N   UNL A   1      30.721  26.166  26.814  1.00  0.00    -0.354 N 
ATOM      5  C   UNL A   1      30.962  24.940  26.249  1.00  0.00     0.248 C 
ATOM      6  O   UNL A   1      30.690  23.998  27.001  1.00  0.00    -0.272 OA
ATOM      7  H   UNL A   1      30.183  26.117  27.638  1.00  0.00     0.163 HD
BRANCH   5   8
ATOM      8  C   UNL A   1      31.644  24.770  24.851  1.00  0.00     0.144 C 
ATOM      9  C   UNL A   1      33.162  25.088  24.913  1.00  0.00     0.062 C 
ATOM     10  C   UNL A   1      31.291  23.313  24.424  1.00  0.00     0.062 C 
ATOM     11  C   UNL A   1      33.934  24.359  23.825  1.00  0.00     0.123 C 
ATOM     12  C   UNL A   1      32.362  22.502  23.695  1.00  0.00     0.123 C 
ATOM     13  N   UNL A   1      33.726  22.929  23.977  1.00  0.00    -0.337 N 
ATOM     14  C   UNL A   1      34.803  22.153  24.422  1.00  0.00     0.270 C 
ATOM     15  O   UNL A   1      35.874  22.689  24.716  1.00  0.00    -0.267 OA
BRANCH   8  16
ATOM     16  N   UNL A   1      31.095  25.764  23.875  1.00  0.00    -0.257 N 
ATOM     17  C   UNL A   1      31.019  29.010  22.170  1.00  0.00     0.048 C 
ATOM     18  C   UNL A   1      30.823  27.687  22.801  1.00  0.00    -0.013 A 
ATOM     19  C   UNL A   1      29.600  27.050  23.075  1.00  0.00     0.138 A 
ATOM     20  C   UNL A   1      31.772  26.817  23.297  1.00  0.00     0.113 A 
ATOM     21  N   UNL A   1      29.753  25.951  23.808  1.00  0.00    -0.180 NA
ENDBRANCH   8  16
BRANCH  14  22
ATOM     22  C   UNL A   1      34.652  20.731  24.655  1.00  0.00     0.105 A 
ATOM     23  C   UNL A   1      35.513  19.647  24.656  1.00  0.00     0.042 A 
ATOM     24  N   UNL A   1      33.420  20.220  25.020  1.00  0.00    -0.351 N 
ATOM     25  C   UNL A   1      34.735  18.460  24.734  1.00  0.00     0.000 A 
ATOM     26  C   UNL A   1      33.424  18.849  24.993  1.00  0.00     0.046 A 
ATOM     27  H   UNL A   1      32.641  20.770  25.267  1.00  0.00     0.167 HD
ATOM     28  C   UNL A   1      35.026  17.091  24.599  1.00  0.00     0.010 A 
ATOM     29  C   UNL A   1      32.384  17.931  25.171  1.00  0.00     0.026 A 
ATOM     30  C   UNL A   1      33.988  16.160  24.725  1.00  0.00     0.001 A 
ATOM     31  C   UNL A   1      32.691  16.575  25.021  1.00  0.00     0.002 A 
ENDBRANCH  14  22
ENDBRANCH   5   8
ENDBRANCH   3   4
ENDBRANCH   2   3
ENDBRANCH   1   2
BRANCH   1  32
ATOM     32  C   UNL A   1      33.646  29.387  26.505  1.00  0.00     0.116 C 
BRANCH  32  33
ATOM     33  N   UNL A   1      33.626  30.831  26.759  1.00  0.00    -0.352 N 
ATOM     34  C   UNL A   1      34.428  31.565  27.625  1.00  0.00     0.251 C 
ATOM     35  H   UNL A   1      32.959  31.348  26.251  1.00  0.00     0.163 HD
ATOM     36  O   UNL A   1      34.082  32.668  28.018  1.00  0.00    -0.269 OA
BRANCH  34  37
ATOM     37  C   UNL A   1      35.721  30.986  28.032  1.00  0.00     0.039 A 
ATOM     38  C   UNL A   1      36.173  29.729  27.608  1.00  0.00     0.014 A 
ATOM     39  C   UNL A   1      36.505  31.776  28.863  1.00  0.00     0.014 A 
ATOM     40  C   UNL A   1      37.444  29.308  28.004  1.00  0.00     0.010 A 
ATOM     41  C   UNL A   1      37.822  31.478  29.030  1.00  0.00     0.010 A 
ATOM     42  C   UNL A   1      38.253  30.197  28.720  1.00  0.00    -0.014 A 
BRANCH  42  43
ATOM     43  C   UNL A   1      39.614  29.903  29.140  1.00  0.00     0.031 A 
ATOM     44  C   UNL A   1      39.761  29.758  30.610  1.00  0.00     0.074 A 
ATOM     45  C   UNL A   1      40.519  29.440  28.245  1.00  0.00     0.049 A 
ATOM     46  N   UNL A   1      40.353  30.562  31.430  1.00  0.00    -0.248 NA
ATOM     47  C   UNL A   1      38.986  28.695  31.282  1.00  0.00     0.031 C 
ATOM     48  C   UNL A   1      40.322  29.173  26.810  1.00  0.00     0.029 A 
ATOM     49  N   UNL A   1      41.768  28.952  28.454  1.00  0.00    -0.354 N 
ATOM     50  C   UNL A   1      40.250  29.955  32.678  1.00  0.00     0.074 A 
ATOM     51  C   UNL A   1      39.182  28.997  32.566  1.00  0.00     0.031 C 
ATOM     52  C   UNL A   1      41.300  28.355  26.360  1.00  0.00     0.029 A 
ATOM     53  C   UNL A   1      42.271  28.161  27.421  1.00  0.00     0.049 A 
ATOM     54  H   UNL A   1      42.280  29.142  29.272  1.00  0.00     0.167 HD
ATOM     55  C   UNL A   1      41.255  30.038  33.596  1.00  0.00     0.031 A 
ATOM     56  C   UNL A   1      43.377  27.367  27.466  1.00  0.00     0.031 A 
ATOM     57  C   UNL A   1      42.247  31.007  33.193  1.00  0.00     0.049 A 
ATOM     58  C   UNL A   1      44.174  27.816  28.636  1.00  0.00     0.074 A 
ATOM     59  C   UNL A   1      42.227  32.355  32.899  1.00  0.00     0.029 A 
ATOM     60  N   UNL A   1      43.393  30.504  32.620  1.00  0.00    -0.354 N 
ATOM     61  N   UNL A   1      44.720  29.000  28.717  1.00  0.00    -0.248 NA
ATOM     62  C   UNL A   1      43.933  27.156  29.910  1.00  0.00     0.031 C 
ATOM     63  C   UNL A   1      43.092  32.493  31.774  1.00  0.00     0.029 A 
ATOM     64  C   UNL A   1      43.668  31.250  31.504  1.00  0.00     0.049 A 
ATOM     65  H   UNL A   1      43.922  29.743  32.952  1.00  0.00     0.167 HD
ATOM     66  C   UNL A   1      44.481  29.412  30.021  1.00  0.00     0.074 A 
ATOM     67  C   UNL A   1      44.069  28.201  30.732  1.00  0.00     0.031 C 
ATOM     68  C   UNL A   1      44.342  30.737  30.328  1.00  0.00     0.031 A 
BRANCH  55  69
ATOM     69  C   UNL A   1      41.584  28.955  34.598  1.00  0.00    -0.014 A 
ATOM     70  C   UNL A   1      42.186  29.332  35.816  1.00  0.00     0.010 A 
ATOM     71  C   UNL A   1      41.577  27.577  34.294  1.00  0.00     0.010 A 
ATOM     72  C   UNL A   1      42.819  28.392  36.639  1.00  0.00     0.020 A 
ATOM     73  C   UNL A   1      42.164  26.626  35.130  1.00  0.00     0.020 A 
ATOM     74  C   UNL A   1      42.814  27.045  36.280  1.00  0.00     0.054 A 
BRANCH  74  75
ATOM     75  S   UNL A   1      43.718  25.854  37.297  1.00  0.00     0.124 S 
ATOM     76  O   UNL A   1      43.380  24.591  36.648  1.00  0.00    -0.237 OA
ATOM     77  O   UNL A   1      45.099  26.301  37.139  1.00  0.00    -0.237 OA
ATOM     78  O   UNL A   1      43.154  26.046  38.631  1.00  0.00    -0.744 OA
ENDBRANCH  74  75
ENDBRANCH  55  69
BRANCH  56  79
ATOM     79  C   UNL A   1      43.612  26.058  26.792  1.00  0.00    -0.014 A 
ATOM     80  C   UNL A   1      43.626  25.941  25.387  1.00  0.00     0.010 A 
ATOM     81  C   UNL A   1      44.109  24.966  27.533  1.00  0.00     0.010 A 
ATOM     82  C   UNL A   1      44.167  24.805  24.751  1.00  0.00     0.020 A 
ATOM     83  C   UNL A   1      44.646  23.830  26.909  1.00  0.00     0.020 A 
ATOM     84  C   UNL A   1      44.694  23.763  25.519  1.00  0.00     0.054 A 
BRANCH  84  85
ATOM     85  S   UNL A   1      45.548  22.377  24.703  1.00  0.00     0.124 S 
ATOM     86  O   UNL A   1      46.515  23.064  23.852  1.00  0.00    -0.237 OA
ATOM     87  O   UNL A   1      46.109  21.639  25.831  1.00  0.00    -0.237 OA
ATOM     88  O   UNL A   1      44.476  21.688  23.986  1.00  0.00    -0.744 OA
ENDBRANCH  84  85
ENDBRANCH  56  79
BRANCH  68  89
ATOM     89  C   UNL A   1      44.725  31.768  29.290  1.00  0.00    -0.014 A 
ATOM     90  C   UNL A   1      45.999  32.363  29.194  1.00  0.00     0.010 A 
ATOM     91  C   UNL A   1      43.800  31.999  28.259  1.00  0.00     0.010 A 
ATOM     92  C   UNL A   1      46.325  33.184  28.101  1.00  0.00     0.020 A 
ATOM     93  C   UNL A   1      44.123  32.798  27.162  1.00  0.00     0.020 A 
ATOM     94  C   UNL A   1      45.381  33.395  27.090  1.00  0.00     0.054 A 
BRANCH  94  95
ATOM     95  S   UNL A   1      45.813  34.418  25.654  1.00  0.00     0.124 S 
ATOM     96  O   UNL A   1      44.961  33.865  24.604  1.00  0.00    -0.237 OA
ATOM     97  O   UNL A   1      45.470  35.766  26.099  1.00  0.00    -0.237 OA
ATOM     98  O   UNL A   1      47.245  34.179  25.475  1.00  0.00    -0.744 OA
ENDBRANCH  94  95
ENDBRANCH  68  89
ENDBRANCH  42  43
ENDBRANCH  34  37
ENDBRANCH  32  33
ENDBRANCH   1  32
TORSDOF 16
ENDMDL
