MODEL 1
REMARK VINA RESULT:     -13.4      0.000      0.000
REMARK SMILES O=C(NCCCCNC(=O)[C@H](c1c[nH]c2cc(OCc3ccccc3)ccc12)[NH+]1CC[NH+]([C@H]2CCS(=O)(=O)C2)CC1)c1ccc(-c2c3nc(c(-c4ccc(S(=O)(=O)[O-])cc4)c4ccc([nH]4)c(-c4ccc(S(=O)(=O)[O-])cc4)c4nc(c(-c5ccc(S(=O)(=O)[O-])cc5)c5ccc2[nH]5)C=C4)C=C3)cc1
REMARK SMILES IDX 6 1 5 2 4 3 3 4 1 5 2 6 42 8 43 9 101 10 44 11 100 12 45 13
REMARK SMILES IDX 46 14 47 15 94 16 48 17 99 18 93 19 95 20 49 21 98 22 92 23
REMARK SMILES IDX 91 24 50 26 80 27 61 28 79 29 62 30 65 31 78 32 96 33 63 34
REMARK SMILES IDX 64 35 77 37 97 38 66 39 51 40 52 41 60 42 53 43 59 44 54 45
REMARK SMILES IDX 55 46 56 47 57 48 58 49 81 50 82 51 90 52 83 53 89 54 84 55
REMARK SMILES IDX 85 56 86 57 87 58 88 59 67 60 68 61 76 62 69 63 75 64 70 65
REMARK SMILES IDX 71 66 72 67 73 68 74 69 7 70 8 71 9 72 10 74 11 75 29 76
REMARK SMILES IDX 30 77 41 78 31 80 40 81 32 82 33 84 34 85 39 86 35 87 36 88
REMARK SMILES IDX 37 89 38 90 12 91 13 92 28 93 14 94 15 95 27 96 16 98 26 99
REMARK SMILES IDX 17 100 18 101 19 102 20 103 21 104 25 105 22 106 24 107
REMARK SMILES IDX 23 108
REMARK H PARENT 3 7 95 25 65 36 8 73 29 79 32 83 14 97
REMARK Flexibility Score: inf
ROOT
ATOM      1  C   UNL A   1      35.449  29.354  27.179  1.00  0.00     0.023 C 
ENDROOT
BRANCH   1   2
ATOM      2  C   UNL A   1      34.904  30.541  27.985  1.00  0.00     0.023 C 
BRANCH   2   3
ATOM      3  C   UNL A   1      35.892  31.272  28.893  1.00  0.00     0.116 C 
BRANCH   3   4
ATOM      4  N   UNL A   1      35.848  30.840  30.285  1.00  0.00    -0.352 N 
ATOM      5  O   UNL A   1      36.430  29.700  32.144  1.00  0.00    -0.269 OA
ATOM      6  C   UNL A   1      36.711  30.030  30.995  1.00  0.00     0.251 C 
ATOM      7  H   UNL A   1      35.082  31.181  30.800  1.00  0.00     0.163 HD
BRANCH   6   8
ATOM      8  C   UNL A   1      37.951  29.527  30.362  1.00  0.00     0.039 A 
ATOM      9  C   UNL A   1      38.895  28.823  31.107  1.00  0.00     0.014 A 
ATOM     10  C   UNL A   1      38.187  29.785  29.008  1.00  0.00     0.014 A 
ATOM     11  C   UNL A   1      40.152  28.576  30.568  1.00  0.00     0.010 A 
ATOM     12  C   UNL A   1      39.416  29.435  28.435  1.00  0.00     0.010 A 
ATOM     13  C   UNL A   1      40.434  28.881  29.227  1.00  0.00    -0.014 A 
BRANCH  13  14
ATOM     14  C   UNL A   1      41.792  28.594  28.683  1.00  0.00     0.031 A 
ATOM     15  C   UNL A   1      42.867  29.652  28.657  1.00  0.00     0.074 A 
ATOM     16  C   UNL A   1      42.073  27.344  28.259  1.00  0.00     0.049 A 
ATOM     17  N   UNL A   1      44.118  29.544  28.283  1.00  0.00    -0.248 NA
ATOM     18  C   UNL A   1      42.495  31.005  29.100  1.00  0.00     0.031 C 
ATOM     19  C   UNL A   1      41.121  26.231  28.232  1.00  0.00     0.029 A 
ATOM     20  N   UNL A   1      43.240  26.791  27.800  1.00  0.00    -0.354 N 
ATOM     21  C   UNL A   1      44.672  30.814  28.419  1.00  0.00     0.074 A 
ATOM     22  C   UNL A   1      43.614  31.683  28.885  1.00  0.00     0.031 C 
ATOM     23  C   UNL A   1      41.758  25.115  27.848  1.00  0.00     0.029 A 
ATOM     24  C   UNL A   1      43.141  25.447  27.527  1.00  0.00     0.049 A 
ATOM     25  H   UNL A   1      44.071  27.306  27.679  1.00  0.00     0.167 HD
ATOM     26  C   UNL A   1      45.945  31.219  28.179  1.00  0.00     0.031 A 
ATOM     27  C   UNL A   1      44.052  24.574  27.057  1.00  0.00     0.031 A 
ATOM     28  C   UNL A   1      46.996  30.348  27.715  1.00  0.00     0.049 A 
ATOM     29  C   UNL A   1      45.443  25.056  26.768  1.00  0.00     0.074 A 
ATOM     30  C   UNL A   1      48.327  30.655  27.484  1.00  0.00     0.029 A 
ATOM     31  N   UNL A   1      46.839  29.006  27.401  1.00  0.00    -0.354 N 
ATOM     32  N   UNL A   1      45.954  26.251  26.944  1.00  0.00    -0.248 NA
ATOM     33  C   UNL A   1      46.384  24.068  26.223  1.00  0.00     0.031 C 
ATOM     34  C   UNL A   1      48.956  29.519  26.964  1.00  0.00     0.029 A 
ATOM     35  C   UNL A   1      48.039  28.480  26.946  1.00  0.00     0.049 A 
ATOM     36  H   UNL A   1      45.998  28.501  27.488  1.00  0.00     0.167 HD
ATOM     37  C   UNL A   1      47.288  26.151  26.560  1.00  0.00     0.074 A 
ATOM     38  C   UNL A   1      47.504  24.774  26.161  1.00  0.00     0.031 C 
ATOM     39  C   UNL A   1      48.245  27.110  26.545  1.00  0.00     0.031 A 
BRANCH  26  40
ATOM     40  C   UNL A   1      46.270  32.681  28.375  1.00  0.00    -0.014 A 
ATOM     41  C   UNL A   1      46.152  33.611  27.326  1.00  0.00     0.010 A 
ATOM     42  C   UNL A   1      46.654  33.140  29.650  1.00  0.00     0.010 A 
ATOM     43  C   UNL A   1      46.453  34.961  27.538  1.00  0.00     0.020 A 
ATOM     44  C   UNL A   1      46.926  34.493  29.874  1.00  0.00     0.020 A 
ATOM     45  C   UNL A   1      46.842  35.392  28.810  1.00  0.00     0.054 A 
BRANCH  45  46
ATOM     46  S   UNL A   1      47.216  37.150  29.056  1.00  0.00     0.124 S 
ATOM     47  O   UNL A   1      45.995  37.789  28.570  1.00  0.00    -0.237 OA
ATOM     48  O   UNL A   1      47.434  37.232  30.498  1.00  0.00    -0.237 OA
ATOM     49  O   UNL A   1      48.404  37.373  28.235  1.00  0.00    -0.744 OA
ENDBRANCH  45  46
ENDBRANCH  26  40
BRANCH  27  50
ATOM     50  C   UNL A   1      43.668  23.153  26.829  1.00  0.00    -0.014 A 
ATOM     51  C   UNL A   1      42.986  22.425  27.820  1.00  0.00     0.010 A 
ATOM     52  C   UNL A   1      43.973  22.524  25.608  1.00  0.00     0.010 A 
ATOM     53  C   UNL A   1      42.633  21.091  27.601  1.00  0.00     0.020 A 
ATOM     54  C   UNL A   1      43.590  21.201  25.372  1.00  0.00     0.020 A 
ATOM     55  C   UNL A   1      42.935  20.488  26.376  1.00  0.00     0.054 A 
BRANCH  55  56
ATOM     56  S   UNL A   1      42.428  18.769  26.099  1.00  0.00     0.124 S 
ATOM     57  O   UNL A   1      42.650  18.173  27.412  1.00  0.00    -0.237 OA
ATOM     58  O   UNL A   1      41.032  18.915  25.696  1.00  0.00    -0.237 OA
ATOM     59  O   UNL A   1      43.329  18.313  25.043  1.00  0.00    -0.744 OA
ENDBRANCH  55  56
ENDBRANCH  27  50
BRANCH  39  60
ATOM     60  C   UNL A   1      49.632  26.695  26.128  1.00  0.00    -0.014 A 
ATOM     61  C   UNL A   1      50.095  26.878  24.813  1.00  0.00     0.010 A 
ATOM     62  C   UNL A   1      50.499  26.131  27.085  1.00  0.00     0.010 A 
ATOM     63  C   UNL A   1      51.379  26.459  24.451  1.00  0.00     0.020 A 
ATOM     64  C   UNL A   1      51.794  25.746  26.736  1.00  0.00     0.020 A 
ATOM     65  C   UNL A   1      52.219  25.895  25.415  1.00  0.00     0.054 A 
BRANCH  65  66
ATOM     66  S   UNL A   1      53.889  25.382  24.926  1.00  0.00     0.124 S 
ATOM     67  O   UNL A   1      53.762  23.927  24.891  1.00  0.00    -0.237 OA
ATOM     68  O   UNL A   1      54.055  26.029  23.628  1.00  0.00    -0.237 OA
ATOM     69  O   UNL A   1      54.740  25.907  25.992  1.00  0.00    -0.744 OA
ENDBRANCH  65  66
ENDBRANCH  39  60
ENDBRANCH  13  14
ENDBRANCH   6   8
ENDBRANCH   3   4
ENDBRANCH   2   3
ENDBRANCH   1   2
BRANCH   1  70
ATOM     70  C   UNL A   1      34.449  28.235  26.883  1.00  0.00     0.116 C 
BRANCH  70  71
ATOM     71  N   UNL A   1      33.142  28.426  27.490  1.00  0.00    -0.351 N 
ATOM     72  C   UNL A   1      31.909  27.915  27.162  1.00  0.00     0.283 C 
ATOM     73  H   UNL A   1      33.140  29.025  28.271  1.00  0.00     0.163 HD
ATOM     74  O   UNL A   1      31.008  28.170  27.973  1.00  0.00    -0.268 OA
BRANCH  72  75
ATOM     75  C   UNL A   1      31.662  27.087  25.852  1.00  0.00     0.308 C 
BRANCH  75  76
ATOM     76  N   UNL A   1      32.522  27.437  24.661  1.00  0.00    -0.312 N 
ATOM     77  C   UNL A   1      32.257  26.806  23.366  1.00  0.00     0.325 C 
ATOM     78  C   UNL A   1      32.800  28.848  24.355  1.00  0.00     0.325 C 
ATOM     79  H   UNL A   1      33.335  27.007  25.102  1.00  0.00     0.349 HD
ATOM     80  C   UNL A   1      31.014  27.339  22.647  1.00  0.00     0.324 C 
ATOM     81  C   UNL A   1      31.776  29.575  23.426  1.00  0.00     0.324 C 
ATOM     82  N   UNL A   1      31.029  28.788  22.429  1.00  0.00    -0.322 N 
ATOM     83  H   UNL A   1      31.621  28.945  21.613  1.00  0.00     0.348 HD
BRANCH  82  84
ATOM     84  C   UNL A   1      29.706  29.301  22.024  1.00  0.00     0.200 C 
ATOM     85  C   UNL A   1      28.508  28.931  22.927  1.00  0.00     0.082 C 
ATOM     86  C   UNL A   1      29.640  30.825  21.897  1.00  0.00     0.201 C 
ATOM     87  C   UNL A   1      27.285  29.650  22.374  1.00  0.00     0.143 C 
ATOM     88  S   UNL A   1      27.904  31.177  21.691  1.00  0.00     0.156 S 
ATOM     89  O   UNL A   1      27.605  31.202  20.272  1.00  0.00    -0.229 OA
ATOM     90  O   UNL A   1      27.549  32.267  22.573  1.00  0.00    -0.229 OA
ENDBRANCH  82  84
ENDBRANCH  75  76
BRANCH  75  91
ATOM     91  C   UNL A   1      31.641  25.579  26.169  1.00  0.00     0.044 A 
ATOM     92  C   UNL A   1      30.521  24.807  26.430  1.00  0.00     0.094 A 
ATOM     93  C   UNL A   1      32.726  24.627  26.153  1.00  0.00     0.009 A 
ATOM     94  N   UNL A   1      30.891  23.565  26.840  1.00  0.00    -0.361 N 
ATOM     95  C   UNL A   1      32.226  23.400  26.601  1.00  0.00     0.050 A 
ATOM     96  C   UNL A   1      34.083  24.666  25.775  1.00  0.00     0.015 A 
ATOM     97  H   UNL A   1      30.293  22.894  27.243  1.00  0.00     0.166 HD
ATOM     98  C   UNL A   1      32.993  22.238  26.712  1.00  0.00     0.073 A 
ATOM     99  C   UNL A   1      34.853  23.487  25.817  1.00  0.00     0.047 A 
ATOM    100  C   UNL A   1      34.310  22.283  26.264  1.00  0.00     0.121 A 
BRANCH 100 101
ATOM    101  O   UNL A   1      34.926  21.059  26.279  1.00  0.00    -0.489 OA
BRANCH 101 102
ATOM    102  C   UNL A   1      35.357  20.492  25.042  1.00  0.00     0.265 C 
BRANCH 102 103
ATOM    103  C   UNL A   1      34.579  19.269  24.604  1.00  0.00    -0.011 A 
ATOM    104  C   UNL A   1      35.176  18.001  24.546  1.00  0.00     0.007 A 
ATOM    105  C   UNL A   1      33.229  19.399  24.246  1.00  0.00     0.007 A 
ATOM    106  C   UNL A   1      34.425  16.882  24.183  1.00  0.00     0.000 A 
ATOM    107  C   UNL A   1      32.481  18.280  23.885  1.00  0.00     0.000 A 
ATOM    108  C   UNL A   1      33.077  17.021  23.859  1.00  0.00     0.000 A 
ENDBRANCH 102 103
ENDBRANCH 101 102
ENDBRANCH 100 101
ENDBRANCH  75  91
ENDBRANCH  72  75
ENDBRANCH  70  71
ENDBRANCH   1  70
TORSDOF 20
ENDMDL
MODEL 2
REMARK VINA RESULT:     -12.8      5.748      7.975
REMARK SMILES O=C(NCCCCNC(=O)[C@H](c1c[nH]c2cc(OCc3ccccc3)ccc12)[NH+]1CC[NH+]([C@H]2CCS(=O)(=O)C2)CC1)c1ccc(-c2c3nc(c(-c4ccc(S(=O)(=O)[O-])cc4)c4ccc([nH]4)c(-c4ccc(S(=O)(=O)[O-])cc4)c4nc(c(-c5ccc(S(=O)(=O)[O-])cc5)c5ccc2[nH]5)C=C4)C=C3)cc1
REMARK SMILES IDX 6 1 5 2 4 3 3 4 1 5 2 6 42 8 43 9 101 10 44 11 100 12 45 13
REMARK SMILES IDX 46 14 47 15 94 16 48 17 99 18 93 19 95 20 49 21 98 22 92 23
REMARK SMILES IDX 91 24 50 26 80 27 61 28 79 29 62 30 65 31 78 32 96 33 63 34
REMARK SMILES IDX 64 35 77 37 97 38 66 39 51 40 52 41 60 42 53 43 59 44 54 45
REMARK SMILES IDX 55 46 56 47 57 48 58 49 81 50 82 51 90 52 83 53 89 54 84 55
REMARK SMILES IDX 85 56 86 57 87 58 88 59 67 60 68 61 76 62 69 63 75 64 70 65
REMARK SMILES IDX 71 66 72 67 73 68 74 69 7 70 8 71 9 72 10 74 11 75 29 76
REMARK SMILES IDX 30 77 41 78 31 80 40 81 32 82 33 84 34 85 39 86 35 87 36 88
REMARK SMILES IDX 37 89 38 90 12 91 13 92 28 93 14 94 15 95 27 96 16 98 26 99
REMARK SMILES IDX 17 100 18 101 19 102 20 103 21 104 25 105 22 106 24 107
REMARK SMILES IDX 23 108
REMARK H PARENT 3 7 95 25 65 36 8 73 29 79 32 83 14 97
REMARK Flexibility Score: inf
ROOT
ATOM      1  C   UNL A   1      34.688  29.563  27.426  1.00  0.00     0.023 C 
ENDROOT
BRANCH   1   2
ATOM      2  C   UNL A   1      33.727  30.743  27.632  1.00  0.00     0.023 C 
BRANCH   2   3
ATOM      3  C   UNL A   1      34.291  32.143  27.393  1.00  0.00     0.116 C 
BRANCH   3   4
ATOM      4  N   UNL A   1      33.518  33.207  28.021  1.00  0.00    -0.352 N 
ATOM      5  O   UNL A   1      32.859  34.648  29.628  1.00  0.00    -0.269 OA
ATOM      6  C   UNL A   1      33.696  33.841  29.234  1.00  0.00     0.251 C 
ATOM      7  H   UNL A   1      32.748  33.525  27.497  1.00  0.00     0.163 HD
BRANCH   6   8
ATOM      8  C   UNL A   1      34.870  33.521  30.077  1.00  0.00     0.039 A 
ATOM      9  C   UNL A   1      36.052  34.249  29.958  1.00  0.00     0.014 A 
ATOM     10  C   UNL A   1      34.796  32.457  30.984  1.00  0.00     0.014 A 
ATOM     11  C   UNL A   1      37.211  33.785  30.570  1.00  0.00     0.010 A 
ATOM     12  C   UNL A   1      35.941  32.059  31.685  1.00  0.00     0.010 A 
ATOM     13  C   UNL A   1      37.176  32.681  31.438  1.00  0.00    -0.014 A 
BRANCH  13  14
ATOM     14  C   UNL A   1      38.438  32.218  32.080  1.00  0.00     0.031 A 
ATOM     15  C   UNL A   1      38.769  32.575  33.508  1.00  0.00     0.074 A 
ATOM     16  C   UNL A   1      39.268  31.416  31.381  1.00  0.00     0.049 A 
ATOM     17  N   UNL A   1      39.791  32.195  34.235  1.00  0.00    -0.248 NA
ATOM     18  C   UNL A   1      37.845  33.480  34.210  1.00  0.00     0.031 C 
ATOM     19  C   UNL A   1      39.062  30.996  29.993  1.00  0.00     0.029 A 
ATOM     20  N   UNL A   1      40.431  30.787  31.747  1.00  0.00    -0.354 N 
ATOM     21  C   UNL A   1      39.647  32.831  35.465  1.00  0.00     0.074 A 
ATOM     22  C   UNL A   1      38.454  33.644  35.377  1.00  0.00     0.031 C 
ATOM     23  C   UNL A   1      40.024  30.127  29.648  1.00  0.00     0.029 A 
ATOM     24  C   UNL A   1      40.956  29.987  30.759  1.00  0.00     0.049 A 
ATOM     25  H   UNL A   1      40.849  30.896  32.631  1.00  0.00     0.167 HD
ATOM     26  C   UNL A   1      40.435  32.745  36.566  1.00  0.00     0.031 A 
ATOM     27  C   UNL A   1      42.072  29.233  30.736  1.00  0.00     0.031 A 
ATOM     28  C   UNL A   1      41.623  31.933  36.649  1.00  0.00     0.049 A 
ATOM     29  C   UNL A   1      42.943  29.184  31.958  1.00  0.00     0.074 A 
ATOM     30  C   UNL A   1      42.463  31.747  37.734  1.00  0.00     0.029 A 
ATOM     31  N   UNL A   1      42.148  31.180  35.608  1.00  0.00    -0.354 N 
ATOM     32  N   UNL A   1      42.764  29.760  33.122  1.00  0.00    -0.248 NA
ATOM     33  C   UNL A   1      44.165  28.374  31.863  1.00  0.00     0.031 C 
ATOM     34  C   UNL A   1      43.532  30.942  37.330  1.00  0.00     0.029 A 
ATOM     35  C   UNL A   1      43.317  30.557  36.016  1.00  0.00     0.049 A 
ATOM     36  H   UNL A   1      41.748  31.101  34.712  1.00  0.00     0.167 HD
ATOM     37  C   UNL A   1      43.837  29.357  33.911  1.00  0.00     0.074 A 
ATOM     38  C   UNL A   1      44.646  28.475  33.094  1.00  0.00     0.031 C 
ATOM     39  C   UNL A   1      44.121  29.685  35.195  1.00  0.00     0.031 A 
BRANCH  26  40
ATOM     40  C   UNL A   1      40.064  33.583  37.767  1.00  0.00    -0.014 A 
ATOM     41  C   UNL A   1      39.314  33.054  38.834  1.00  0.00     0.010 A 
ATOM     42  C   UNL A   1      40.520  34.913  37.851  1.00  0.00     0.010 A 
ATOM     43  C   UNL A   1      38.990  33.851  39.937  1.00  0.00     0.020 A 
ATOM     44  C   UNL A   1      40.225  35.703  38.967  1.00  0.00     0.020 A 
ATOM     45  C   UNL A   1      39.445  35.172  39.994  1.00  0.00     0.054 A 
BRANCH  45  46
ATOM     46  S   UNL A   1      39.018  36.178  41.443  1.00  0.00     0.124 S 
ATOM     47  O   UNL A   1      37.770  35.559  41.882  1.00  0.00    -0.237 OA
ATOM     48  O   UNL A   1      40.164  35.972  42.324  1.00  0.00    -0.237 OA
ATOM     49  O   UNL A   1      38.885  37.529  40.902  1.00  0.00    -0.744 OA
ENDBRANCH  45  46
ENDBRANCH  26  40
BRANCH  27  50
ATOM     50  C   UNL A   1      42.424  28.467  29.509  1.00  0.00    -0.014 A 
ATOM     51  C   UNL A   1      43.192  29.057  28.490  1.00  0.00     0.010 A 
ATOM     52  C   UNL A   1      42.001  27.133  29.361  1.00  0.00     0.010 A 
ATOM     53  C   UNL A   1      43.514  28.333  27.338  1.00  0.00     0.020 A 
ATOM     54  C   UNL A   1      42.351  26.396  28.227  1.00  0.00     0.020 A 
ATOM     55  C   UNL A   1      43.095  27.006  27.216  1.00  0.00     0.054 A 
BRANCH  55  56
ATOM     56  S   UNL A   1      43.563  26.074  25.733  1.00  0.00     0.124 S 
ATOM     57  O   UNL A   1      42.388  26.245  24.884  1.00  0.00    -0.237 OA
ATOM     58  O   UNL A   1      44.770  26.768  25.293  1.00  0.00    -0.237 OA
ATOM     59  O   UNL A   1      43.780  24.719  26.235  1.00  0.00    -0.744 OA
ENDBRANCH  55  56
ENDBRANCH  27  50
BRANCH  39  60
ATOM     60  C   UNL A   1      45.336  29.046  35.817  1.00  0.00    -0.014 A 
ATOM     61  C   UNL A   1      45.268  27.795  36.456  1.00  0.00     0.010 A 
ATOM     62  C   UNL A   1      46.577  29.705  35.738  1.00  0.00     0.010 A 
ATOM     63  C   UNL A   1      46.407  27.239  37.046  1.00  0.00     0.020 A 
ATOM     64  C   UNL A   1      47.725  29.136  36.294  1.00  0.00     0.020 A 
ATOM     65  C   UNL A   1      47.627  27.915  36.962  1.00  0.00     0.054 A 
BRANCH  65  66
ATOM     66  S   UNL A   1      49.096  27.162  37.714  1.00  0.00     0.124 S 
ATOM     67  O   UNL A   1      50.172  27.990  37.176  1.00  0.00    -0.237 OA
ATOM     68  O   UNL A   1      48.839  27.319  39.143  1.00  0.00    -0.237 OA
ATOM     69  O   UNL A   1      49.069  25.784  37.229  1.00  0.00    -0.744 OA
ENDBRANCH  65  66
ENDBRANCH  39  60
ENDBRANCH  13  14
ENDBRANCH   6   8
ENDBRANCH   3   4
ENDBRANCH   2   3
ENDBRANCH   1   2
BRANCH   1  70
ATOM     70  C   UNL A   1      34.043  28.250  26.982  1.00  0.00     0.116 C 
BRANCH  70  71
ATOM     71  N   UNL A   1      32.615  28.168  27.237  1.00  0.00    -0.351 N 
ATOM     72  C   UNL A   1      31.649  27.335  26.724  1.00  0.00     0.283 C 
ATOM     73  H   UNL A   1      32.280  28.825  27.891  1.00  0.00     0.163 HD
ATOM     74  O   UNL A   1      30.536  27.438  27.258  1.00  0.00    -0.268 OA
BRANCH  72  75
ATOM     75  C   UNL A   1      31.935  26.342  25.543  1.00  0.00     0.308 C 
BRANCH  75  76
ATOM     76  N   UNL A   1      32.751  26.880  24.393  1.00  0.00    -0.312 N 
ATOM     77  C   UNL A   1      32.467  26.428  23.029  1.00  0.00     0.325 C 
ATOM     78  C   UNL A   1      32.982  28.328  24.280  1.00  0.00     0.325 C 
ATOM     79  H   UNL A   1      33.588  26.419  24.749  1.00  0.00     0.349 HD
ATOM     80  C   UNL A   1      31.190  27.017  22.422  1.00  0.00     0.324 C 
ATOM     81  C   UNL A   1      31.912  29.145  23.487  1.00  0.00     0.324 C 
ATOM     82  N   UNL A   1      31.159  28.481  22.409  1.00  0.00    -0.322 N 
ATOM     83  H   UNL A   1      31.722  28.769  21.608  1.00  0.00     0.348 HD
BRANCH  82  84
ATOM     84  C   UNL A   1      29.811  29.005  22.112  1.00  0.00     0.200 C 
ATOM     85  C   UNL A   1      28.670  28.568  23.058  1.00  0.00     0.082 C 
ATOM     86  C   UNL A   1      29.727  30.533  22.083  1.00  0.00     0.201 C 
ATOM     87  C   UNL A   1      27.412  29.307  22.620  1.00  0.00     0.143 C 
ATOM     88  S   UNL A   1      27.980  30.879  21.998  1.00  0.00     0.156 S 
ATOM     89  O   UNL A   1      27.599  30.987  20.603  1.00  0.00    -0.229 OA
ATOM     90  O   UNL A   1      27.669  31.910  22.964  1.00  0.00    -0.229 OA
ENDBRANCH  82  84
ENDBRANCH  75  76
BRANCH  75  91
ATOM     91  C   UNL A   1      32.460  24.999  26.089  1.00  0.00     0.044 A 
ATOM     92  C   UNL A   1      31.737  24.064  26.810  1.00  0.00     0.094 A 
ATOM     93  C   UNL A   1      33.743  24.369  25.885  1.00  0.00     0.009 A 
ATOM     94  N   UNL A   1      32.562  23.090  27.277  1.00  0.00    -0.361 N 
ATOM     95  C   UNL A   1      33.775  23.204  26.659  1.00  0.00     0.050 A 
ATOM     96  C   UNL A   1      34.877  24.646  25.098  1.00  0.00     0.015 A 
ATOM     97  H   UNL A   1      32.323  22.412  27.950  1.00  0.00     0.166 HD
ATOM     98  C   UNL A   1      34.863  22.330  26.708  1.00  0.00     0.073 A 
ATOM     99  C   UNL A   1      35.956  23.739  25.083  1.00  0.00     0.047 A 
ATOM    100  C   UNL A   1      35.942  22.586  25.866  1.00  0.00     0.121 A 
BRANCH 100 101
ATOM    101  O   UNL A   1      36.886  21.592  25.883  1.00  0.00    -0.489 OA
BRANCH 101 102
ATOM    102  C   UNL A   1      38.152  21.838  25.270  1.00  0.00     0.265 C 
BRANCH 102 103
ATOM    103  C   UNL A   1      39.288  22.071  26.242  1.00  0.00    -0.011 A 
ATOM    104  C   UNL A   1      39.497  23.322  26.842  1.00  0.00     0.007 A 
ATOM    105  C   UNL A   1      40.158  21.016  26.555  1.00  0.00     0.007 A 
ATOM    106  C   UNL A   1      40.524  23.498  27.770  1.00  0.00     0.000 A 
ATOM    107  C   UNL A   1      41.184  21.195  27.483  1.00  0.00     0.000 A 
ATOM    108  C   UNL A   1      41.363  22.434  28.095  1.00  0.00     0.000 A 
ENDBRANCH 102 103
ENDBRANCH 101 102
ENDBRANCH 100 101
ENDBRANCH  75  91
ENDBRANCH  72  75
ENDBRANCH  70  71
ENDBRANCH   1  70
TORSDOF 20
ENDMDL
MODEL 3
REMARK VINA RESULT:     -12.5      5.130      6.772
REMARK SMILES O=C(NCCCCNC(=O)[C@H](c1c[nH]c2cc(OCc3ccccc3)ccc12)[NH+]1CC[NH+]([C@H]2CCS(=O)(=O)C2)CC1)c1ccc(-c2c3nc(c(-c4ccc(S(=O)(=O)[O-])cc4)c4ccc([nH]4)c(-c4ccc(S(=O)(=O)[O-])cc4)c4nc(c(-c5ccc(S(=O)(=O)[O-])cc5)c5ccc2[nH]5)C=C4)C=C3)cc1
REMARK SMILES IDX 6 1 5 2 4 3 3 4 1 5 2 6 42 8 43 9 101 10 44 11 100 12 45 13
REMARK SMILES IDX 46 14 47 15 94 16 48 17 99 18 93 19 95 20 49 21 98 22 92 23
REMARK SMILES IDX 91 24 50 26 80 27 61 28 79 29 62 30 65 31 78 32 96 33 63 34
REMARK SMILES IDX 64 35 77 37 97 38 66 39 51 40 52 41 60 42 53 43 59 44 54 45
REMARK SMILES IDX 55 46 56 47 57 48 58 49 81 50 82 51 90 52 83 53 89 54 84 55
REMARK SMILES IDX 85 56 86 57 87 58 88 59 67 60 68 61 76 62 69 63 75 64 70 65
REMARK SMILES IDX 71 66 72 67 73 68 74 69 7 70 8 71 9 72 10 74 11 75 29 76
REMARK SMILES IDX 30 77 41 78 31 80 40 81 32 82 33 84 34 85 39 86 35 87 36 88
REMARK SMILES IDX 37 89 38 90 12 91 13 92 28 93 14 94 15 95 27 96 16 98 26 99
REMARK SMILES IDX 17 100 18 101 19 102 20 103 21 104 25 105 22 106 24 107
REMARK SMILES IDX 23 108
REMARK H PARENT 3 7 95 25 65 36 8 73 29 79 32 83 14 97
REMARK Flexibility Score: inf
ROOT
ATOM      1  C   UNL A   1      32.107  28.018  27.742  1.00  0.00     0.023 C 
ENDROOT
BRANCH   1   2
ATOM      2  C   UNL A   1      32.258  29.311  26.928  1.00  0.00     0.023 C 
BRANCH   2   3
ATOM      3  C   UNL A   1      33.603  30.030  27.015  1.00  0.00     0.116 C 
BRANCH   3   4
ATOM      4  N   UNL A   1      33.497  31.448  27.332  1.00  0.00    -0.352 N 
ATOM      5  O   UNL A   1      34.013  33.423  28.295  1.00  0.00    -0.269 OA
ATOM      6  C   UNL A   1      34.346  32.267  28.049  1.00  0.00     0.251 C 
ATOM      7  H   UNL A   1      32.693  31.893  26.979  1.00  0.00     0.163 HD
BRANCH   6   8
ATOM      8  C   UNL A   1      35.634  31.743  28.557  1.00  0.00     0.039 A 
ATOM      9  C   UNL A   1      35.695  30.512  29.205  1.00  0.00     0.014 A 
ATOM     10  C   UNL A   1      36.796  32.509  28.406  1.00  0.00     0.014 A 
ATOM     11  C   UNL A   1      36.851  30.150  29.888  1.00  0.00     0.010 A 
ATOM     12  C   UNL A   1      37.990  32.087  29.003  1.00  0.00     0.010 A 
ATOM     13  C   UNL A   1      38.014  30.933  29.802  1.00  0.00    -0.014 A 
BRANCH  13  14
ATOM     14  C   UNL A   1      39.236  30.509  30.543  1.00  0.00     0.031 A 
ATOM     15  C   UNL A   1      39.560  31.066  31.907  1.00  0.00     0.074 A 
ATOM     16  C   UNL A   1      40.032  29.564  30.000  1.00  0.00     0.049 A 
ATOM     17  N   UNL A   1      40.544  30.750  32.712  1.00  0.00    -0.248 NA
ATOM     18  C   UNL A   1      38.676  32.118  32.435  1.00  0.00     0.031 C 
ATOM     19  C   UNL A   1      39.828  28.945  28.688  1.00  0.00     0.029 A 
ATOM     20  N   UNL A   1      41.149  28.939  30.489  1.00  0.00    -0.354 N 
ATOM     21  C   UNL A   1      40.414  31.577  33.824  1.00  0.00     0.074 A 
ATOM     22  C   UNL A   1      39.271  32.429  33.579  1.00  0.00     0.031 C 
ATOM     23  C   UNL A   1      40.744  27.983  28.507  1.00  0.00     0.029 A 
ATOM     24  C   UNL A   1      41.647  27.968  29.652  1.00  0.00     0.049 A 
ATOM     25  H   UNL A   1      41.556  29.162  31.358  1.00  0.00     0.167 HD
ATOM     26  C   UNL A   1      41.176  31.622  34.947  1.00  0.00     0.031 A 
ATOM     27  C   UNL A   1      42.717  27.161  29.777  1.00  0.00     0.031 A 
ATOM     28  C   UNL A   1      42.314  30.770  35.186  1.00  0.00     0.049 A 
ATOM     29  C   UNL A   1      43.561  27.256  31.014  1.00  0.00     0.074 A 
ATOM     30  C   UNL A   1      43.121  30.711  36.310  1.00  0.00     0.029 A 
ATOM     31  N   UNL A   1      42.813  29.837  34.289  1.00  0.00    -0.354 N 
ATOM     32  N   UNL A   1      43.394  28.015  32.070  1.00  0.00    -0.248 NA
ATOM     33  C   UNL A   1      44.737  26.377  31.080  1.00  0.00     0.031 C 
ATOM     34  C   UNL A   1      44.150  29.796  36.064  1.00  0.00     0.029 A 
ATOM     35  C   UNL A   1      43.938  29.223  34.820  1.00  0.00     0.049 A 
ATOM     36  H   UNL A   1      42.427  29.641  33.405  1.00  0.00     0.167 HD
ATOM     37  C   UNL A   1      44.427  27.683  32.941  1.00  0.00     0.074 A 
ATOM     38  C   UNL A   1      45.199  26.642  32.293  1.00  0.00     0.031 C 
ATOM     39  C   UNL A   1      44.705  28.192  34.166  1.00  0.00     0.031 A 
BRANCH  26  40
ATOM     40  C   UNL A   1      40.831  32.655  35.993  1.00  0.00    -0.014 A 
ATOM     41  C   UNL A   1      41.420  33.933  35.993  1.00  0.00     0.010 A 
ATOM     42  C   UNL A   1      39.857  32.356  36.966  1.00  0.00     0.010 A 
ATOM     43  C   UNL A   1      41.077  34.872  36.971  1.00  0.00     0.020 A 
ATOM     44  C   UNL A   1      39.488  33.304  37.926  1.00  0.00     0.020 A 
ATOM     45  C   UNL A   1      40.115  34.550  37.933  1.00  0.00     0.054 A 
BRANCH  45  46
ATOM     46  S   UNL A   1      39.682  35.793  39.182  1.00  0.00     0.124 S 
ATOM     47  O   UNL A   1      38.561  35.155  39.867  1.00  0.00    -0.237 OA
ATOM     48  O   UNL A   1      40.912  35.905  39.962  1.00  0.00    -0.237 OA
ATOM     49  O   UNL A   1      39.338  36.974  38.394  1.00  0.00    -0.744 OA
ENDBRANCH  45  46
ENDBRANCH  26  40
BRANCH  27  50
ATOM     50  C   UNL A   1      43.048  26.195  28.693  1.00  0.00    -0.014 A 
ATOM     51  C   UNL A   1      42.827  24.818  28.865  1.00  0.00     0.010 A 
ATOM     52  C   UNL A   1      43.574  26.655  27.471  1.00  0.00     0.010 A 
ATOM     53  C   UNL A   1      43.144  23.916  27.845  1.00  0.00     0.020 A 
ATOM     54  C   UNL A   1      43.859  25.761  26.436  1.00  0.00     0.020 A 
ATOM     55  C   UNL A   1      43.655  24.394  26.635  1.00  0.00     0.054 A 
BRANCH  55  56
ATOM     56  S   UNL A   1      44.018  23.211  25.311  1.00  0.00     0.124 S 
ATOM     57  O   UNL A   1      42.698  22.654  25.032  1.00  0.00    -0.237 OA
ATOM     58  O   UNL A   1      44.578  24.068  24.269  1.00  0.00    -0.237 OA
ATOM     59  O   UNL A   1      44.970  22.289  25.927  1.00  0.00    -0.744 OA
ENDBRANCH  55  56
ENDBRANCH  27  50
BRANCH  39  60
ATOM     60  C   UNL A   1      45.869  27.593  34.913  1.00  0.00    -0.014 A 
ATOM     61  C   UNL A   1      47.115  28.242  34.984  1.00  0.00     0.010 A 
ATOM     62  C   UNL A   1      45.701  26.364  35.580  1.00  0.00     0.010 A 
ATOM     63  C   UNL A   1      48.183  27.650  35.664  1.00  0.00     0.020 A 
ATOM     64  C   UNL A   1      46.756  25.787  36.290  1.00  0.00     0.020 A 
ATOM     65  C   UNL A   1      47.996  26.426  36.311  1.00  0.00     0.054 A 
BRANCH  65  66
ATOM     66  S   UNL A   1      49.391  25.689  37.207  1.00  0.00     0.124 S 
ATOM     67  O   UNL A   1      50.503  26.539  36.791  1.00  0.00    -0.237 OA
ATOM     68  O   UNL A   1      48.983  25.828  38.603  1.00  0.00    -0.237 OA
ATOM     69  O   UNL A   1      49.437  24.316  36.710  1.00  0.00    -0.744 OA
ENDBRANCH  65  66
ENDBRANCH  39  60
ENDBRANCH  13  14
ENDBRANCH   6   8
ENDBRANCH   3   4
ENDBRANCH   2   3
ENDBRANCH   1   2
BRANCH   1  70
ATOM     70  C   UNL A   1      31.946  26.734  26.929  1.00  0.00     0.116 C 
BRANCH  70  71
ATOM     71  N   UNL A   1      30.642  26.582  26.304  1.00  0.00    -0.351 N 
ATOM     72  C   UNL A   1      30.229  25.801  25.250  1.00  0.00     0.283 C 
ATOM     73  H   UNL A   1      29.932  27.135  26.703  1.00  0.00     0.163 HD
ATOM     74  O   UNL A   1      29.007  25.802  25.051  1.00  0.00    -0.268 OA
BRANCH  72  75
ATOM     75  C   UNL A   1      31.233  24.984  24.363  1.00  0.00     0.308 C 
BRANCH  75  76
ATOM     76  N   UNL A   1      32.204  25.787  23.531  1.00  0.00    -0.312 N 
ATOM     77  C   UNL A   1      32.000  25.896  22.084  1.00  0.00     0.325 C 
ATOM     78  C   UNL A   1      32.596  27.135  23.969  1.00  0.00     0.325 C 
ATOM     79  H   UNL A   1      32.951  25.123  23.731  1.00  0.00     0.349 HD
ATOM     80  C   UNL A   1      30.853  26.827  21.678  1.00  0.00     0.324 C 
ATOM     81  C   UNL A   1      31.696  28.315  23.483  1.00  0.00     0.324 C 
ATOM     82  N   UNL A   1      30.979  28.189  22.202  1.00  0.00    -0.322 N 
ATOM     83  H   UNL A   1      31.640  28.668  21.591  1.00  0.00     0.348 HD
BRANCH  82  84
ATOM     84  C   UNL A   1      29.727  28.957  22.056  1.00  0.00     0.200 C 
ATOM     85  C   UNL A   1      28.584  28.623  23.042  1.00  0.00     0.082 C 
ATOM     86  C   UNL A   1      29.907  30.473  22.171  1.00  0.00     0.201 C 
ATOM     87  C   UNL A   1      27.450  29.601  22.769  1.00  0.00     0.143 C 
ATOM     88  S   UNL A   1      28.244  31.112  22.250  1.00  0.00     0.156 S 
ATOM     89  O   UNL A   1      27.806  31.423  20.903  1.00  0.00    -0.229 OA
ATOM     90  O   UNL A   1      28.173  32.076  23.325  1.00  0.00    -0.229 OA
ENDBRANCH  82  84
ENDBRANCH  75  76
BRANCH  75  91
ATOM     91  C   UNL A   1      31.912  23.882  25.200  1.00  0.00     0.044 A 
ATOM     92  C   UNL A   1      31.373  23.231  26.297  1.00  0.00     0.094 A 
ATOM     93  C   UNL A   1      33.171  23.210  24.977  1.00  0.00     0.009 A 
ATOM     94  N   UNL A   1      32.315  22.450  26.890  1.00  0.00    -0.361 N 
ATOM     95  C   UNL A   1      33.396  22.353  26.059  1.00  0.00     0.050 A 
ATOM     96  C   UNL A   1      34.136  23.213  23.951  1.00  0.00     0.015 A 
ATOM     97  H   UNL A   1      32.231  22.024  27.773  1.00  0.00     0.166 HD
ATOM     98  C   UNL A   1      34.518  21.532  26.184  1.00  0.00     0.073 A 
ATOM     99  C   UNL A   1      35.240  22.341  24.029  1.00  0.00     0.047 A 
ATOM    100  C   UNL A   1      35.421  21.498  25.124  1.00  0.00     0.121 A 
BRANCH 100 101
ATOM    101  O   UNL A   1      36.403  20.555  25.282  1.00  0.00    -0.489 OA
BRANCH 101 102
ATOM    102  C   UNL A   1      37.743  20.892  24.924  1.00  0.00     0.265 C 
BRANCH 102 103
ATOM    103  C   UNL A   1      38.369  21.977  25.773  1.00  0.00    -0.011 A 
ATOM    104  C   UNL A   1      37.829  23.271  25.827  1.00  0.00     0.007 A 
ATOM    105  C   UNL A   1      39.516  21.690  26.527  1.00  0.00     0.007 A 
ATOM    106  C   UNL A   1      38.398  24.240  26.655  1.00  0.00     0.000 A 
ATOM    107  C   UNL A   1      40.083  22.660  27.353  1.00  0.00     0.000 A 
ATOM    108  C   UNL A   1      39.520  23.933  27.421  1.00  0.00     0.000 A 
ENDBRANCH 102 103
ENDBRANCH 101 102
ENDBRANCH 100 101
ENDBRANCH  75  91
ENDBRANCH  72  75
ENDBRANCH  70  71
ENDBRANCH   1  70
TORSDOF 20
ENDMDL
