MODEL 1
REMARK VINA RESULT:      -7.4      0.000      0.000
REMARK SMILES CCCCCCOC(=O)Nc1cccc(-c2ccc([C@@H](C)C(=O)NCCCCNC(=O)c3ccc(-c4c5nc(c(-c6ccc(S(=O)(=O)[O-])cc6)c6ccc([nH]6)c(-c6ccc(S(=O)(=O)[O-])cc6)c6nc(c(-c7ccc(S(=O)(=O)[O-])cc7)c7ccc4[nH]7)C=C6)C=C5)cc3)cc2F)c1
REMARK SMILES IDX 20 1 21 2 19 3 16 4 17 5 93 6 18 7 92 8 94 9 15 10 11 11
REMARK SMILES IDX 12 12 95 13 13 14 14 15 10 16 8 17 9 18 7 20 6 21 5 22 4 23
REMARK SMILES IDX 3 24 2 25 1 26 22 27 23 28 24 29 25 31 26 32 27 33 28 34
REMARK SMILES IDX 29 35 30 36 31 38 32 39 33 40 91 41 34 42 90 43 35 44 36 45
REMARK SMILES IDX 37 46 84 47 38 48 89 49 83 50 85 51 39 52 88 53 82 54 81 55
REMARK SMILES IDX 40 57 70 58 51 59 69 60 52 61 55 62 68 63 86 64 53 65 54 66
REMARK SMILES IDX 67 68 87 69 56 70 41 71 42 72 50 73 43 74 49 75 44 76 45 77
REMARK SMILES IDX 46 78 47 79 48 80 71 81 72 82 80 83 73 84 79 85 74 86 75 87
REMARK SMILES IDX 76 88 77 89 78 90 57 91 58 92 66 93 59 94 65 95 60 96 61 97
REMARK SMILES IDX 62 98 63 99 64 100
REMARK H PARENT 10 19 24 30 29 37 85 56 55 67
REMARK Flexibility Score: inf
ROOT
ATOM      1  C   UNL A   1      45.971  25.024  26.064  1.00  0.00     0.105 C 
ATOM      2  C   UNL A   1      47.025  24.671  25.017  1.00  0.00     0.023 C 
ENDROOT
BRANCH   1   3
ATOM      3  C   UNL A   1      46.010  26.449  26.593  1.00  0.00    -0.033 A 
ATOM      4  C   UNL A   1      45.899  29.069  27.743  1.00  0.00     0.018 A 
ATOM      5  C   UNL A   1      47.022  28.243  27.901  1.00  0.00     0.012 A 
ATOM      6  C   UNL A   1      44.862  28.564  26.941  1.00  0.00     0.131 A 
ATOM      7  C   UNL A   1      47.092  26.976  27.305  1.00  0.00     0.005 A 
ATOM      8  C   UNL A   1      44.899  27.277  26.399  1.00  0.00     0.044 A 
ATOM      9  F   UNL A   1      43.785  29.316  26.661  1.00  0.00    -0.206 F 
BRANCH   4  10
ATOM     10  C   UNL A   1      45.823  30.395  28.395  1.00  0.00    -0.013 A 
ATOM     11  C   UNL A   1      44.514  32.363  29.045  1.00  0.00     0.045 A 
ATOM     12  C   UNL A   1      45.670  33.001  29.488  1.00  0.00     0.026 A 
ATOM     13  C   UNL A   1      44.594  31.065  28.529  1.00  0.00     0.035 A 
ATOM     14  C   UNL A   1      46.890  32.331  29.442  1.00  0.00     0.003 A 
ATOM     15  C   UNL A   1      46.966  31.049  28.889  1.00  0.00     0.009 A 
BRANCH  11  16
ATOM     16  N   UNL A   1      43.318  33.092  29.013  1.00  0.00    -0.291 N 
ATOM     17  C   UNL A   1      43.125  34.359  28.533  1.00  0.00     0.411 C 
ATOM     18  O   UNL A   1      42.234  35.069  28.967  1.00  0.00    -0.224 OA
ATOM     19  H   UNL A   1      42.524  32.640  29.381  1.00  0.00     0.173 HD
BRANCH  17  20
ATOM     20  O   UNL A   1      43.925  34.647  27.473  1.00  0.00    -0.449 OA
BRANCH  20  21
ATOM     21  C   UNL A   1      44.582  35.925  27.443  1.00  0.00     0.235 C 
BRANCH  21  22
ATOM     22  C   UNL A   1      45.301  36.238  28.761  1.00  0.00     0.042 C 
BRANCH  22  23
ATOM     23  C   UNL A   1      46.823  36.404  28.668  1.00  0.00     0.003 C 
BRANCH  23  24
ATOM     24  C   UNL A   1      47.563  36.371  30.013  1.00  0.00    -0.000 C 
BRANCH  24  25
ATOM     25  C   UNL A   1      46.676  36.128  31.232  1.00  0.00    -0.003 C 
ATOM     26  C   UNL A   1      47.173  34.984  32.101  1.00  0.00     0.004 C 
ENDBRANCH  24  25
ENDBRANCH  23  24
ENDBRANCH  22  23
ENDBRANCH  21  22
ENDBRANCH  20  21
ENDBRANCH  17  20
ENDBRANCH  11  16
ENDBRANCH   4  10
ENDBRANCH   1   3
BRANCH   1  27
ATOM     27  C   UNL A   1      45.801  23.963  27.163  1.00  0.00     0.227 C 
ATOM     28  O   UNL A   1      45.891  24.293  28.352  1.00  0.00    -0.274 OA
ATOM     29  N   UNL A   1      45.535  22.652  26.914  1.00  0.00    -0.356 N 
ATOM     30  H   UNL A   1      45.382  22.108  27.721  1.00  0.00     0.163 HD
BRANCH  29  31
ATOM     31  C   UNL A   1      45.437  21.913  25.673  1.00  0.00     0.116 C 
BRANCH  31  32
ATOM     32  C   UNL A   1      44.012  21.430  25.401  1.00  0.00     0.023 C 
BRANCH  32  33
ATOM     33  C   UNL A   1      42.946  22.523  25.436  1.00  0.00     0.023 C 
BRANCH  33  34
ATOM     34  C   UNL A   1      41.892  22.363  26.524  1.00  0.00     0.116 C 
BRANCH  34  35
ATOM     35  N   UNL A   1      40.542  22.147  26.018  1.00  0.00    -0.352 N 
ATOM     36  C   UNL A   1      39.454  22.985  26.131  1.00  0.00     0.251 C 
ATOM     37  H   UNL A   1      40.390  21.302  25.538  1.00  0.00     0.163 HD
ATOM     38  O   UNL A   1      38.353  22.633  25.722  1.00  0.00    -0.269 OA
BRANCH  36  39
ATOM     39  C   UNL A   1      39.631  24.290  26.798  1.00  0.00     0.039 A 
ATOM     40  C   UNL A   1      39.171  24.452  28.106  1.00  0.00     0.014 A 
ATOM     41  C   UNL A   1      40.329  25.319  26.159  1.00  0.00     0.014 A 
ATOM     42  C   UNL A   1      39.486  25.619  28.805  1.00  0.00     0.010 A 
ATOM     43  C   UNL A   1      40.712  26.441  26.884  1.00  0.00     0.010 A 
ATOM     44  C   UNL A   1      40.297  26.603  28.214  1.00  0.00    -0.014 A 
BRANCH  44  45
ATOM     45  C   UNL A   1      40.730  27.806  28.969  1.00  0.00     0.031 A 
ATOM     46  C   UNL A   1      42.077  27.828  29.638  1.00  0.00     0.074 A 
ATOM     47  C   UNL A   1      39.882  28.845  29.116  1.00  0.00     0.049 A 
ATOM     48  N   UNL A   1      42.606  28.753  30.397  1.00  0.00    -0.248 NA
ATOM     49  C   UNL A   1      42.931  26.641  29.455  1.00  0.00     0.031 C 
ATOM     50  C   UNL A   1      38.529  28.924  28.562  1.00  0.00     0.029 A 
ATOM     51  N   UNL A   1      40.034  30.034  29.787  1.00  0.00    -0.354 N 
ATOM     52  C   UNL A   1      43.839  28.252  30.797  1.00  0.00     0.074 A 
ATOM     53  C   UNL A   1      43.957  26.921  30.243  1.00  0.00     0.031 C 
ATOM     54  C   UNL A   1      37.987  30.109  28.888  1.00  0.00     0.029 A 
ATOM     55  C   UNL A   1      38.935  30.857  29.707  1.00  0.00     0.049 A 
ATOM     56  H   UNL A   1      40.852  30.274  30.277  1.00  0.00     0.167 HD
ATOM     57  C   UNL A   1      44.799  28.854  31.540  1.00  0.00     0.031 A 
ATOM     58  C   UNL A   1      38.713  32.076  30.236  1.00  0.00     0.031 A 
ATOM     59  C   UNL A   1      44.686  30.185  32.072  1.00  0.00     0.049 A 
ATOM     60  C   UNL A   1      39.796  32.728  31.052  1.00  0.00     0.074 A 
ATOM     61  C   UNL A   1      45.626  30.908  32.784  1.00  0.00     0.029 A 
ATOM     62  N   UNL A   1      43.567  30.994  31.950  1.00  0.00    -0.354 N 
ATOM     63  N   UNL A   1      40.985  32.266  31.361  1.00  0.00    -0.248 NA
ATOM     64  C   UNL A   1      39.514  34.070  31.579  1.00  0.00     0.031 C 
ATOM     65  C   UNL A   1      45.058  32.136  33.134  1.00  0.00     0.029 A 
ATOM     66  C   UNL A   1      43.784  32.201  32.591  1.00  0.00     0.049 A 
ATOM     67  H   UNL A   1      42.739  30.745  31.478  1.00  0.00     0.167 HD
ATOM     68  C   UNL A   1      41.602  33.272  32.097  1.00  0.00     0.074 A 
ATOM     69  C   UNL A   1      40.661  34.371  32.172  1.00  0.00     0.031 C 
ATOM     70  C   UNL A   1      42.836  33.285  32.656  1.00  0.00     0.031 A 
BRANCH  57  71
ATOM     71  C   UNL A   1      46.055  28.071  31.815  1.00  0.00    -0.014 A 
ATOM     72  C   UNL A   1      47.304  28.512  31.342  1.00  0.00     0.010 A 
ATOM     73  C   UNL A   1      45.992  26.893  32.583  1.00  0.00     0.010 A 
ATOM     74  C   UNL A   1      48.460  27.766  31.589  1.00  0.00     0.020 A 
ATOM     75  C   UNL A   1      47.150  26.161  32.859  1.00  0.00     0.020 A 
ATOM     76  C   UNL A   1      48.374  26.592  32.343  1.00  0.00     0.054 A 
BRANCH  76  77
ATOM     77  S   UNL A   1      49.892  25.653  32.663  1.00  0.00     0.124 S 
ATOM     78  O   UNL A   1      49.363  24.339  33.018  1.00  0.00    -0.237 OA
ATOM     79  O   UNL A   1      50.589  25.725  31.382  1.00  0.00    -0.237 OA
ATOM     80  O   UNL A   1      50.528  26.384  33.758  1.00  0.00    -0.744 OA
ENDBRANCH  76  77
ENDBRANCH  57  71
BRANCH  58  81
ATOM     81  C   UNL A   1      37.420  32.771  29.990  1.00  0.00    -0.014 A 
ATOM     82  C   UNL A   1      37.175  33.410  28.762  1.00  0.00     0.010 A 
ATOM     83  C   UNL A   1      36.419  32.788  30.979  1.00  0.00     0.010 A 
ATOM     84  C   UNL A   1      35.963  34.068  28.533  1.00  0.00     0.020 A 
ATOM     85  C   UNL A   1      35.195  33.421  30.744  1.00  0.00     0.020 A 
ATOM     86  C   UNL A   1      34.979  34.068  29.526  1.00  0.00     0.054 A 
BRANCH  86  87
ATOM     87  S   UNL A   1      33.394  34.883  29.187  1.00  0.00     0.124 S 
ATOM     88  O   UNL A   1      33.822  36.203  28.737  1.00  0.00    -0.237 OA
ATOM     89  O   UNL A   1      32.809  34.022  28.161  1.00  0.00    -0.237 OA
ATOM     90  O   UNL A   1      32.711  34.851  30.478  1.00  0.00    -0.744 OA
ENDBRANCH  86  87
ENDBRANCH  58  81
BRANCH  70  91
ATOM     91  C   UNL A   1      43.260  34.539  33.372  1.00  0.00    -0.014 A 
ATOM     92  C   UNL A   1      43.507  35.731  32.671  1.00  0.00     0.010 A 
ATOM     93  C   UNL A   1      43.352  34.537  34.777  1.00  0.00     0.010 A 
ATOM     94  C   UNL A   1      43.869  36.893  33.359  1.00  0.00     0.020 A 
ATOM     95  C   UNL A   1      43.686  35.702  35.470  1.00  0.00     0.020 A 
ATOM     96  C   UNL A   1      43.955  36.870  34.756  1.00  0.00     0.054 A 
BRANCH  96  97
ATOM     97  S   UNL A   1      44.379  38.402  35.629  1.00  0.00     0.124 S 
ATOM     98  O   UNL A   1      43.677  38.231  36.898  1.00  0.00    -0.237 OA
ATOM     99  O   UNL A   1      45.836  38.338  35.702  1.00  0.00    -0.237 OA
ATOM    100  O   UNL A   1      43.850  39.452  34.761  1.00  0.00    -0.744 OA
ENDBRANCH  96  97
ENDBRANCH  70  91
ENDBRANCH  44  45
ENDBRANCH  36  39
ENDBRANCH  34  35
ENDBRANCH  33  34
ENDBRANCH  32  33
ENDBRANCH  31  32
ENDBRANCH  29  31
ENDBRANCH   1  27
TORSDOF 23
ENDMDL
MODEL 2
REMARK VINA RESULT:      -7.1      3.774      8.730
REMARK SMILES CCCCCCOC(=O)Nc1cccc(-c2ccc([C@@H](C)C(=O)NCCCCNC(=O)c3ccc(-c4c5nc(c(-c6ccc(S(=O)(=O)[O-])cc6)c6ccc([nH]6)c(-c6ccc(S(=O)(=O)[O-])cc6)c6nc(c(-c7ccc(S(=O)(=O)[O-])cc7)c7ccc4[nH]7)C=C6)C=C5)cc3)cc2F)c1
REMARK SMILES IDX 20 1 21 2 19 3 16 4 17 5 93 6 18 7 92 8 94 9 15 10 11 11
REMARK SMILES IDX 12 12 95 13 13 14 14 15 10 16 8 17 9 18 7 20 6 21 5 22 4 23
REMARK SMILES IDX 3 24 2 25 1 26 22 27 23 28 24 29 25 31 26 32 27 33 28 34
REMARK SMILES IDX 29 35 30 36 31 38 32 39 33 40 91 41 34 42 90 43 35 44 36 45
REMARK SMILES IDX 37 46 84 47 38 48 89 49 83 50 85 51 39 52 88 53 82 54 81 55
REMARK SMILES IDX 40 57 70 58 51 59 69 60 52 61 55 62 68 63 86 64 53 65 54 66
REMARK SMILES IDX 67 68 87 69 56 70 41 71 42 72 50 73 43 74 49 75 44 76 45 77
REMARK SMILES IDX 46 78 47 79 48 80 71 81 72 82 80 83 73 84 79 85 74 86 75 87
REMARK SMILES IDX 76 88 77 89 78 90 57 91 58 92 66 93 59 94 65 95 60 96 61 97
REMARK SMILES IDX 62 98 63 99 64 100
REMARK H PARENT 10 19 24 30 29 37 85 56 55 67
REMARK Flexibility Score: inf
ROOT
ATOM      1  C   UNL A   1      44.730  23.841  35.213  1.00  0.00     0.105 C 
ATOM      2  C   UNL A   1      43.396  24.435  35.661  1.00  0.00     0.023 C 
ENDROOT
BRANCH   1   3
ATOM      3  C   UNL A   1      45.285  24.368  33.900  1.00  0.00    -0.033 A 
ATOM      4  C   UNL A   1      46.132  25.511  31.415  1.00  0.00     0.018 A 
ATOM      5  C   UNL A   1      46.862  25.701  32.597  1.00  0.00     0.012 A 
ATOM      6  C   UNL A   1      45.001  24.682  31.505  1.00  0.00     0.131 A 
ATOM      7  C   UNL A   1      46.468  25.108  33.806  1.00  0.00     0.005 A 
ATOM      8  C   UNL A   1      44.568  24.142  32.719  1.00  0.00     0.044 A 
ATOM      9  F   UNL A   1      44.290  24.372  30.409  1.00  0.00    -0.206 F 
BRANCH   4  10
ATOM     10  C   UNL A   1      46.540  26.159  30.148  1.00  0.00    -0.013 A 
ATOM     11  C   UNL A   1      46.993  28.196  28.861  1.00  0.00     0.045 A 
ATOM     12  C   UNL A   1      47.158  27.441  27.702  1.00  0.00     0.026 A 
ATOM     13  C   UNL A   1      46.713  27.552  30.072  1.00  0.00     0.035 A 
ATOM     14  C   UNL A   1      47.072  26.053  27.763  1.00  0.00     0.003 A 
ATOM     15  C   UNL A   1      46.753  25.421  28.969  1.00  0.00     0.009 A 
BRANCH  11  16
ATOM     16  N   UNL A   1      46.989  29.592  28.755  1.00  0.00    -0.291 N 
ATOM     17  C   UNL A   1      46.223  30.364  27.922  1.00  0.00     0.411 C 
ATOM     18  O   UNL A   1      46.606  31.460  27.551  1.00  0.00    -0.224 OA
ATOM     19  H   UNL A   1      47.610  30.075  29.348  1.00  0.00     0.173 HD
BRANCH  17  20
ATOM     20  O   UNL A   1      44.993  29.833  27.696  1.00  0.00    -0.449 OA
BRANCH  20  21
ATOM     21  C   UNL A   1      43.900  30.731  27.445  1.00  0.00     0.235 C 
BRANCH  21  22
ATOM     22  C   UNL A   1      42.966  30.862  28.654  1.00  0.00     0.042 C 
BRANCH  22  23
ATOM     23  C   UNL A   1      43.102  32.155  29.467  1.00  0.00     0.003 C 
BRANCH  23  24
ATOM     24  C   UNL A   1      43.214  31.958  30.985  1.00  0.00    -0.000 C 
BRANCH  24  25
ATOM     25  C   UNL A   1      44.518  31.320  31.459  1.00  0.00    -0.003 C 
ATOM     26  C   UNL A   1      45.743  32.139  31.085  1.00  0.00     0.004 C 
ENDBRANCH  24  25
ENDBRANCH  23  24
ENDBRANCH  22  23
ENDBRANCH  21  22
ENDBRANCH  20  21
ENDBRANCH  17  20
ENDBRANCH  11  16
ENDBRANCH   4  10
ENDBRANCH   1   3
BRANCH   1  27
ATOM     27  C   UNL A   1      44.810  22.312  35.347  1.00  0.00     0.227 C 
ATOM     28  O   UNL A   1      44.268  21.593  34.498  1.00  0.00    -0.274 OA
ATOM     29  N   UNL A   1      45.468  21.674  36.353  1.00  0.00    -0.356 N 
ATOM     30  H   UNL A   1      45.492  20.694  36.265  1.00  0.00     0.163 HD
BRANCH  29  31
ATOM     31  C   UNL A   1      46.138  22.181  37.532  1.00  0.00     0.116 C 
BRANCH  31  32
ATOM     32  C   UNL A   1      47.575  22.611  37.236  1.00  0.00     0.023 C 
BRANCH  32  33
ATOM     33  C   UNL A   1      48.074  23.795  38.061  1.00  0.00     0.023 C 
BRANCH  33  34
ATOM     34  C   UNL A   1      47.649  25.165  37.549  1.00  0.00     0.116 C 
BRANCH  34  35
ATOM     35  N   UNL A   1      48.088  26.276  38.384  1.00  0.00    -0.352 N 
ATOM     36  C   UNL A   1      47.626  27.573  38.374  1.00  0.00     0.251 C 
ATOM     37  H   UNL A   1      48.800  26.074  39.033  1.00  0.00     0.163 HD
ATOM     38  O   UNL A   1      48.149  28.426  39.084  1.00  0.00    -0.269 OA
BRANCH  36  39
ATOM     39  C   UNL A   1      46.525  27.927  37.456  1.00  0.00     0.039 A 
ATOM     40  C   UNL A   1      45.234  27.482  37.742  1.00  0.00     0.014 A 
ATOM     41  C   UNL A   1      46.759  28.772  36.368  1.00  0.00     0.014 A 
ATOM     42  C   UNL A   1      44.161  27.953  36.982  1.00  0.00     0.010 A 
ATOM     43  C   UNL A   1      45.683  29.304  35.668  1.00  0.00     0.010 A 
ATOM     44  C   UNL A   1      44.373  28.902  35.968  1.00  0.00    -0.014 A 
BRANCH  44  45
ATOM     45  C   UNL A   1      43.240  29.494  35.212  1.00  0.00     0.031 A 
ATOM     46  C   UNL A   1      42.860  28.933  33.868  1.00  0.00     0.074 A 
ATOM     47  C   UNL A   1      42.606  30.581  35.697  1.00  0.00     0.049 A 
ATOM     48  N   UNL A   1      41.952  29.354  33.026  1.00  0.00    -0.248 NA
ATOM     49  C   UNL A   1      43.623  27.765  33.395  1.00  0.00     0.031 C 
ATOM     50  C   UNL A   1      42.914  31.251  36.963  1.00  0.00     0.029 A 
ATOM     51  N   UNL A   1      41.571  31.319  35.177  1.00  0.00    -0.354 N 
ATOM     52  C   UNL A   1      42.048  28.518  31.920  1.00  0.00     0.074 A 
ATOM     53  C   UNL A   1      43.138  27.603  32.174  1.00  0.00     0.031 C 
ATOM     54  C   UNL A   1      42.068  32.280  37.135  1.00  0.00     0.029 A 
ATOM     55  C   UNL A   1      41.185  32.369  35.976  1.00  0.00     0.049 A 
ATOM     56  H   UNL A   1      41.145  31.114  34.313  1.00  0.00     0.167 HD
ATOM     57  C   UNL A   1      41.282  28.498  30.803  1.00  0.00     0.031 A 
ATOM     58  C   UNL A   1      40.230  33.303  35.796  1.00  0.00     0.031 A 
ATOM     59  C   UNL A   1      40.187  29.398  30.563  1.00  0.00     0.049 A 
ATOM     60  C   UNL A   1      39.388  33.256  34.550  1.00  0.00     0.074 A 
ATOM     61  C   UNL A   1      39.311  29.420  29.492  1.00  0.00     0.029 A 
ATOM     62  N   UNL A   1      39.814  30.433  31.407  1.00  0.00    -0.354 N 
ATOM     63  N   UNL A   1      39.449  32.414  33.546  1.00  0.00    -0.248 NA
ATOM     64  C   UNL A   1      38.340  34.278  34.419  1.00  0.00     0.031 C 
ATOM     65  C   UNL A   1      38.439  30.499  29.665  1.00  0.00     0.029 A 
ATOM     66  C   UNL A   1      38.735  31.113  30.872  1.00  0.00     0.049 A 
ATOM     67  H   UNL A   1      40.253  30.652  32.260  1.00  0.00     0.167 HD
ATOM     68  C   UNL A   1      38.430  32.788  32.676  1.00  0.00     0.074 A 
ATOM     69  C   UNL A   1      37.760  33.922  33.280  1.00  0.00     0.031 C 
ATOM     70  C   UNL A   1      38.080  32.240  31.487  1.00  0.00     0.031 A 
BRANCH  57  71
ATOM     71  C   UNL A   1      41.610  27.466  29.757  1.00  0.00    -0.014 A 
ATOM     72  C   UNL A   1      42.929  27.287  29.302  1.00  0.00     0.010 A 
ATOM     73  C   UNL A   1      40.592  26.641  29.243  1.00  0.00     0.010 A 
ATOM     74  C   UNL A   1      43.217  26.337  28.318  1.00  0.00     0.020 A 
ATOM     75  C   UNL A   1      40.880  25.669  28.281  1.00  0.00     0.020 A 
ATOM     76  C   UNL A   1      42.188  25.537  27.811  1.00  0.00     0.054 A 
BRANCH  76  77
ATOM     77  S   UNL A   1      42.594  24.301  26.547  1.00  0.00     0.124 S 
ATOM     78  O   UNL A   1      42.467  25.078  25.317  1.00  0.00    -0.237 OA
ATOM     79  O   UNL A   1      43.955  23.911  26.906  1.00  0.00    -0.237 OA
ATOM     80  O   UNL A   1      41.580  23.266  26.737  1.00  0.00    -0.744 OA
ENDBRANCH  76  77
ENDBRANCH  57  71
BRANCH  58  81
ATOM     81  C   UNL A   1      40.002  34.346  36.833  1.00  0.00    -0.014 A 
ATOM     82  C   UNL A   1      39.045  34.149  37.844  1.00  0.00     0.010 A 
ATOM     83  C   UNL A   1      40.750  35.538  36.824  1.00  0.00     0.010 A 
ATOM     84  C   UNL A   1      38.826  35.132  38.816  1.00  0.00     0.020 A 
ATOM     85  C   UNL A   1      40.554  36.510  37.809  1.00  0.00     0.020 A 
ATOM     86  C   UNL A   1      39.584  36.306  38.792  1.00  0.00     0.054 A 
BRANCH  86  87
ATOM     87  S   UNL A   1      39.320  37.543  40.092  1.00  0.00     0.124 S 
ATOM     88  O   UNL A   1      39.024  36.708  41.251  1.00  0.00    -0.237 OA
ATOM     89  O   UNL A   1      40.603  38.243  40.126  1.00  0.00    -0.237 OA
ATOM     90  O   UNL A   1      38.201  38.336  39.587  1.00  0.00    -0.744 OA
ENDBRANCH  86  87
ENDBRANCH  58  81
BRANCH  70  91
ATOM     91  C   UNL A   1      36.897  32.836  30.771  1.00  0.00    -0.014 A 
ATOM     92  C   UNL A   1      35.585  32.430  31.067  1.00  0.00     0.010 A 
ATOM     93  C   UNL A   1      37.103  33.862  29.830  1.00  0.00     0.010 A 
ATOM     94  C   UNL A   1      34.499  33.019  30.412  1.00  0.00     0.020 A 
ATOM     95  C   UNL A   1      36.020  34.472  29.194  1.00  0.00     0.020 A 
ATOM     96  C   UNL A   1      34.724  34.038  29.480  1.00  0.00     0.054 A 
BRANCH  96  97
ATOM     97  S   UNL A   1      33.297  34.819  28.680  1.00  0.00     0.124 S 
ATOM     98  O   UNL A   1      33.921  35.930  27.966  1.00  0.00    -0.237 OA
ATOM     99  O   UNL A   1      32.773  33.746  27.838  1.00  0.00    -0.237 OA
ATOM    100  O   UNL A   1      32.439  35.201  29.799  1.00  0.00    -0.744 OA
ENDBRANCH  96  97
ENDBRANCH  70  91
ENDBRANCH  44  45
ENDBRANCH  36  39
ENDBRANCH  34  35
ENDBRANCH  33  34
ENDBRANCH  32  33
ENDBRANCH  31  32
ENDBRANCH  29  31
ENDBRANCH   1  27
TORSDOF 23
ENDMDL
MODEL 3
REMARK VINA RESULT:      -7.1      1.453      8.074
REMARK SMILES CCCCCCOC(=O)Nc1cccc(-c2ccc([C@@H](C)C(=O)NCCCCNC(=O)c3ccc(-c4c5nc(c(-c6ccc(S(=O)(=O)[O-])cc6)c6ccc([nH]6)c(-c6ccc(S(=O)(=O)[O-])cc6)c6nc(c(-c7ccc(S(=O)(=O)[O-])cc7)c7ccc4[nH]7)C=C6)C=C5)cc3)cc2F)c1
REMARK SMILES IDX 20 1 21 2 19 3 16 4 17 5 93 6 18 7 92 8 94 9 15 10 11 11
REMARK SMILES IDX 12 12 95 13 13 14 14 15 10 16 8 17 9 18 7 20 6 21 5 22 4 23
REMARK SMILES IDX 3 24 2 25 1 26 22 27 23 28 24 29 25 31 26 32 27 33 28 34
REMARK SMILES IDX 29 35 30 36 31 38 32 39 33 40 91 41 34 42 90 43 35 44 36 45
REMARK SMILES IDX 37 46 84 47 38 48 89 49 83 50 85 51 39 52 88 53 82 54 81 55
REMARK SMILES IDX 40 57 70 58 51 59 69 60 52 61 55 62 68 63 86 64 53 65 54 66
REMARK SMILES IDX 67 68 87 69 56 70 41 71 42 72 50 73 43 74 49 75 44 76 45 77
REMARK SMILES IDX 46 78 47 79 48 80 71 81 72 82 80 83 73 84 79 85 74 86 75 87
REMARK SMILES IDX 76 88 77 89 78 90 57 91 58 92 66 93 59 94 65 95 60 96 61 97
REMARK SMILES IDX 62 98 63 99 64 100
REMARK H PARENT 10 19 24 30 29 37 85 56 55 67
REMARK Flexibility Score: inf
ROOT
ATOM      1  C   UNL A   1      46.568  25.527  26.685  1.00  0.00     0.105 C 
ATOM      2  C   UNL A   1      47.980  25.281  26.156  1.00  0.00     0.023 C 
ENDROOT
BRANCH   1   3
ATOM      3  C   UNL A   1      46.293  26.922  27.223  1.00  0.00    -0.033 A 
ATOM      4  C   UNL A   1      45.901  29.638  28.040  1.00  0.00     0.018 A 
ATOM      5  C   UNL A   1      44.826  28.825  27.651  1.00  0.00     0.012 A 
ATOM      6  C   UNL A   1      47.167  29.029  28.065  1.00  0.00     0.131 A 
ATOM      7  C   UNL A   1      45.014  27.483  27.289  1.00  0.00     0.005 A 
ATOM      8  C   UNL A   1      47.369  27.713  27.644  1.00  0.00     0.044 A 
ATOM      9  F   UNL A   1      48.242  29.702  28.507  1.00  0.00    -0.206 F 
BRANCH   4  10
ATOM     10  C   UNL A   1      45.698  31.060  28.399  1.00  0.00    -0.013 A 
ATOM     11  C   UNL A   1      44.995  33.323  27.771  1.00  0.00     0.045 A 
ATOM     12  C   UNL A   1      45.449  33.815  28.991  1.00  0.00     0.026 A 
ATOM     13  C   UNL A   1      45.099  31.954  27.495  1.00  0.00     0.035 A 
ATOM     14  C   UNL A   1      45.973  32.940  29.938  1.00  0.00     0.003 A 
ATOM     15  C   UNL A   1      46.109  31.581  29.639  1.00  0.00     0.009 A 
BRANCH  11  16
ATOM     16  N   UNL A   1      44.561  34.235  26.801  1.00  0.00    -0.291 N 
ATOM     17  C   UNL A   1      43.298  34.737  26.632  1.00  0.00     0.411 C 
ATOM     18  O   UNL A   1      42.908  35.108  25.538  1.00  0.00    -0.224 OA
ATOM     19  H   UNL A   1      45.244  34.551  26.165  1.00  0.00     0.173 HD
BRANCH  17  20
ATOM     20  O   UNL A   1      42.631  34.887  27.806  1.00  0.00    -0.449 OA
BRANCH  20  21
ATOM     21  C   UNL A   1      41.738  36.005  27.944  1.00  0.00     0.235 C 
BRANCH  21  22
ATOM     22  C   UNL A   1      42.490  37.336  28.061  1.00  0.00     0.042 C 
BRANCH  22  23
ATOM     23  C   UNL A   1      42.023  38.453  27.120  1.00  0.00     0.003 C 
BRANCH  23  24
ATOM     24  C   UNL A   1      43.135  39.376  26.605  1.00  0.00    -0.000 C 
BRANCH  24  25
ATOM     25  C   UNL A   1      42.762  40.855  26.525  1.00  0.00    -0.003 C 
ATOM     26  C   UNL A   1      41.869  41.171  25.336  1.00  0.00     0.004 C 
ENDBRANCH  24  25
ENDBRANCH  23  24
ENDBRANCH  22  23
ENDBRANCH  21  22
ENDBRANCH  20  21
ENDBRANCH  17  20
ENDBRANCH  11  16
ENDBRANCH   4  10
ENDBRANCH   1   3
BRANCH   1  27
ATOM     27  C   UNL A   1      46.033  24.402  27.585  1.00  0.00     0.227 C 
ATOM     28  O   UNL A   1      46.102  24.517  28.815  1.00  0.00    -0.274 OA
ATOM     29  N   UNL A   1      45.457  23.264  27.111  1.00  0.00    -0.356 N 
ATOM     30  H   UNL A   1      45.099  22.669  27.810  1.00  0.00     0.163 HD
BRANCH  29  31
ATOM     31  C   UNL A   1      45.280  22.770  25.762  1.00  0.00     0.116 C 
BRANCH  31  32
ATOM     32  C   UNL A   1      43.932  22.071  25.578  1.00  0.00     0.023 C 
BRANCH  32  33
ATOM     33  C   UNL A   1      42.722  23.002  25.568  1.00  0.00     0.023 C 
BRANCH  33  34
ATOM     34  C   UNL A   1      41.654  22.686  26.607  1.00  0.00     0.116 C 
BRANCH  34  35
ATOM     35  N   UNL A   1      40.310  22.557  26.058  1.00  0.00    -0.352 N 
ATOM     36  C   UNL A   1      39.247  23.418  26.218  1.00  0.00     0.251 C 
ATOM     37  H   UNL A   1      40.142  21.758  25.508  1.00  0.00     0.163 HD
ATOM     38  O   UNL A   1      38.144  23.138  25.760  1.00  0.00    -0.269 OA
BRANCH  36  39
ATOM     39  C   UNL A   1      39.449  24.659  26.992  1.00  0.00     0.039 A 
ATOM     40  C   UNL A   1      38.942  24.740  28.289  1.00  0.00     0.014 A 
ATOM     41  C   UNL A   1      40.217  25.701  26.465  1.00  0.00     0.014 A 
ATOM     42  C   UNL A   1      39.275  25.834  29.091  1.00  0.00     0.010 A 
ATOM     43  C   UNL A   1      40.616  26.745  27.290  1.00  0.00     0.010 A 
ATOM     44  C   UNL A   1      40.151  26.823  28.612  1.00  0.00    -0.014 A 
BRANCH  44  45
ATOM     45  C   UNL A   1      40.602  27.943  29.476  1.00  0.00     0.031 A 
ATOM     46  C   UNL A   1      39.728  29.156  29.648  1.00  0.00     0.074 A 
ATOM     47  C   UNL A   1      41.825  27.903  30.041  1.00  0.00     0.049 A 
ATOM     48  N   UNL A   1      39.973  30.263  30.301  1.00  0.00    -0.248 NA
ATOM     49  C   UNL A   1      38.419  29.135  28.972  1.00  0.00     0.031 C 
ATOM     50  C   UNL A   1      42.789  26.808  29.907  1.00  0.00     0.029 A 
ATOM     51  N   UNL A   1      42.472  28.816  30.838  1.00  0.00    -0.354 N 
ATOM     52  C   UNL A   1      38.863  31.074  30.097  1.00  0.00     0.074 A 
ATOM     53  C   UNL A   1      37.968  30.355  29.216  1.00  0.00     0.031 C 
ATOM     54  C   UNL A   1      43.889  27.098  30.622  1.00  0.00     0.029 A 
ATOM     55  C   UNL A   1      43.727  28.415  31.230  1.00  0.00     0.049 A 
ATOM     56  H   UNL A   1      42.074  29.676  31.103  1.00  0.00     0.167 HD
ATOM     57  C   UNL A   1      38.599  32.297  30.615  1.00  0.00     0.031 A 
ATOM     58  C   UNL A   1      44.648  29.036  31.993  1.00  0.00     0.031 A 
ATOM     59  C   UNL A   1      39.482  33.000  31.506  1.00  0.00     0.049 A 
ATOM     60  C   UNL A   1      44.330  30.393  32.563  1.00  0.00     0.074 A 
ATOM     61  C   UNL A   1      39.280  34.215  32.135  1.00  0.00     0.029 A 
ATOM     62  N   UNL A   1      40.734  32.549  31.897  1.00  0.00    -0.354 N 
ATOM     63  N   UNL A   1      43.244  31.113  32.415  1.00  0.00    -0.248 NA
ATOM     64  C   UNL A   1      45.356  31.012  33.413  1.00  0.00     0.031 C 
ATOM     65  C   UNL A   1      40.430  34.523  32.868  1.00  0.00     0.029 A 
ATOM     66  C   UNL A   1      41.325  33.471  32.743  1.00  0.00     0.049 A 
ATOM     67  H   UNL A   1      41.141  31.699  31.615  1.00  0.00     0.167 HD
ATOM     68  C   UNL A   1      43.446  32.261  33.176  1.00  0.00     0.074 A 
ATOM     69  C   UNL A   1      44.750  32.129  33.793  1.00  0.00     0.031 C 
ATOM     70  C   UNL A   1      42.624  33.324  33.349  1.00  0.00     0.031 A 
BRANCH  57  71
ATOM     71  C   UNL A   1      37.298  32.949  30.226  1.00  0.00    -0.014 A 
ATOM     72  C   UNL A   1      36.224  33.023  31.132  1.00  0.00     0.010 A 
ATOM     73  C   UNL A   1      37.156  33.522  28.949  1.00  0.00     0.010 A 
ATOM     74  C   UNL A   1      35.017  33.614  30.753  1.00  0.00     0.020 A 
ATOM     75  C   UNL A   1      35.960  34.141  28.576  1.00  0.00     0.020 A 
ATOM     76  C   UNL A   1      34.891  34.166  29.475  1.00  0.00     0.054 A 
BRANCH  76  77
ATOM     77  S   UNL A   1      33.317  34.943  29.015  1.00  0.00     0.124 S 
ATOM     78  O   UNL A   1      33.758  36.248  28.530  1.00  0.00    -0.237 OA
ATOM     79  O   UNL A   1      32.799  34.035  27.995  1.00  0.00    -0.237 OA
ATOM     80  O   UNL A   1      32.564  34.966  30.267  1.00  0.00    -0.744 OA
ENDBRANCH  76  77
ENDBRANCH  57  71
BRANCH  58  81
ATOM     81  C   UNL A   1      45.949  28.373  32.282  1.00  0.00    -0.014 A 
ATOM     82  C   UNL A   1      46.080  27.509  33.384  1.00  0.00     0.010 A 
ATOM     83  C   UNL A   1      47.062  28.591  31.450  1.00  0.00     0.010 A 
ATOM     84  C   UNL A   1      47.303  26.890  33.659  1.00  0.00     0.020 A 
ATOM     85  C   UNL A   1      48.279  27.952  31.705  1.00  0.00     0.020 A 
ATOM     86  C   UNL A   1      48.395  27.114  32.817  1.00  0.00     0.054 A 
BRANCH  86  87
ATOM     87  S   UNL A   1      49.957  26.259  33.163  1.00  0.00     0.124 S 
ATOM     88  O   UNL A   1      50.893  26.977  32.305  1.00  0.00    -0.237 OA
ATOM     89  O   UNL A   1      50.122  26.474  34.600  1.00  0.00    -0.237 OA
ATOM     90  O   UNL A   1      49.683  24.878  32.776  1.00  0.00    -0.744 OA
ENDBRANCH  86  87
ENDBRANCH  58  81
BRANCH  70  91
ATOM     91  C   UNL A   1      43.093  34.420  34.268  1.00  0.00    -0.014 A 
ATOM     92  C   UNL A   1      42.838  34.371  35.650  1.00  0.00     0.010 A 
ATOM     93  C   UNL A   1      43.853  35.484  33.747  1.00  0.00     0.010 A 
ATOM     94  C   UNL A   1      43.310  35.384  36.490  1.00  0.00     0.020 A 
ATOM     95  C   UNL A   1      44.349  36.482  34.587  1.00  0.00     0.020 A 
ATOM     96  C   UNL A   1      44.063  36.433  35.953  1.00  0.00     0.054 A 
BRANCH  96  97
ATOM     97  S   UNL A   1      44.705  37.708  37.071  1.00  0.00     0.124 S 
ATOM     98  O   UNL A   1      44.577  38.916  36.259  1.00  0.00    -0.237 OA
ATOM     99  O   UNL A   1      43.799  37.620  38.213  1.00  0.00    -0.237 OA
ATOM    100  O   UNL A   1      46.076  37.278  37.336  1.00  0.00    -0.744 OA
ENDBRANCH  96  97
ENDBRANCH  70  91
ENDBRANCH  44  45
ENDBRANCH  36  39
ENDBRANCH  34  35
ENDBRANCH  33  34
ENDBRANCH  32  33
ENDBRANCH  31  32
ENDBRANCH  29  31
ENDBRANCH   1  27
TORSDOF 23
ENDMDL
