MODEL 1
REMARK VINA RESULT:     -10.6      0.000      0.000
REMARK SMILES CC[C@@](C)(NC(=O)[C@@H](C)NC(=O)c1ccco1)C(=O)NCCCCNC(=O)c1ccc(-c2c3nc(c(-c4ccc(S(=O)(=O)[O-])cc4)c4ccc([nH]4)c(-c4ccc(S(=O)(=O)[O-])cc4)c4nc(c(-c5ccc(S(=O)(=O)[O-])cc5)c5ccc2[nH]5)C=C4)C=C3)cc1
REMARK SMILES IDX 22 1 21 2 20 3 18 4 19 5 3 7 4 8 2 9 1 10 5 11 6 12 7 14
REMARK SMILES IDX 8 15 9 16 10 17 11 18 12 20 13 21 14 22 17 23 15 24 16 25
REMARK SMILES IDX 23 26 24 27 25 28 26 29 27 31 28 32 29 33 87 34 30 35 86 36
REMARK SMILES IDX 31 37 32 38 33 39 80 40 34 41 85 42 79 43 81 44 35 45 84 46
REMARK SMILES IDX 78 47 77 48 36 50 66 51 47 52 65 53 48 54 51 55 64 56 82 57
REMARK SMILES IDX 49 58 50 59 63 61 83 62 52 63 37 64 38 65 46 66 39 67 45 68
REMARK SMILES IDX 40 69 41 70 42 71 43 72 44 73 67 74 68 75 76 76 69 77 75 78
REMARK SMILES IDX 70 79 71 80 72 81 73 82 74 83 53 84 54 85 62 86 55 87 61 88
REMARK SMILES IDX 56 89 57 90 58 91 59 92 60 93
REMARK H PARENT 20 6 5 13 10 19 25 30 81 49 51 60
REMARK Flexibility Score: inf
ROOT
ATOM      1  C   UNL A   1      33.053  30.369  27.082  1.00  0.00     0.023 C 
ENDROOT
BRANCH   1   2
ATOM      2  C   UNL A   1      32.386  29.945  25.773  1.00  0.00     0.116 C 
BRANCH   2   3
ATOM      3  N   UNL A   1      33.283  29.665  24.660  1.00  0.00    -0.354 N 
ATOM      4  C   UNL A   1      33.582  28.530  23.964  1.00  0.00     0.245 C 
ATOM      5  O   UNL A   1      34.347  28.655  23.001  1.00  0.00    -0.272 OA
ATOM      6  H   UNL A   1      33.774  30.459  24.345  1.00  0.00     0.163 HD
BRANCH   4   7
ATOM      7  C   UNL A   1      33.082  27.129  24.381  1.00  0.00     0.116 C 
ATOM      8  C   UNL A   1      33.749  26.712  25.713  1.00  0.00     0.045 C 
BRANCH   7   9
ATOM      9  C   UNL A   1      31.546  27.036  24.612  1.00  0.00     0.035 C 
ATOM     10  C   UNL A   1      30.630  27.338  23.428  1.00  0.00     0.007 C 
ENDBRANCH   7   9
BRANCH   7  11
ATOM     11  N   UNL A   1      33.446  26.182  23.302  1.00  0.00    -0.340 N 
ATOM     12  C   UNL A   1      33.311  24.840  23.120  1.00  0.00     0.243 C 
ATOM     13  H   UNL A   1      33.887  26.624  22.542  1.00  0.00     0.164 HD
ATOM     14  O   UNL A   1      34.105  24.375  22.284  1.00  0.00    -0.273 OA
BRANCH  12  15
ATOM     15  C   UNL A   1      32.399  23.831  23.904  1.00  0.00     0.168 C 
ATOM     16  C   UNL A   1      32.235  22.512  23.158  1.00  0.00     0.041 C 
BRANCH  15  17
ATOM     17  N   UNL A   1      32.621  23.550  25.317  1.00  0.00    -0.338 N 
ATOM     18  C   UNL A   1      33.713  22.992  25.950  1.00  0.00     0.287 C 
ATOM     19  H   UNL A   1      31.877  23.796  25.912  1.00  0.00     0.164 HD
ATOM     20  O   UNL A   1      33.550  22.641  27.119  1.00  0.00    -0.266 OA
BRANCH  18  21
ATOM     21  C   UNL A   1      34.959  22.792  25.235  1.00  0.00     0.191 A 
ATOM     22  C   UNL A   1      35.486  21.739  24.509  1.00  0.00     0.056 A 
ATOM     23  O   UNL A   1      35.836  23.849  25.178  1.00  0.00    -0.459 OA
ATOM     24  C   UNL A   1      36.738  22.167  24.003  1.00  0.00     0.043 A 
ATOM     25  C   UNL A   1      36.906  23.458  24.441  1.00  0.00     0.196 A 
ENDBRANCH  18  21
ENDBRANCH  15  17
ENDBRANCH  12  15
ENDBRANCH   7  11
ENDBRANCH   4   7
ENDBRANCH   2   3
ENDBRANCH   1   2
BRANCH   1  26
ATOM     26  C   UNL A   1      34.433  29.789  27.360  1.00  0.00     0.023 C 
BRANCH  26  27
ATOM     27  C   UNL A   1      35.474  30.733  27.936  1.00  0.00     0.116 C 
BRANCH  27  28
ATOM     28  N   UNL A   1      35.419  30.787  29.385  1.00  0.00    -0.352 N 
ATOM     29  C   UNL A   1      36.355  30.393  30.312  1.00  0.00     0.251 C 
ATOM     30  H   UNL A   1      34.589  31.163  29.761  1.00  0.00     0.163 HD
ATOM     31  O   UNL A   1      36.027  30.328  31.495  1.00  0.00    -0.269 OA
BRANCH  29  32
ATOM     32  C   UNL A   1      37.742  30.036  29.912  1.00  0.00     0.039 A 
ATOM     33  C   UNL A   1      38.067  30.034  28.550  1.00  0.00     0.014 A 
ATOM     34  C   UNL A   1      38.704  29.636  30.844  1.00  0.00     0.014 A 
ATOM     35  C   UNL A   1      39.351  29.664  28.132  1.00  0.00     0.010 A 
ATOM     36  C   UNL A   1      40.008  29.351  30.433  1.00  0.00     0.010 A 
ATOM     37  C   UNL A   1      40.339  29.331  29.071  1.00  0.00    -0.014 A 
BRANCH  37  38
ATOM     38  C   UNL A   1      41.697  28.895  28.643  1.00  0.00     0.031 A 
ATOM     39  C   UNL A   1      42.823  29.898  28.575  1.00  0.00     0.074 A 
ATOM     40  C   UNL A   1      41.922  27.616  28.285  1.00  0.00     0.049 A 
ATOM     41  N   UNL A   1      44.063  29.724  28.188  1.00  0.00    -0.248 NA
ATOM     42  C   UNL A   1      42.509  31.281  28.970  1.00  0.00     0.031 C 
ATOM     43  C   UNL A   1      40.915  26.551  28.265  1.00  0.00     0.029 A 
ATOM     44  N   UNL A   1      43.071  26.993  27.865  1.00  0.00    -0.354 N 
ATOM     45  C   UNL A   1      44.665  30.976  28.270  1.00  0.00     0.074 A 
ATOM     46  C   UNL A   1      43.646  31.907  28.699  1.00  0.00     0.031 C 
ATOM     47  C   UNL A   1      41.498  25.404  27.878  1.00  0.00     0.029 A 
ATOM     48  C   UNL A   1      42.909  25.656  27.591  1.00  0.00     0.049 A 
ATOM     49  H   UNL A   1      43.933  27.461  27.767  1.00  0.00     0.167 HD
ATOM     50  C   UNL A   1      45.953  31.321  28.032  1.00  0.00     0.031 A 
ATOM     51  C   UNL A   1      43.790  24.734  27.156  1.00  0.00     0.031 A 
ATOM     52  C   UNL A   1      46.979  30.394  27.631  1.00  0.00     0.049 A 
ATOM     53  C   UNL A   1      45.221  25.133  26.917  1.00  0.00     0.074 A 
ATOM     54  C   UNL A   1      48.324  30.639  27.416  1.00  0.00     0.029 A 
ATOM     55  N   UNL A   1      46.773  29.044  27.391  1.00  0.00    -0.354 N 
ATOM     56  N   UNL A   1      45.781  26.312  27.052  1.00  0.00    -0.248 NA
ATOM     57  C   UNL A   1      46.143  24.074  26.481  1.00  0.00     0.031 C 
ATOM     58  C   UNL A   1      48.927  29.443  27.013  1.00  0.00     0.029 A 
ATOM     59  C   UNL A   1      47.965  28.446  27.020  1.00  0.00     0.049 A 
ATOM     60  H   UNL A   1      45.909  28.581  27.473  1.00  0.00     0.167 HD
ATOM     61  C   UNL A   1      47.123  26.132  26.735  1.00  0.00     0.074 A 
ATOM     62  C   UNL A   1      47.295  24.729  26.420  1.00  0.00     0.031 C 
ATOM     63  C   UNL A   1      48.122  27.047  26.709  1.00  0.00     0.031 A 
BRANCH  50  64
ATOM     64  C   UNL A   1      46.326  32.769  28.205  1.00  0.00    -0.014 A 
ATOM     65  C   UNL A   1      46.776  33.257  29.446  1.00  0.00     0.010 A 
ATOM     66  C   UNL A   1      46.250  33.649  27.110  1.00  0.00     0.010 A 
ATOM     67  C   UNL A   1      47.100  34.608  29.600  1.00  0.00     0.020 A 
ATOM     68  C   UNL A   1      46.598  34.995  27.254  1.00  0.00     0.020 A 
ATOM     69  C   UNL A   1      47.002  35.469  28.504  1.00  0.00     0.054 A 
BRANCH  69  70
ATOM     70  S   UNL A   1      47.439  37.216  28.729  1.00  0.00     0.124 S 
ATOM     71  O   UNL A   1      48.819  37.245  28.252  1.00  0.00    -0.237 OA
ATOM     72  O   UNL A   1      46.468  37.903  27.880  1.00  0.00    -0.237 OA
ATOM     73  O   UNL A   1      47.270  37.434  30.163  1.00  0.00    -0.744 OA
ENDBRANCH  69  70
ENDBRANCH  50  64
BRANCH  51  74
ATOM     74  C   UNL A   1      43.345  23.332  26.935  1.00  0.00    -0.014 A 
ATOM     75  C   UNL A   1      43.143  22.845  25.632  1.00  0.00     0.010 A 
ATOM     76  C   UNL A   1      43.138  22.471  28.029  1.00  0.00     0.010 A 
ATOM     77  C   UNL A   1      42.731  21.525  25.425  1.00  0.00     0.020 A 
ATOM     78  C   UNL A   1      42.749  21.144  27.824  1.00  0.00     0.020 A 
ATOM     79  C   UNL A   1      42.538  20.681  26.523  1.00  0.00     0.054 A 
BRANCH  79  80
ATOM     80  S   UNL A   1      42.069  18.953  26.232  1.00  0.00     0.124 S 
ATOM     81  O   UNL A   1      40.677  19.084  25.810  1.00  0.00    -0.237 OA
ATOM     82  O   UNL A   1      43.009  18.537  25.195  1.00  0.00    -0.237 OA
ATOM     83  O   UNL A   1      42.273  18.321  27.535  1.00  0.00    -0.744 OA
ENDBRANCH  79  80
ENDBRANCH  51  74
BRANCH  63  84
ATOM     84  C   UNL A   1      49.501  26.559  26.354  1.00  0.00    -0.014 A 
ATOM     85  C   UNL A   1      50.014  26.717  25.055  1.00  0.00     0.010 A 
ATOM     86  C   UNL A   1      50.313  25.987  27.350  1.00  0.00     0.010 A 
ATOM     87  C   UNL A   1      51.308  26.285  24.751  1.00  0.00     0.020 A 
ATOM     88  C   UNL A   1      51.615  25.575  27.056  1.00  0.00     0.020 A 
ATOM     89  C   UNL A   1      52.100  25.713  25.753  1.00  0.00     0.054 A 
BRANCH  89  90
ATOM     90  S   UNL A   1      53.792  25.202  25.348  1.00  0.00     0.124 S 
ATOM     91  O   UNL A   1      53.703  23.747  25.455  1.00  0.00    -0.237 OA
ATOM     92  O   UNL A   1      53.972  25.722  23.995  1.00  0.00    -0.237 OA
ATOM     93  O   UNL A   1      54.605  25.854  26.371  1.00  0.00    -0.744 OA
ENDBRANCH  89  90
ENDBRANCH  63  84
ENDBRANCH  37  38
ENDBRANCH  29  32
ENDBRANCH  27  28
ENDBRANCH  26  27
ENDBRANCH   1  26
TORSDOF 19
ENDMDL
MODEL 2
REMARK VINA RESULT:     -10.4      5.067      6.244
REMARK SMILES CC[C@@](C)(NC(=O)[C@@H](C)NC(=O)c1ccco1)C(=O)NCCCCNC(=O)c1ccc(-c2c3nc(c(-c4ccc(S(=O)(=O)[O-])cc4)c4ccc([nH]4)c(-c4ccc(S(=O)(=O)[O-])cc4)c4nc(c(-c5ccc(S(=O)(=O)[O-])cc5)c5ccc2[nH]5)C=C4)C=C3)cc1
REMARK SMILES IDX 22 1 21 2 20 3 18 4 19 5 3 7 4 8 2 9 1 10 5 11 6 12 7 14
REMARK SMILES IDX 8 15 9 16 10 17 11 18 12 20 13 21 14 22 17 23 15 24 16 25
REMARK SMILES IDX 23 26 24 27 25 28 26 29 27 31 28 32 29 33 87 34 30 35 86 36
REMARK SMILES IDX 31 37 32 38 33 39 80 40 34 41 85 42 79 43 81 44 35 45 84 46
REMARK SMILES IDX 78 47 77 48 36 50 66 51 47 52 65 53 48 54 51 55 64 56 82 57
REMARK SMILES IDX 49 58 50 59 63 61 83 62 52 63 37 64 38 65 46 66 39 67 45 68
REMARK SMILES IDX 40 69 41 70 42 71 43 72 44 73 67 74 68 75 76 76 69 77 75 78
REMARK SMILES IDX 70 79 71 80 72 81 73 82 74 83 53 84 54 85 62 86 55 87 61 88
REMARK SMILES IDX 56 89 57 90 58 91 59 92 60 93
REMARK H PARENT 20 6 5 13 10 19 25 30 81 49 51 60
REMARK Flexibility Score: inf
ROOT
ATOM      1  C   UNL A   1      32.315  28.423  26.987  1.00  0.00     0.023 C 
ENDROOT
BRANCH   1   2
ATOM      2  C   UNL A   1      31.162  27.453  26.723  1.00  0.00     0.116 C 
BRANCH   2   3
ATOM      3  N   UNL A   1      30.674  27.398  25.352  1.00  0.00    -0.354 N 
ATOM      4  C   UNL A   1      30.613  26.402  24.421  1.00  0.00     0.245 C 
ATOM      5  O   UNL A   1      30.054  26.673  23.353  1.00  0.00    -0.272 OA
ATOM      6  H   UNL A   1      30.314  28.257  25.030  1.00  0.00     0.163 HD
BRANCH   4   7
ATOM      7  C   UNL A   1      31.275  25.020  24.621  1.00  0.00     0.116 C 
ATOM      8  C   UNL A   1      30.848  24.067  23.479  1.00  0.00     0.045 C 
BRANCH   7   9
ATOM      9  C   UNL A   1      32.830  25.043  24.614  1.00  0.00     0.035 C 
ATOM     10  C   UNL A   1      33.524  25.809  23.489  1.00  0.00     0.007 C 
ENDBRANCH   7   9
BRANCH   7  11
ATOM     11  N   UNL A   1      30.826  24.491  25.930  1.00  0.00    -0.340 N 
ATOM     12  C   UNL A   1      31.145  23.405  26.683  1.00  0.00     0.243 C 
ATOM     13  H   UNL A   1      30.138  25.055  26.350  1.00  0.00     0.164 HD
ATOM     14  O   UNL A   1      30.262  23.099  27.504  1.00  0.00    -0.273 OA
BRANCH  12  15
ATOM     15  C   UNL A   1      32.387  22.453  26.556  1.00  0.00     0.168 C 
ATOM     16  C   UNL A   1      33.125  22.295  27.880  1.00  0.00     0.041 C 
BRANCH  15  17
ATOM     17  N   UNL A   1      32.276  21.146  25.920  1.00  0.00    -0.338 N 
ATOM     18  C   UNL A   1      33.107  20.530  25.006  1.00  0.00     0.287 C 
ATOM     19  H   UNL A   1      31.486  20.620  26.183  1.00  0.00     0.164 HD
ATOM     20  O   UNL A   1      32.659  19.529  24.444  1.00  0.00    -0.266 OA
BRANCH  18  21
ATOM     21  C   UNL A   1      34.412  21.083  24.704  1.00  0.00     0.191 A 
ATOM     22  C   UNL A   1      34.838  22.202  24.009  1.00  0.00     0.056 A 
ATOM     23  O   UNL A   1      35.510  20.446  25.230  1.00  0.00    -0.459 OA
ATOM     24  C   UNL A   1      36.252  22.237  24.103  1.00  0.00     0.043 A 
ATOM     25  C   UNL A   1      36.612  21.144  24.854  1.00  0.00     0.196 A 
ENDBRANCH  18  21
ENDBRANCH  15  17
ENDBRANCH  12  15
ENDBRANCH   7  11
ENDBRANCH   4   7
ENDBRANCH   2   3
ENDBRANCH   1   2
BRANCH   1  26
ATOM     26  C   UNL A   1      33.666  28.048  26.393  1.00  0.00     0.023 C 
BRANCH  26  27
ATOM     27  C   UNL A   1      34.665  29.174  26.188  1.00  0.00     0.116 C 
BRANCH  27  28
ATOM     28  N   UNL A   1      34.198  30.427  26.752  1.00  0.00    -0.352 N 
ATOM     29  C   UNL A   1      34.634  31.101  27.868  1.00  0.00     0.251 C 
ATOM     30  H   UNL A   1      33.460  30.859  26.262  1.00  0.00     0.163 HD
ATOM     31  O   UNL A   1      33.963  32.040  28.293  1.00  0.00    -0.269 OA
BRANCH  29  32
ATOM     32  C   UNL A   1      35.884  30.712  28.571  1.00  0.00     0.039 A 
ATOM     33  C   UNL A   1      37.073  31.372  28.239  1.00  0.00     0.014 A 
ATOM     34  C   UNL A   1      35.920  29.666  29.498  1.00  0.00     0.014 A 
ATOM     35  C   UNL A   1      38.278  31.006  28.852  1.00  0.00     0.010 A 
ATOM     36  C   UNL A   1      37.105  29.360  30.171  1.00  0.00     0.010 A 
ATOM     37  C   UNL A   1      38.303  30.004  29.834  1.00  0.00    -0.014 A 
BRANCH  37  38
ATOM     38  C   UNL A   1      39.582  29.574  30.466  1.00  0.00     0.031 A 
ATOM     39  C   UNL A   1      40.088  30.281  31.698  1.00  0.00     0.074 A 
ATOM     40  C   UNL A   1      40.307  28.576  29.925  1.00  0.00     0.049 A 
ATOM     41  N   UNL A   1      41.196  30.082  32.370  1.00  0.00    -0.248 NA
ATOM     42  C   UNL A   1      39.253  31.369  32.233  1.00  0.00     0.031 C 
ATOM     43  C   UNL A   1      39.957  27.832  28.712  1.00  0.00     0.029 A 
ATOM     44  N   UNL A   1      41.495  28.015  30.325  1.00  0.00    -0.354 N 
ATOM     45  C   UNL A   1      41.200  31.033  33.386  1.00  0.00     0.074 A 
ATOM     46  C   UNL A   1      40.010  31.837  33.216  1.00  0.00     0.031 C 
ATOM     47  C   UNL A   1      40.895  26.897  28.483  1.00  0.00     0.029 A 
ATOM     48  C   UNL A   1      41.929  26.996  29.511  1.00  0.00     0.049 A 
ATOM     49  H   UNL A   1      41.991  28.315  31.122  1.00  0.00     0.167 HD
ATOM     50  C   UNL A   1      42.098  31.213  34.384  1.00  0.00     0.031 A 
ATOM     51  C   UNL A   1      43.034  26.228  29.577  1.00  0.00     0.031 A 
ATOM     52  C   UNL A   1      43.270  30.399  34.574  1.00  0.00     0.049 A 
ATOM     53  C   UNL A   1      44.010  26.430  30.705  1.00  0.00     0.074 A 
ATOM     54  C   UNL A   1      44.212  30.471  35.585  1.00  0.00     0.029 A 
ATOM     55  N   UNL A   1      43.656  29.363  33.738  1.00  0.00    -0.354 N 
ATOM     56  N   UNL A   1      43.967  27.301  31.684  1.00  0.00    -0.248 NA
ATOM     57  C   UNL A   1      45.176  25.536  30.744  1.00  0.00     0.031 C 
ATOM     58  C   UNL A   1      45.188  29.498  35.343  1.00  0.00     0.029 A 
ATOM     59  C   UNL A   1      44.829  28.794  34.206  1.00  0.00     0.049 A 
ATOM     60  H   UNL A   1      43.169  29.075  32.933  1.00  0.00     0.167 HD
ATOM     61  C   UNL A   1      45.089  27.047  32.466  1.00  0.00     0.074 A 
ATOM     62  C   UNL A   1      45.781  25.931  31.856  1.00  0.00     0.031 C 
ATOM     63  C   UNL A   1      45.506  27.681  33.589  1.00  0.00     0.031 A 
BRANCH  50  64
ATOM     64  C   UNL A   1      41.842  32.336  35.353  1.00  0.00    -0.014 A 
ATOM     65  C   UNL A   1      41.129  32.114  36.546  1.00  0.00     0.010 A 
ATOM     66  C   UNL A   1      42.339  33.623  35.083  1.00  0.00     0.010 A 
ATOM     67  C   UNL A   1      40.879  33.168  37.428  1.00  0.00     0.020 A 
ATOM     68  C   UNL A   1      42.114  34.675  35.975  1.00  0.00     0.020 A 
ATOM     69  C   UNL A   1      41.368  34.444  37.133  1.00  0.00     0.054 A 
BRANCH  69  70
ATOM     70  S   UNL A   1      41.040  35.793  38.301  1.00  0.00     0.124 S 
ATOM     71  O   UNL A   1      42.386  36.288  38.576  1.00  0.00    -0.237 OA
ATOM     72  O   UNL A   1      40.188  36.691  37.526  1.00  0.00    -0.237 OA
ATOM     73  O   UNL A   1      40.379  35.128  39.422  1.00  0.00    -0.744 OA
ENDBRANCH  69  70
ENDBRANCH  50  64
BRANCH  51  74
ATOM     74  C   UNL A   1      43.269  25.179  28.547  1.00  0.00    -0.014 A 
ATOM     75  C   UNL A   1      42.776  23.876  28.732  1.00  0.00     0.010 A 
ATOM     76  C   UNL A   1      43.973  25.486  27.368  1.00  0.00     0.010 A 
ATOM     77  C   UNL A   1      42.992  22.893  27.762  1.00  0.00     0.020 A 
ATOM     78  C   UNL A   1      44.170  24.512  26.385  1.00  0.00     0.020 A 
ATOM     79  C   UNL A   1      43.687  23.218  26.592  1.00  0.00     0.054 A 
BRANCH  79  80
ATOM     80  S   UNL A   1      43.899  21.947  25.314  1.00  0.00     0.124 S 
ATOM     81  O   UNL A   1      43.772  22.728  24.087  1.00  0.00    -0.237 OA
ATOM     82  O   UNL A   1      45.234  21.428  25.599  1.00  0.00    -0.237 OA
ATOM     83  O   UNL A   1      42.807  21.012  25.580  1.00  0.00    -0.744 OA
ENDBRANCH  79  80
ENDBRANCH  51  74
BRANCH  63  84
ATOM     84  C   UNL A   1      46.757  27.169  34.251  1.00  0.00    -0.014 A 
ATOM     85  C   UNL A   1      46.708  26.114  35.178  1.00  0.00     0.010 A 
ATOM     86  C   UNL A   1      48.004  27.713  33.894  1.00  0.00     0.010 A 
ATOM     87  C   UNL A   1      47.882  25.631  35.760  1.00  0.00     0.020 A 
ATOM     88  C   UNL A   1      49.183  27.218  34.456  1.00  0.00     0.020 A 
ATOM     89  C   UNL A   1      49.114  26.188  35.397  1.00  0.00     0.054 A 
BRANCH  89  90
ATOM     90  S   UNL A   1      50.630  25.514  36.129  1.00  0.00     0.124 S 
ATOM     91  O   UNL A   1      50.585  24.121  35.693  1.00  0.00    -0.237 OA
ATOM     92  O   UNL A   1      51.676  26.330  35.516  1.00  0.00    -0.237 OA
ATOM     93  O   UNL A   1      50.445  25.725  37.563  1.00  0.00    -0.744 OA
ENDBRANCH  89  90
ENDBRANCH  63  84
ENDBRANCH  37  38
ENDBRANCH  29  32
ENDBRANCH  27  28
ENDBRANCH  26  27
ENDBRANCH   1  26
TORSDOF 19
ENDMDL
MODEL 3
REMARK VINA RESULT:     -10.4      1.661      2.333
REMARK SMILES CC[C@@](C)(NC(=O)[C@@H](C)NC(=O)c1ccco1)C(=O)NCCCCNC(=O)c1ccc(-c2c3nc(c(-c4ccc(S(=O)(=O)[O-])cc4)c4ccc([nH]4)c(-c4ccc(S(=O)(=O)[O-])cc4)c4nc(c(-c5ccc(S(=O)(=O)[O-])cc5)c5ccc2[nH]5)C=C4)C=C3)cc1
REMARK SMILES IDX 22 1 21 2 20 3 18 4 19 5 3 7 4 8 2 9 1 10 5 11 6 12 7 14
REMARK SMILES IDX 8 15 9 16 10 17 11 18 12 20 13 21 14 22 17 23 15 24 16 25
REMARK SMILES IDX 23 26 24 27 25 28 26 29 27 31 28 32 29 33 87 34 30 35 86 36
REMARK SMILES IDX 31 37 32 38 33 39 80 40 34 41 85 42 79 43 81 44 35 45 84 46
REMARK SMILES IDX 78 47 77 48 36 50 66 51 47 52 65 53 48 54 51 55 64 56 82 57
REMARK SMILES IDX 49 58 50 59 63 61 83 62 52 63 37 64 38 65 46 66 39 67 45 68
REMARK SMILES IDX 40 69 41 70 42 71 43 72 44 73 67 74 68 75 76 76 69 77 75 78
REMARK SMILES IDX 70 79 71 80 72 81 73 82 74 83 53 84 54 85 62 86 55 87 61 88
REMARK SMILES IDX 56 89 57 90 58 91 59 92 60 93
REMARK H PARENT 20 6 5 13 10 19 25 30 81 49 51 60
REMARK Flexibility Score: inf
ROOT
ATOM      1  C   UNL A   1      33.542  29.351  26.713  1.00  0.00     0.023 C 
ENDROOT
BRANCH   1   2
ATOM      2  C   UNL A   1      32.689  28.597  25.692  1.00  0.00     0.116 C 
BRANCH   2   3
ATOM      3  N   UNL A   1      31.712  27.665  26.239  1.00  0.00    -0.354 N 
ATOM      4  C   UNL A   1      30.704  26.933  25.681  1.00  0.00     0.245 C 
ATOM      5  O   UNL A   1      30.097  26.161  26.432  1.00  0.00    -0.272 OA
ATOM      6  H   UNL A   1      31.796  27.538  27.213  1.00  0.00     0.163 HD
BRANCH   4   7
ATOM      7  C   UNL A   1      30.258  27.096  24.211  1.00  0.00     0.116 C 
ATOM      8  C   UNL A   1      28.851  26.482  24.022  1.00  0.00     0.045 C 
BRANCH   7   9
ATOM      9  C   UNL A   1      30.162  28.571  23.726  1.00  0.00     0.035 C 
ATOM     10  C   UNL A   1      30.663  28.890  22.320  1.00  0.00     0.007 C 
ENDBRANCH   7   9
BRANCH   7  11
ATOM     11  N   UNL A   1      31.246  26.393  23.360  1.00  0.00    -0.340 N 
ATOM     12  C   UNL A   1      31.640  25.099  23.220  1.00  0.00     0.243 C 
ATOM     13  H   UNL A   1      31.729  27.004  22.758  1.00  0.00     0.164 HD
ATOM     14  O   UNL A   1      32.768  24.981  22.708  1.00  0.00    -0.273 OA
BRANCH  12  15
ATOM     15  C   UNL A   1      30.927  23.796  23.726  1.00  0.00     0.168 C 
ATOM     16  C   UNL A   1      31.502  22.541  23.080  1.00  0.00     0.041 C 
BRANCH  15  17
ATOM     17  N   UNL A   1      30.728  23.545  25.148  1.00  0.00    -0.338 N 
ATOM     18  C   UNL A   1      31.652  23.414  26.164  1.00  0.00     0.287 C 
ATOM     19  H   UNL A   1      29.788  23.455  25.427  1.00  0.00     0.164 HD
ATOM     20  O   UNL A   1      31.234  22.965  27.232  1.00  0.00    -0.266 OA
BRANCH  18  21
ATOM     21  C   UNL A   1      33.046  23.746  25.942  1.00  0.00     0.191 A 
ATOM     22  C   UNL A   1      34.162  23.003  25.598  1.00  0.00     0.056 A 
ATOM     23  O   UNL A   1      33.405  25.070  26.021  1.00  0.00    -0.459 OA
ATOM     24  C   UNL A   1      35.245  23.909  25.478  1.00  0.00     0.043 A 
ATOM     25  C   UNL A   1      34.732  25.154  25.749  1.00  0.00     0.196 A 
ENDBRANCH  18  21
ENDBRANCH  15  17
ENDBRANCH  12  15
ENDBRANCH   7  11
ENDBRANCH   4   7
ENDBRANCH   2   3
ENDBRANCH   1   2
BRANCH   1  26
ATOM     26  C   UNL A   1      34.949  28.820  26.946  1.00  0.00     0.023 C 
BRANCH  26  27
ATOM     27  C   UNL A   1      35.942  29.764  27.603  1.00  0.00     0.116 C 
BRANCH  27  28
ATOM     28  N   UNL A   1      35.925  29.654  29.050  1.00  0.00    -0.352 N 
ATOM     29  C   UNL A   1      36.917  29.242  29.907  1.00  0.00     0.251 C 
ATOM     30  H   UNL A   1      35.078  29.914  29.481  1.00  0.00     0.163 HD
ATOM     31  O   UNL A   1      36.631  29.020  31.082  1.00  0.00    -0.269 OA
BRANCH  29  32
ATOM     32  C   UNL A   1      38.316  29.050  29.443  1.00  0.00     0.039 A 
ATOM     33  C   UNL A   1      39.261  28.554  30.349  1.00  0.00     0.014 A 
ATOM     34  C   UNL A   1      38.728  29.414  28.157  1.00  0.00     0.014 A 
ATOM     35  C   UNL A   1      40.597  28.397  29.959  1.00  0.00     0.010 A 
ATOM     36  C   UNL A   1      40.041  29.177  27.744  1.00  0.00     0.010 A 
ATOM     37  C   UNL A   1      40.998  28.695  28.648  1.00  0.00    -0.014 A 
BRANCH  37  38
ATOM     38  C   UNL A   1      42.422  28.574  28.229  1.00  0.00     0.031 A 
ATOM     39  C   UNL A   1      43.360  29.743  28.402  1.00  0.00     0.074 A 
ATOM     40  C   UNL A   1      42.873  27.436  27.666  1.00  0.00     0.049 A 
ATOM     41  N   UNL A   1      44.621  29.848  28.063  1.00  0.00    -0.248 NA
ATOM     42  C   UNL A   1      42.803  30.960  29.015  1.00  0.00     0.031 C 
ATOM     43  C   UNL A   1      42.065  26.242  27.402  1.00  0.00     0.029 A 
ATOM     44  N   UNL A   1      44.123  27.097  27.211  1.00  0.00    -0.354 N 
ATOM     45  C   UNL A   1      44.998  31.146  28.397  1.00  0.00     0.074 A 
ATOM     46  C   UNL A   1      43.822  31.804  28.923  1.00  0.00     0.031 C 
ATOM     47  C   UNL A   1      42.847  25.295  26.856  1.00  0.00     0.029 A 
ATOM     48  C   UNL A   1      44.200  25.824  26.699  1.00  0.00     0.049 A 
ATOM     49  H   UNL A   1      44.893  27.710  27.246  1.00  0.00     0.167 HD
ATOM     50  C   UNL A   1      46.213  31.735  28.298  1.00  0.00     0.031 A 
ATOM     51  C   UNL A   1      45.238  25.154  26.161  1.00  0.00     0.031 A 
ATOM     52  C   UNL A   1      47.393  31.078  27.801  1.00  0.00     0.049 A 
ATOM     53  C   UNL A   1      46.585  25.819  26.078  1.00  0.00     0.074 A 
ATOM     54  C   UNL A   1      48.681  31.575  27.710  1.00  0.00     0.029 A 
ATOM     55  N   UNL A   1      47.429  29.779  27.317  1.00  0.00    -0.354 N 
ATOM     56  N   UNL A   1      46.930  27.029  26.449  1.00  0.00    -0.248 NA
ATOM     57  C   UNL A   1      47.687  25.023  25.517  1.00  0.00     0.031 C 
ATOM     58  C   UNL A   1      49.491  30.588  27.139  1.00  0.00     0.029 A 
ATOM     59  C   UNL A   1      48.716  29.462  26.917  1.00  0.00     0.049 A 
ATOM     60  H   UNL A   1      46.656  29.173  27.267  1.00  0.00     0.167 HD
ATOM     61  C   UNL A   1      48.292  27.132  26.184  1.00  0.00     0.074 A 
ATOM     62  C   UNL A   1      48.710  25.858  25.638  1.00  0.00     0.031 C 
ATOM     63  C   UNL A   1      49.119  28.189  26.376  1.00  0.00     0.031 A 
BRANCH  50  64
ATOM     64  C   UNL A   1      46.327  33.169  28.743  1.00  0.00    -0.014 A 
ATOM     65  C   UNL A   1      46.199  34.225  27.822  1.00  0.00     0.010 A 
ATOM     66  C   UNL A   1      46.538  33.467  30.102  1.00  0.00     0.010 A 
ATOM     67  C   UNL A   1      46.326  35.551  28.244  1.00  0.00     0.020 A 
ATOM     68  C   UNL A   1      46.640  34.793  30.531  1.00  0.00     0.020 A 
ATOM     69  C   UNL A   1      46.553  35.826  29.595  1.00  0.00     0.054 A 
BRANCH  69  70
ATOM     70  S   UNL A   1      46.703  37.557  30.118  1.00  0.00     0.124 S 
ATOM     71  O   UNL A   1      45.996  37.549  31.396  1.00  0.00    -0.237 OA
ATOM     72  O   UNL A   1      48.149  37.744  30.204  1.00  0.00    -0.237 OA
ATOM     73  O   UNL A   1      46.046  38.301  29.046  1.00  0.00    -0.744 OA
ENDBRANCH  69  70
ENDBRANCH  50  64
BRANCH  51  74
ATOM     74  C   UNL A   1      45.047  23.761  25.673  1.00  0.00    -0.014 A 
ATOM     75  C   UNL A   1      44.836  23.508  24.307  1.00  0.00     0.010 A 
ATOM     76  C   UNL A   1      45.094  22.680  26.572  1.00  0.00     0.010 A 
ATOM     77  C   UNL A   1      44.662  22.198  23.848  1.00  0.00     0.020 A 
ATOM     78  C   UNL A   1      44.944  21.368  26.114  1.00  0.00     0.020 A 
ATOM     79  C   UNL A   1      44.719  21.136  24.755  1.00  0.00     0.054 A 
BRANCH  79  80
ATOM     80  S   UNL A   1      44.559  19.439  24.132  1.00  0.00     0.124 S 
ATOM     81  O   UNL A   1      44.409  19.656  22.696  1.00  0.00    -0.237 OA
ATOM     82  O   UNL A   1      45.817  18.825  24.552  1.00  0.00    -0.237 OA
ATOM     83  O   UNL A   1      43.371  18.935  24.818  1.00  0.00    -0.744 OA
ENDBRANCH  79  80
ENDBRANCH  51  74
BRANCH  63  84
ATOM     84  C   UNL A   1      50.570  28.006  26.021  1.00  0.00    -0.014 A 
ATOM     85  C   UNL A   1      51.495  27.527  26.965  1.00  0.00     0.010 A 
ATOM     86  C   UNL A   1      50.999  28.263  24.706  1.00  0.00     0.010 A 
ATOM     87  C   UNL A   1      52.832  27.335  26.608  1.00  0.00     0.020 A 
ATOM     88  C   UNL A   1      52.331  28.051  24.339  1.00  0.00     0.020 A 
ATOM     89  C   UNL A   1      53.243  27.601  25.297  1.00  0.00     0.054 A 
BRANCH  89  90
ATOM     90  S   UNL A   1      54.973  27.301  24.843  1.00  0.00     0.124 S 
ATOM     91  O   UNL A   1      54.864  26.110  24.003  1.00  0.00    -0.237 OA
ATOM     92  O   UNL A   1      55.342  28.530  24.145  1.00  0.00    -0.237 OA
ATOM     93  O   UNL A   1      55.638  27.099  26.128  1.00  0.00    -0.744 OA
ENDBRANCH  89  90
ENDBRANCH  63  84
ENDBRANCH  37  38
ENDBRANCH  29  32
ENDBRANCH  27  28
ENDBRANCH  26  27
ENDBRANCH   1  26
TORSDOF 19
ENDMDL
