MODEL 1
REMARK VINA RESULT:     -10.8      0.000      0.000
REMARK SMILES O=C(NCCCCNC(=O)c1cccc(Oc2ncc([N+](=O)[O-])cc2Br)c1)c1ccc(-c2c3nc(c(-c4ccc(S(=O)(=O)[O-])cc4)c4ccc([nH]4)c(-c4ccc(S(=O)(=O)[O-])cc4)c4nc(c(-c5ccc(S(=O)(=O)[O-])cc5)c5ccc2[nH]5)C=C4)C=C3)cc1
REMARK SMILES IDX 5 1 4 2 3 3 1 4 2 5 28 7 29 8 87 9 30 10 86 11 31 12 32 13
REMARK SMILES IDX 33 14 80 15 34 16 85 17 79 18 81 19 35 20 84 21 78 22 77 23
REMARK SMILES IDX 36 25 66 26 47 27 65 28 48 29 51 30 64 31 82 32 49 33 50 34
REMARK SMILES IDX 63 36 83 37 52 38 37 39 38 40 46 41 39 42 45 43 40 44 41 45
REMARK SMILES IDX 42 46 43 47 44 48 67 49 68 50 76 51 69 52 75 53 70 54 71 55
REMARK SMILES IDX 72 56 73 57 74 58 53 59 54 60 62 61 55 62 61 63 56 64 57 65
REMARK SMILES IDX 58 66 59 67 60 68 6 69 7 70 8 71 9 72 10 74 11 75 12 76
REMARK SMILES IDX 27 77 13 78 15 79 14 80 16 81 17 82 18 83 25 84 19 85 24 86
REMARK SMILES IDX 26 87 20 88 21 89 22 90 23 91
REMARK H PARENT 3 6 81 24 51 35 8 73
REMARK Flexibility Score: inf
ROOT
ATOM      1  C   UNL A   1      33.664  27.902  25.477  1.00  0.00     0.023 C 
ENDROOT
BRANCH   1   2
ATOM      2  C   UNL A   1      33.750  28.160  26.974  1.00  0.00     0.116 C 
BRANCH   2   3
ATOM      3  N   UNL A   1      33.563  29.563  27.318  1.00  0.00    -0.352 N 
ATOM      4  O   UNL A   1      34.049  31.539  28.294  1.00  0.00    -0.269 OA
ATOM      5  C   UNL A   1      34.434  30.425  27.941  1.00  0.00     0.251 C 
ATOM      6  H   UNL A   1      32.690  29.947  27.072  1.00  0.00     0.163 HD
BRANCH   5   7
ATOM      7  C   UNL A   1      35.821  29.993  28.208  1.00  0.00     0.039 A 
ATOM      8  C   UNL A   1      36.180  29.520  29.471  1.00  0.00     0.014 A 
ATOM      9  C   UNL A   1      36.779  30.091  27.196  1.00  0.00     0.014 A 
ATOM     10  C   UNL A   1      37.519  29.305  29.770  1.00  0.00     0.010 A 
ATOM     11  C   UNL A   1      38.114  29.777  27.472  1.00  0.00     0.010 A 
ATOM     12  C   UNL A   1      38.501  29.416  28.771  1.00  0.00    -0.014 A 
BRANCH  12  13
ATOM     13  C   UNL A   1      39.909  29.075  29.101  1.00  0.00     0.031 A 
ATOM     14  C   UNL A   1      40.507  27.749  28.721  1.00  0.00     0.074 A 
ATOM     15  C   UNL A   1      40.658  30.002  29.731  1.00  0.00     0.049 A 
ATOM     16  N   UNL A   1      41.727  27.315  28.919  1.00  0.00    -0.248 NA
ATOM     17  C   UNL A   1      39.631  26.781  28.042  1.00  0.00     0.031 C 
ATOM     18  C   UNL A   1      40.182  31.322  30.158  1.00  0.00     0.029 A 
ATOM     19  N   UNL A   1      41.976  29.990  30.104  1.00  0.00    -0.354 N 
ATOM     20  C   UNL A   1      41.760  26.021  28.411  1.00  0.00     0.074 A 
ATOM     21  C   UNL A   1      40.432  25.731  27.914  1.00  0.00     0.031 C 
ATOM     22  C   UNL A   1      41.204  32.009  30.686  1.00  0.00     0.029 A 
ATOM     23  C   UNL A   1      42.387  31.158  30.704  1.00  0.00     0.049 A 
ATOM     24  H   UNL A   1      42.573  29.220  29.957  1.00  0.00     0.167 HD
ATOM     25  C   UNL A   1      42.804  25.156  28.366  1.00  0.00     0.031 A 
ATOM     26  C   UNL A   1      43.574  31.504  31.232  1.00  0.00     0.031 A 
ATOM     27  C   UNL A   1      44.123  25.454  28.863  1.00  0.00     0.049 A 
ATOM     28  C   UNL A   1      44.705  30.521  31.186  1.00  0.00     0.074 A 
ATOM     29  C   UNL A   1      45.254  24.657  28.827  1.00  0.00     0.029 A 
ATOM     30  N   UNL A   1      44.488  26.635  29.490  1.00  0.00    -0.354 N 
ATOM     31  N   UNL A   1      44.724  29.315  30.670  1.00  0.00    -0.248 NA
ATOM     32  C   UNL A   1      45.975  30.943  31.790  1.00  0.00     0.031 C 
ATOM     33  C   UNL A   1      46.288  25.333  29.483  1.00  0.00     0.029 A 
ATOM     34  C   UNL A   1      45.820  26.578  29.871  1.00  0.00     0.049 A 
ATOM     35  H   UNL A   1      43.891  27.403  29.642  1.00  0.00     0.167 HD
ATOM     36  C   UNL A   1      46.012  28.838  30.875  1.00  0.00     0.074 A 
ATOM     37  C   UNL A   1      46.748  29.895  31.541  1.00  0.00     0.031 C 
ATOM     38  C   UNL A   1      46.537  27.633  30.543  1.00  0.00     0.031 A 
BRANCH  25  39
ATOM     39  C   UNL A   1      42.559  23.786  27.785  1.00  0.00    -0.014 A 
ATOM     40  C   UNL A   1      42.743  23.526  26.415  1.00  0.00     0.010 A 
ATOM     41  C   UNL A   1      42.201  22.724  28.637  1.00  0.00     0.010 A 
ATOM     42  C   UNL A   1      42.542  22.240  25.904  1.00  0.00     0.020 A 
ATOM     43  C   UNL A   1      42.023  21.431  28.135  1.00  0.00     0.020 A 
ATOM     44  C   UNL A   1      42.180  21.201  26.767  1.00  0.00     0.054 A 
BRANCH  44  45
ATOM     45  S   UNL A   1      41.953  19.536  26.081  1.00  0.00     0.124 S 
ATOM     46  O   UNL A   1      40.516  19.512  25.822  1.00  0.00    -0.237 OA
ATOM     47  O   UNL A   1      42.805  19.559  24.894  1.00  0.00    -0.237 OA
ATOM     48  O   UNL A   1      42.407  18.653  27.152  1.00  0.00    -0.744 OA
ENDBRANCH  44  45
ENDBRANCH  25  39
BRANCH  26  49
ATOM     49  C   UNL A   1      43.730  32.840  31.868  1.00  0.00    -0.014 A 
ATOM     50  C   UNL A   1      43.498  33.014  33.242  1.00  0.00     0.010 A 
ATOM     51  C   UNL A   1      44.158  33.939  31.099  1.00  0.00     0.010 A 
ATOM     52  C   UNL A   1      43.683  34.266  33.835  1.00  0.00     0.020 A 
ATOM     53  C   UNL A   1      44.374  35.184  31.695  1.00  0.00     0.020 A 
ATOM     54  C   UNL A   1      44.125  35.342  33.058  1.00  0.00     0.054 A 
BRANCH  54  55
ATOM     55  S   UNL A   1      44.419  36.941  33.862  1.00  0.00     0.124 S 
ATOM     56  O   UNL A   1      45.581  37.438  33.132  1.00  0.00    -0.237 OA
ATOM     57  O   UNL A   1      43.166  37.652  33.620  1.00  0.00    -0.237 OA
ATOM     58  O   UNL A   1      44.662  36.581  35.257  1.00  0.00    -0.744 OA
ENDBRANCH  54  55
ENDBRANCH  26  49
BRANCH  38  59
ATOM     59  C   UNL A   1      47.986  27.401  30.875  1.00  0.00    -0.014 A 
ATOM     60  C   UNL A   1      49.008  27.795  29.993  1.00  0.00     0.010 A 
ATOM     61  C   UNL A   1      48.330  26.816  32.108  1.00  0.00     0.010 A 
ATOM     62  C   UNL A   1      50.348  27.574  30.322  1.00  0.00     0.020 A 
ATOM     63  C   UNL A   1      49.669  26.620  32.452  1.00  0.00     0.020 A 
ATOM     64  C   UNL A   1      50.670  26.986  31.549  1.00  0.00     0.054 A 
BRANCH  64  65
ATOM     65  S   UNL A   1      52.417  26.743  31.969  1.00  0.00     0.124 S 
ATOM     66  O   UNL A   1      52.915  28.115  31.999  1.00  0.00    -0.237 OA
ATOM     67  O   UNL A   1      52.345  26.072  33.265  1.00  0.00    -0.237 OA
ATOM     68  O   UNL A   1      52.925  25.920  30.875  1.00  0.00    -0.744 OA
ENDBRANCH  64  65
ENDBRANCH  38  59
ENDBRANCH  12  13
ENDBRANCH   5   7
ENDBRANCH   2   3
ENDBRANCH   1   2
BRANCH   1  69
ATOM     69  C   UNL A   1      33.363  29.133  24.627  1.00  0.00     0.023 C 
BRANCH  69  70
ATOM     70  C   UNL A   1      33.303  28.880  23.125  1.00  0.00     0.116 C 
BRANCH  70  71
ATOM     71  N   UNL A   1      31.978  29.124  22.574  1.00  0.00    -0.352 N 
ATOM     72  C   UNL A   1      30.939  28.244  22.428  1.00  0.00     0.251 C 
ATOM     73  H   UNL A   1      31.806  30.044  22.266  1.00  0.00     0.163 HD
ATOM     74  O   UNL A   1      29.937  28.553  21.781  1.00  0.00    -0.269 OA
BRANCH  72  75
ATOM     75  C   UNL A   1      31.018  26.914  23.057  1.00  0.00     0.043 A 
ATOM     76  C   UNL A   1      30.395  26.696  24.286  1.00  0.00     0.014 A 
ATOM     77  C   UNL A   1      31.749  25.894  22.437  1.00  0.00     0.061 A 
ATOM     78  C   UNL A   1      30.456  25.432  24.869  1.00  0.00     0.005 A 
ATOM     79  C   UNL A   1      31.814  24.628  23.017  1.00  0.00     0.130 A 
ATOM     80  C   UNL A   1      31.158  24.402  24.232  1.00  0.00     0.047 A 
BRANCH  79  81
ATOM     81  O   UNL A   1      32.520  23.557  22.509  1.00  0.00    -0.438 OA
BRANCH  81  82
ATOM     82  C   UNL A   1      33.663  23.169  23.173  1.00  0.00     0.234 A 
ATOM     83  N   UNL A   1      34.724  24.007  23.038  1.00  0.00    -0.214 NA
ATOM     84  C   UNL A   1      33.725  21.960  23.871  1.00  0.00     0.087 A 
ATOM     85  C   UNL A   1      35.884  23.640  23.640  1.00  0.00     0.200 A 
ATOM     86  C   UNL A   1      34.913  21.623  24.517  1.00  0.00     0.108 A 
ATOM     87  Br  UNL A   1      32.257  20.768  23.988  1.00  0.00    -0.045 Br
ATOM     88  C   UNL A   1      36.011  22.478  24.388  1.00  0.00     0.288 A 
BRANCH  88  89
ATOM     89  N   UNL A   1      37.285  22.153  25.011  1.00  0.00     0.064 N 
ATOM     90  O   UNL A   1      37.731  21.012  24.839  1.00  0.00    -0.258 OA
ATOM     91  O   UNL A   1      37.831  23.037  25.682  1.00  0.00    -0.258 OA
ENDBRANCH  88  89
ENDBRANCH  81  82
ENDBRANCH  79  81
ENDBRANCH  72  75
ENDBRANCH  70  71
ENDBRANCH  69  70
ENDBRANCH   1  69
TORSDOF 17
ENDMDL
MODEL 2
REMARK VINA RESULT:     -10.7      3.897      8.359
REMARK SMILES O=C(NCCCCNC(=O)c1cccc(Oc2ncc([N+](=O)[O-])cc2Br)c1)c1ccc(-c2c3nc(c(-c4ccc(S(=O)(=O)[O-])cc4)c4ccc([nH]4)c(-c4ccc(S(=O)(=O)[O-])cc4)c4nc(c(-c5ccc(S(=O)(=O)[O-])cc5)c5ccc2[nH]5)C=C4)C=C3)cc1
REMARK SMILES IDX 5 1 4 2 3 3 1 4 2 5 28 7 29 8 87 9 30 10 86 11 31 12 32 13
REMARK SMILES IDX 33 14 80 15 34 16 85 17 79 18 81 19 35 20 84 21 78 22 77 23
REMARK SMILES IDX 36 25 66 26 47 27 65 28 48 29 51 30 64 31 82 32 49 33 50 34
REMARK SMILES IDX 63 36 83 37 52 38 37 39 38 40 46 41 39 42 45 43 40 44 41 45
REMARK SMILES IDX 42 46 43 47 44 48 67 49 68 50 76 51 69 52 75 53 70 54 71 55
REMARK SMILES IDX 72 56 73 57 74 58 53 59 54 60 62 61 55 62 61 63 56 64 57 65
REMARK SMILES IDX 58 66 59 67 60 68 6 69 7 70 8 71 9 72 10 74 11 75 12 76
REMARK SMILES IDX 27 77 13 78 15 79 14 80 16 81 17 82 18 83 25 84 19 85 24 86
REMARK SMILES IDX 26 87 20 88 21 89 22 90 23 91
REMARK H PARENT 3 6 81 24 51 35 8 73
REMARK Flexibility Score: inf
ROOT
ATOM      1  C   UNL A   1      38.513  19.598  25.033  1.00  0.00     0.023 C 
ENDROOT
BRANCH   1   2
ATOM      2  C   UNL A   1      39.712  20.025  25.867  1.00  0.00     0.116 C 
BRANCH   2   3
ATOM      3  N   UNL A   1      40.735  18.991  25.957  1.00  0.00    -0.352 N 
ATOM      4  O   UNL A   1      42.826  18.144  25.991  1.00  0.00    -0.269 OA
ATOM      5  C   UNL A   1      42.097  19.129  26.087  1.00  0.00     0.251 C 
ATOM      6  H   UNL A   1      40.405  18.064  25.919  1.00  0.00     0.163 HD
BRANCH   5   7
ATOM      7  C   UNL A   1      42.675  20.470  26.311  1.00  0.00     0.039 A 
ATOM      8  C   UNL A   1      42.758  20.993  27.602  1.00  0.00     0.014 A 
ATOM      9  C   UNL A   1      43.107  21.224  25.217  1.00  0.00     0.014 A 
ATOM     10  C   UNL A   1      43.115  22.324  27.784  1.00  0.00     0.010 A 
ATOM     11  C   UNL A   1      43.562  22.532  25.414  1.00  0.00     0.010 A 
ATOM     12  C   UNL A   1      43.537  23.105  26.695  1.00  0.00    -0.014 A 
BRANCH  12  13
ATOM     13  C   UNL A   1      44.013  24.490  26.941  1.00  0.00     0.031 A 
ATOM     14  C   UNL A   1      45.451  24.878  26.729  1.00  0.00     0.074 A 
ATOM     15  C   UNL A   1      43.112  25.413  27.335  1.00  0.00     0.049 A 
ATOM     16  N   UNL A   1      46.012  26.051  26.879  1.00  0.00    -0.248 NA
ATOM     17  C   UNL A   1      46.380  23.819  26.305  1.00  0.00     0.031 C 
ATOM     18  C   UNL A   1      41.691  25.152  27.581  1.00  0.00     0.029 A 
ATOM     19  N   UNL A   1      43.248  26.755  27.578  1.00  0.00    -0.354 N 
ATOM     20  C   UNL A   1      47.361  25.870  26.591  1.00  0.00     0.074 A 
ATOM     21  C   UNL A   1      47.537  24.468  26.277  1.00  0.00     0.031 C 
ATOM     22  C   UNL A   1      41.078  26.303  27.890  1.00  0.00     0.029 A 
ATOM     23  C   UNL A   1      42.071  27.369  27.935  1.00  0.00     0.049 A 
ATOM     24  H   UNL A   1      44.106  27.234  27.504  1.00  0.00     0.167 HD
ATOM     25  C   UNL A   1      48.357  26.790  26.590  1.00  0.00     0.031 A 
ATOM     26  C   UNL A   1      41.814  28.642  28.284  1.00  0.00     0.031 A 
ATOM     27  C   UNL A   1      48.171  28.184  26.904  1.00  0.00     0.049 A 
ATOM     28  C   UNL A   1      42.938  29.635  28.293  1.00  0.00     0.074 A 
ATOM     29  C   UNL A   1      49.111  29.200  26.892  1.00  0.00     0.029 A 
ATOM     30  N   UNL A   1      46.969  28.758  27.290  1.00  0.00    -0.354 N 
ATOM     31  N   UNL A   1      44.200  29.448  27.984  1.00  0.00    -0.248 NA
ATOM     32  C   UNL A   1      42.607  31.007  28.696  1.00  0.00     0.031 C 
ATOM     33  C   UNL A   1      48.491  30.376  27.326  1.00  0.00     0.029 A 
ATOM     34  C   UNL A   1      47.150  30.109  27.547  1.00  0.00     0.049 A 
ATOM     35  H   UNL A   1      46.113  28.279  27.369  1.00  0.00     0.167 HD
ATOM     36  C   UNL A   1      44.811  30.685  28.141  1.00  0.00     0.074 A 
ATOM     37  C   UNL A   1      43.777  31.615  28.551  1.00  0.00     0.031 C 
ATOM     38  C   UNL A   1      46.114  31.020  27.964  1.00  0.00     0.031 A 
BRANCH  25  39
ATOM     39  C   UNL A   1      49.752  26.317  26.269  1.00  0.00    -0.014 A 
ATOM     40  C   UNL A   1      50.285  26.429  24.972  1.00  0.00     0.010 A 
ATOM     41  C   UNL A   1      50.568  25.810  27.299  1.00  0.00     0.010 A 
ATOM     42  C   UNL A   1      51.594  26.015  24.705  1.00  0.00     0.020 A 
ATOM     43  C   UNL A   1      51.885  25.418  27.042  1.00  0.00     0.020 A 
ATOM     44  C   UNL A   1      52.385  25.509  25.741  1.00  0.00     0.054 A 
BRANCH  44  45
ATOM     45  S   UNL A   1      54.088  25.004  25.371  1.00  0.00     0.124 S 
ATOM     46  O   UNL A   1      54.439  25.911  24.281  1.00  0.00    -0.237 OA
ATOM     47  O   UNL A   1      54.778  25.247  26.635  1.00  0.00    -0.237 OA
ATOM     48  O   UNL A   1      53.961  23.599  24.994  1.00  0.00    -0.744 OA
ENDBRANCH  44  45
ENDBRANCH  25  39
BRANCH  26  49
ATOM     49  C   UNL A   1      40.431  29.030  28.672  1.00  0.00    -0.014 A 
ATOM     50  C   UNL A   1      40.065  29.129  30.025  1.00  0.00     0.010 A 
ATOM     51  C   UNL A   1      39.484  29.347  27.681  1.00  0.00     0.010 A 
ATOM     52  C   UNL A   1      38.774  29.529  30.379  1.00  0.00     0.020 A 
ATOM     53  C   UNL A   1      38.202  29.777  28.031  1.00  0.00     0.020 A 
ATOM     54  C   UNL A   1      37.852  29.855  29.379  1.00  0.00     0.054 A 
BRANCH  54  55
ATOM     55  S   UNL A   1      36.202  30.433  29.862  1.00  0.00     0.124 S 
ATOM     56  O   UNL A   1      35.990  29.725  31.121  1.00  0.00    -0.237 OA
ATOM     57  O   UNL A   1      36.393  31.877  29.971  1.00  0.00    -0.237 OA
ATOM     58  O   UNL A   1      35.354  30.008  28.752  1.00  0.00    -0.744 OA
ENDBRANCH  54  55
ENDBRANCH  26  49
BRANCH  38  59
ATOM     59  C   UNL A   1      46.488  32.460  28.191  1.00  0.00    -0.014 A 
ATOM     60  C   UNL A   1      46.914  32.912  29.452  1.00  0.00     0.010 A 
ATOM     61  C   UNL A   1      46.449  33.363  27.113  1.00  0.00     0.010 A 
ATOM     62  C   UNL A   1      47.261  34.252  29.640  1.00  0.00     0.020 A 
ATOM     63  C   UNL A   1      46.823  34.697  27.292  1.00  0.00     0.020 A 
ATOM     64  C   UNL A   1      47.211  35.137  28.559  1.00  0.00     0.054 A 
BRANCH  64  65
ATOM     65  S   UNL A   1      47.700  36.864  28.820  1.00  0.00     0.124 S 
ATOM     66  O   UNL A   1      47.223  37.502  27.596  1.00  0.00    -0.237 OA
ATOM     67  O   UNL A   1      46.978  37.222  30.038  1.00  0.00    -0.237 OA
ATOM     68  O   UNL A   1      49.153  36.795  28.961  1.00  0.00    -0.744 OA
ENDBRANCH  64  65
ENDBRANCH  38  59
ENDBRANCH  12  13
ENDBRANCH   5   7
ENDBRANCH   2   3
ENDBRANCH   1   2
BRANCH   1  69
ATOM     69  C   UNL A   1      37.216  20.341  25.344  1.00  0.00     0.023 C 
BRANCH  69  70
ATOM     70  C   UNL A   1      37.384  21.823  25.661  1.00  0.00     0.116 C 
BRANCH  70  71
ATOM     71  N   UNL A   1      37.398  22.648  24.462  1.00  0.00    -0.352 N 
ATOM     72  C   UNL A   1      36.354  23.302  23.863  1.00  0.00     0.251 C 
ATOM     73  H   UNL A   1      38.275  22.751  24.024  1.00  0.00     0.163 HD
ATOM     74  O   UNL A   1      36.488  23.818  22.753  1.00  0.00    -0.269 OA
BRANCH  72  75
ATOM     75  C   UNL A   1      35.058  23.395  24.559  1.00  0.00     0.043 A 
ATOM     76  C   UNL A   1      34.794  24.491  25.379  1.00  0.00     0.014 A 
ATOM     77  C   UNL A   1      34.121  22.364  24.421  1.00  0.00     0.061 A 
ATOM     78  C   UNL A   1      33.561  24.584  26.020  1.00  0.00     0.005 A 
ATOM     79  C   UNL A   1      32.886  22.453  25.062  1.00  0.00     0.130 A 
ATOM     80  C   UNL A   1      32.609  23.571  25.856  1.00  0.00     0.047 A 
BRANCH  79  81
ATOM     81  O   UNL A   1      31.897  21.491  25.016  1.00  0.00    -0.438 OA
BRANCH  81  82
ATOM     82  C   UNL A   1      32.264  20.208  24.673  1.00  0.00     0.234 A 
ATOM     83  N   UNL A   1      32.644  19.417  25.711  1.00  0.00    -0.214 NA
ATOM     84  C   UNL A   1      32.303  19.794  23.339  1.00  0.00     0.087 A 
ATOM     85  C   UNL A   1      33.055  18.158  25.412  1.00  0.00     0.200 A 
ATOM     86  C   UNL A   1      32.688  18.484  23.059  1.00  0.00     0.108 A 
ATOM     87  Br  UNL A   1      31.840  20.934  21.899  1.00  0.00    -0.045 Br
ATOM     88  C   UNL A   1      33.078  17.660  24.117  1.00  0.00     0.288 A 
BRANCH  88  89
ATOM     89  N   UNL A   1      33.525  16.297  23.874  1.00  0.00     0.064 N 
ATOM     90  O   UNL A   1      34.205  16.090  22.862  1.00  0.00    -0.258 OA
ATOM     91  O   UNL A   1      33.184  15.433  24.691  1.00  0.00    -0.258 OA
ENDBRANCH  88  89
ENDBRANCH  81  82
ENDBRANCH  79  81
ENDBRANCH  72  75
ENDBRANCH  70  71
ENDBRANCH  69  70
ENDBRANCH   1  69
TORSDOF 17
ENDMDL
MODEL 3
REMARK VINA RESULT:     -10.6      1.358      8.284
REMARK SMILES O=C(NCCCCNC(=O)c1cccc(Oc2ncc([N+](=O)[O-])cc2Br)c1)c1ccc(-c2c3nc(c(-c4ccc(S(=O)(=O)[O-])cc4)c4ccc([nH]4)c(-c4ccc(S(=O)(=O)[O-])cc4)c4nc(c(-c5ccc(S(=O)(=O)[O-])cc5)c5ccc2[nH]5)C=C4)C=C3)cc1
REMARK SMILES IDX 5 1 4 2 3 3 1 4 2 5 28 7 29 8 87 9 30 10 86 11 31 12 32 13
REMARK SMILES IDX 33 14 80 15 34 16 85 17 79 18 81 19 35 20 84 21 78 22 77 23
REMARK SMILES IDX 36 25 66 26 47 27 65 28 48 29 51 30 64 31 82 32 49 33 50 34
REMARK SMILES IDX 63 36 83 37 52 38 37 39 38 40 46 41 39 42 45 43 40 44 41 45
REMARK SMILES IDX 42 46 43 47 44 48 67 49 68 50 76 51 69 52 75 53 70 54 71 55
REMARK SMILES IDX 72 56 73 57 74 58 53 59 54 60 62 61 55 62 61 63 56 64 57 65
REMARK SMILES IDX 58 66 59 67 60 68 6 69 7 70 8 71 9 72 10 74 11 75 12 76
REMARK SMILES IDX 27 77 13 78 15 79 14 80 16 81 17 82 18 83 25 84 19 85 24 86
REMARK SMILES IDX 26 87 20 88 21 89 22 90 23 91
REMARK H PARENT 3 6 81 24 51 35 8 73
REMARK Flexibility Score: inf
ROOT
ATOM      1  C   UNL A   1      33.628  27.988  25.452  1.00  0.00     0.023 C 
ENDROOT
BRANCH   1   2
ATOM      2  C   UNL A   1      33.725  28.215  26.954  1.00  0.00     0.116 C 
BRANCH   2   3
ATOM      3  N   UNL A   1      33.525  29.608  27.330  1.00  0.00    -0.352 N 
ATOM      4  O   UNL A   1      33.993  31.564  28.354  1.00  0.00    -0.269 OA
ATOM      5  C   UNL A   1      34.387  30.462  27.976  1.00  0.00     0.251 C 
ATOM      6  H   UNL A   1      32.651  29.991  27.089  1.00  0.00     0.163 HD
BRANCH   5   7
ATOM      7  C   UNL A   1      35.777  30.034  28.240  1.00  0.00     0.039 A 
ATOM      8  C   UNL A   1      36.145  29.581  29.507  1.00  0.00     0.014 A 
ATOM      9  C   UNL A   1      36.726  30.115  27.218  1.00  0.00     0.014 A 
ATOM     10  C   UNL A   1      37.487  29.372  29.800  1.00  0.00     0.010 A 
ATOM     11  C   UNL A   1      38.063  29.806  27.489  1.00  0.00     0.010 A 
ATOM     12  C   UNL A   1      38.460  29.466  28.791  1.00  0.00    -0.014 A 
BRANCH  12  13
ATOM     13  C   UNL A   1      39.871  29.130  29.116  1.00  0.00     0.031 A 
ATOM     14  C   UNL A   1      40.768  30.107  29.825  1.00  0.00     0.074 A 
ATOM     15  C   UNL A   1      40.328  27.907  28.784  1.00  0.00     0.049 A 
ATOM     16  N   UNL A   1      42.014  29.952  30.198  1.00  0.00    -0.248 NA
ATOM     17  C   UNL A   1      40.206  31.428  30.152  1.00  0.00     0.031 C 
ATOM     18  C   UNL A   1      39.551  26.878  28.086  1.00  0.00     0.029 A 
ATOM     19  N   UNL A   1      41.542  27.310  29.004  1.00  0.00    -0.354 N 
ATOM     20  C   UNL A   1      42.393  31.156  30.780  1.00  0.00     0.074 A 
ATOM     21  C   UNL A   1      41.250  32.041  30.694  1.00  0.00     0.031 C 
ATOM     22  C   UNL A   1      40.289  25.764  27.980  1.00  0.00     0.029 A 
ATOM     23  C   UNL A   1      41.612  26.019  28.536  1.00  0.00     0.049 A 
ATOM     24  H   UNL A   1      42.293  27.762  29.454  1.00  0.00     0.167 HD
ATOM     25  C   UNL A   1      43.584  31.491  31.335  1.00  0.00     0.031 A 
ATOM     26  C   UNL A   1      42.629  25.140  28.529  1.00  0.00     0.031 A 
ATOM     27  C   UNL A   1      44.716  30.602  31.417  1.00  0.00     0.049 A 
ATOM     28  C   UNL A   1      43.942  25.543  29.132  1.00  0.00     0.074 A 
ATOM     29  C   UNL A   1      45.952  30.837  31.994  1.00  0.00     0.029 A 
ATOM     30  N   UNL A   1      44.754  29.314  30.904  1.00  0.00    -0.354 N 
ATOM     31  N   UNL A   1      44.267  26.676  29.708  1.00  0.00    -0.248 NA
ATOM     32  C   UNL A   1      45.024  24.552  29.085  1.00  0.00     0.031 C 
ATOM     33  C   UNL A   1      46.756  29.712  31.780  1.00  0.00     0.029 A 
ATOM     34  C   UNL A   1      46.002  28.753  31.126  1.00  0.00     0.049 A 
ATOM     35  H   UNL A   1      44.006  28.864  30.449  1.00  0.00     0.167 HD
ATOM     36  C   UNL A   1      45.590  26.528  30.107  1.00  0.00     0.074 A 
ATOM     37  C   UNL A   1      45.995  25.190  29.726  1.00  0.00     0.031 C 
ATOM     38  C   UNL A   1      46.395  27.423  30.731  1.00  0.00     0.031 A 
BRANCH  25  39
ATOM     39  C   UNL A   1      43.743  32.890  31.874  1.00  0.00    -0.014 A 
ATOM     40  C   UNL A   1      44.277  33.924  31.084  1.00  0.00     0.010 A 
ATOM     41  C   UNL A   1      43.290  33.189  33.173  1.00  0.00     0.010 A 
ATOM     42  C   UNL A   1      44.384  35.222  31.594  1.00  0.00     0.020 A 
ATOM     43  C   UNL A   1      43.372  34.491  33.678  1.00  0.00     0.020 A 
ATOM     44  C   UNL A   1      43.934  35.497  32.889  1.00  0.00     0.054 A 
BRANCH  44  45
ATOM     45  S   UNL A   1      44.060  37.196  33.514  1.00  0.00     0.124 S 
ATOM     46  O   UNL A   1      44.014  37.974  32.278  1.00  0.00    -0.237 OA
ATOM     47  O   UNL A   1      42.884  37.311  34.372  1.00  0.00    -0.237 OA
ATOM     48  O   UNL A   1      45.343  37.215  34.213  1.00  0.00    -0.744 OA
ENDBRANCH  44  45
ENDBRANCH  25  39
BRANCH  26  49
ATOM     49  C   UNL A   1      42.437  23.802  27.907  1.00  0.00    -0.014 A 
ATOM     50  C   UNL A   1      42.764  23.583  26.559  1.00  0.00     0.010 A 
ATOM     51  C   UNL A   1      41.964  22.727  28.683  1.00  0.00     0.010 A 
ATOM     52  C   UNL A   1      42.613  22.313  25.994  1.00  0.00     0.020 A 
ATOM     53  C   UNL A   1      41.841  21.451  28.130  1.00  0.00     0.020 A 
ATOM     54  C   UNL A   1      42.157  21.254  26.786  1.00  0.00     0.054 A 
BRANCH  54  55
ATOM     55  S   UNL A   1      42.030  19.601  26.049  1.00  0.00     0.124 S 
ATOM     56  O   UNL A   1      40.610  19.523  25.723  1.00  0.00    -0.237 OA
ATOM     57  O   UNL A   1      42.939  19.693  24.910  1.00  0.00    -0.237 OA
ATOM     58  O   UNL A   1      42.477  18.715  27.122  1.00  0.00    -0.744 OA
ENDBRANCH  54  55
ENDBRANCH  26  49
BRANCH  38  59
ATOM     59  C   UNL A   1      47.793  26.972  31.062  1.00  0.00    -0.014 A 
ATOM     60  C   UNL A   1      48.842  27.116  30.137  1.00  0.00     0.010 A 
ATOM     61  C   UNL A   1      48.063  26.432  32.332  1.00  0.00     0.010 A 
ATOM     62  C   UNL A   1      50.134  26.694  30.466  1.00  0.00     0.020 A 
ATOM     63  C   UNL A   1      49.359  26.036  32.673  1.00  0.00     0.020 A 
ATOM     64  C   UNL A   1      50.383  26.155  31.732  1.00  0.00     0.054 A 
BRANCH  64  65
ATOM     65  S   UNL A   1      52.074  25.648  32.147  1.00  0.00     0.124 S 
ATOM     66  O   UNL A   1      52.838  26.199  31.032  1.00  0.00    -0.237 OA
ATOM     67  O   UNL A   1      52.294  26.293  33.439  1.00  0.00    -0.237 OA
ATOM     68  O   UNL A   1      51.998  24.190  32.190  1.00  0.00    -0.744 OA
ENDBRANCH  64  65
ENDBRANCH  38  59
ENDBRANCH  12  13
ENDBRANCH   5   7
ENDBRANCH   2   3
ENDBRANCH   1   2
BRANCH   1  69
ATOM     69  C   UNL A   1      33.293  29.232  24.633  1.00  0.00     0.023 C 
BRANCH  69  70
ATOM     70  C   UNL A   1      33.235  29.013  23.126  1.00  0.00     0.116 C 
BRANCH  70  71
ATOM     71  N   UNL A   1      31.912  29.273  22.578  1.00  0.00    -0.352 N 
ATOM     72  C   UNL A   1      30.901  28.383  22.332  1.00  0.00     0.251 C 
ATOM     73  H   UNL A   1      31.718  30.213  22.356  1.00  0.00     0.163 HD
ATOM     74  O   UNL A   1      29.900  28.726  21.701  1.00  0.00    -0.269 OA
BRANCH  72  75
ATOM     75  C   UNL A   1      31.008  27.001  22.833  1.00  0.00     0.043 A 
ATOM     76  C   UNL A   1      30.162  26.571  23.855  1.00  0.00     0.014 A 
ATOM     77  C   UNL A   1      31.984  26.146  22.307  1.00  0.00     0.061 A 
ATOM     78  C   UNL A   1      30.255  25.259  24.313  1.00  0.00     0.005 A 
ATOM     79  C   UNL A   1      32.081  24.832  22.764  1.00  0.00     0.130 A 
ATOM     80  C   UNL A   1      31.207  24.392  23.764  1.00  0.00     0.047 A 
BRANCH  79  81
ATOM     81  O   UNL A   1      33.014  23.910  22.336  1.00  0.00    -0.438 OA
BRANCH  81  82
ATOM     82  C   UNL A   1      32.955  22.641  22.872  1.00  0.00     0.234 A 
ATOM     83  N   UNL A   1      32.143  21.772  22.215  1.00  0.00    -0.214 NA
ATOM     84  C   UNL A   1      33.637  22.315  24.047  1.00  0.00     0.087 A 
ATOM     85  C   UNL A   1      32.022  20.524  22.735  1.00  0.00     0.200 A 
ATOM     86  C   UNL A   1      33.532  21.015  24.539  1.00  0.00     0.108 A 
ATOM     87  Br  UNL A   1      34.707  23.561  24.990  1.00  0.00    -0.045 Br
ATOM     88  C   UNL A   1      32.702  20.112  23.872  1.00  0.00     0.288 A 
BRANCH  88  89
ATOM     89  N   UNL A   1      32.528  18.755  24.367  1.00  0.00     0.064 N 
ATOM     90  O   UNL A   1      32.385  18.604  25.586  1.00  0.00    -0.258 OA
ATOM     91  O   UNL A   1      32.548  17.839  23.535  1.00  0.00    -0.258 OA
ENDBRANCH  88  89
ENDBRANCH  81  82
ENDBRANCH  79  81
ENDBRANCH  72  75
ENDBRANCH  70  71
ENDBRANCH  69  70
ENDBRANCH   1  69
TORSDOF 17
ENDMDL
