MODEL 1
REMARK VINA RESULT:     -13.3      0.000      0.000
REMARK SMILES C[C@H]1CCc2sc3ncn4nc(/C=C\C(=O)NCCCCNC(=O)c5ccc(-c6c7nc(c(-c8ccc(S(=O)(=O)[O-])cc8)c8ccc([nH]8)c(-c8ccc(S(=O)(=O)[O-])cc8)c8nc(c(-c9ccc(S(=O)(=O)[O-])cc9)c9ccc6[nH]9)C=C8)C=C7)cc5)nc4c3c2C1
REMARK SMILES IDX 20 1 19 2 18 3 17 4 15 5 16 6 14 8 13 9 12 10 1 11 2 12 3 13
REMARK SMILES IDX 89 14 4 15 88 16 5 17 87 18 6 19 7 20 86 21 8 22 10 23 85 24
REMARK SMILES IDX 9 25 11 26 21 27 22 28 23 29 24 31 25 32 26 33 84 34 27 35
REMARK SMILES IDX 83 36 28 37 29 38 30 39 77 40 31 41 82 42 76 43 78 44 32 45
REMARK SMILES IDX 81 46 75 47 74 48 33 50 63 51 44 52 62 53 45 54 48 55 61 56
REMARK SMILES IDX 79 57 46 58 47 59 60 61 80 62 49 63 34 64 35 65 43 66 36 67
REMARK SMILES IDX 42 68 37 69 38 70 39 71 40 72 41 73 64 74 65 75 73 76 66 77
REMARK SMILES IDX 72 78 67 79 68 80 69 81 70 82 71 83 50 84 51 85 59 86 52 87
REMARK SMILES IDX 58 88 53 89 54 90 55 91 56 92 57 93
REMARK H PARENT 17 7 22 30 78 49 48 60
REMARK Flexibility Score: inf
ROOT
ATOM      1  C   UNL A   1      37.016  22.242  25.152  1.00  0.00     0.023 C 
ENDROOT
BRANCH   1   2
ATOM      2  C   UNL A   1      35.919  22.830  26.123  1.00  0.00     0.023 C 
BRANCH   2   3
ATOM      3  C   UNL A   1      34.896  21.850  26.730  1.00  0.00     0.116 C 
BRANCH   3   4
ATOM      4  N   UNL A   1      34.563  20.670  25.919  1.00  0.00    -0.353 N 
ATOM      5  C   UNL A   1      33.531  20.405  25.058  1.00  0.00     0.244 C 
ATOM      6  O   UNL A   1      33.637  19.457  24.276  1.00  0.00    -0.270 OA
ATOM      7  H   UNL A   1      35.203  19.930  26.013  1.00  0.00     0.163 HD
BRANCH   5   8
ATOM      8  C   UNL A   1      32.208  21.077  25.143  1.00  0.00     0.075 C 
ATOM      9  C   UNL A   1      31.862  22.304  24.717  1.00  0.00     0.057 C 
BRANCH   9  10
ATOM     10  C   UNL A   1      32.742  23.255  24.150  1.00  0.00     0.175 A 
ATOM     11  C   UNL A   1      34.691  29.282  26.945  1.00  0.00     0.008 C 
ATOM     12  C   UNL A   1      33.309  28.719  27.326  1.00  0.00    -0.009 C 
ATOM     13  C   UNL A   1      32.175  29.713  26.968  1.00  0.00     0.009 C 
ATOM     14  C   UNL A   1      33.056  27.343  26.644  1.00  0.00     0.041 C 
ATOM     15  C   UNL A   1      31.981  29.923  25.467  1.00  0.00     0.047 C 
ATOM     16  C   UNL A   1      32.969  27.553  25.175  1.00  0.00    -0.020 A 
ATOM     17  C   UNL A   1      32.497  28.758  24.695  1.00  0.00     0.011 A 
ATOM     18  C   UNL A   1      33.282  26.680  24.095  1.00  0.00     0.060 A 
ATOM     19  S   UNL A   1      32.690  28.876  23.051  1.00  0.00    -0.120 S 
ATOM     20  C   UNL A   1      33.189  27.270  22.853  1.00  0.00     0.129 A 
ATOM     21  C   UNL A   1      33.416  25.215  24.011  1.00  0.00     0.168 A 
ATOM     22  N   UNL A   1      33.277  26.674  21.616  1.00  0.00    -0.225 NA
ATOM     23  N   UNL A   1      33.382  24.639  22.767  1.00  0.00    -0.201 N 
ATOM     24  N   UNL A   1      33.118  24.326  24.918  1.00  0.00    -0.207 NA
ATOM     25  C   UNL A   1      33.327  25.373  21.590  1.00  0.00     0.227 A 
ATOM     26  N   UNL A   1      33.010  23.347  22.838  1.00  0.00    -0.145 NA
ENDBRANCH   9  10
ENDBRANCH   5   8
ENDBRANCH   3   4
ENDBRANCH   2   3
ENDBRANCH   1   2
BRANCH   1  27
ATOM     27  C   UNL A   1      37.928  21.038  25.576  1.00  0.00     0.116 C 
BRANCH  27  28
ATOM     28  N   UNL A   1      39.394  21.398  25.743  1.00  0.00    -0.352 N 
ATOM     29  C   UNL A   1      40.036  21.829  26.932  1.00  0.00     0.251 C 
ATOM     30  H   UNL A   1      39.959  21.322  24.941  1.00  0.00     0.163 HD
ATOM     31  O   UNL A   1      40.458  20.986  27.723  1.00  0.00    -0.269 OA
BRANCH  29  32
ATOM     32  C   UNL A   1      40.455  23.287  27.132  1.00  0.00     0.039 A 
ATOM     33  C   UNL A   1      39.727  24.362  26.616  1.00  0.00     0.014 A 
ATOM     34  C   UNL A   1      41.571  23.630  27.908  1.00  0.00     0.014 A 
ATOM     35  C   UNL A   1      39.963  25.696  27.078  1.00  0.00     0.010 A 
ATOM     36  C   UNL A   1      41.751  24.955  28.429  1.00  0.00     0.010 A 
ATOM     37  C   UNL A   1      40.887  26.012  28.109  1.00  0.00    -0.014 A 
BRANCH  37  38
ATOM     38  C   UNL A   1      40.824  27.376  28.811  1.00  0.00     0.031 A 
ATOM     39  C   UNL A   1      41.792  28.431  28.299  1.00  0.00     0.074 A 
ATOM     40  C   UNL A   1      39.919  27.961  29.660  1.00  0.00     0.049 A 
ATOM     41  N   UNL A   1      42.862  28.909  28.856  1.00  0.00    -0.248 NA
ATOM     42  C   UNL A   1      41.529  29.009  26.975  1.00  0.00     0.031 C 
ATOM     43  C   UNL A   1      38.605  27.498  30.125  1.00  0.00     0.029 A 
ATOM     44  N   UNL A   1      39.991  29.214  30.264  1.00  0.00    -0.354 N 
ATOM     45  C   UNL A   1      43.334  29.940  28.029  1.00  0.00     0.074 A 
ATOM     46  C   UNL A   1      42.531  29.881  26.834  1.00  0.00     0.031 C 
ATOM     47  C   UNL A   1      37.950  28.494  30.772  1.00  0.00     0.029 A 
ATOM     48  C   UNL A   1      38.832  29.637  30.921  1.00  0.00     0.049 A 
ATOM     49  H   UNL A   1      40.806  29.766  30.231  1.00  0.00     0.167 HD
ATOM     50  C   UNL A   1      44.259  30.864  28.433  1.00  0.00     0.031 A 
ATOM     51  C   UNL A   1      38.601  30.808  31.581  1.00  0.00     0.031 A 
ATOM     52  C   UNL A   1      44.842  30.516  29.701  1.00  0.00     0.049 A 
ATOM     53  C   UNL A   1      39.912  31.374  31.962  1.00  0.00     0.074 A 
ATOM     54  C   UNL A   1      45.555  29.450  30.208  1.00  0.00     0.029 A 
ATOM     55  N   UNL A   1      44.430  31.241  30.792  1.00  0.00    -0.354 N 
ATOM     56  N   UNL A   1      40.706  30.838  32.842  1.00  0.00    -0.248 NA
ATOM     57  C   UNL A   1      40.478  32.464  31.188  1.00  0.00     0.031 C 
ATOM     58  C   UNL A   1      45.110  29.320  31.557  1.00  0.00     0.029 A 
ATOM     59  C   UNL A   1      44.190  30.343  31.795  1.00  0.00     0.049 A 
ATOM     60  H   UNL A   1      44.327  32.220  30.842  1.00  0.00     0.167 HD
ATOM     61  C   UNL A   1      41.974  31.224  32.451  1.00  0.00     0.074 A 
ATOM     62  C   UNL A   1      41.761  32.337  31.534  1.00  0.00     0.031 C 
ATOM     63  C   UNL A   1      43.052  30.422  32.688  1.00  0.00     0.031 A 
BRANCH  50  64
ATOM     64  C   UNL A   1      44.447  32.267  27.875  1.00  0.00    -0.014 A 
ATOM     65  C   UNL A   1      45.647  32.567  27.180  1.00  0.00     0.010 A 
ATOM     66  C   UNL A   1      43.641  33.365  28.230  1.00  0.00     0.010 A 
ATOM     67  C   UNL A   1      46.065  33.885  26.952  1.00  0.00     0.020 A 
ATOM     68  C   UNL A   1      44.027  34.688  27.961  1.00  0.00     0.020 A 
ATOM     69  C   UNL A   1      45.258  34.941  27.366  1.00  0.00     0.054 A 
BRANCH  69  70
ATOM     70  S   UNL A   1      45.869  36.639  27.190  1.00  0.00     0.124 S 
ATOM     71  O   UNL A   1      46.683  36.542  25.983  1.00  0.00    -0.237 OA
ATOM     72  O   UNL A   1      44.631  37.404  27.058  1.00  0.00    -0.237 OA
ATOM     73  O   UNL A   1      46.605  36.867  28.430  1.00  0.00    -0.744 OA
ENDBRANCH  69  70
ENDBRANCH  50  64
BRANCH  51  74
ATOM     74  C   UNL A   1      37.353  31.572  31.889  1.00  0.00    -0.014 A 
ATOM     75  C   UNL A   1      37.263  32.401  33.034  1.00  0.00     0.010 A 
ATOM     76  C   UNL A   1      36.365  31.737  30.901  1.00  0.00     0.010 A 
ATOM     77  C   UNL A   1      36.279  33.403  33.146  1.00  0.00     0.020 A 
ATOM     78  C   UNL A   1      35.376  32.732  31.009  1.00  0.00     0.020 A 
ATOM     79  C   UNL A   1      35.354  33.580  32.117  1.00  0.00     0.054 A 
BRANCH  79  80
ATOM     80  S   UNL A   1      34.217  35.003  32.170  1.00  0.00     0.124 S 
ATOM     81  O   UNL A   1      33.044  34.445  32.837  1.00  0.00    -0.237 OA
ATOM     82  O   UNL A   1      34.971  35.987  32.941  1.00  0.00    -0.237 OA
ATOM     83  O   UNL A   1      34.024  35.343  30.761  1.00  0.00    -0.744 OA
ENDBRANCH  79  80
ENDBRANCH  51  74
BRANCH  63  84
ATOM     84  C   UNL A   1      42.941  29.333  33.727  1.00  0.00    -0.014 A 
ATOM     85  C   UNL A   1      43.503  29.421  35.015  1.00  0.00     0.010 A 
ATOM     86  C   UNL A   1      42.087  28.254  33.440  1.00  0.00     0.010 A 
ATOM     87  C   UNL A   1      43.220  28.451  35.987  1.00  0.00     0.020 A 
ATOM     88  C   UNL A   1      41.780  27.298  34.411  1.00  0.00     0.020 A 
ATOM     89  C   UNL A   1      42.349  27.401  35.680  1.00  0.00     0.054 A 
BRANCH  89  90
ATOM     90  S   UNL A   1      41.906  26.211  36.975  1.00  0.00     0.124 S 
ATOM     91  O   UNL A   1      40.590  26.677  37.399  1.00  0.00    -0.237 OA
ATOM     92  O   UNL A   1      41.926  24.935  36.266  1.00  0.00    -0.237 OA
ATOM     93  O   UNL A   1      42.969  26.371  37.973  1.00  0.00    -0.744 OA
ENDBRANCH  89  90
ENDBRANCH  63  84
ENDBRANCH  37  38
ENDBRANCH  29  32
ENDBRANCH  27  28
ENDBRANCH   1  27
TORSDOF 15
ENDMDL
MODEL 2
REMARK VINA RESULT:     -13.0      1.855      2.748
REMARK SMILES C[C@H]1CCc2sc3ncn4nc(/C=C\C(=O)NCCCCNC(=O)c5ccc(-c6c7nc(c(-c8ccc(S(=O)(=O)[O-])cc8)c8ccc([nH]8)c(-c8ccc(S(=O)(=O)[O-])cc8)c8nc(c(-c9ccc(S(=O)(=O)[O-])cc9)c9ccc6[nH]9)C=C8)C=C7)cc5)nc4c3c2C1
REMARK SMILES IDX 20 1 19 2 18 3 17 4 15 5 16 6 14 8 13 9 12 10 1 11 2 12 3 13
REMARK SMILES IDX 89 14 4 15 88 16 5 17 87 18 6 19 7 20 86 21 8 22 10 23 85 24
REMARK SMILES IDX 9 25 11 26 21 27 22 28 23 29 24 31 25 32 26 33 84 34 27 35
REMARK SMILES IDX 83 36 28 37 29 38 30 39 77 40 31 41 82 42 76 43 78 44 32 45
REMARK SMILES IDX 81 46 75 47 74 48 33 50 63 51 44 52 62 53 45 54 48 55 61 56
REMARK SMILES IDX 79 57 46 58 47 59 60 61 80 62 49 63 34 64 35 65 43 66 36 67
REMARK SMILES IDX 42 68 37 69 38 70 39 71 40 72 41 73 64 74 65 75 73 76 66 77
REMARK SMILES IDX 72 78 67 79 68 80 69 81 70 82 71 83 50 84 51 85 59 86 52 87
REMARK SMILES IDX 58 88 53 89 54 90 55 91 56 92 57 93
REMARK H PARENT 17 7 22 30 78 49 48 60
REMARK Flexibility Score: inf
ROOT
ATOM      1  C   UNL A   1      39.743  22.077  26.886  1.00  0.00     0.023 C 
ENDROOT
BRANCH   1   2
ATOM      2  C   UNL A   1      38.767  23.099  26.184  1.00  0.00     0.023 C 
BRANCH   2   3
ATOM      3  C   UNL A   1      37.528  22.532  25.464  1.00  0.00     0.116 C 
BRANCH   3   4
ATOM      4  N   UNL A   1      36.273  22.531  26.228  1.00  0.00    -0.353 N 
ATOM      5  C   UNL A   1      35.253  21.622  26.326  1.00  0.00     0.244 C 
ATOM      6  O   UNL A   1      34.455  21.720  27.260  1.00  0.00    -0.270 OA
ATOM      7  H   UNL A   1      36.140  23.338  26.774  1.00  0.00     0.163 HD
BRANCH   5   8
ATOM      8  C   UNL A   1      34.940  20.634  25.259  1.00  0.00     0.075 C 
ATOM      9  C   UNL A   1      33.843  20.552  24.488  1.00  0.00     0.057 C 
BRANCH   9  10
ATOM     10  C   UNL A   1      32.699  21.376  24.597  1.00  0.00     0.175 A 
ATOM     11  C   UNL A   1      32.090  27.932  22.456  1.00  0.00     0.008 C 
ATOM     12  C   UNL A   1      33.486  27.430  22.867  1.00  0.00    -0.009 C 
ATOM     13  C   UNL A   1      34.078  28.284  24.016  1.00  0.00     0.009 C 
ATOM     14  C   UNL A   1      33.445  25.928  23.276  1.00  0.00     0.041 C 
ATOM     15  C   UNL A   1      33.335  28.144  25.343  1.00  0.00     0.047 C 
ATOM     16  C   UNL A   1      32.635  25.798  24.515  1.00  0.00    -0.020 A 
ATOM     17  C   UNL A   1      32.600  26.850  25.409  1.00  0.00     0.011 A 
ATOM     18  C   UNL A   1      31.850  24.714  24.998  1.00  0.00     0.060 A 
ATOM     19  S   UNL A   1      31.472  26.600  26.600  1.00  0.00    -0.120 S 
ATOM     20  C   UNL A   1      31.134  25.005  26.139  1.00  0.00     0.129 A 
ATOM     21  C   UNL A   1      31.857  23.272  24.694  1.00  0.00     0.168 A 
ATOM     22  N   UNL A   1      30.408  24.149  26.934  1.00  0.00    -0.225 NA
ATOM     23  N   UNL A   1      31.222  22.430  25.570  1.00  0.00    -0.201 N 
ATOM     24  N   UNL A   1      32.725  22.603  23.987  1.00  0.00    -0.207 NA
ATOM     25  C   UNL A   1      30.497  22.877  26.667  1.00  0.00     0.227 A 
ATOM     26  N   UNL A   1      31.707  21.177  25.479  1.00  0.00    -0.145 NA
ENDBRANCH   9  10
ENDBRANCH   5   8
ENDBRANCH   3   4
ENDBRANCH   2   3
ENDBRANCH   1   2
BRANCH   1  27
ATOM     27  C   UNL A   1      40.834  21.294  26.076  1.00  0.00     0.116 C 
BRANCH  27  28
ATOM     28  N   UNL A   1      41.887  22.180  25.435  1.00  0.00    -0.352 N 
ATOM     29  C   UNL A   1      42.992  22.795  26.080  1.00  0.00     0.251 C 
ATOM     30  H   UNL A   1      41.794  22.346  24.469  1.00  0.00     0.163 HD
ATOM     31  O   UNL A   1      44.036  22.157  26.214  1.00  0.00    -0.269 OA
BRANCH  29  32
ATOM     32  C   UNL A   1      43.016  24.296  26.370  1.00  0.00     0.039 A 
ATOM     33  C   UNL A   1      42.247  25.219  25.655  1.00  0.00     0.014 A 
ATOM     34  C   UNL A   1      43.773  24.828  27.423  1.00  0.00     0.014 A 
ATOM     35  C   UNL A   1      42.055  26.548  26.146  1.00  0.00     0.010 A 
ATOM     36  C   UNL A   1      43.512  26.135  27.956  1.00  0.00     0.010 A 
ATOM     37  C   UNL A   1      42.566  27.002  27.391  1.00  0.00    -0.014 A 
BRANCH  37  38
ATOM     38  C   UNL A   1      42.019  28.287  28.028  1.00  0.00     0.031 A 
ATOM     39  C   UNL A   1      42.923  29.507  27.941  1.00  0.00     0.074 A 
ATOM     40  C   UNL A   1      40.777  28.670  28.469  1.00  0.00     0.049 A 
ATOM     41  N   UNL A   1      43.608  30.095  28.872  1.00  0.00    -0.248 NA
ATOM     42  C   UNL A   1      43.090  30.135  26.624  1.00  0.00     0.031 C 
ATOM     43  C   UNL A   1      39.481  27.987  28.386  1.00  0.00     0.029 A 
ATOM     44  N   UNL A   1      40.410  29.873  29.067  1.00  0.00    -0.354 N 
ATOM     45  C   UNL A   1      44.183  31.242  28.302  1.00  0.00     0.074 A 
ATOM     46  C   UNL A   1      43.914  31.152  26.889  1.00  0.00     0.031 C 
ATOM     47  C   UNL A   1      38.475  28.826  28.742  1.00  0.00     0.029 A 
ATOM     48  C   UNL A   1      39.035  30.073  29.231  1.00  0.00     0.049 A 
ATOM     49  H   UNL A   1      41.074  30.539  29.356  1.00  0.00     0.167 HD
ATOM     50  C   UNL A   1      44.721  32.260  29.041  1.00  0.00     0.031 A 
ATOM     51  C   UNL A   1      38.384  31.145  29.763  1.00  0.00     0.031 A 
ATOM     52  C   UNL A   1      44.829  31.910  30.432  1.00  0.00     0.049 A 
ATOM     53  C   UNL A   1      39.341  31.869  30.625  1.00  0.00     0.074 A 
ATOM     54  C   UNL A   1      45.461  30.927  31.164  1.00  0.00     0.029 A 
ATOM     55  N   UNL A   1      43.921  32.486  31.287  1.00  0.00    -0.354 N 
ATOM     56  N   UNL A   1      39.818  31.393  31.738  1.00  0.00    -0.248 NA
ATOM     57  C   UNL A   1      39.972  33.084  30.141  1.00  0.00     0.031 C 
ATOM     58  C   UNL A   1      44.565  30.635  32.235  1.00  0.00     0.029 A 
ATOM     59  C   UNL A   1      43.469  31.492  32.111  1.00  0.00     0.049 A 
ATOM     60  H   UNL A   1      43.649  33.433  31.304  1.00  0.00     0.167 HD
ATOM     61  C   UNL A   1      41.058  31.988  31.871  1.00  0.00     0.074 A 
ATOM     62  C   UNL A   1      41.030  33.121  30.954  1.00  0.00     0.031 C 
ATOM     63  C   UNL A   1      42.081  31.339  32.496  1.00  0.00     0.031 A 
BRANCH  50  64
ATOM     64  C   UNL A   1      44.875  33.713  28.614  1.00  0.00    -0.014 A 
ATOM     65  C   UNL A   1      46.142  34.332  28.757  1.00  0.00     0.010 A 
ATOM     66  C   UNL A   1      43.790  34.567  28.340  1.00  0.00     0.010 A 
ATOM     67  C   UNL A   1      46.296  35.726  28.736  1.00  0.00     0.020 A 
ATOM     68  C   UNL A   1      43.942  35.961  28.267  1.00  0.00     0.020 A 
ATOM     69  C   UNL A   1      45.186  36.533  28.512  1.00  0.00     0.054 A 
BRANCH  69  70
ATOM     70  S   UNL A   1      45.368  38.334  28.622  1.00  0.00     0.124 S 
ATOM     71  O   UNL A   1      44.007  38.790  28.357  1.00  0.00    -0.237 OA
ATOM     72  O   UNL A   1      45.838  38.517  29.993  1.00  0.00    -0.237 OA
ATOM     73  O   UNL A   1      46.349  38.642  27.586  1.00  0.00    -0.744 OA
ENDBRANCH  69  70
ENDBRANCH  50  64
BRANCH  51  74
ATOM     74  C   UNL A   1      37.005  31.694  29.574  1.00  0.00    -0.014 A 
ATOM     75  C   UNL A   1      36.239  32.150  30.674  1.00  0.00     0.010 A 
ATOM     76  C   UNL A   1      36.563  32.062  28.289  1.00  0.00     0.010 A 
ATOM     77  C   UNL A   1      35.129  33.001  30.500  1.00  0.00     0.020 A 
ATOM     78  C   UNL A   1      35.453  32.907  28.108  1.00  0.00     0.020 A 
ATOM     79  C   UNL A   1      34.758  33.397  29.215  1.00  0.00     0.054 A 
BRANCH  79  80
ATOM     80  S   UNL A   1      33.457  34.656  29.006  1.00  0.00     0.124 S 
ATOM     81  O   UNL A   1      32.524  33.998  28.095  1.00  0.00    -0.237 OA
ATOM     82  O   UNL A   1      32.974  34.846  30.372  1.00  0.00    -0.237 OA
ATOM     83  O   UNL A   1      34.171  35.800  28.442  1.00  0.00    -0.744 OA
ENDBRANCH  79  80
ENDBRANCH  51  74
BRANCH  63  84
ATOM     84  C   UNL A   1      41.765  30.172  33.401  1.00  0.00    -0.014 A 
ATOM     85  C   UNL A   1      41.471  28.878  32.934  1.00  0.00     0.010 A 
ATOM     86  C   UNL A   1      41.945  30.362  34.783  1.00  0.00     0.010 A 
ATOM     87  C   UNL A   1      41.355  27.803  33.827  1.00  0.00     0.020 A 
ATOM     88  C   UNL A   1      41.856  29.293  35.676  1.00  0.00     0.020 A 
ATOM     89  C   UNL A   1      41.560  28.018  35.194  1.00  0.00     0.054 A 
BRANCH  89  90
ATOM     90  S   UNL A   1      41.513  26.604  36.329  1.00  0.00     0.124 S 
ATOM     91  O   UNL A   1      40.718  27.114  37.441  1.00  0.00    -0.237 OA
ATOM     92  O   UNL A   1      40.880  25.562  35.526  1.00  0.00    -0.237 OA
ATOM     93  O   UNL A   1      42.925  26.360  36.640  1.00  0.00    -0.744 OA
ENDBRANCH  89  90
ENDBRANCH  63  84
ENDBRANCH  37  38
ENDBRANCH  29  32
ENDBRANCH  27  28
ENDBRANCH   1  27
TORSDOF 15
ENDMDL
MODEL 3
REMARK VINA RESULT:     -12.5      3.179      9.713
REMARK SMILES C[C@H]1CCc2sc3ncn4nc(/C=C\C(=O)NCCCCNC(=O)c5ccc(-c6c7nc(c(-c8ccc(S(=O)(=O)[O-])cc8)c8ccc([nH]8)c(-c8ccc(S(=O)(=O)[O-])cc8)c8nc(c(-c9ccc(S(=O)(=O)[O-])cc9)c9ccc6[nH]9)C=C8)C=C7)cc5)nc4c3c2C1
REMARK SMILES IDX 20 1 19 2 18 3 17 4 15 5 16 6 14 8 13 9 12 10 1 11 2 12 3 13
REMARK SMILES IDX 89 14 4 15 88 16 5 17 87 18 6 19 7 20 86 21 8 22 10 23 85 24
REMARK SMILES IDX 9 25 11 26 21 27 22 28 23 29 24 31 25 32 26 33 84 34 27 35
REMARK SMILES IDX 83 36 28 37 29 38 30 39 77 40 31 41 82 42 76 43 78 44 32 45
REMARK SMILES IDX 81 46 75 47 74 48 33 50 63 51 44 52 62 53 45 54 48 55 61 56
REMARK SMILES IDX 79 57 46 58 47 59 60 61 80 62 49 63 34 64 35 65 43 66 36 67
REMARK SMILES IDX 42 68 37 69 38 70 39 71 40 72 41 73 64 74 65 75 73 76 66 77
REMARK SMILES IDX 72 78 67 79 68 80 69 81 70 82 71 83 50 84 51 85 59 86 52 87
REMARK SMILES IDX 58 88 53 89 54 90 55 91 56 92 57 93
REMARK H PARENT 17 7 22 30 78 49 48 60
REMARK Flexibility Score: inf
ROOT
ATOM      1  C   UNL A   1      32.409  30.096  27.134  1.00  0.00     0.023 C 
ENDROOT
BRANCH   1   2
ATOM      2  C   UNL A   1      32.717  28.968  26.074  1.00  0.00     0.023 C 
BRANCH   2   3
ATOM      3  C   UNL A   1      32.554  29.318  24.582  1.00  0.00     0.116 C 
BRANCH   3   4
ATOM      4  N   UNL A   1      31.193  29.643  24.134  1.00  0.00    -0.353 N 
ATOM      5  C   UNL A   1      30.246  28.917  23.461  1.00  0.00     0.244 C 
ATOM      6  O   UNL A   1      29.079  29.313  23.466  1.00  0.00    -0.270 OA
ATOM      7  H   UNL A   1      30.908  30.557  24.359  1.00  0.00     0.163 HD
BRANCH   5   8
ATOM      8  C   UNL A   1      30.580  27.779  22.565  1.00  0.00     0.075 C 
ATOM      9  C   UNL A   1      31.044  26.562  22.893  1.00  0.00     0.057 C 
BRANCH   9  10
ATOM     10  C   UNL A   1      31.387  26.137  24.197  1.00  0.00     0.175 A 
ATOM     11  C   UNL A   1      37.490  23.602  26.262  1.00  0.00     0.008 C 
ATOM     12  C   UNL A   1      37.075  23.390  24.794  1.00  0.00    -0.009 C 
ATOM     13  C   UNL A   1      37.028  21.883  24.432  1.00  0.00     0.009 C 
ATOM     14  C   UNL A   1      35.703  24.060  24.495  1.00  0.00     0.041 C 
ATOM     15  C   UNL A   1      35.922  21.106  25.144  1.00  0.00     0.047 C 
ATOM     16  C   UNL A   1      34.652  23.353  25.274  1.00  0.00    -0.020 A 
ATOM     17  C   UNL A   1      34.818  22.013  25.564  1.00  0.00     0.011 A 
ATOM     18  C   UNL A   1      33.415  23.822  25.797  1.00  0.00     0.060 A 
ATOM     19  S   UNL A   1      33.661  21.473  26.623  1.00  0.00    -0.120 S 
ATOM     20  C   UNL A   1      32.751  22.901  26.578  1.00  0.00     0.129 A 
ATOM     21  C   UNL A   1      32.568  24.979  25.454  1.00  0.00     0.168 A 
ATOM     22  N   UNL A   1      31.482  22.981  27.100  1.00  0.00    -0.225 NA
ATOM     23  N   UNL A   1      31.269  24.974  25.892  1.00  0.00    -0.201 N 
ATOM     24  N   UNL A   1      32.691  25.795  24.444  1.00  0.00    -0.207 NA
ATOM     25  C   UNL A   1      30.747  23.987  26.717  1.00  0.00     0.227 A 
ATOM     26  N   UNL A   1      30.495  25.771  25.131  1.00  0.00    -0.145 NA
ENDBRANCH   9  10
ENDBRANCH   5   8
ENDBRANCH   3   4
ENDBRANCH   2   3
ENDBRANCH   1   2
BRANCH   1  27
ATOM     27  C   UNL A   1      33.348  31.341  27.305  1.00  0.00     0.116 C 
BRANCH  27  28
ATOM     28  N   UNL A   1      33.827  31.567  28.728  1.00  0.00    -0.352 N 
ATOM     29  C   UNL A   1      34.989  32.273  29.134  1.00  0.00     0.251 C 
ATOM     30  H   UNL A   1      33.273  31.184  29.445  1.00  0.00     0.163 HD
ATOM     31  O   UNL A   1      34.928  33.494  29.274  1.00  0.00    -0.269 OA
BRANCH  29  32
ATOM     32  C   UNL A   1      36.228  31.543  29.655  1.00  0.00     0.039 A 
ATOM     33  C   UNL A   1      36.270  30.159  29.842  1.00  0.00     0.014 A 
ATOM     34  C   UNL A   1      37.425  32.224  29.919  1.00  0.00     0.014 A 
ATOM     35  C   UNL A   1      37.516  29.482  30.026  1.00  0.00     0.010 A 
ATOM     36  C   UNL A   1      38.680  31.535  30.021  1.00  0.00     0.010 A 
ATOM     37  C   UNL A   1      38.775  30.137  29.975  1.00  0.00    -0.014 A 
BRANCH  37  38
ATOM     38  C   UNL A   1      40.064  29.321  29.801  1.00  0.00     0.031 A 
ATOM     39  C   UNL A   1      40.868  29.073  31.069  1.00  0.00     0.074 A 
ATOM     40  C   UNL A   1      40.561  28.544  28.786  1.00  0.00     0.049 A 
ATOM     41  N   UNL A   1      41.999  29.586  31.442  1.00  0.00    -0.248 NA
ATOM     42  C   UNL A   1      40.311  28.136  32.053  1.00  0.00     0.031 C 
ATOM     43  C   UNL A   1      39.959  28.135  27.511  1.00  0.00     0.029 A 
ATOM     44  N   UNL A   1      41.779  27.869  28.737  1.00  0.00    -0.354 N 
ATOM     45  C   UNL A   1      42.371  28.945  32.635  1.00  0.00     0.074 A 
ATOM     46  C   UNL A   1      41.238  28.139  33.014  1.00  0.00     0.031 C 
ATOM     47  C   UNL A   1      40.712  27.177  26.913  1.00  0.00     0.029 A 
ATOM     48  C   UNL A   1      41.940  26.987  27.663  1.00  0.00     0.049 A 
ATOM     49  H   UNL A   1      42.481  28.004  29.414  1.00  0.00     0.167 HD
ATOM     50  C   UNL A   1      43.633  29.007  33.159  1.00  0.00     0.031 A 
ATOM     51  C   UNL A   1      43.003  26.188  27.364  1.00  0.00     0.031 A 
ATOM     52  C   UNL A   1      44.447  29.976  32.476  1.00  0.00     0.049 A 
ATOM     53  C   UNL A   1      44.190  26.749  28.040  1.00  0.00     0.074 A 
ATOM     54  C   UNL A   1      44.386  31.332  32.234  1.00  0.00     0.029 A 
ATOM     55  N   UNL A   1      45.405  29.487  31.622  1.00  0.00    -0.354 N 
ATOM     56  N   UNL A   1      44.739  27.885  27.720  1.00  0.00    -0.248 NA
ATOM     57  C   UNL A   1      44.675  26.142  29.267  1.00  0.00     0.031 C 
ATOM     58  C   UNL A   1      44.933  31.495  30.926  1.00  0.00     0.029 A 
ATOM     59  C   UNL A   1      45.332  30.234  30.478  1.00  0.00     0.049 A 
ATOM     60  H   UNL A   1      46.026  28.743  31.798  1.00  0.00     0.167 HD
ATOM     61  C   UNL A   1      45.316  28.337  28.891  1.00  0.00     0.074 A 
ATOM     62  C   UNL A   1      45.379  27.165  29.756  1.00  0.00     0.031 C 
ATOM     63  C   UNL A   1      45.423  29.673  29.146  1.00  0.00     0.031 A 
BRANCH  50  64
ATOM     64  C   UNL A   1      44.286  27.989  34.084  1.00  0.00    -0.014 A 
ATOM     65  C   UNL A   1      44.391  26.644  33.647  1.00  0.00     0.010 A 
ATOM     66  C   UNL A   1      44.548  28.225  35.446  1.00  0.00     0.010 A 
ATOM     67  C   UNL A   1      44.636  25.589  34.537  1.00  0.00     0.020 A 
ATOM     68  C   UNL A   1      44.844  27.181  36.337  1.00  0.00     0.020 A 
ATOM     69  C   UNL A   1      44.839  25.866  35.886  1.00  0.00     0.054 A 
BRANCH  69  70
ATOM     70  S   UNL A   1      45.018  24.488  37.051  1.00  0.00     0.124 S 
ATOM     71  O   UNL A   1      44.579  23.354  36.245  1.00  0.00    -0.237 OA
ATOM     72  O   UNL A   1      46.445  24.526  37.363  1.00  0.00    -0.237 OA
ATOM     73  O   UNL A   1      44.135  24.857  38.154  1.00  0.00    -0.744 OA
ENDBRANCH  69  70
ENDBRANCH  50  64
BRANCH  51  74
ATOM     74  C   UNL A   1      43.130  24.913  26.592  1.00  0.00    -0.014 A 
ATOM     75  C   UNL A   1      43.876  24.855  25.389  1.00  0.00     0.010 A 
ATOM     76  C   UNL A   1      42.787  23.688  27.192  1.00  0.00     0.010 A 
ATOM     77  C   UNL A   1      44.326  23.630  24.857  1.00  0.00     0.020 A 
ATOM     78  C   UNL A   1      43.229  22.461  26.663  1.00  0.00     0.020 A 
ATOM     79  C   UNL A   1      44.021  22.438  25.515  1.00  0.00     0.054 A 
BRANCH  79  80
ATOM     80  S   UNL A   1      44.773  20.881  24.941  1.00  0.00     0.124 S 
ATOM     81  O   UNL A   1      43.946  19.870  25.594  1.00  0.00    -0.237 OA
ATOM     82  O   UNL A   1      44.630  20.971  23.490  1.00  0.00    -0.237 OA
ATOM     83  O   UNL A   1      46.150  20.963  25.428  1.00  0.00    -0.744 OA
ENDBRANCH  79  80
ENDBRANCH  51  74
BRANCH  63  84
ATOM     84  C   UNL A   1      45.306  30.650  28.000  1.00  0.00    -0.014 A 
ATOM     85  C   UNL A   1      44.088  30.982  27.379  1.00  0.00     0.010 A 
ATOM     86  C   UNL A   1      46.456  31.385  27.661  1.00  0.00     0.010 A 
ATOM     87  C   UNL A   1      44.024  32.020  26.438  1.00  0.00     0.020 A 
ATOM     88  C   UNL A   1      46.395  32.436  26.745  1.00  0.00     0.020 A 
ATOM     89  C   UNL A   1      45.179  32.749  26.136  1.00  0.00     0.054 A 
BRANCH  89  90
ATOM     90  S   UNL A   1      45.066  34.157  25.000  1.00  0.00     0.124 S 
ATOM     91  O   UNL A   1      44.130  35.043  25.682  1.00  0.00    -0.237 OA
ATOM     92  O   UNL A   1      46.445  34.630  24.928  1.00  0.00    -0.237 OA
ATOM     93  O   UNL A   1      44.561  33.562  23.758  1.00  0.00    -0.744 OA
ENDBRANCH  89  90
ENDBRANCH  63  84
ENDBRANCH  37  38
ENDBRANCH  29  32
ENDBRANCH  27  28
ENDBRANCH   1  27
TORSDOF 15
ENDMDL
