MODEL 1
REMARK VINA RESULT:     -11.7      0.000      0.000
REMARK SMILES CCc1c(C)nn(CC(=O)N[C@H](C(=O)NCCCCNC(=O)c2ccc(-c3c4nc(c(-c5ccc(S(=O)(=O)[O-])cc5)c5ccc([nH]5)c(-c5ccc(S(=O)(=O)[O-])cc5)c5nc(c(-c6ccc(S(=O)(=O)[O-])cc6)c6ccc3[nH]6)C=C5)C=C4)cc2)c2c(C)n[nH]c2C)c1C
REMARK SMILES IDX 17 1 16 2 15 3 13 4 14 5 12 7 11 8 9 9 10 10 8 12 7 13 3 14
REMARK SMILES IDX 4 15 90 16 5 17 6 18 91 19 2 20 1 21 83 22 84 23 88 24 85 25
REMARK SMILES IDX 86 26 87 27 89 28 18 30 19 31 20 32 21 33 22 35 23 36 24 37
REMARK SMILES IDX 82 38 25 39 81 40 26 41 27 42 28 43 75 44 29 45 80 46 74 47
REMARK SMILES IDX 76 48 30 49 79 50 73 51 72 52 31 54 61 55 42 56 60 57 43 58
REMARK SMILES IDX 46 59 59 60 77 61 44 62 45 63 58 65 78 66 47 67 32 68 33 69
REMARK SMILES IDX 41 70 34 71 40 72 35 73 36 74 37 75 38 76 39 77 62 78 63 79
REMARK SMILES IDX 71 80 64 81 70 82 65 83 66 84 67 85 68 86 69 87 48 88 49 89
REMARK SMILES IDX 57 90 50 91 56 92 51 93 52 94 53 95 54 96 55 97
REMARK H PARENT 15 6 11 11 87 29 20 34 76 53 46 64
REMARK Flexibility Score: inf
ROOT
ATOM      1  C   UNL A   1      33.396  28.458  27.000  1.00  0.00     0.023 C 
ENDROOT
BRANCH   1   2
ATOM      2  C   UNL A   1      31.873  28.606  27.043  1.00  0.00     0.116 C 
BRANCH   2   3
ATOM      3  N   UNL A   1      31.232  27.306  27.072  1.00  0.00    -0.354 N 
ATOM      4  C   UNL A   1      30.800  26.494  26.065  1.00  0.00     0.247 C 
ATOM      5  O   UNL A   1      29.768  25.862  26.324  1.00  0.00    -0.272 OA
ATOM      6  H   UNL A   1      31.083  26.946  27.975  1.00  0.00     0.163 HD
BRANCH   4   7
ATOM      7  C   UNL A   1      31.480  26.371  24.666  1.00  0.00     0.206 C 
BRANCH   7   8
ATOM      8  N   UNL A   1      31.205  25.186  23.857  1.00  0.00    -0.339 N 
ATOM      9  C   UNL A   1      31.724  23.925  23.902  1.00  0.00     0.242 C 
ATOM     10  O   UNL A   1      31.422  23.178  22.962  1.00  0.00    -0.273 OA
ATOM     11  H   UNL A   1      30.526  25.322  23.157  1.00  0.00     0.164 HD
BRANCH   9  12
ATOM     12  C   UNL A   1      32.455  23.366  25.109  1.00  0.00     0.244 C 
BRANCH  12  13
ATOM     13  N   UNL A   1      33.793  22.863  24.868  1.00  0.00    -0.260 N 
ATOM     14  C   UNL A   1      35.770  21.925  25.082  1.00  0.00    -0.004 A 
ATOM     15  C   UNL A   1      35.667  22.687  23.888  1.00  0.00     0.063 A 
ATOM     16  C   UNL A   1      34.484  21.922  25.596  1.00  0.00     0.039 A 
ATOM     17  C   UNL A   1      36.694  22.943  22.847  1.00  0.00     0.069 C 
ATOM     18  N   UNL A   1      34.458  23.248  23.764  1.00  0.00    -0.177 NA
ATOM     19  C   UNL A   1      33.930  21.157  26.740  1.00  0.00     0.066 C 
BRANCH  14  20
ATOM     20  C   UNL A   1      36.963  21.252  25.675  1.00  0.00     0.036 C 
ATOM     21  C   UNL A   1      37.323  19.981  24.909  1.00  0.00     0.009 C 
ENDBRANCH  14  20
ENDBRANCH  12  13
ENDBRANCH   9  12
ENDBRANCH   7   8
BRANCH   7  22
ATOM     22  C   UNL A   1      31.191  27.570  23.757  1.00  0.00     0.027 A 
ATOM     23  C   UNL A   1      29.954  28.084  23.231  1.00  0.00     0.065 A 
ATOM     24  C   UNL A   1      32.139  28.442  23.226  1.00  0.00     0.038 A 
ATOM     25  C   UNL A   1      28.553  27.610  23.389  1.00  0.00     0.069 C 
ATOM     26  N   UNL A   1      30.144  29.179  22.483  1.00  0.00    -0.180 NA
ATOM     27  N   UNL A   1      31.457  29.384  22.517  1.00  0.00    -0.282 N 
ATOM     28  C   UNL A   1      33.615  28.505  23.324  1.00  0.00     0.066 C 
ATOM     29  H   UNL A   1      31.894  30.145  22.073  1.00  0.00     0.190 HD
ENDBRANCH   7  22
ENDBRANCH   4   7
ENDBRANCH   2   3
ENDBRANCH   1   2
BRANCH   1  30
ATOM     30  C   UNL A   1      34.189  29.762  27.114  1.00  0.00     0.023 C 
BRANCH  30  31
ATOM     31  C   UNL A   1      35.478  29.653  27.913  1.00  0.00     0.116 C 
BRANCH  31  32
ATOM     32  N   UNL A   1      35.357  30.223  29.245  1.00  0.00    -0.352 N 
ATOM     33  C   UNL A   1      36.332  30.403  30.198  1.00  0.00     0.251 C 
ATOM     34  H   UNL A   1      34.454  30.521  29.500  1.00  0.00     0.163 HD
ATOM     35  O   UNL A   1      36.020  30.768  31.328  1.00  0.00    -0.269 OA
BRANCH  33  36
ATOM     36  C   UNL A   1      37.746  30.124  29.865  1.00  0.00     0.039 A 
ATOM     37  C   UNL A   1      38.612  29.714  30.882  1.00  0.00     0.014 A 
ATOM     38  C   UNL A   1      38.211  30.249  28.553  1.00  0.00     0.014 A 
ATOM     39  C   UNL A   1      39.929  29.366  30.572  1.00  0.00     0.010 A 
ATOM     40  C   UNL A   1      39.498  29.829  28.234  1.00  0.00     0.010 A 
ATOM     41  C   UNL A   1      40.371  29.390  29.240  1.00  0.00    -0.014 A 
BRANCH  41  42
ATOM     42  C   UNL A   1      41.743  28.959  28.871  1.00  0.00     0.031 A 
ATOM     43  C   UNL A   1      42.861  29.964  28.825  1.00  0.00     0.074 A 
ATOM     44  C   UNL A   1      41.960  27.689  28.481  1.00  0.00     0.049 A 
ATOM     45  N   UNL A   1      44.102  29.800  28.445  1.00  0.00    -0.248 NA
ATOM     46  C   UNL A   1      42.530  31.341  29.224  1.00  0.00     0.031 C 
ATOM     47  C   UNL A   1      40.944  26.637  28.413  1.00  0.00     0.029 A 
ATOM     48  N   UNL A   1      43.107  27.073  28.046  1.00  0.00    -0.354 N 
ATOM     49  C   UNL A   1      44.690  31.057  28.523  1.00  0.00     0.074 A 
ATOM     50  C   UNL A   1      43.658  31.979  28.948  1.00  0.00     0.031 C 
ATOM     51  C   UNL A   1      41.515  25.503  27.975  1.00  0.00     0.029 A 
ATOM     52  C   UNL A   1      42.926  25.754  27.701  1.00  0.00     0.049 A 
ATOM     53  H   UNL A   1      43.976  27.531  27.987  1.00  0.00     0.167 HD
ATOM     54  C   UNL A   1      45.974  31.411  28.279  1.00  0.00     0.031 A 
ATOM     55  C   UNL A   1      43.796  24.849  27.213  1.00  0.00     0.031 A 
ATOM     56  C   UNL A   1      47.002  30.488  27.883  1.00  0.00     0.049 A 
ATOM     57  C   UNL A   1      45.229  25.245  27.001  1.00  0.00     0.074 A 
ATOM     58  C   UNL A   1      48.352  30.729  27.699  1.00  0.00     0.029 A 
ATOM     59  N   UNL A   1      46.792  29.146  27.603  1.00  0.00    -0.354 N 
ATOM     60  N   UNL A   1      45.788  26.419  27.171  1.00  0.00    -0.248 NA
ATOM     61  C   UNL A   1      46.149  24.193  26.551  1.00  0.00     0.031 C 
ATOM     62  C   UNL A   1      48.952  29.538  27.269  1.00  0.00     0.029 A 
ATOM     63  C   UNL A   1      47.982  28.548  27.227  1.00  0.00     0.049 A 
ATOM     64  H   UNL A   1      45.923  28.686  27.663  1.00  0.00     0.167 HD
ATOM     65  C   UNL A   1      47.132  26.245  26.861  1.00  0.00     0.074 A 
ATOM     66  C   UNL A   1      47.302  24.848  26.509  1.00  0.00     0.031 C 
ATOM     67  C   UNL A   1      48.134  27.159  26.869  1.00  0.00     0.031 A 
BRANCH  54  68
ATOM     68  C   UNL A   1      46.321  32.869  28.423  1.00  0.00    -0.014 A 
ATOM     69  C   UNL A   1      46.141  33.770  27.357  1.00  0.00     0.010 A 
ATOM     70  C   UNL A   1      46.854  33.342  29.635  1.00  0.00     0.010 A 
ATOM     71  C   UNL A   1      46.555  35.100  27.477  1.00  0.00     0.020 A 
ATOM     72  C   UNL A   1      47.243  34.678  29.769  1.00  0.00     0.020 A 
ATOM     73  C   UNL A   1      47.117  35.542  28.678  1.00  0.00     0.054 A 
BRANCH  73  74
ATOM     74  S   UNL A   1      47.675  37.263  28.802  1.00  0.00     0.124 S 
ATOM     75  O   UNL A   1      47.267  37.612  30.160  1.00  0.00    -0.237 OA
ATOM     76  O   UNL A   1      49.116  37.153  28.589  1.00  0.00    -0.237 OA
ATOM     77  O   UNL A   1      46.941  37.941  27.738  1.00  0.00    -0.744 OA
ENDBRANCH  73  74
ENDBRANCH  54  68
BRANCH  55  78
ATOM     78  C   UNL A   1      43.320  23.471  26.922  1.00  0.00    -0.014 A 
ATOM     79  C   UNL A   1      43.275  22.998  25.600  1.00  0.00     0.010 A 
ATOM     80  C   UNL A   1      42.986  22.599  27.975  1.00  0.00     0.010 A 
ATOM     81  C   UNL A   1      42.913  21.674  25.334  1.00  0.00     0.020 A 
ATOM     82  C   UNL A   1      42.644  21.269  27.715  1.00  0.00     0.020 A 
ATOM     83  C   UNL A   1      42.609  20.815  26.394  1.00  0.00     0.054 A 
BRANCH  83  84
ATOM     84  S   UNL A   1      42.249  19.073  26.034  1.00  0.00     0.124 S 
ATOM     85  O   UNL A   1      40.806  19.097  25.823  1.00  0.00    -0.237 OA
ATOM     86  O   UNL A   1      43.060  18.822  24.845  1.00  0.00    -0.237 OA
ATOM     87  O   UNL A   1      42.696  18.378  27.239  1.00  0.00    -0.744 OA
ENDBRANCH  83  84
ENDBRANCH  55  78
BRANCH  67  88
ATOM     88  C   UNL A   1      49.509  26.680  26.499  1.00  0.00    -0.014 A 
ATOM     89  C   UNL A   1      50.339  26.057  27.448  1.00  0.00     0.010 A 
ATOM     90  C   UNL A   1      49.954  26.800  25.170  1.00  0.00     0.010 A 
ATOM     91  C   UNL A   1      51.600  25.582  27.078  1.00  0.00     0.020 A 
ATOM     92  C   UNL A   1      51.205  26.307  24.791  1.00  0.00     0.020 A 
ATOM     93  C   UNL A   1      52.026  25.712  25.752  1.00  0.00     0.054 A 
BRANCH  93  94
ATOM     94  S   UNL A   1      53.646  25.044  25.283  1.00  0.00     0.124 S 
ATOM     95  O   UNL A   1      53.395  23.605  25.293  1.00  0.00    -0.237 OA
ATOM     96  O   UNL A   1      53.870  25.634  23.966  1.00  0.00    -0.237 OA
ATOM     97  O   UNL A   1      54.537  25.528  26.335  1.00  0.00    -0.744 OA
ENDBRANCH  93  94
ENDBRANCH  67  88
ENDBRANCH  41  42
ENDBRANCH  33  36
ENDBRANCH  31  32
ENDBRANCH  30  31
ENDBRANCH   1  30
TORSDOF 19
ENDMDL
MODEL 2
REMARK VINA RESULT:     -11.4      6.179     11.544
REMARK SMILES CCc1c(C)nn(CC(=O)N[C@H](C(=O)NCCCCNC(=O)c2ccc(-c3c4nc(c(-c5ccc(S(=O)(=O)[O-])cc5)c5ccc([nH]5)c(-c5ccc(S(=O)(=O)[O-])cc5)c5nc(c(-c6ccc(S(=O)(=O)[O-])cc6)c6ccc3[nH]6)C=C5)C=C4)cc2)c2c(C)n[nH]c2C)c1C
REMARK SMILES IDX 17 1 16 2 15 3 13 4 14 5 12 7 11 8 9 9 10 10 8 12 7 13 3 14
REMARK SMILES IDX 4 15 90 16 5 17 6 18 91 19 2 20 1 21 83 22 84 23 88 24 85 25
REMARK SMILES IDX 86 26 87 27 89 28 18 30 19 31 20 32 21 33 22 35 23 36 24 37
REMARK SMILES IDX 82 38 25 39 81 40 26 41 27 42 28 43 75 44 29 45 80 46 74 47
REMARK SMILES IDX 76 48 30 49 79 50 73 51 72 52 31 54 61 55 42 56 60 57 43 58
REMARK SMILES IDX 46 59 59 60 77 61 44 62 45 63 58 65 78 66 47 67 32 68 33 69
REMARK SMILES IDX 41 70 34 71 40 72 35 73 36 74 37 75 38 76 39 77 62 78 63 79
REMARK SMILES IDX 71 80 64 81 70 82 65 83 66 84 67 85 68 86 69 87 48 88 49 89
REMARK SMILES IDX 57 90 50 91 56 92 51 93 52 94 53 95 54 96 55 97
REMARK H PARENT 15 6 11 11 87 29 20 34 76 53 46 64
REMARK Flexibility Score: inf
ROOT
ATOM      1  C   UNL A   1      37.824  24.103  26.070  1.00  0.00     0.023 C 
ENDROOT
BRANCH   1   2
ATOM      2  C   UNL A   1      36.407  23.554  25.878  1.00  0.00     0.116 C 
BRANCH   2   3
ATOM      3  N   UNL A   1      35.971  23.732  24.507  1.00  0.00    -0.354 N 
ATOM      4  C   UNL A   1      34.845  23.315  23.860  1.00  0.00     0.247 C 
ATOM      5  O   UNL A   1      35.022  23.001  22.676  1.00  0.00    -0.272 OA
ATOM      6  H   UNL A   1      36.595  24.244  23.944  1.00  0.00     0.163 HD
BRANCH   4   7
ATOM      7  C   UNL A   1      33.438  23.176  24.521  1.00  0.00     0.206 C 
BRANCH   7   8
ATOM      8  N   UNL A   1      32.258  23.499  23.724  1.00  0.00    -0.339 N 
ATOM      9  C   UNL A   1      31.110  24.166  24.044  1.00  0.00     0.242 C 
ATOM     10  O   UNL A   1      30.205  24.125  23.201  1.00  0.00    -0.273 OA
ATOM     11  H   UNL A   1      32.297  23.180  22.793  1.00  0.00     0.164 HD
BRANCH   9  12
ATOM     12  C   UNL A   1      30.986  25.082  25.247  1.00  0.00     0.244 C 
BRANCH  12  13
ATOM     13  N   UNL A   1      31.255  26.487  25.010  1.00  0.00    -0.260 N 
ATOM     14  C   UNL A   1      32.077  28.524  25.085  1.00  0.00    -0.004 A 
ATOM     15  C   UNL A   1      30.875  28.462  24.332  1.00  0.00     0.063 A 
ATOM     16  C   UNL A   1      32.379  27.201  25.357  1.00  0.00     0.039 A 
ATOM     17  C   UNL A   1      30.130  29.556  23.661  1.00  0.00     0.069 C 
ATOM     18  N   UNL A   1      30.387  27.216  24.286  1.00  0.00    -0.177 NA
ATOM     19  C   UNL A   1      33.599  26.620  25.970  1.00  0.00     0.066 C 
BRANCH  14  20
ATOM     20  C   UNL A   1      32.873  29.717  25.499  1.00  0.00     0.036 C 
ATOM     21  C   UNL A   1      32.586  30.103  26.948  1.00  0.00     0.009 C 
ENDBRANCH  14  20
ENDBRANCH  12  13
ENDBRANCH   9  12
ENDBRANCH   7   8
BRANCH   7  22
ATOM     22  C   UNL A   1      33.185  21.776  25.089  1.00  0.00     0.027 A 
ATOM     23  C   UNL A   1      32.720  20.567  24.461  1.00  0.00     0.065 A 
ATOM     24  C   UNL A   1      33.360  21.387  26.416  1.00  0.00     0.038 A 
ATOM     25  C   UNL A   1      32.322  20.287  23.055  1.00  0.00     0.069 C 
ATOM     26  N   UNL A   1      32.656  19.546  25.326  1.00  0.00    -0.180 NA
ATOM     27  N   UNL A   1      33.067  20.059  26.481  1.00  0.00    -0.282 N 
ATOM     28  C   UNL A   1      33.792  22.117  27.630  1.00  0.00     0.066 C 
ATOM     29  H   UNL A   1      33.153  19.529  27.305  1.00  0.00     0.190 HD
ENDBRANCH   7  22
ENDBRANCH   4   7
ENDBRANCH   2   3
ENDBRANCH   1   2
BRANCH   1  30
ATOM     30  C   UNL A   1      38.877  23.077  26.495  1.00  0.00     0.023 C 
BRANCH  30  31
ATOM     31  C   UNL A   1      40.149  23.677  27.072  1.00  0.00     0.116 C 
BRANCH  31  32
ATOM     32  N   UNL A   1      40.940  24.375  26.071  1.00  0.00    -0.352 N 
ATOM     33  C   UNL A   1      41.308  25.699  26.033  1.00  0.00     0.251 C 
ATOM     34  H   UNL A   1      41.254  23.825  25.317  1.00  0.00     0.163 HD
ATOM     35  O   UNL A   1      41.856  26.151  25.031  1.00  0.00    -0.269 OA
BRANCH  33  36
ATOM     36  C   UNL A   1      41.012  26.579  27.184  1.00  0.00     0.039 A 
ATOM     37  C   UNL A   1      40.065  26.166  28.125  1.00  0.00     0.014 A 
ATOM     38  C   UNL A   1      41.679  27.796  27.346  1.00  0.00     0.014 A 
ATOM     39  C   UNL A   1      39.834  26.943  29.263  1.00  0.00     0.010 A 
ATOM     40  C   UNL A   1      41.504  28.529  28.515  1.00  0.00     0.010 A 
ATOM     41  C   UNL A   1      40.576  28.114  29.481  1.00  0.00    -0.014 A 
BRANCH  41  42
ATOM     42  C   UNL A   1      40.402  28.923  30.713  1.00  0.00     0.031 A 
ATOM     43  C   UNL A   1      39.327  29.973  30.780  1.00  0.00     0.074 A 
ATOM     44  C   UNL A   1      41.274  28.784  31.731  1.00  0.00     0.049 A 
ATOM     45  N   UNL A   1      39.074  30.834  31.731  1.00  0.00    -0.248 NA
ATOM     46  C   UNL A   1      38.444  30.091  29.609  1.00  0.00     0.031 C 
ATOM     47  C   UNL A   1      42.403  27.852  31.759  1.00  0.00     0.029 A 
ATOM     48  N   UNL A   1      41.357  29.444  32.931  1.00  0.00    -0.354 N 
ATOM     49  C   UNL A   1      38.030  31.621  31.259  1.00  0.00     0.074 A 
ATOM     50  C   UNL A   1      37.725  31.159  29.922  1.00  0.00     0.031 C 
ATOM     51  C   UNL A   1      43.059  27.992  32.922  1.00  0.00     0.029 A 
ATOM     52  C   UNL A   1      42.418  29.042  33.707  1.00  0.00     0.049 A 
ATOM     53  H   UNL A   1      40.718  30.139  33.209  1.00  0.00     0.167 HD
ATOM     54  C   UNL A   1      37.373  32.626  31.885  1.00  0.00     0.031 A 
ATOM     55  C   UNL A   1      42.834  29.473  34.913  1.00  0.00     0.031 A 
ATOM     56  C   UNL A   1      37.661  33.066  33.223  1.00  0.00     0.049 A 
ATOM     57  C   UNL A   1      42.060  30.551  35.617  1.00  0.00     0.074 A 
ATOM     58  C   UNL A   1      36.995  34.013  33.981  1.00  0.00     0.029 A 
ATOM     59  N   UNL A   1      38.706  32.590  34.002  1.00  0.00    -0.354 N 
ATOM     60  N   UNL A   1      41.016  31.220  35.192  1.00  0.00    -0.248 NA
ATOM     61  C   UNL A   1      42.509  30.918  36.966  1.00  0.00     0.031 C 
ATOM     62  C   UNL A   1      37.664  34.138  35.206  1.00  0.00     0.029 A 
ATOM     63  C   UNL A   1      38.718  33.238  35.225  1.00  0.00     0.049 A 
ATOM     64  H   UNL A   1      39.344  31.893  33.725  1.00  0.00     0.167 HD
ATOM     65  C   UNL A   1      40.671  32.080  36.228  1.00  0.00     0.074 A 
ATOM     66  C   UNL A   1      41.611  31.834  37.305  1.00  0.00     0.031 C 
ATOM     67  C   UNL A   1      39.666  32.990  36.283  1.00  0.00     0.031 A 
BRANCH  54  68
ATOM     68  C   UNL A   1      36.288  33.324  31.108  1.00  0.00    -0.014 A 
ATOM     69  C   UNL A   1      36.544  33.889  29.844  1.00  0.00     0.010 A 
ATOM     70  C   UNL A   1      34.998  33.433  31.657  1.00  0.00     0.010 A 
ATOM     71  C   UNL A   1      35.550  34.612  29.179  1.00  0.00     0.020 A 
ATOM     72  C   UNL A   1      33.993  34.131  30.981  1.00  0.00     0.020 A 
ATOM     73  C   UNL A   1      34.285  34.742  29.759  1.00  0.00     0.054 A 
BRANCH  73  74
ATOM     74  S   UNL A   1      33.020  35.710  28.893  1.00  0.00     0.124 S 
ATOM     75  O   UNL A   1      32.355  34.685  28.092  1.00  0.00    -0.237 OA
ATOM     76  O   UNL A   1      32.227  36.262  29.989  1.00  0.00    -0.237 OA
ATOM     77  O   UNL A   1      33.794  36.689  28.134  1.00  0.00    -0.744 OA
ENDBRANCH  73  74
ENDBRANCH  54  68
BRANCH  55  78
ATOM     78  C   UNL A   1      44.035  28.850  35.531  1.00  0.00    -0.014 A 
ATOM     79  C   UNL A   1      45.306  29.418  35.342  1.00  0.00     0.010 A 
ATOM     80  C   UNL A   1      43.899  27.734  36.376  1.00  0.00     0.010 A 
ATOM     81  C   UNL A   1      46.422  28.884  35.995  1.00  0.00     0.020 A 
ATOM     82  C   UNL A   1      45.009  27.211  37.046  1.00  0.00     0.020 A 
ATOM     83  C   UNL A   1      46.264  27.790  36.850  1.00  0.00     0.054 A 
BRANCH  83  84
ATOM     84  S   UNL A   1      47.706  27.185  37.772  1.00  0.00     0.124 S 
ATOM     85  O   UNL A   1      48.482  28.406  37.961  1.00  0.00    -0.237 OA
ATOM     86  O   UNL A   1      47.100  26.626  38.978  1.00  0.00    -0.237 OA
ATOM     87  O   UNL A   1      48.296  26.198  36.869  1.00  0.00    -0.744 OA
ENDBRANCH  83  84
ENDBRANCH  55  78
BRANCH  67  88
ATOM     88  C   UNL A   1      39.519  33.781  37.552  1.00  0.00    -0.014 A 
ATOM     89  C   UNL A   1      38.714  33.316  38.607  1.00  0.00     0.010 A 
ATOM     90  C   UNL A   1      40.243  34.975  37.715  1.00  0.00     0.010 A 
ATOM     91  C   UNL A   1      38.618  34.044  39.795  1.00  0.00     0.020 A 
ATOM     92  C   UNL A   1      40.168  35.695  38.910  1.00  0.00     0.020 A 
ATOM     93  C   UNL A   1      39.344  35.231  39.939  1.00  0.00     0.054 A 
BRANCH  93  94
ATOM     94  S   UNL A   1      39.244  36.135  41.508  1.00  0.00     0.124 S 
ATOM     95  O   UNL A   1      39.172  37.522  41.055  1.00  0.00    -0.237 OA
ATOM     96  O   UNL A   1      38.022  35.605  42.108  1.00  0.00    -0.237 OA
ATOM     97  O   UNL A   1      40.479  35.768  42.197  1.00  0.00    -0.744 OA
ENDBRANCH  93  94
ENDBRANCH  67  88
ENDBRANCH  41  42
ENDBRANCH  33  36
ENDBRANCH  31  32
ENDBRANCH  30  31
ENDBRANCH   1  30
TORSDOF 19
ENDMDL
MODEL 3
REMARK VINA RESULT:     -11.4      5.896     11.498
REMARK SMILES CCc1c(C)nn(CC(=O)N[C@H](C(=O)NCCCCNC(=O)c2ccc(-c3c4nc(c(-c5ccc(S(=O)(=O)[O-])cc5)c5ccc([nH]5)c(-c5ccc(S(=O)(=O)[O-])cc5)c5nc(c(-c6ccc(S(=O)(=O)[O-])cc6)c6ccc3[nH]6)C=C5)C=C4)cc2)c2c(C)n[nH]c2C)c1C
REMARK SMILES IDX 17 1 16 2 15 3 13 4 14 5 12 7 11 8 9 9 10 10 8 12 7 13 3 14
REMARK SMILES IDX 4 15 90 16 5 17 6 18 91 19 2 20 1 21 83 22 84 23 88 24 85 25
REMARK SMILES IDX 86 26 87 27 89 28 18 30 19 31 20 32 21 33 22 35 23 36 24 37
REMARK SMILES IDX 82 38 25 39 81 40 26 41 27 42 28 43 75 44 29 45 80 46 74 47
REMARK SMILES IDX 76 48 30 49 79 50 73 51 72 52 31 54 61 55 42 56 60 57 43 58
REMARK SMILES IDX 46 59 59 60 77 61 44 62 45 63 58 65 78 66 47 67 32 68 33 69
REMARK SMILES IDX 41 70 34 71 40 72 35 73 36 74 37 75 38 76 39 77 62 78 63 79
REMARK SMILES IDX 71 80 64 81 70 82 65 83 66 84 67 85 68 86 69 87 48 88 49 89
REMARK SMILES IDX 57 90 50 91 56 92 51 93 52 94 53 95 54 96 55 97
REMARK H PARENT 15 6 11 11 87 29 20 34 76 53 46 64
REMARK Flexibility Score: inf
ROOT
ATOM      1  C   UNL A   1      37.839  24.042  26.120  1.00  0.00     0.023 C 
ENDROOT
BRANCH   1   2
ATOM      2  C   UNL A   1      36.339  23.778  25.960  1.00  0.00     0.116 C 
BRANCH   2   3
ATOM      3  N   UNL A   1      35.956  23.826  24.563  1.00  0.00    -0.354 N 
ATOM      4  C   UNL A   1      34.872  23.318  23.910  1.00  0.00     0.247 C 
ATOM      5  O   UNL A   1      35.108  22.912  22.765  1.00  0.00    -0.272 OA
ATOM      6  H   UNL A   1      36.589  24.309  23.984  1.00  0.00     0.163 HD
BRANCH   4   7
ATOM      7  C   UNL A   1      33.443  23.189  24.523  1.00  0.00     0.206 C 
BRANCH   7   8
ATOM      8  N   UNL A   1      32.291  23.500  23.682  1.00  0.00    -0.339 N 
ATOM      9  C   UNL A   1      31.127  24.158  23.957  1.00  0.00     0.242 C 
ATOM     10  O   UNL A   1      30.254  24.108  23.081  1.00  0.00    -0.273 OA
ATOM     11  H   UNL A   1      32.368  23.180  22.754  1.00  0.00     0.164 HD
BRANCH   9  12
ATOM     12  C   UNL A   1      30.949  25.075  25.153  1.00  0.00     0.244 C 
BRANCH  12  13
ATOM     13  N   UNL A   1      31.218  26.481  24.924  1.00  0.00    -0.260 N 
ATOM     14  C   UNL A   1      32.033  28.521  25.018  1.00  0.00    -0.004 A 
ATOM     15  C   UNL A   1      30.842  28.457  24.248  1.00  0.00     0.063 A 
ATOM     16  C   UNL A   1      32.334  27.197  25.290  1.00  0.00     0.039 A 
ATOM     17  C   UNL A   1      30.104  29.551  23.570  1.00  0.00     0.069 C 
ATOM     18  N   UNL A   1      30.358  27.210  24.190  1.00  0.00    -0.177 NA
ATOM     19  C   UNL A   1      33.547  26.618  25.918  1.00  0.00     0.066 C 
BRANCH  14  20
ATOM     20  C   UNL A   1      32.820  29.714  25.448  1.00  0.00     0.036 C 
ATOM     21  C   UNL A   1      32.147  30.436  26.612  1.00  0.00     0.009 C 
ENDBRANCH  14  20
ENDBRANCH  12  13
ENDBRANCH   9  12
ENDBRANCH   7   8
BRANCH   7  22
ATOM     22  C   UNL A   1      33.170  21.797  25.103  1.00  0.00     0.027 A 
ATOM     23  C   UNL A   1      32.689  20.590  24.484  1.00  0.00     0.065 A 
ATOM     24  C   UNL A   1      33.339  21.416  26.433  1.00  0.00     0.038 A 
ATOM     25  C   UNL A   1      32.288  20.304  23.080  1.00  0.00     0.069 C 
ATOM     26  N   UNL A   1      32.609  19.576  25.356  1.00  0.00    -0.180 NA
ATOM     27  N   UNL A   1      33.027  20.093  26.508  1.00  0.00    -0.282 N 
ATOM     28  C   UNL A   1      33.780  22.149  27.641  1.00  0.00     0.066 C 
ATOM     29  H   UNL A   1      33.104  19.568  27.336  1.00  0.00     0.190 HD
ENDBRANCH   7  22
ENDBRANCH   4   7
ENDBRANCH   2   3
ENDBRANCH   1   2
BRANCH   1  30
ATOM     30  C   UNL A   1      38.720  22.797  26.236  1.00  0.00     0.023 C 
BRANCH  30  31
ATOM     31  C   UNL A   1      40.012  23.004  27.012  1.00  0.00     0.116 C 
BRANCH  31  32
ATOM     32  N   UNL A   1      41.132  23.338  26.147  1.00  0.00    -0.352 N 
ATOM     33  C   UNL A   1      41.858  24.505  26.089  1.00  0.00     0.251 C 
ATOM     34  H   UNL A   1      41.409  22.634  25.518  1.00  0.00     0.163 HD
ATOM     35  O   UNL A   1      42.681  24.666  25.192  1.00  0.00    -0.269 OA
BRANCH  33  36
ATOM     36  C   UNL A   1      41.620  25.570  27.088  1.00  0.00     0.039 A 
ATOM     37  C   UNL A   1      40.753  25.316  28.154  1.00  0.00     0.014 A 
ATOM     38  C   UNL A   1      42.262  26.806  26.983  1.00  0.00     0.014 A 
ATOM     39  C   UNL A   1      40.581  26.279  29.151  1.00  0.00     0.010 A 
ATOM     40  C   UNL A   1      42.150  27.732  28.015  1.00  0.00     0.010 A 
ATOM     41  C   UNL A   1      41.304  27.481  29.105  1.00  0.00    -0.014 A 
BRANCH  41  42
ATOM     42  C   UNL A   1      41.195  28.493  30.185  1.00  0.00     0.031 A 
ATOM     43  C   UNL A   1      42.109  28.424  31.378  1.00  0.00     0.074 A 
ATOM     44  C   UNL A   1      40.212  29.412  30.140  1.00  0.00     0.049 A 
ATOM     45  N   UNL A   1      42.111  29.161  32.459  1.00  0.00    -0.248 NA
ATOM     46  C   UNL A   1      43.128  27.363  31.370  1.00  0.00     0.031 C 
ATOM     47  C   UNL A   1      39.218  29.539  29.073  1.00  0.00     0.029 A 
ATOM     48  N   UNL A   1      39.873  30.401  31.029  1.00  0.00    -0.354 N 
ATOM     49  C   UNL A   1      43.104  28.632  33.274  1.00  0.00     0.074 A 
ATOM     50  C   UNL A   1      43.653  27.487  32.580  1.00  0.00     0.031 C 
ATOM     51  C   UNL A   1      38.389  30.554  29.363  1.00  0.00     0.029 A 
ATOM     52  C   UNL A   1      38.772  31.130  30.649  1.00  0.00     0.049 A 
ATOM     53  H   UNL A   1      40.372  30.573  31.860  1.00  0.00     0.167 HD
ATOM     54  C   UNL A   1      43.531  29.065  34.484  1.00  0.00     0.031 A 
ATOM     55  C   UNL A   1      38.135  32.144  31.266  1.00  0.00     0.031 A 
ATOM     56  C   UNL A   1      43.000  30.219  35.159  1.00  0.00     0.049 A 
ATOM     57  C   UNL A   1      38.657  32.648  32.581  1.00  0.00     0.074 A 
ATOM     58  C   UNL A   1      43.424  30.795  36.343  1.00  0.00     0.029 A 
ATOM     59  N   UNL A   1      41.923  30.969  34.710  1.00  0.00    -0.354 N 
ATOM     60  N   UNL A   1      39.659  32.192  33.294  1.00  0.00    -0.248 NA
ATOM     61  C   UNL A   1      37.976  33.811  33.164  1.00  0.00     0.031 C 
ATOM     62  C   UNL A   1      42.576  31.872  36.631  1.00  0.00     0.029 A 
ATOM     63  C   UNL A   1      41.653  31.991  35.603  1.00  0.00     0.049 A 
ATOM     64  H   UNL A   1      41.424  30.799  33.878  1.00  0.00     0.167 HD
ATOM     65  C   UNL A   1      39.739  33.022  34.406  1.00  0.00     0.074 A 
ATOM     66  C   UNL A   1      38.692  34.016  34.261  1.00  0.00     0.031 C 
ATOM     67  C   UNL A   1      40.602  32.966  35.451  1.00  0.00     0.031 A 
BRANCH  54  68
ATOM     68  C   UNL A   1      44.619  28.268  35.153  1.00  0.00    -0.014 A 
ATOM     69  C   UNL A   1      44.314  27.206  36.024  1.00  0.00     0.010 A 
ATOM     70  C   UNL A   1      45.966  28.598  34.922  1.00  0.00     0.010 A 
ATOM     71  C   UNL A   1      45.333  26.537  36.707  1.00  0.00     0.020 A 
ATOM     72  C   UNL A   1      46.990  27.912  35.582  1.00  0.00     0.020 A 
ATOM     73  C   UNL A   1      46.665  26.904  36.493  1.00  0.00     0.054 A 
BRANCH  73  74
ATOM     74  S   UNL A   1      47.969  26.043  37.413  1.00  0.00     0.124 S 
ATOM     75  O   UNL A   1      48.295  27.017  38.450  1.00  0.00    -0.237 OA
ATOM     76  O   UNL A   1      47.294  24.834  37.878  1.00  0.00    -0.237 OA
ATOM     77  O   UNL A   1      49.010  25.825  36.413  1.00  0.00    -0.744 OA
ENDBRANCH  73  74
ENDBRANCH  54  68
BRANCH  55  78
ATOM     78  C   UNL A   1      36.947  32.756  30.615  1.00  0.00    -0.014 A 
ATOM     79  C   UNL A   1      35.650  32.393  31.017  1.00  0.00     0.010 A 
ATOM     80  C   UNL A   1      37.109  33.765  29.648  1.00  0.00     0.010 A 
ATOM     81  C   UNL A   1      34.535  33.035  30.469  1.00  0.00     0.020 A 
ATOM     82  C   UNL A   1      35.998  34.421  29.113  1.00  0.00     0.020 A 
ATOM     83  C   UNL A   1      34.717  34.051  29.527  1.00  0.00     0.054 A 
BRANCH  83  84
ATOM     84  S   UNL A   1      33.262  34.944  28.911  1.00  0.00     0.124 S 
ATOM     85  O   UNL A   1      32.734  34.017  27.915  1.00  0.00    -0.237 OA
ATOM     86  O   UNL A   1      32.454  35.104  30.117  1.00  0.00    -0.237 OA
ATOM     87  O   UNL A   1      33.823  36.184  28.380  1.00  0.00    -0.744 OA
ENDBRANCH  83  84
ENDBRANCH  55  78
BRANCH  67  88
ATOM     88  C   UNL A   1      40.463  34.016  36.518  1.00  0.00    -0.014 A 
ATOM     89  C   UNL A   1      41.325  35.126  36.558  1.00  0.00     0.010 A 
ATOM     90  C   UNL A   1      39.420  33.922  37.455  1.00  0.00     0.010 A 
ATOM     91  C   UNL A   1      41.159  36.113  37.533  1.00  0.00     0.020 A 
ATOM     92  C   UNL A   1      39.236  34.917  38.418  1.00  0.00     0.020 A 
ATOM     93  C   UNL A   1      40.116  36.002  38.459  1.00  0.00     0.054 A 
BRANCH  93  94
ATOM     94  S   UNL A   1      39.889  37.319  39.684  1.00  0.00     0.124 S 
ATOM     95  O   UNL A   1      38.623  37.912  39.260  1.00  0.00    -0.237 OA
ATOM     96  O   UNL A   1      39.846  36.583  40.945  1.00  0.00    -0.237 OA
ATOM     97  O   UNL A   1      41.065  38.166  39.504  1.00  0.00    -0.744 OA
ENDBRANCH  93  94
ENDBRANCH  67  88
ENDBRANCH  41  42
ENDBRANCH  33  36
ENDBRANCH  31  32
ENDBRANCH  30  31
ENDBRANCH   1  30
TORSDOF 19
ENDMDL
