MODEL 1
REMARK VINA RESULT:     -12.0      0.000      0.000
REMARK SMILES COc1ccc(NC(=O)[C@@H]2[C@@H](C(=O)NCCCCNC(=O)c3ccc(-c4c5nc(c(-c6ccc(S(=O)(=O)[O-])cc6)c6ccc([nH]6)c(-c6ccc(S(=O)(=O)[O-])cc6)c6nc(c(-c7ccc(S(=O)(=O)[O-])cc7)c7ccc4[nH]7)C=C6)C=C5)cc3)[C@@H]3CC[C@H]2C3=C(C)C)cc1
REMARK SMILES IDX 16 1 15 2 14 3 12 4 13 5 11 7 10 8 85 9 82 10 84 11 86 12
REMARK SMILES IDX 83 13 87 14 88 15 89 16 8 17 7 18 9 20 6 21 3 22 4 23 91 24
REMARK SMILES IDX 5 25 90 26 2 27 1 28 17 29 18 30 19 31 20 32 21 34 22 35
REMARK SMILES IDX 23 36 81 37 24 38 80 39 25 40 26 41 27 42 74 43 28 44 79 45
REMARK SMILES IDX 73 46 75 47 29 48 78 49 72 50 71 51 30 53 60 54 41 55 59 56
REMARK SMILES IDX 42 57 45 58 58 59 76 60 43 61 44 62 57 64 77 65 46 66 31 67
REMARK SMILES IDX 32 68 40 69 33 70 39 71 34 72 35 73 36 74 37 75 38 76 61 77
REMARK SMILES IDX 62 78 70 79 63 80 69 81 64 82 65 83 66 84 67 85 68 86 47 87
REMARK SMILES IDX 48 88 56 89 49 90 55 91 50 92 51 93 52 94 53 95 54 96
REMARK H PARENT 14 6 7 19 19 33 75 52 45 63
REMARK Flexibility Score: inf
ROOT
ATOM      1  C   UNL A   1      37.985  23.990  26.464  1.00  0.00     0.023 C 
ENDROOT
BRANCH   1   2
ATOM      2  C   UNL A   1      36.597  23.635  25.916  1.00  0.00     0.116 C 
BRANCH   2   3
ATOM      3  N   UNL A   1      35.726  23.116  26.953  1.00  0.00    -0.356 N 
ATOM      4  C   UNL A   1      34.397  22.860  27.029  1.00  0.00     0.224 C 
ATOM      5  O   UNL A   1      34.011  22.445  28.129  1.00  0.00    -0.275 OA
ATOM      6  H   UNL A   1      36.206  22.902  27.786  1.00  0.00     0.163 HD
BRANCH   4   7
ATOM      7  C   UNL A   1      33.434  22.885  25.823  1.00  0.00     0.098 C 
ATOM      8  C   UNL A   1      32.155  22.057  25.924  1.00  0.00     0.099 C 
ATOM      9  C   UNL A   1      32.318  20.937  24.872  1.00  0.00     0.028 C 
ATOM     10  C   UNL A   1      34.162  22.233  24.610  1.00  0.00     0.028 C 
ATOM     11  C   UNL A   1      32.167  21.453  23.446  1.00  0.00     0.009 C 
ATOM     12  C   UNL A   1      33.826  20.788  24.847  1.00  0.00    -0.064 C 
ATOM     13  C   UNL A   1      33.447  22.285  23.253  1.00  0.00     0.009 C 
ATOM     14  C   UNL A   1      34.636  19.716  24.807  1.00  0.00    -0.077 C 
ATOM     15  C   UNL A   1      36.118  19.830  24.556  1.00  0.00     0.039 C 
ATOM     16  C   UNL A   1      34.100  18.317  24.855  1.00  0.00     0.039 C 
BRANCH   8  17
ATOM     17  C   UNL A   1      30.798  22.786  26.001  1.00  0.00     0.228 C 
ATOM     18  N   UNL A   1      30.454  24.067  25.715  1.00  0.00    -0.326 N 
ATOM     19  H   UNL A   1      29.484  24.198  25.817  1.00  0.00     0.169 HD
ATOM     20  O   UNL A   1      29.811  22.079  26.286  1.00  0.00    -0.274 OA
BRANCH  18  21
ATOM     21  C   UNL A   1      31.075  25.261  25.317  1.00  0.00     0.041 A 
ATOM     22  C   UNL A   1      32.651  27.373  24.286  1.00  0.00     0.119 A 
ATOM     23  C   UNL A   1      32.414  27.265  25.649  1.00  0.00     0.048 A 
ATOM     24  C   UNL A   1      31.975  26.504  23.430  1.00  0.00     0.048 A 
ATOM     25  C   UNL A   1      31.602  26.231  26.153  1.00  0.00     0.030 A 
ATOM     26  C   UNL A   1      31.171  25.478  23.938  1.00  0.00     0.030 A 
BRANCH  22  27
ATOM     27  O   UNL A   1      33.532  28.208  23.670  1.00  0.00    -0.497 OA
ATOM     28  C   UNL A   1      33.765  28.085  22.274  1.00  0.00     0.278 C 
ENDBRANCH  22  27
ENDBRANCH  18  21
ENDBRANCH   8  17
ENDBRANCH   4   7
ENDBRANCH   2   3
ENDBRANCH   1   2
BRANCH   1  29
ATOM     29  C   UNL A   1      39.018  22.860  26.384  1.00  0.00     0.023 C 
BRANCH  29  30
ATOM     30  C   UNL A   1      40.330  23.121  27.113  1.00  0.00     0.116 C 
BRANCH  30  31
ATOM     31  N   UNL A   1      41.390  23.563  26.222  1.00  0.00    -0.352 N 
ATOM     32  C   UNL A   1      42.016  24.787  26.155  1.00  0.00     0.251 C 
ATOM     33  H   UNL A   1      41.705  22.892  25.574  1.00  0.00     0.163 HD
ATOM     34  O   UNL A   1      42.787  25.030  25.238  1.00  0.00    -0.269 OA
BRANCH  32  35
ATOM     35  C   UNL A   1      41.728  25.816  27.180  1.00  0.00     0.039 A 
ATOM     36  C   UNL A   1      40.752  25.550  28.144  1.00  0.00     0.014 A 
ATOM     37  C   UNL A   1      42.420  27.030  27.199  1.00  0.00     0.014 A 
ATOM     38  C   UNL A   1      40.515  26.476  29.163  1.00  0.00     0.010 A 
ATOM     39  C   UNL A   1      42.238  27.916  28.258  1.00  0.00     0.010 A 
ATOM     40  C   UNL A   1      41.280  27.651  29.249  1.00  0.00    -0.014 A 
BRANCH  40  41
ATOM     41  C   UNL A   1      41.100  28.604  30.376  1.00  0.00     0.031 A 
ATOM     42  C   UNL A   1      41.953  28.495  31.610  1.00  0.00     0.074 A 
ATOM     43  C   UNL A   1      40.117  29.525  30.319  1.00  0.00     0.049 A 
ATOM     44  N   UNL A   1      41.912  29.208  32.707  1.00  0.00    -0.248 NA
ATOM     45  C   UNL A   1      42.965  27.428  31.626  1.00  0.00     0.031 C 
ATOM     46  C   UNL A   1      39.183  29.697  29.204  1.00  0.00     0.029 A 
ATOM     47  N   UNL A   1      39.731  30.483  31.224  1.00  0.00    -0.354 N 
ATOM     48  C   UNL A   1      42.873  28.661  33.550  1.00  0.00     0.074 A 
ATOM     49  C   UNL A   1      43.445  27.528  32.857  1.00  0.00     0.031 C 
ATOM     50  C   UNL A   1      38.346  30.708  29.483  1.00  0.00     0.029 A 
ATOM     51  C   UNL A   1      38.652  31.229  30.812  1.00  0.00     0.049 A 
ATOM     52  H   UNL A   1      40.184  30.622  32.087  1.00  0.00     0.167 HD
ATOM     53  C   UNL A   1      43.256  29.074  34.784  1.00  0.00     0.031 A 
ATOM     54  C   UNL A   1      37.975  32.214  31.434  1.00  0.00     0.031 A 
ATOM     55  C   UNL A   1      42.682  30.203  35.469  1.00  0.00     0.049 A 
ATOM     56  C   UNL A   1      38.418  32.664  32.797  1.00  0.00     0.074 A 
ATOM     57  C   UNL A   1      43.050  30.748  36.686  1.00  0.00     0.029 A 
ATOM     58  N   UNL A   1      41.608  30.951  35.005  1.00  0.00    -0.354 N 
ATOM     59  N   UNL A   1      39.394  32.197  33.540  1.00  0.00    -0.248 NA
ATOM     60  C   UNL A   1      37.682  33.781  33.401  1.00  0.00     0.031 C 
ATOM     61  C   UNL A   1      42.157  31.779  36.991  1.00  0.00     0.029 A 
ATOM     62  C   UNL A   1      41.277  31.928  35.930  1.00  0.00     0.049 A 
ATOM     63  H   UNL A   1      41.149  30.807  34.146  1.00  0.00     0.167 HD
ATOM     64  C   UNL A   1      39.401  32.977  34.690  1.00  0.00     0.074 A 
ATOM     65  C   UNL A   1      38.346  33.957  34.536  1.00  0.00     0.031 C 
ATOM     66  C   UNL A   1      40.214  32.890  35.774  1.00  0.00     0.031 A 
BRANCH  53  67
ATOM     67  C   UNL A   1      44.328  28.274  35.482  1.00  0.00    -0.014 A 
ATOM     68  C   UNL A   1      45.693  28.580  35.325  1.00  0.00     0.010 A 
ATOM     69  C   UNL A   1      43.963  27.204  36.319  1.00  0.00     0.010 A 
ATOM     70  C   UNL A   1      46.671  27.791  35.937  1.00  0.00     0.020 A 
ATOM     71  C   UNL A   1      44.937  26.435  36.962  1.00  0.00     0.020 A 
ATOM     72  C   UNL A   1      46.286  26.719  36.747  1.00  0.00     0.054 A 
BRANCH  72  73
ATOM     73  S   UNL A   1      47.577  25.706  37.520  1.00  0.00     0.124 S 
ATOM     74  O   UNL A   1      47.444  26.071  38.927  1.00  0.00    -0.237 OA
ATOM     75  O   UNL A   1      47.162  24.347  37.182  1.00  0.00    -0.237 OA
ATOM     76  O   UNL A   1      48.807  26.157  36.873  1.00  0.00    -0.744 OA
ENDBRANCH  72  73
ENDBRANCH  53  67
BRANCH  54  77
ATOM     77  C   UNL A   1      36.804  32.835  30.754  1.00  0.00    -0.014 A 
ATOM     78  C   UNL A   1      35.491  32.506  31.132  1.00  0.00     0.010 A 
ATOM     79  C   UNL A   1      37.004  33.812  29.759  1.00  0.00     0.010 A 
ATOM     80  C   UNL A   1      34.400  33.140  30.529  1.00  0.00     0.020 A 
ATOM     81  C   UNL A   1      35.918  34.468  29.175  1.00  0.00     0.020 A 
ATOM     82  C   UNL A   1      34.621  34.125  29.561  1.00  0.00     0.054 A 
BRANCH  82  83
ATOM     83  S   UNL A   1      33.193  34.998  28.859  1.00  0.00     0.124 S 
ATOM     84  O   UNL A   1      32.374  35.242  30.042  1.00  0.00    -0.237 OA
ATOM     85  O   UNL A   1      33.811  36.179  28.261  1.00  0.00    -0.237 OA
ATOM     86  O   UNL A   1      32.643  34.041  27.903  1.00  0.00    -0.744 OA
ENDBRANCH  82  83
ENDBRANCH  54  77
BRANCH  66  87
ATOM     87  C   UNL A   1      40.012  33.898  36.877  1.00  0.00    -0.014 A 
ATOM     88  C   UNL A   1      40.539  35.198  36.788  1.00  0.00     0.010 A 
ATOM     89  C   UNL A   1      39.231  33.552  37.996  1.00  0.00     0.010 A 
ATOM     90  C   UNL A   1      40.315  36.124  37.812  1.00  0.00     0.020 A 
ATOM     91  C   UNL A   1      38.979  34.483  39.006  1.00  0.00     0.020 A 
ATOM     92  C   UNL A   1      39.535  35.760  38.913  1.00  0.00     0.054 A 
BRANCH  92  93
ATOM     93  S   UNL A   1      39.225  36.992  40.208  1.00  0.00     0.124 S 
ATOM     94  O   UNL A   1      40.571  37.255  40.709  1.00  0.00    -0.237 OA
ATOM     95  O   UNL A   1      38.606  38.087  39.465  1.00  0.00    -0.237 OA
ATOM     96  O   UNL A   1      38.338  36.300  41.141  1.00  0.00    -0.744 OA
ENDBRANCH  92  93
ENDBRANCH  66  87
ENDBRANCH  40  41
ENDBRANCH  32  35
ENDBRANCH  30  31
ENDBRANCH  29  30
ENDBRANCH   1  29
TORSDOF 17
ENDMDL
MODEL 2
REMARK VINA RESULT:     -11.8      3.351      4.187
REMARK SMILES COc1ccc(NC(=O)[C@@H]2[C@@H](C(=O)NCCCCNC(=O)c3ccc(-c4c5nc(c(-c6ccc(S(=O)(=O)[O-])cc6)c6ccc([nH]6)c(-c6ccc(S(=O)(=O)[O-])cc6)c6nc(c(-c7ccc(S(=O)(=O)[O-])cc7)c7ccc4[nH]7)C=C6)C=C5)cc3)[C@@H]3CC[C@H]2C3=C(C)C)cc1
REMARK SMILES IDX 16 1 15 2 14 3 12 4 13 5 11 7 10 8 85 9 82 10 84 11 86 12
REMARK SMILES IDX 83 13 87 14 88 15 89 16 8 17 7 18 9 20 6 21 3 22 4 23 91 24
REMARK SMILES IDX 5 25 90 26 2 27 1 28 17 29 18 30 19 31 20 32 21 34 22 35
REMARK SMILES IDX 23 36 81 37 24 38 80 39 25 40 26 41 27 42 74 43 28 44 79 45
REMARK SMILES IDX 73 46 75 47 29 48 78 49 72 50 71 51 30 53 60 54 41 55 59 56
REMARK SMILES IDX 42 57 45 58 58 59 76 60 43 61 44 62 57 64 77 65 46 66 31 67
REMARK SMILES IDX 32 68 40 69 33 70 39 71 34 72 35 73 36 74 37 75 38 76 61 77
REMARK SMILES IDX 62 78 70 79 63 80 69 81 64 82 65 83 66 84 67 85 68 86 47 87
REMARK SMILES IDX 48 88 56 89 49 90 55 91 50 92 51 93 52 94 53 95 54 96
REMARK H PARENT 14 6 7 19 19 33 75 52 45 63
REMARK Flexibility Score: inf
ROOT
ATOM      1  C   UNL A   1      35.528  23.716  23.194  1.00  0.00     0.023 C 
ENDROOT
BRANCH   1   2
ATOM      2  C   UNL A   1      34.032  23.998  23.010  1.00  0.00     0.116 C 
BRANCH   2   3
ATOM      3  N   UNL A   1      33.312  22.816  22.575  1.00  0.00    -0.356 N 
ATOM      4  C   UNL A   1      32.164  22.211  22.968  1.00  0.00     0.224 C 
ATOM      5  O   UNL A   1      31.892  21.169  22.358  1.00  0.00    -0.275 OA
ATOM      6  H   UNL A   1      33.754  22.350  21.828  1.00  0.00     0.163 HD
BRANCH   4   7
ATOM      7  C   UNL A   1      31.148  22.827  23.954  1.00  0.00     0.098 C 
ATOM      8  C   UNL A   1      31.457  24.216  24.508  1.00  0.00     0.099 C 
ATOM      9  C   UNL A   1      31.719  23.996  26.016  1.00  0.00     0.028 C 
ATOM     10  C   UNL A   1      31.127  21.948  25.239  1.00  0.00     0.028 C 
ATOM     11  C   UNL A   1      30.440  23.700  26.790  1.00  0.00     0.009 C 
ATOM     12  C   UNL A   1      32.254  22.578  26.007  1.00  0.00    -0.064 C 
ATOM     13  C   UNL A   1      30.073  22.287  26.302  1.00  0.00     0.009 C 
ATOM     14  C   UNL A   1      33.268  21.983  26.656  1.00  0.00    -0.077 C 
ATOM     15  C   UNL A   1      33.464  20.488  26.656  1.00  0.00     0.039 C 
ATOM     16  C   UNL A   1      34.190  22.748  27.557  1.00  0.00     0.039 C 
BRANCH   8  17
ATOM     17  C   UNL A   1      30.563  25.402  24.095  1.00  0.00     0.228 C 
ATOM     18  N   UNL A   1      30.621  26.720  24.416  1.00  0.00    -0.326 N 
ATOM     19  H   UNL A   1      29.927  27.226  23.935  1.00  0.00     0.169 HD
ATOM     20  O   UNL A   1      29.679  25.155  23.251  1.00  0.00    -0.274 OA
BRANCH  18  21
ATOM     21  C   UNL A   1      31.379  27.572  25.233  1.00  0.00     0.041 A 
ATOM     22  C   UNL A   1      33.285  29.162  26.591  1.00  0.00     0.119 A 
ATOM     23  C   UNL A   1      32.538  28.214  27.273  1.00  0.00     0.048 A 
ATOM     24  C   UNL A   1      32.970  29.412  25.256  1.00  0.00     0.048 A 
ATOM     25  C   UNL A   1      31.567  27.448  26.599  1.00  0.00     0.030 A 
ATOM     26  C   UNL A   1      32.005  28.647  24.592  1.00  0.00     0.030 A 
BRANCH  22  27
ATOM     27  O   UNL A   1      34.358  29.856  27.061  1.00  0.00    -0.497 OA
ATOM     28  C   UNL A   1      34.160  31.069  27.773  1.00  0.00     0.278 C 
ENDBRANCH  22  27
ENDBRANCH  18  21
ENDBRANCH   8  17
ENDBRANCH   4   7
ENDBRANCH   2   3
ENDBRANCH   1   2
BRANCH   1  29
ATOM     29  C   UNL A   1      35.909  23.122  24.556  1.00  0.00     0.023 C 
BRANCH  29  30
ATOM     30  C   UNL A   1      37.110  23.767  25.237  1.00  0.00     0.116 C 
BRANCH  30  31
ATOM     31  N   UNL A   1      38.097  22.795  25.675  1.00  0.00    -0.352 N 
ATOM     32  C   UNL A   1      39.253  22.994  26.395  1.00  0.00     0.251 C 
ATOM     33  H   UNL A   1      37.913  21.862  25.420  1.00  0.00     0.163 HD
ATOM     34  O   UNL A   1      40.045  22.075  26.546  1.00  0.00    -0.269 OA
BRANCH  32  35
ATOM     35  C   UNL A   1      39.546  24.331  26.960  1.00  0.00     0.039 A 
ATOM     36  C   UNL A   1      39.116  24.622  28.258  1.00  0.00     0.014 A 
ATOM     37  C   UNL A   1      40.245  25.289  26.222  1.00  0.00     0.014 A 
ATOM     38  C   UNL A   1      39.443  25.851  28.836  1.00  0.00     0.010 A 
ATOM     39  C   UNL A   1      40.638  26.481  26.827  1.00  0.00     0.010 A 
ATOM     40  C   UNL A   1      40.236  26.777  28.139  1.00  0.00    -0.014 A 
BRANCH  40  41
ATOM     41  C   UNL A   1      40.666  28.051  28.773  1.00  0.00     0.031 A 
ATOM     42  C   UNL A   1      42.039  28.178  29.375  1.00  0.00     0.074 A 
ATOM     43  C   UNL A   1      39.794  29.074  28.871  1.00  0.00     0.049 A 
ATOM     44  N   UNL A   1      42.573  29.193  30.006  1.00  0.00    -0.248 NA
ATOM     45  C   UNL A   1      42.916  27.001  29.284  1.00  0.00     0.031 C 
ATOM     46  C   UNL A   1      38.413  29.058  28.380  1.00  0.00     0.029 A 
ATOM     47  N   UNL A   1      39.932  30.321  29.428  1.00  0.00    -0.354 N 
ATOM     48  C   UNL A   1      43.836  28.770  30.404  1.00  0.00     0.074 A 
ATOM     49  C   UNL A   1      43.968  27.390  29.989  1.00  0.00     0.031 C 
ATOM     50  C   UNL A   1      37.840  30.243  28.641  1.00  0.00     0.029 A 
ATOM     51  C   UNL A   1      38.792  31.088  29.356  1.00  0.00     0.049 A 
ATOM     52  H   UNL A   1      40.768  30.637  29.841  1.00  0.00     0.167 HD
ATOM     53  C   UNL A   1      44.804  29.469  31.046  1.00  0.00     0.031 A 
ATOM     54  C   UNL A   1      38.534  32.325  29.821  1.00  0.00     0.031 A 
ATOM     55  C   UNL A   1      44.666  30.842  31.457  1.00  0.00     0.049 A 
ATOM     56  C   UNL A   1      39.622  33.090  30.522  1.00  0.00     0.074 A 
ATOM     57  C   UNL A   1      45.613  31.663  32.044  1.00  0.00     0.029 A 
ATOM     58  N   UNL A   1      43.504  31.593  31.341  1.00  0.00    -0.354 N 
ATOM     59  N   UNL A   1      40.844  32.706  30.805  1.00  0.00    -0.248 NA
ATOM     60  C   UNL A   1      39.303  34.457  30.952  1.00  0.00     0.031 C 
ATOM     61  C   UNL A   1      45.005  32.885  32.346  1.00  0.00     0.029 A 
ATOM     62  C   UNL A   1      43.700  32.855  31.879  1.00  0.00     0.049 A 
ATOM     63  H   UNL A   1      42.665  31.276  30.936  1.00  0.00     0.167 HD
ATOM     64  C   UNL A   1      41.447  33.792  31.429  1.00  0.00     0.074 A 
ATOM     65  C   UNL A   1      40.461  34.853  31.465  1.00  0.00     0.031 C 
ATOM     66  C   UNL A   1      42.706  33.900  31.924  1.00  0.00     0.031 A 
BRANCH  53  67
ATOM     67  C   UNL A   1      46.087  28.744  31.368  1.00  0.00    -0.014 A 
ATOM     68  C   UNL A   1      47.268  28.979  30.639  1.00  0.00     0.010 A 
ATOM     69  C   UNL A   1      46.115  27.818  32.426  1.00  0.00     0.010 A 
ATOM     70  C   UNL A   1      48.430  28.256  30.919  1.00  0.00     0.020 A 
ATOM     71  C   UNL A   1      47.285  27.118  32.733  1.00  0.00     0.020 A 
ATOM     72  C   UNL A   1      48.429  27.324  31.961  1.00  0.00     0.054 A 
BRANCH  72  73
ATOM     73  S   UNL A   1      49.948  26.391  32.295  1.00  0.00     0.124 S 
ATOM     74  O   UNL A   1      49.727  25.170  31.526  1.00  0.00    -0.237 OA
ATOM     75  O   UNL A   1      50.988  27.278  31.780  1.00  0.00    -0.237 OA
ATOM     76  O   UNL A   1      49.941  26.222  33.746  1.00  0.00    -0.744 OA
ENDBRANCH  72  73
ENDBRANCH  53  67
BRANCH  54  77
ATOM     77  C   UNL A   1      37.178  32.909  29.626  1.00  0.00    -0.014 A 
ATOM     78  C   UNL A   1      36.255  32.960  30.685  1.00  0.00     0.010 A 
ATOM     79  C   UNL A   1      36.825  33.474  28.385  1.00  0.00     0.010 A 
ATOM     80  C   UNL A   1      35.006  33.565  30.508  1.00  0.00     0.020 A 
ATOM     81  C   UNL A   1      35.590  34.104  28.213  1.00  0.00     0.020 A 
ATOM     82  C   UNL A   1      34.686  34.142  29.276  1.00  0.00     0.054 A 
BRANCH  82  83
ATOM     83  S   UNL A   1      33.097  35.000  29.098  1.00  0.00     0.124 S 
ATOM     84  O   UNL A   1      32.450  34.228  28.042  1.00  0.00    -0.237 OA
ATOM     85  O   UNL A   1      32.515  34.863  30.431  1.00  0.00    -0.237 OA
ATOM     86  O   UNL A   1      33.481  36.361  28.732  1.00  0.00    -0.744 OA
ENDBRANCH  82  83
ENDBRANCH  54  77
BRANCH  66  87
ATOM     87  C   UNL A   1      43.104  35.221  32.530  1.00  0.00    -0.014 A 
ATOM     88  C   UNL A   1      43.749  36.212  31.769  1.00  0.00     0.010 A 
ATOM     89  C   UNL A   1      42.775  35.495  33.871  1.00  0.00     0.010 A 
ATOM     90  C   UNL A   1      44.084  37.441  32.347  1.00  0.00     0.020 A 
ATOM     91  C   UNL A   1      43.079  36.733  34.442  1.00  0.00     0.020 A 
ATOM     92  C   UNL A   1      43.746  37.693  33.679  1.00  0.00     0.054 A 
BRANCH  92  93
ATOM     93  S   UNL A   1      44.154  39.310  34.392  1.00  0.00     0.124 S 
ATOM     94  O   UNL A   1      44.253  39.000  35.816  1.00  0.00    -0.237 OA
ATOM     95  O   UNL A   1      45.415  39.641  33.732  1.00  0.00    -0.237 OA
ATOM     96  O   UNL A   1      43.021  40.152  34.016  1.00  0.00    -0.744 OA
ENDBRANCH  92  93
ENDBRANCH  66  87
ENDBRANCH  40  41
ENDBRANCH  32  35
ENDBRANCH  30  31
ENDBRANCH  29  30
ENDBRANCH   1  29
TORSDOF 17
ENDMDL
MODEL 3
REMARK VINA RESULT:     -11.3      2.585      8.557
REMARK SMILES COc1ccc(NC(=O)[C@@H]2[C@@H](C(=O)NCCCCNC(=O)c3ccc(-c4c5nc(c(-c6ccc(S(=O)(=O)[O-])cc6)c6ccc([nH]6)c(-c6ccc(S(=O)(=O)[O-])cc6)c6nc(c(-c7ccc(S(=O)(=O)[O-])cc7)c7ccc4[nH]7)C=C6)C=C5)cc3)[C@@H]3CC[C@H]2C3=C(C)C)cc1
REMARK SMILES IDX 16 1 15 2 14 3 12 4 13 5 11 7 10 8 85 9 82 10 84 11 86 12
REMARK SMILES IDX 83 13 87 14 88 15 89 16 8 17 7 18 9 20 6 21 3 22 4 23 91 24
REMARK SMILES IDX 5 25 90 26 2 27 1 28 17 29 18 30 19 31 20 32 21 34 22 35
REMARK SMILES IDX 23 36 81 37 24 38 80 39 25 40 26 41 27 42 74 43 28 44 79 45
REMARK SMILES IDX 73 46 75 47 29 48 78 49 72 50 71 51 30 53 60 54 41 55 59 56
REMARK SMILES IDX 42 57 45 58 58 59 76 60 43 61 44 62 57 64 77 65 46 66 31 67
REMARK SMILES IDX 32 68 40 69 33 70 39 71 34 72 35 73 36 74 37 75 38 76 61 77
REMARK SMILES IDX 62 78 70 79 63 80 69 81 64 82 65 83 66 84 67 85 68 86 47 87
REMARK SMILES IDX 48 88 56 89 49 90 55 91 50 92 51 93 52 94 53 95 54 96
REMARK H PARENT 14 6 7 19 19 33 75 52 45 63
REMARK Flexibility Score: inf
ROOT
ATOM      1  C   UNL A   1      32.267  27.817  25.556  1.00  0.00     0.023 C 
ENDROOT
BRANCH   1   2
ATOM      2  C   UNL A   1      32.853  26.550  26.192  1.00  0.00     0.116 C 
BRANCH   2   3
ATOM      3  N   UNL A   1      31.815  25.611  26.574  1.00  0.00    -0.356 N 
ATOM      4  C   UNL A   1      31.531  24.328  26.237  1.00  0.00     0.224 C 
ATOM      5  O   UNL A   1      30.509  23.869  26.761  1.00  0.00    -0.275 OA
ATOM      6  H   UNL A   1      31.175  25.988  27.221  1.00  0.00     0.163 HD
BRANCH   4   7
ATOM      7  C   UNL A   1      32.472  23.412  25.426  1.00  0.00     0.098 C 
ATOM      8  C   UNL A   1      33.943  23.815  25.335  1.00  0.00     0.099 C 
ATOM      9  C   UNL A   1      34.168  24.178  23.849  1.00  0.00     0.028 C 
ATOM     10  C   UNL A   1      32.019  23.451  23.936  1.00  0.00     0.028 C 
ATOM     11  C   UNL A   1      34.191  22.949  22.948  1.00  0.00     0.009 C 
ATOM     12  C   UNL A   1      32.783  24.655  23.460  1.00  0.00    -0.064 C 
ATOM     13  C   UNL A   1      32.722  22.492  22.965  1.00  0.00     0.009 C 
ATOM     14  C   UNL A   1      32.349  25.691  22.722  1.00  0.00    -0.077 C 
ATOM     15  C   UNL A   1      30.913  25.827  22.283  1.00  0.00     0.039 C 
ATOM     16  C   UNL A   1      33.292  26.705  22.149  1.00  0.00     0.039 C 
BRANCH   8  17
ATOM     17  C   UNL A   1      35.002  22.939  26.034  1.00  0.00     0.228 C 
ATOM     18  N   UNL A   1      35.206  21.597  26.015  1.00  0.00    -0.326 N 
ATOM     19  H   UNL A   1      36.011  21.361  26.530  1.00  0.00     0.169 HD
ATOM     20  O   UNL A   1      35.891  23.548  26.660  1.00  0.00    -0.274 OA
BRANCH  18  21
ATOM     21  C   UNL A   1      34.606  20.448  25.479  1.00  0.00     0.041 A 
ATOM     22  C   UNL A   1      33.309  18.009  24.868  1.00  0.00     0.119 A 
ATOM     23  C   UNL A   1      34.594  18.262  24.411  1.00  0.00     0.048 A 
ATOM     24  C   UNL A   1      32.622  19.040  25.507  1.00  0.00     0.048 A 
ATOM     25  C   UNL A   1      35.222  19.491  24.691  1.00  0.00     0.030 A 
ATOM     26  C   UNL A   1      33.253  20.259  25.782  1.00  0.00     0.030 A 
BRANCH  22  27
ATOM     27  O   UNL A   1      32.639  16.825  24.819  1.00  0.00    -0.497 OA
ATOM     28  C   UNL A   1      33.291  15.626  25.212  1.00  0.00     0.278 C 
ENDBRANCH  22  27
ENDBRANCH  18  21
ENDBRANCH   8  17
ENDBRANCH   4   7
ENDBRANCH   2   3
ENDBRANCH   1   2
BRANCH   1  29
ATOM     29  C   UNL A   1      33.299  28.889  25.186  1.00  0.00     0.023 C 
BRANCH  29  30
ATOM     30  C   UNL A   1      34.199  29.350  26.325  1.00  0.00     0.116 C 
BRANCH  30  31
ATOM     31  N   UNL A   1      33.806  30.640  26.866  1.00  0.00    -0.352 N 
ATOM     32  C   UNL A   1      34.403  31.387  27.856  1.00  0.00     0.251 C 
ATOM     33  H   UNL A   1      32.997  31.036  26.468  1.00  0.00     0.163 HD
ATOM     34  O   UNL A   1      33.845  32.386  28.289  1.00  0.00    -0.269 OA
BRANCH  32  35
ATOM     35  C   UNL A   1      35.706  30.959  28.414  1.00  0.00     0.039 A 
ATOM     36  C   UNL A   1      36.824  31.770  28.208  1.00  0.00     0.014 A 
ATOM     37  C   UNL A   1      35.824  29.773  29.143  1.00  0.00     0.014 A 
ATOM     38  C   UNL A   1      38.048  31.422  28.785  1.00  0.00     0.010 A 
ATOM     39  C   UNL A   1      37.024  29.469  29.783  1.00  0.00     0.010 A 
ATOM     40  C   UNL A   1      38.150  30.287  29.607  1.00  0.00    -0.014 A 
BRANCH  40  41
ATOM     41  C   UNL A   1      39.422  29.951  30.299  1.00  0.00     0.031 A 
ATOM     42  C   UNL A   1      40.294  28.835  29.792  1.00  0.00     0.074 A 
ATOM     43  C   UNL A   1      39.759  30.605  31.429  1.00  0.00     0.049 A 
ATOM     44  N   UNL A   1      41.414  28.372  30.287  1.00  0.00    -0.248 NA
ATOM     45  C   UNL A   1      39.833  28.126  28.588  1.00  0.00     0.031 C 
ATOM     46  C   UNL A   1      38.971  31.667  32.058  1.00  0.00     0.029 A 
ATOM     47  N   UNL A   1      40.844  30.464  32.257  1.00  0.00    -0.354 N 
ATOM     48  C   UNL A   1      41.777  27.307  29.471  1.00  0.00     0.074 A 
ATOM     49  C   UNL A   1      40.734  27.161  28.480  1.00  0.00     0.031 C 
ATOM     50  C   UNL A   1      39.606  32.093  33.160  1.00  0.00     0.029 A 
ATOM     51  C   UNL A   1      40.823  31.307  33.343  1.00  0.00     0.049 A 
ATOM     52  H   UNL A   1      41.570  29.819  32.090  1.00  0.00     0.167 HD
ATOM     53  C   UNL A   1      42.886  26.529  29.532  1.00  0.00     0.031 A 
ATOM     54  C   UNL A   1      41.677  31.430  34.379  1.00  0.00     0.031 A 
ATOM     55  C   UNL A   1      43.921  26.679  30.522  1.00  0.00     0.049 A 
ATOM     56  C   UNL A   1      42.905  30.565  34.425  1.00  0.00     0.074 A 
ATOM     57  C   UNL A   1      45.118  25.993  30.624  1.00  0.00     0.029 A 
ATOM     58  N   UNL A   1      43.875  27.564  31.590  1.00  0.00    -0.354 N 
ATOM     59  N   UNL A   1      43.282  29.627  33.590  1.00  0.00    -0.248 NA
ATOM     60  C   UNL A   1      43.831  30.785  35.543  1.00  0.00     0.031 C 
ATOM     61  C   UNL A   1      45.764  26.413  31.791  1.00  0.00     0.029 A 
ATOM     62  C   UNL A   1      45.006  27.416  32.377  1.00  0.00     0.049 A 
ATOM     63  H   UNL A   1      43.147  28.203  31.763  1.00  0.00     0.167 HD
ATOM     64  C   UNL A   1      44.499  29.157  34.070  1.00  0.00     0.074 A 
ATOM     65  C   UNL A   1      44.803  29.929  35.258  1.00  0.00     0.031 C 
ATOM     66  C   UNL A   1      45.294  28.178  33.568  1.00  0.00     0.031 A 
BRANCH  53  67
ATOM     67  C   UNL A   1      43.016  25.424  28.512  1.00  0.00    -0.014 A 
ATOM     68  C   UNL A   1      42.428  24.162  28.716  1.00  0.00     0.010 A 
ATOM     69  C   UNL A   1      43.731  25.657  27.323  1.00  0.00     0.010 A 
ATOM     70  C   UNL A   1      42.608  23.137  27.783  1.00  0.00     0.020 A 
ATOM     71  C   UNL A   1      43.883  24.646  26.371  1.00  0.00     0.020 A 
ATOM     72  C   UNL A   1      43.342  23.384  26.619  1.00  0.00     0.054 A 
BRANCH  72  73
ATOM     73  S   UNL A   1      43.569  22.032  25.432  1.00  0.00     0.124 S 
ATOM     74  O   UNL A   1      44.904  21.550  25.776  1.00  0.00    -0.237 OA
ATOM     75  O   UNL A   1      42.471  21.128  25.761  1.00  0.00    -0.237 OA
ATOM     76  O   UNL A   1      43.462  22.690  24.131  1.00  0.00    -0.744 OA
ENDBRANCH  72  73
ENDBRANCH  53  67
BRANCH  54  77
ATOM     77  C   UNL A   1      41.385  32.421  35.451  1.00  0.00    -0.014 A 
ATOM     78  C   UNL A   1      41.814  33.755  35.337  1.00  0.00     0.010 A 
ATOM     79  C   UNL A   1      40.621  32.043  36.572  1.00  0.00     0.010 A 
ATOM     80  C   UNL A   1      41.483  34.692  36.321  1.00  0.00     0.020 A 
ATOM     81  C   UNL A   1      40.264  32.982  37.543  1.00  0.00     0.020 A 
ATOM     82  C   UNL A   1      40.702  34.301  37.413  1.00  0.00     0.054 A 
BRANCH  82  83
ATOM     83  S   UNL A   1      40.209  35.554  38.630  1.00  0.00     0.124 S 
ATOM     84  O   UNL A   1      41.358  35.574  39.529  1.00  0.00    -0.237 OA
ATOM     85  O   UNL A   1      40.033  36.744  37.800  1.00  0.00    -0.237 OA
ATOM     86  O   UNL A   1      38.977  35.014  39.199  1.00  0.00    -0.744 OA
ENDBRANCH  82  83
ENDBRANCH  54  77
BRANCH  66  87
ATOM     87  C   UNL A   1      46.587  27.895  34.287  1.00  0.00    -0.014 A 
ATOM     88  C   UNL A   1      47.766  28.596  33.980  1.00  0.00     0.010 A 
ATOM     89  C   UNL A   1      46.607  26.948  35.329  1.00  0.00     0.010 A 
ATOM     90  C   UNL A   1      48.948  28.335  34.681  1.00  0.00     0.020 A 
ATOM     91  C   UNL A   1      47.777  26.706  36.053  1.00  0.00     0.020 A 
ATOM     92  C   UNL A   1      48.944  27.392  35.713  1.00  0.00     0.054 A 
BRANCH  92  93
ATOM     93  S   UNL A   1      50.480  27.101  36.634  1.00  0.00     0.124 S 
ATOM     94  O   UNL A   1      51.497  27.515  35.672  1.00  0.00    -0.237 OA
ATOM     95  O   UNL A   1      50.324  27.972  37.797  1.00  0.00    -0.237 OA
ATOM     96  O   UNL A   1      50.444  25.670  36.925  1.00  0.00    -0.744 OA
ENDBRANCH  92  93
ENDBRANCH  66  87
ENDBRANCH  40  41
ENDBRANCH  32  35
ENDBRANCH  30  31
ENDBRANCH  29  30
ENDBRANCH   1  29
TORSDOF 17
ENDMDL
