MODEL 1
REMARK VINA RESULT:     -11.3      0.000      0.000
REMARK SMILES O=C(NCCCCNC(=O)c1ccc(-c2c3nc(c(-c4ccc(S(=O)(=O)[O-])cc4)c4ccc([nH]4)c(-c4ccc(S(=O)(=O)[O-])cc4)c4nc(c(-c5ccc(S(=O)(=O)[O-])cc5)c5ccc2[nH]5)C=C4)C=C3)cc1)c1ccc(/N=C\c2ccccc2O)cc1
REMARK SMILES IDX 5 1 4 2 3 3 1 4 2 5 71 7 72 8 85 9 73 10 84 11 74 12 75 13
REMARK SMILES IDX 76 14 77 15 78 16 82 17 79 18 81 19 80 20 83 21 6 23 7 24
REMARK SMILES IDX 8 25 9 26 10 28 11 29 12 30 70 31 13 32 69 33 14 34 15 35
REMARK SMILES IDX 16 36 63 37 17 38 68 39 62 40 64 41 18 42 67 43 61 44 60 45
REMARK SMILES IDX 19 47 49 48 30 49 48 50 31 51 34 52 47 53 65 54 32 55 33 56
REMARK SMILES IDX 46 58 66 59 35 60 20 61 21 62 29 63 22 64 28 65 23 66 24 67
REMARK SMILES IDX 25 68 26 69 27 70 50 71 51 72 59 73 52 74 58 75 53 76 54 77
REMARK SMILES IDX 55 78 56 79 57 80 36 81 37 82 45 83 38 84 44 85 39 86 40 87
REMARK SMILES IDX 41 88 42 89 43 90
REMARK H PARENT 3 6 83 22 8 27 64 46 34 57
REMARK Flexibility Score: inf
ROOT
ATOM      1  C   UNL A   1      32.872  29.288  24.766  1.00  0.00     0.023 C 
ENDROOT
BRANCH   1   2
ATOM      2  C   UNL A   1      31.412  29.669  24.991  1.00  0.00     0.116 C 
BRANCH   2   3
ATOM      3  N   UNL A   1      30.662  29.820  23.754  1.00  0.00    -0.352 N 
ATOM      4  O   UNL A   1      29.779  29.272  21.762  1.00  0.00    -0.269 OA
ATOM      5  C   UNL A   1      30.311  28.896  22.804  1.00  0.00     0.251 C 
ATOM      6  H   UNL A   1      30.358  30.737  23.568  1.00  0.00     0.163 HD
BRANCH   5   7
ATOM      7  C   UNL A   1      30.607  27.456  22.989  1.00  0.00     0.039 A 
ATOM      8  C   UNL A   1      31.539  26.770  22.211  1.00  0.00     0.016 A 
ATOM      9  C   UNL A   1      29.947  26.780  24.015  1.00  0.00     0.016 A 
ATOM     10  C   UNL A   1      31.661  25.383  22.337  1.00  0.00     0.029 A 
ATOM     11  C   UNL A   1      30.141  25.407  24.184  1.00  0.00     0.029 A 
ATOM     12  C   UNL A   1      30.919  24.671  23.285  1.00  0.00     0.063 A 
BRANCH  12  13
ATOM     13  N   UNL A   1      31.051  23.271  23.264  1.00  0.00    -0.256 NA
ATOM     14  C   UNL A   1      32.062  22.595  23.721  1.00  0.00     0.123 C 
BRANCH  14  15
ATOM     15  C   UNL A   1      33.283  23.089  24.370  1.00  0.00     0.035 A 
ATOM     16  C   UNL A   1      33.247  23.181  25.766  1.00  0.00     0.013 A 
ATOM     17  C   UNL A   1      34.463  23.354  23.671  1.00  0.00     0.124 A 
ATOM     18  C   UNL A   1      34.417  23.467  26.467  1.00  0.00     0.001 A 
ATOM     19  C   UNL A   1      35.627  23.651  24.375  1.00  0.00     0.047 A 
ATOM     20  C   UNL A   1      35.608  23.688  25.772  1.00  0.00     0.004 A 
BRANCH  17  21
ATOM     21  O   UNL A   1      34.562  23.302  22.309  1.00  0.00    -0.507 OA
ATOM     22  H   UNL A   1      33.805  23.457  21.779  1.00  0.00     0.293 HD
ENDBRANCH  17  21
ENDBRANCH  14  15
ENDBRANCH  12  13
ENDBRANCH   5   7
ENDBRANCH   2   3
ENDBRANCH   1   2
BRANCH   1  23
ATOM     23  C   UNL A   1      33.360  28.062  25.532  1.00  0.00     0.023 C 
BRANCH  23  24
ATOM     24  C   UNL A   1      33.758  28.312  26.981  1.00  0.00     0.116 C 
BRANCH  24  25
ATOM     25  N   UNL A   1      33.572  29.693  27.392  1.00  0.00    -0.352 N 
ATOM     26  C   UNL A   1      34.442  30.526  28.055  1.00  0.00     0.251 C 
ATOM     27  H   UNL A   1      32.701  30.088  27.163  1.00  0.00     0.163 HD
ATOM     28  O   UNL A   1      34.056  31.625  28.440  1.00  0.00    -0.269 OA
BRANCH  26  29
ATOM     29  C   UNL A   1      35.831  30.087  28.328  1.00  0.00     0.039 A 
ATOM     30  C   UNL A   1      36.774  30.160  27.299  1.00  0.00     0.014 A 
ATOM     31  C   UNL A   1      36.203  29.595  29.582  1.00  0.00     0.014 A 
ATOM     32  C   UNL A   1      38.097  29.781  27.544  1.00  0.00     0.010 A 
ATOM     33  C   UNL A   1      37.539  29.306  29.848  1.00  0.00     0.010 A 
ATOM     34  C   UNL A   1      38.497  29.371  28.827  1.00  0.00    -0.014 A 
BRANCH  34  35
ATOM     35  C   UNL A   1      39.898  28.954  29.099  1.00  0.00     0.031 A 
ATOM     36  C   UNL A   1      40.859  29.929  29.732  1.00  0.00     0.074 A 
ATOM     37  C   UNL A   1      40.316  27.718  28.759  1.00  0.00     0.049 A 
ATOM     38  N   UNL A   1      42.127  29.771  30.016  1.00  0.00    -0.248 NA
ATOM     39  C   UNL A   1      40.334  31.264  30.071  1.00  0.00     0.031 C 
ATOM     40  C   UNL A   1      39.498  26.694  28.104  1.00  0.00     0.029 A 
ATOM     41  N   UNL A   1      41.538  27.112  28.916  1.00  0.00    -0.354 N 
ATOM     42  C   UNL A   1      42.547  30.981  30.559  1.00  0.00     0.074 A 
ATOM     43  C   UNL A   1      41.421  31.886  30.499  1.00  0.00     0.031 C 
ATOM     44  C   UNL A   1      40.232  25.580  27.941  1.00  0.00     0.029 A 
ATOM     45  C   UNL A   1      41.581  25.821  28.444  1.00  0.00     0.049 A 
ATOM     46  H   UNL A   1      42.311  27.560  29.330  1.00  0.00     0.167 HD
ATOM     47  C   UNL A   1      43.748  31.304  31.094  1.00  0.00     0.031 A 
ATOM     48  C   UNL A   1      42.594  24.933  28.414  1.00  0.00     0.031 A 
ATOM     49  C   UNL A   1      44.867  30.402  31.165  1.00  0.00     0.049 A 
ATOM     50  C   UNL A   1      43.926  25.321  29.003  1.00  0.00     0.074 A 
ATOM     51  C   UNL A   1      46.121  30.626  31.704  1.00  0.00     0.029 A 
ATOM     52  N   UNL A   1      44.862  29.098  30.693  1.00  0.00    -0.354 N 
ATOM     53  N   UNL A   1      44.287  26.459  29.548  1.00  0.00    -0.248 NA
ATOM     54  C   UNL A   1      44.977  24.297  28.996  1.00  0.00     0.031 C 
ATOM     55  C   UNL A   1      46.888  29.472  31.521  1.00  0.00     0.029 A 
ATOM     56  C   UNL A   1      46.091  28.506  30.929  1.00  0.00     0.049 A 
ATOM     57  H   UNL A   1      44.097  28.658  30.256  1.00  0.00     0.167 HD
ATOM     58  C   UNL A   1      45.594  26.268  29.989  1.00  0.00     0.074 A 
ATOM     59  C   UNL A   1      45.949  24.904  29.661  1.00  0.00     0.031 C 
ATOM     60  C   UNL A   1      46.425  27.142  30.610  1.00  0.00     0.031 A 
BRANCH  47  61
ATOM     61  C   UNL A   1      43.907  32.687  31.670  1.00  0.00    -0.014 A 
ATOM     62  C   UNL A   1      43.605  32.942  33.021  1.00  0.00     0.010 A 
ATOM     63  C   UNL A   1      44.418  33.730  30.877  1.00  0.00     0.010 A 
ATOM     64  C   UNL A   1      43.783  34.218  33.560  1.00  0.00     0.020 A 
ATOM     65  C   UNL A   1      44.627  35.001  31.419  1.00  0.00     0.020 A 
ATOM     66  C   UNL A   1      44.298  35.239  32.755  1.00  0.00     0.054 A 
BRANCH  66  67
ATOM     67  S   UNL A   1      44.569  36.872  33.499  1.00  0.00     0.124 S 
ATOM     68  O   UNL A   1      46.027  36.947  33.537  1.00  0.00    -0.237 OA
ATOM     69  O   UNL A   1      43.919  37.767  32.545  1.00  0.00    -0.237 OA
ATOM     70  O   UNL A   1      43.916  36.773  34.802  1.00  0.00    -0.744 OA
ENDBRANCH  66  67
ENDBRANCH  47  61
BRANCH  48  71
ATOM     71  C   UNL A   1      42.399  23.583  27.810  1.00  0.00    -0.014 A 
ATOM     72  C   UNL A   1      42.074  22.472  28.610  1.00  0.00     0.010 A 
ATOM     73  C   UNL A   1      42.579  23.394  26.427  1.00  0.00     0.010 A 
ATOM     74  C   UNL A   1      41.985  21.195  28.050  1.00  0.00     0.020 A 
ATOM     75  C   UNL A   1      42.454  22.125  25.857  1.00  0.00     0.020 A 
ATOM     76  C   UNL A   1      42.182  21.028  26.677  1.00  0.00     0.054 A 
BRANCH  76  77
ATOM     77  S   UNL A   1      42.063  19.362  25.969  1.00  0.00     0.124 S 
ATOM     78  O   UNL A   1      42.943  19.462  24.810  1.00  0.00    -0.237 OA
ATOM     79  O   UNL A   1      42.546  18.519  27.061  1.00  0.00    -0.237 OA
ATOM     80  O   UNL A   1      40.640  19.220  25.666  1.00  0.00    -0.744 OA
ENDBRANCH  76  77
ENDBRANCH  48  71
BRANCH  60  81
ATOM     81  C   UNL A   1      47.772  26.626  31.045  1.00  0.00    -0.014 A 
ATOM     82  C   UNL A   1      47.955  25.980  32.281  1.00  0.00     0.010 A 
ATOM     83  C   UNL A   1      48.874  26.775  30.182  1.00  0.00     0.010 A 
ATOM     84  C   UNL A   1      49.226  25.549  32.671  1.00  0.00     0.020 A 
ATOM     85  C   UNL A   1      50.139  26.313  30.553  1.00  0.00     0.020 A 
ATOM     86  C   UNL A   1      50.311  25.725  31.806  1.00  0.00     0.054 A 
BRANCH  86  87
ATOM     87  S   UNL A   1      51.950  25.156  32.334  1.00  0.00     0.124 S 
ATOM     88  O   UNL A   1      52.082  25.785  33.646  1.00  0.00    -0.237 OA
ATOM     89  O   UNL A   1      51.797  23.703  32.346  1.00  0.00    -0.237 OA
ATOM     90  O   UNL A   1      52.845  25.674  31.302  1.00  0.00    -0.744 OA
ENDBRANCH  86  87
ENDBRANCH  60  81
ENDBRANCH  34  35
ENDBRANCH  26  29
ENDBRANCH  24  25
ENDBRANCH  23  24
ENDBRANCH   1  23
TORSDOF 17
ENDMDL
MODEL 2
REMARK VINA RESULT:     -11.0      3.558      6.612
REMARK SMILES O=C(NCCCCNC(=O)c1ccc(-c2c3nc(c(-c4ccc(S(=O)(=O)[O-])cc4)c4ccc([nH]4)c(-c4ccc(S(=O)(=O)[O-])cc4)c4nc(c(-c5ccc(S(=O)(=O)[O-])cc5)c5ccc2[nH]5)C=C4)C=C3)cc1)c1ccc(/N=C\c2ccccc2O)cc1
REMARK SMILES IDX 5 1 4 2 3 3 1 4 2 5 71 7 72 8 85 9 73 10 84 11 74 12 75 13
REMARK SMILES IDX 76 14 77 15 78 16 82 17 79 18 81 19 80 20 83 21 6 23 7 24
REMARK SMILES IDX 8 25 9 26 10 28 11 29 12 30 70 31 13 32 69 33 14 34 15 35
REMARK SMILES IDX 16 36 63 37 17 38 68 39 62 40 64 41 18 42 67 43 61 44 60 45
REMARK SMILES IDX 19 47 49 48 30 49 48 50 31 51 34 52 47 53 65 54 32 55 33 56
REMARK SMILES IDX 46 58 66 59 35 60 20 61 21 62 29 63 22 64 28 65 23 66 24 67
REMARK SMILES IDX 25 68 26 69 27 70 50 71 51 72 59 73 52 74 58 75 53 76 54 77
REMARK SMILES IDX 55 78 56 79 57 80 36 81 37 82 45 83 38 84 44 85 39 86 40 87
REMARK SMILES IDX 41 88 42 89 43 90
REMARK H PARENT 3 6 83 22 8 27 64 46 34 57
REMARK Flexibility Score: inf
ROOT
ATOM      1  C   UNL A   1      33.234  34.714  28.923  1.00  0.00     0.023 C 
ENDROOT
BRANCH   1   2
ATOM      2  C   UNL A   1      33.438  36.084  29.563  1.00  0.00     0.116 C 
BRANCH   2   3
ATOM      3  N   UNL A   1      32.454  36.390  30.587  1.00  0.00    -0.352 N 
ATOM      4  O   UNL A   1      31.375  36.272  32.554  1.00  0.00    -0.269 OA
ATOM      5  C   UNL A   1      32.374  35.992  31.898  1.00  0.00     0.251 C 
ATOM      6  H   UNL A   1      31.723  36.979  30.292  1.00  0.00     0.163 HD
BRANCH   5   7
ATOM      7  C   UNL A   1      33.450  35.187  32.520  1.00  0.00     0.039 A 
ATOM      8  C   UNL A   1      33.558  33.807  32.347  1.00  0.00     0.016 A 
ATOM      9  C   UNL A   1      34.413  35.855  33.277  1.00  0.00     0.016 A 
ATOM     10  C   UNL A   1      34.505  33.087  33.081  1.00  0.00     0.029 A 
ATOM     11  C   UNL A   1      35.406  35.131  33.940  1.00  0.00     0.029 A 
ATOM     12  C   UNL A   1      35.406  33.732  33.936  1.00  0.00     0.063 A 
BRANCH  12  13
ATOM     13  N   UNL A   1      36.254  32.906  34.694  1.00  0.00    -0.256 NA
ATOM     14  C   UNL A   1      37.518  32.705  34.474  1.00  0.00     0.123 C 
BRANCH  14  15
ATOM     15  C   UNL A   1      38.371  33.274  33.423  1.00  0.00     0.035 A 
ATOM     16  C   UNL A   1      37.843  33.265  32.127  1.00  0.00     0.013 A 
ATOM     17  C   UNL A   1      39.595  33.896  33.688  1.00  0.00     0.124 A 
ATOM     18  C   UNL A   1      38.509  33.945  31.109  1.00  0.00     0.001 A 
ATOM     19  C   UNL A   1      40.262  34.564  32.665  1.00  0.00     0.047 A 
ATOM     20  C   UNL A   1      39.709  34.605  31.381  1.00  0.00     0.004 A 
BRANCH  17  21
ATOM     21  O   UNL A   1      40.175  33.923  34.925  1.00  0.00    -0.507 OA
ATOM     22  H   UNL A   1      40.043  34.660  35.487  1.00  0.00     0.293 HD
ENDBRANCH  17  21
ENDBRANCH  14  15
ENDBRANCH  12  13
ENDBRANCH   5   7
ENDBRANCH   2   3
ENDBRANCH   1   2
BRANCH   1  23
ATOM     23  C   UNL A   1      34.497  34.030  28.409  1.00  0.00     0.023 C 
BRANCH  23  24
ATOM     24  C   UNL A   1      34.798  32.667  29.018  1.00  0.00     0.116 C 
BRANCH  24  25
ATOM     25  N   UNL A   1      34.047  31.588  28.399  1.00  0.00    -0.352 N 
ATOM     26  C   UNL A   1      34.483  30.352  27.984  1.00  0.00     0.251 C 
ATOM     27  H   UNL A   1      33.090  31.767  28.258  1.00  0.00     0.163 HD
ATOM     28  O   UNL A   1      33.726  29.621  27.355  1.00  0.00    -0.269 OA
BRANCH  26  29
ATOM     29  C   UNL A   1      35.871  29.918  28.272  1.00  0.00     0.039 A 
ATOM     30  C   UNL A   1      36.830  30.016  27.261  1.00  0.00     0.014 A 
ATOM     31  C   UNL A   1      36.226  29.408  29.524  1.00  0.00     0.014 A 
ATOM     32  C   UNL A   1      38.151  29.642  27.521  1.00  0.00     0.010 A 
ATOM     33  C   UNL A   1      37.559  29.124  29.807  1.00  0.00     0.010 A 
ATOM     34  C   UNL A   1      38.534  29.214  28.803  1.00  0.00    -0.014 A 
BRANCH  34  35
ATOM     35  C   UNL A   1      39.933  28.802  29.092  1.00  0.00     0.031 A 
ATOM     36  C   UNL A   1      40.877  29.773  29.755  1.00  0.00     0.074 A 
ATOM     37  C   UNL A   1      40.365  27.575  28.740  1.00  0.00     0.049 A 
ATOM     38  N   UNL A   1      42.142  29.621  30.057  1.00  0.00    -0.248 NA
ATOM     39  C   UNL A   1      40.337  31.099  30.105  1.00  0.00     0.031 C 
ATOM     40  C   UNL A   1      39.565  26.555  28.057  1.00  0.00     0.029 A 
ATOM     41  N   UNL A   1      41.589  26.975  28.907  1.00  0.00    -0.354 N 
ATOM     42  C   UNL A   1      42.544  30.824  30.625  1.00  0.00     0.074 A 
ATOM     43  C   UNL A   1      41.412  31.722  30.561  1.00  0.00     0.031 C 
ATOM     44  C   UNL A   1      40.310  25.449  27.888  1.00  0.00     0.029 A 
ATOM     45  C   UNL A   1      41.649  25.691  28.416  1.00  0.00     0.049 A 
ATOM     46  H   UNL A   1      42.352  27.422  29.340  1.00  0.00     0.167 HD
ATOM     47  C   UNL A   1      43.734  31.147  31.184  1.00  0.00     0.031 A 
ATOM     48  C   UNL A   1      42.669  24.810  28.389  1.00  0.00     0.031 A 
ATOM     49  C   UNL A   1      44.858  30.252  31.259  1.00  0.00     0.049 A 
ATOM     50  C   UNL A   1      43.988  25.199  29.005  1.00  0.00     0.074 A 
ATOM     51  C   UNL A   1      46.102  30.477  31.822  1.00  0.00     0.029 A 
ATOM     52  N   UNL A   1      44.870  28.956  30.767  1.00  0.00    -0.354 N 
ATOM     53  N   UNL A   1      44.332  26.331  29.574  1.00  0.00    -0.248 NA
ATOM     54  C   UNL A   1      45.047  24.182  28.999  1.00  0.00     0.031 C 
ATOM     55  C   UNL A   1      46.880  29.331  31.634  1.00  0.00     0.029 A 
ATOM     56  C   UNL A   1      46.099  28.369  31.014  1.00  0.00     0.049 A 
ATOM     57  H   UNL A   1      44.115  28.518  30.312  1.00  0.00     0.167 HD
ATOM     58  C   UNL A   1      45.633  26.142  30.032  1.00  0.00     0.074 A 
ATOM     59  C   UNL A   1      46.004  24.785  29.690  1.00  0.00     0.031 C 
ATOM     60  C   UNL A   1      46.448  27.012  30.680  1.00  0.00     0.031 A 
BRANCH  47  61
ATOM     61  C   UNL A   1      43.874  32.523  31.784  1.00  0.00    -0.014 A 
ATOM     62  C   UNL A   1      44.192  33.631  30.975  1.00  0.00     0.010 A 
ATOM     63  C   UNL A   1      43.630  32.726  33.154  1.00  0.00     0.010 A 
ATOM     64  C   UNL A   1      44.291  34.909  31.530  1.00  0.00     0.020 A 
ATOM     65  C   UNL A   1      43.696  34.007  33.707  1.00  0.00     0.020 A 
ATOM     66  C   UNL A   1      44.037  35.089  32.892  1.00  0.00     0.054 A 
BRANCH  66  67
ATOM     67  S   UNL A   1      44.120  36.770  33.571  1.00  0.00     0.124 S 
ATOM     68  O   UNL A   1      45.235  36.661  34.509  1.00  0.00    -0.237 OA
ATOM     69  O   UNL A   1      44.375  37.581  32.384  1.00  0.00    -0.237 OA
ATOM     70  O   UNL A   1      42.808  36.962  34.185  1.00  0.00    -0.744 OA
ENDBRANCH  66  67
ENDBRANCH  47  61
BRANCH  48  71
ATOM     71  C   UNL A   1      42.492  23.469  27.761  1.00  0.00    -0.014 A 
ATOM     72  C   UNL A   1      41.868  22.419  28.460  1.00  0.00     0.010 A 
ATOM     73  C   UNL A   1      42.989  23.223  26.468  1.00  0.00     0.010 A 
ATOM     74  C   UNL A   1      41.792  21.140  27.902  1.00  0.00     0.020 A 
ATOM     75  C   UNL A   1      42.881  21.955  25.891  1.00  0.00     0.020 A 
ATOM     76  C   UNL A   1      42.304  20.915  26.622  1.00  0.00     0.054 A 
BRANCH  76  77
ATOM     77  S   UNL A   1      42.196  19.247  25.914  1.00  0.00     0.124 S 
ATOM     78  O   UNL A   1      42.706  18.422  27.003  1.00  0.00    -0.237 OA
ATOM     79  O   UNL A   1      40.768  19.116  25.633  1.00  0.00    -0.237 OA
ATOM     80  O   UNL A   1      43.051  19.323  24.731  1.00  0.00    -0.744 OA
ENDBRANCH  76  77
ENDBRANCH  48  71
BRANCH  60  81
ATOM     81  C   UNL A   1      47.792  26.498  31.129  1.00  0.00    -0.014 A 
ATOM     82  C   UNL A   1      47.981  25.927  32.400  1.00  0.00     0.010 A 
ATOM     83  C   UNL A   1      48.884  26.574  30.244  1.00  0.00     0.010 A 
ATOM     84  C   UNL A   1      49.249  25.497  32.800  1.00  0.00     0.020 A 
ATOM     85  C   UNL A   1      50.145  26.112  30.626  1.00  0.00     0.020 A 
ATOM     86  C   UNL A   1      50.324  25.600  31.911  1.00  0.00     0.054 A 
BRANCH  86  87
ATOM     87  S   UNL A   1      51.960  25.033  32.452  1.00  0.00     0.124 S 
ATOM     88  O   UNL A   1      51.812  23.581  32.396  1.00  0.00    -0.237 OA
ATOM     89  O   UNL A   1      52.849  25.613  31.448  1.00  0.00    -0.237 OA
ATOM     90  O   UNL A   1      52.096  25.594  33.794  1.00  0.00    -0.744 OA
ENDBRANCH  86  87
ENDBRANCH  60  81
ENDBRANCH  34  35
ENDBRANCH  26  29
ENDBRANCH  24  25
ENDBRANCH  23  24
ENDBRANCH   1  23
TORSDOF 17
ENDMDL
MODEL 3
REMARK VINA RESULT:     -11.0      2.736      9.312
REMARK SMILES O=C(NCCCCNC(=O)c1ccc(-c2c3nc(c(-c4ccc(S(=O)(=O)[O-])cc4)c4ccc([nH]4)c(-c4ccc(S(=O)(=O)[O-])cc4)c4nc(c(-c5ccc(S(=O)(=O)[O-])cc5)c5ccc2[nH]5)C=C4)C=C3)cc1)c1ccc(/N=C\c2ccccc2O)cc1
REMARK SMILES IDX 5 1 4 2 3 3 1 4 2 5 71 7 72 8 85 9 73 10 84 11 74 12 75 13
REMARK SMILES IDX 76 14 77 15 78 16 82 17 79 18 81 19 80 20 83 21 6 23 7 24
REMARK SMILES IDX 8 25 9 26 10 28 11 29 12 30 70 31 13 32 69 33 14 34 15 35
REMARK SMILES IDX 16 36 63 37 17 38 68 39 62 40 64 41 18 42 67 43 61 44 60 45
REMARK SMILES IDX 19 47 49 48 30 49 48 50 31 51 34 52 47 53 65 54 32 55 33 56
REMARK SMILES IDX 46 58 66 59 35 60 20 61 21 62 29 63 22 64 28 65 23 66 24 67
REMARK SMILES IDX 25 68 26 69 27 70 50 71 51 72 59 73 52 74 58 75 53 76 54 77
REMARK SMILES IDX 55 78 56 79 57 80 36 81 37 82 45 83 38 84 44 85 39 86 40 87
REMARK SMILES IDX 41 88 42 89 43 90
REMARK H PARENT 3 6 83 22 8 27 64 46 34 57
REMARK Flexibility Score: inf
ROOT
ATOM      1  C   UNL A   1      33.892  23.376  26.318  1.00  0.00     0.023 C 
ENDROOT
BRANCH   1   2
ATOM      2  C   UNL A   1      32.887  22.322  25.864  1.00  0.00     0.116 C 
BRANCH   2   3
ATOM      3  N   UNL A   1      31.629  22.379  26.590  1.00  0.00    -0.352 N 
ATOM      4  O   UNL A   1      29.732  23.246  27.424  1.00  0.00    -0.269 OA
ATOM      5  C   UNL A   1      30.665  23.354  26.634  1.00  0.00     0.251 C 
ATOM      6  H   UNL A   1      31.439  21.588  27.144  1.00  0.00     0.163 HD
BRANCH   5   7
ATOM      7  C   UNL A   1      30.757  24.560  25.778  1.00  0.00     0.039 A 
ATOM      8  C   UNL A   1      30.881  24.495  24.391  1.00  0.00     0.016 A 
ATOM      9  C   UNL A   1      30.675  25.808  26.396  1.00  0.00     0.016 A 
ATOM     10  C   UNL A   1      31.113  25.663  23.659  1.00  0.00     0.029 A 
ATOM     11  C   UNL A   1      30.825  26.973  25.640  1.00  0.00     0.029 A 
ATOM     12  C   UNL A   1      31.149  26.915  24.281  1.00  0.00     0.063 A 
BRANCH  12  13
ATOM     13  N   UNL A   1      31.481  28.012  23.466  1.00  0.00    -0.256 NA
ATOM     14  C   UNL A   1      32.164  29.055  23.833  1.00  0.00     0.123 C 
BRANCH  14  15
ATOM     15  C   UNL A   1      32.760  29.351  25.142  1.00  0.00     0.035 A 
ATOM     16  C   UNL A   1      33.877  28.587  25.498  1.00  0.00     0.013 A 
ATOM     17  C   UNL A   1      32.328  30.401  25.956  1.00  0.00     0.124 A 
ATOM     18  C   UNL A   1      34.607  28.925  26.637  1.00  0.00     0.001 A 
ATOM     19  C   UNL A   1      33.054  30.727  27.099  1.00  0.00     0.047 A 
ATOM     20  C   UNL A   1      34.203  30.003  27.427  1.00  0.00     0.004 A 
BRANCH  17  21
ATOM     21  O   UNL A   1      31.235  31.171  25.677  1.00  0.00    -0.507 OA
ATOM     22  H   UNL A   1      31.343  32.003  25.261  1.00  0.00     0.293 HD
ENDBRANCH  17  21
ENDBRANCH  14  15
ENDBRANCH  12  13
ENDBRANCH   5   7
ENDBRANCH   2   3
ENDBRANCH   1   2
BRANCH   1  23
ATOM     23  C   UNL A   1      35.263  22.847  26.730  1.00  0.00     0.023 C 
BRANCH  23  24
ATOM     24  C   UNL A   1      36.450  23.476  26.013  1.00  0.00     0.116 C 
BRANCH  24  25
ATOM     25  N   UNL A   1      37.600  22.592  25.932  1.00  0.00    -0.352 N 
ATOM     26  C   UNL A   1      38.913  22.843  26.253  1.00  0.00     0.251 C 
ATOM     27  H   UNL A   1      37.413  21.684  25.601  1.00  0.00     0.163 HD
ATOM     28  O   UNL A   1      39.773  22.010  25.988  1.00  0.00    -0.269 OA
BRANCH  26  29
ATOM     29  C   UNL A   1      39.291  24.127  26.892  1.00  0.00     0.039 A 
ATOM     30  C   UNL A   1      38.914  24.355  28.217  1.00  0.00     0.014 A 
ATOM     31  C   UNL A   1      40.000  25.104  26.189  1.00  0.00     0.014 A 
ATOM     32  C   UNL A   1      39.287  25.545  28.848  1.00  0.00     0.010 A 
ATOM     33  C   UNL A   1      40.448  26.247  26.847  1.00  0.00     0.010 A 
ATOM     34  C   UNL A   1      40.077  26.493  28.176  1.00  0.00    -0.014 A 
BRANCH  34  35
ATOM     35  C   UNL A   1      40.471  27.768  28.830  1.00  0.00     0.031 A 
ATOM     36  C   UNL A   1      41.848  27.906  29.432  1.00  0.00     0.074 A 
ATOM     37  C   UNL A   1      39.595  28.790  28.908  1.00  0.00     0.049 A 
ATOM     38  N   UNL A   1      42.370  28.919  30.076  1.00  0.00    -0.248 NA
ATOM     39  C   UNL A   1      42.749  26.746  29.314  1.00  0.00     0.031 C 
ATOM     40  C   UNL A   1      38.220  28.772  28.403  1.00  0.00     0.029 A 
ATOM     41  N   UNL A   1      39.731  30.046  29.446  1.00  0.00    -0.354 N 
ATOM     42  C   UNL A   1      43.650  28.517  30.440  1.00  0.00     0.074 A 
ATOM     43  C   UNL A   1      43.802  27.145  30.010  1.00  0.00     0.031 C 
ATOM     44  C   UNL A   1      37.650  29.967  28.630  1.00  0.00     0.029 A 
ATOM     45  C   UNL A   1      38.603  30.824  29.330  1.00  0.00     0.049 A 
ATOM     46  H   UNL A   1      40.560  30.361  29.875  1.00  0.00     0.167 HD
ATOM     47  C   UNL A   1      44.628  29.232  31.045  1.00  0.00     0.031 A 
ATOM     48  C   UNL A   1      38.360  32.083  29.744  1.00  0.00     0.031 A 
ATOM     49  C   UNL A   1      44.483  30.601  31.464  1.00  0.00     0.049 A 
ATOM     50  C   UNL A   1      39.460  32.853  30.428  1.00  0.00     0.074 A 
ATOM     51  C   UNL A   1      45.420  31.420  32.069  1.00  0.00     0.029 A 
ATOM     52  N   UNL A   1      43.331  31.357  31.310  1.00  0.00    -0.354 N 
ATOM     53  N   UNL A   1      40.679  32.465  30.726  1.00  0.00    -0.248 NA
ATOM     54  C   UNL A   1      39.162  34.240  30.807  1.00  0.00     0.031 C 
ATOM     55  C   UNL A   1      44.821  32.659  32.318  1.00  0.00     0.029 A 
ATOM     56  C   UNL A   1      43.534  32.633  31.807  1.00  0.00     0.049 A 
ATOM     57  H   UNL A   1      42.494  31.034  30.904  1.00  0.00     0.167 HD
ATOM     58  C   UNL A   1      41.303  33.576  31.286  1.00  0.00     0.074 A 
ATOM     59  C   UNL A   1      40.334  34.652  31.269  1.00  0.00     0.031 C 
ATOM     60  C   UNL A   1      42.564  33.697  31.770  1.00  0.00     0.031 A 
BRANCH  47  61
ATOM     61  C   UNL A   1      45.955  28.553  31.268  1.00  0.00    -0.014 A 
ATOM     62  C   UNL A   1      46.980  28.646  30.308  1.00  0.00     0.010 A 
ATOM     63  C   UNL A   1      46.205  27.865  32.468  1.00  0.00     0.010 A 
ATOM     64  C   UNL A   1      48.219  28.041  30.532  1.00  0.00     0.020 A 
ATOM     65  C   UNL A   1      47.453  27.284  32.710  1.00  0.00     0.020 A 
ATOM     66  C   UNL A   1      48.448  27.367  31.734  1.00  0.00     0.054 A 
BRANCH  66  67
ATOM     67  S   UNL A   1      50.086  26.639  32.018  1.00  0.00     0.124 S 
ATOM     68  O   UNL A   1      50.735  26.845  30.725  1.00  0.00    -0.237 OA
ATOM     69  O   UNL A   1      50.608  27.446  33.117  1.00  0.00    -0.237 OA
ATOM     70  O   UNL A   1      49.794  25.247  32.353  1.00  0.00    -0.744 OA
ENDBRANCH  66  67
ENDBRANCH  47  61
BRANCH  48  71
ATOM     71  C   UNL A   1      37.024  32.707  29.526  1.00  0.00    -0.014 A 
ATOM     72  C   UNL A   1      36.632  33.150  28.249  1.00  0.00     0.010 A 
ATOM     73  C   UNL A   1      36.147  32.899  30.609  1.00  0.00     0.010 A 
ATOM     74  C   UNL A   1      35.417  33.819  28.070  1.00  0.00     0.020 A 
ATOM     75  C   UNL A   1      34.915  33.533  30.428  1.00  0.00     0.020 A 
ATOM     76  C   UNL A   1      34.568  34.011  29.163  1.00  0.00     0.054 A 
BRANCH  76  77
ATOM     77  S   UNL A   1      32.996  34.881  28.911  1.00  0.00     0.124 S 
ATOM     78  O   UNL A   1      32.344  34.045  27.909  1.00  0.00    -0.237 OA
ATOM     79  O   UNL A   1      32.402  34.852  30.246  1.00  0.00    -0.237 OA
ATOM     80  O   UNL A   1      33.409  36.205  28.450  1.00  0.00    -0.744 OA
ENDBRANCH  76  77
ENDBRANCH  48  71
BRANCH  60  81
ATOM     81  C   UNL A   1      42.994  35.060  32.249  1.00  0.00    -0.014 A 
ATOM     82  C   UNL A   1      42.712  35.510  33.552  1.00  0.00     0.010 A 
ATOM     83  C   UNL A   1      43.715  35.897  31.377  1.00  0.00     0.010 A 
ATOM     84  C   UNL A   1      43.090  36.795  33.951  1.00  0.00     0.020 A 
ATOM     85  C   UNL A   1      44.125  37.168  31.784  1.00  0.00     0.020 A 
ATOM     86  C   UNL A   1      43.788  37.618  33.061  1.00  0.00     0.054 A 
BRANCH  86  87
ATOM     87  S   UNL A   1      44.269  39.281  33.604  1.00  0.00     0.124 S 
ATOM     88  O   UNL A   1      45.237  39.665  32.579  1.00  0.00    -0.237 OA
ATOM     89  O   UNL A   1      43.002  40.007  33.575  1.00  0.00    -0.237 OA
ATOM     90  O   UNL A   1      44.826  39.063  34.936  1.00  0.00    -0.744 OA
ENDBRANCH  86  87
ENDBRANCH  60  81
ENDBRANCH  34  35
ENDBRANCH  26  29
ENDBRANCH  24  25
ENDBRANCH  23  24
ENDBRANCH   1  23
TORSDOF 17
ENDMDL
