MODEL 1
REMARK VINA RESULT:      -9.7      0.000      0.000
REMARK SMILES CCNC(=O)NC(=O)[C@@H](C)[NH2+][C@](C)(C(=O)NCCCCNC(=O)c1ccc(-c2c3nc(c(-c4ccc(S(=O)(=O)[O-])cc4)c4ccc([nH]4)c(-c4ccc(S(=O)(=O)[O-])cc4)c4nc(c(-c5ccc(S(=O)(=O)[O-])cc5)c5ccc2[nH]5)C=C4)C=C3)cc1)C(F)(F)F
REMARK SMILES IDX 18 1 17 2 16 3 14 4 15 5 12 7 13 8 11 9 9 12 10 13 7 14 3 15
REMARK SMILES IDX 4 16 5 18 6 19 8 21 2 22 1 23 84 24 85 25 86 26 87 27 19 28
REMARK SMILES IDX 20 29 21 30 22 31 23 33 24 34 25 35 83 36 26 37 82 38 27 39
REMARK SMILES IDX 28 40 29 41 76 42 30 43 81 44 75 45 77 46 31 47 80 48 74 49
REMARK SMILES IDX 73 50 32 52 62 53 43 54 61 55 44 56 47 57 60 58 78 59 45 60
REMARK SMILES IDX 46 61 59 63 79 64 48 65 33 66 34 67 42 68 35 69 41 70 36 71
REMARK SMILES IDX 37 72 38 73 39 74 40 75 63 76 64 77 72 78 65 79 71 80 66 81
REMARK SMILES IDX 67 82 68 83 69 84 70 85 49 86 50 87 58 88 51 89 57 90 52 91
REMARK SMILES IDX 53 92 54 93 55 94 56 95
REMARK H PARENT 16 6 11 10 11 11 3 17 6 20 21 32 77 51 47 62
REMARK Flexibility Score: inf
ROOT
ATOM      1  C   UNL A   1      33.326  34.322  28.983  1.00  0.00     0.023 C 
ENDROOT
BRANCH   1   2
ATOM      2  C   UNL A   1      34.394  34.096  30.035  1.00  0.00     0.116 C 
BRANCH   2   3
ATOM      3  N   UNL A   1      34.052  33.269  31.157  1.00  0.00    -0.350 N 
ATOM      4  C   UNL A   1      34.061  33.646  32.476  1.00  0.00     0.290 C 
ATOM      5  O   UNL A   1      33.296  33.021  33.214  1.00  0.00    -0.267 OA
ATOM      6  H   UNL A   1      33.783  32.342  30.962  1.00  0.00     0.163 HD
BRANCH   4   7
ATOM      7  C   UNL A   1      35.024  34.721  33.021  1.00  0.00     0.269 C 
ATOM      8  C   UNL A   1      35.324  34.449  34.520  1.00  0.00     0.101 C 
BRANCH   7   9
ATOM      9  N   UNL A   1      36.390  34.863  32.380  1.00  0.00    -0.316 N 
ATOM     10  H   UNL A   1      36.232  34.751  31.378  1.00  0.00     0.348 HD
ATOM     11  H   UNL A   1      36.689  35.751  32.783  1.00  0.00     0.348 HD
BRANCH   9  12
ATOM     12  C   UNL A   1      37.563  34.025  32.689  1.00  0.00     0.271 C 
ATOM     13  C   UNL A   1      38.979  34.567  32.373  1.00  0.00     0.086 C 
BRANCH  12  14
ATOM     14  C   UNL A   1      37.463  32.760  31.822  1.00  0.00     0.285 C 
ATOM     15  N   UNL A   1      37.850  30.950  34.714  1.00  0.00    -0.338 N 
ATOM     16  C   UNL A   1      37.546  30.643  33.452  1.00  0.00     0.321 C 
ATOM     17  H   UNL A   1      37.565  30.247  35.342  1.00  0.00     0.165 HD
ATOM     18  O   UNL A   1      37.218  29.466  33.248  1.00  0.00    -0.248 OA
ATOM     19  N   UNL A   1      37.537  31.466  32.357  1.00  0.00    -0.273 N 
ATOM     20  H   UNL A   1      37.625  30.868  31.579  1.00  0.00     0.175 HD
ATOM     21  O   UNL A   1      37.262  32.856  30.606  1.00  0.00    -0.268 OA
BRANCH  15  22
ATOM     22  C   UNL A   1      38.491  32.052  35.392  1.00  0.00     0.114 C 
ATOM     23  C   UNL A   1      39.964  32.193  35.059  1.00  0.00     0.027 C 
ENDBRANCH  15  22
ENDBRANCH  12  14
ENDBRANCH   9  12
ENDBRANCH   7   9
BRANCH   7  24
ATOM     24  C   UNL A   1      34.219  36.062  33.016  1.00  0.00     0.453 C 
ATOM     25  F   UNL A   1      32.967  35.931  32.526  1.00  0.00    -0.164 F 
ATOM     26  F   UNL A   1      34.079  36.497  34.304  1.00  0.00    -0.164 F 
ATOM     27  F   UNL A   1      34.847  37.061  32.362  1.00  0.00    -0.164 F 
ENDBRANCH   7  24
ENDBRANCH   4   7
ENDBRANCH   2   3
ENDBRANCH   1   2
BRANCH   1  28
ATOM     28  C   UNL A   1      33.156  33.199  27.969  1.00  0.00     0.023 C 
BRANCH  28  29
ATOM     29  C   UNL A   1      34.342  32.254  27.777  1.00  0.00     0.116 C 
BRANCH  29  30
ATOM     30  N   UNL A   1      33.989  30.880  27.434  1.00  0.00    -0.352 N 
ATOM     31  C   UNL A   1      34.753  29.738  27.578  1.00  0.00     0.251 C 
ATOM     32  H   UNL A   1      33.093  30.750  27.049  1.00  0.00     0.163 HD
ATOM     33  O   UNL A   1      34.322  28.647  27.217  1.00  0.00    -0.269 OA
BRANCH  31  34
ATOM     34  C   UNL A   1      36.126  29.864  28.112  1.00  0.00     0.039 A 
ATOM     35  C   UNL A   1      36.355  29.563  29.456  1.00  0.00     0.014 A 
ATOM     36  C   UNL A   1      37.194  30.121  27.249  1.00  0.00     0.014 A 
ATOM     37  C   UNL A   1      37.665  29.375  29.902  1.00  0.00     0.010 A 
ATOM     38  C   UNL A   1      38.491  29.850  27.675  1.00  0.00     0.010 A 
ATOM     39  C   UNL A   1      38.737  29.437  28.995  1.00  0.00    -0.014 A 
BRANCH  39  40
ATOM     40  C   UNL A   1      40.102  28.986  29.378  1.00  0.00     0.031 A 
ATOM     41  C   UNL A   1      41.053  29.928  30.061  1.00  0.00     0.074 A 
ATOM     42  C   UNL A   1      40.521  27.755  29.015  1.00  0.00     0.049 A 
ATOM     43  N   UNL A   1      42.307  29.740  30.383  1.00  0.00    -0.248 NA
ATOM     44  C   UNL A   1      40.538  31.265  30.400  1.00  0.00     0.031 C 
ATOM     45  C   UNL A   1      39.720  26.761  28.295  1.00  0.00     0.029 A 
ATOM     46  N   UNL A   1      41.733  27.131  29.190  1.00  0.00    -0.354 N 
ATOM     47  C   UNL A   1      42.737  30.937  30.943  1.00  0.00     0.074 A 
ATOM     48  C   UNL A   1      41.623  31.859  30.875  1.00  0.00     0.031 C 
ATOM     49  C   UNL A   1      40.449  25.648  28.116  1.00  0.00     0.029 A 
ATOM     50  C   UNL A   1      41.784  25.860  28.665  1.00  0.00     0.049 A 
ATOM     51  H   UNL A   1      42.494  27.554  29.650  1.00  0.00     0.167 HD
ATOM     52  C   UNL A   1      43.941  31.237  31.484  1.00  0.00     0.031 A 
ATOM     53  C   UNL A   1      42.793  24.967  28.616  1.00  0.00     0.031 A 
ATOM     54  C   UNL A   1      45.044  30.316  31.567  1.00  0.00     0.049 A 
ATOM     55  C   UNL A   1      44.125  25.328  29.210  1.00  0.00     0.074 A 
ATOM     56  C   UNL A   1      46.276  30.504  32.168  1.00  0.00     0.029 A 
ATOM     57  N   UNL A   1      45.052  29.039  31.028  1.00  0.00    -0.354 N 
ATOM     58  N   UNL A   1      44.482  26.438  29.812  1.00  0.00    -0.248 NA
ATOM     59  C   UNL A   1      45.189  24.318  29.119  1.00  0.00     0.031 C 
ATOM     60  C   UNL A   1      47.049  29.359  31.948  1.00  0.00     0.029 A 
ATOM     61  C   UNL A   1      46.280  28.439  31.250  1.00  0.00     0.049 A 
ATOM     62  H   UNL A   1      44.296  28.620  30.555  1.00  0.00     0.167 HD
ATOM     63  C   UNL A   1      45.811  26.256  30.179  1.00  0.00     0.074 A 
ATOM     64  C   UNL A   1      46.186  24.923  29.753  1.00  0.00     0.031 C 
ATOM     65  C   UNL A   1      46.645  27.118  30.809  1.00  0.00     0.031 A 
BRANCH  52  66
ATOM     66  C   UNL A   1      44.129  32.627  32.031  1.00  0.00    -0.014 A 
ATOM     67  C   UNL A   1      43.781  32.934  33.358  1.00  0.00     0.010 A 
ATOM     68  C   UNL A   1      44.692  33.628  31.220  1.00  0.00     0.010 A 
ATOM     69  C   UNL A   1      43.952  34.229  33.852  1.00  0.00     0.020 A 
ATOM     70  C   UNL A   1      44.890  34.919  31.719  1.00  0.00     0.020 A 
ATOM     71  C   UNL A   1      44.501  35.215  33.027  1.00  0.00     0.054 A 
BRANCH  71  72
ATOM     72  S   UNL A   1      44.728  36.883  33.700  1.00  0.00     0.124 S 
ATOM     73  O   UNL A   1      44.005  36.796  34.968  1.00  0.00    -0.237 OA
ATOM     74  O   UNL A   1      46.180  36.989  33.814  1.00  0.00    -0.237 OA
ATOM     75  O   UNL A   1      44.119  37.750  32.694  1.00  0.00    -0.744 OA
ENDBRANCH  71  72
ENDBRANCH  52  66
BRANCH  53  76
ATOM     76  C   UNL A   1      42.579  23.640  27.977  1.00  0.00    -0.014 A 
ATOM     77  C   UNL A   1      42.793  23.471  26.598  1.00  0.00     0.010 A 
ATOM     78  C   UNL A   1      42.175  22.534  28.747  1.00  0.00     0.010 A 
ATOM     79  C   UNL A   1      42.600  22.222  25.999  1.00  0.00     0.020 A 
ATOM     80  C   UNL A   1      42.003  21.278  28.156  1.00  0.00     0.020 A 
ATOM     81  C   UNL A   1      42.208  21.133  26.783  1.00  0.00     0.054 A 
BRANCH  81  82
ATOM     82  S   UNL A   1      42.026  19.507  25.997  1.00  0.00     0.124 S 
ATOM     83  O   UNL A   1      42.510  18.610  27.042  1.00  0.00    -0.237 OA
ATOM     84  O   UNL A   1      40.593  19.447  25.723  1.00  0.00    -0.237 OA
ATOM     85  O   UNL A   1      42.875  19.605  24.811  1.00  0.00    -0.744 OA
ENDBRANCH  81  82
ENDBRANCH  53  76
BRANCH  65  86
ATOM     86  C   UNL A   1      48.050  26.651  31.079  1.00  0.00    -0.014 A 
ATOM     87  C   UNL A   1      49.082  26.908  30.160  1.00  0.00     0.010 A 
ATOM     88  C   UNL A   1      48.353  26.011  32.295  1.00  0.00     0.010 A 
ATOM     89  C   UNL A   1      50.392  26.516  30.443  1.00  0.00     0.020 A 
ATOM     90  C   UNL A   1      49.667  25.639  32.591  1.00  0.00     0.020 A 
ATOM     91  C   UNL A   1      50.677  25.886  31.659  1.00  0.00     0.054 A 
BRANCH  91  92
ATOM     92  S   UNL A   1      52.396  25.444  32.030  1.00  0.00     0.124 S 
ATOM     93  O   UNL A   1      52.289  24.014  32.308  1.00  0.00    -0.237 OA
ATOM     94  O   UNL A   1      53.092  25.793  30.794  1.00  0.00    -0.237 OA
ATOM     95  O   UNL A   1      52.728  26.279  33.182  1.00  0.00    -0.744 OA
ENDBRANCH  91  92
ENDBRANCH  65  86
ENDBRANCH  39  40
ENDBRANCH  31  34
ENDBRANCH  29  30
ENDBRANCH  28  29
ENDBRANCH   1  28
TORSDOF 19
ENDMDL
MODEL 2
REMARK VINA RESULT:      -9.3      4.535      7.013
REMARK SMILES CCNC(=O)NC(=O)[C@@H](C)[NH2+][C@](C)(C(=O)NCCCCNC(=O)c1ccc(-c2c3nc(c(-c4ccc(S(=O)(=O)[O-])cc4)c4ccc([nH]4)c(-c4ccc(S(=O)(=O)[O-])cc4)c4nc(c(-c5ccc(S(=O)(=O)[O-])cc5)c5ccc2[nH]5)C=C4)C=C3)cc1)C(F)(F)F
REMARK SMILES IDX 18 1 17 2 16 3 14 4 15 5 12 7 13 8 11 9 9 12 10 13 7 14 3 15
REMARK SMILES IDX 4 16 5 18 6 19 8 21 2 22 1 23 84 24 85 25 86 26 87 27 19 28
REMARK SMILES IDX 20 29 21 30 22 31 23 33 24 34 25 35 83 36 26 37 82 38 27 39
REMARK SMILES IDX 28 40 29 41 76 42 30 43 81 44 75 45 77 46 31 47 80 48 74 49
REMARK SMILES IDX 73 50 32 52 62 53 43 54 61 55 44 56 47 57 60 58 78 59 45 60
REMARK SMILES IDX 46 61 59 63 79 64 48 65 33 66 34 67 42 68 35 69 41 70 36 71
REMARK SMILES IDX 37 72 38 73 39 74 40 75 63 76 64 77 72 78 65 79 71 80 66 81
REMARK SMILES IDX 67 82 68 83 69 84 70 85 49 86 50 87 58 88 51 89 57 90 52 91
REMARK SMILES IDX 53 92 54 93 55 94 56 95
REMARK H PARENT 16 6 11 10 11 11 3 17 6 20 21 32 77 51 47 62
REMARK Flexibility Score: inf
ROOT
ATOM      1  C   UNL A   1      31.502  28.807  25.348  1.00  0.00     0.023 C 
ENDROOT
BRANCH   1   2
ATOM      2  C   UNL A   1      31.487  27.303  25.538  1.00  0.00     0.116 C 
BRANCH   2   3
ATOM      3  N   UNL A   1      30.633  26.536  24.676  1.00  0.00    -0.350 N 
ATOM      4  C   UNL A   1      31.016  25.496  23.869  1.00  0.00     0.290 C 
ATOM      5  O   UNL A   1      30.137  24.670  23.609  1.00  0.00    -0.267 OA
ATOM      6  H   UNL A   1      29.678  26.780  24.663  1.00  0.00     0.163 HD
BRANCH   4   7
ATOM      7  C   UNL A   1      32.428  25.403  23.254  1.00  0.00     0.269 C 
ATOM      8  C   UNL A   1      33.488  25.854  24.295  1.00  0.00     0.101 C 
BRANCH   7   9
ATOM      9  N   UNL A   1      32.921  24.054  22.771  1.00  0.00    -0.316 N 
ATOM     10  H   UNL A   1      32.134  23.642  22.268  1.00  0.00     0.348 HD
ATOM     11  H   UNL A   1      33.779  24.333  22.295  1.00  0.00     0.348 HD
BRANCH   9  12
ATOM     12  C   UNL A   1      33.439  22.980  23.638  1.00  0.00     0.271 C 
ATOM     13  C   UNL A   1      34.951  22.648  23.603  1.00  0.00     0.086 C 
BRANCH  12  14
ATOM     14  C   UNL A   1      32.775  21.669  23.189  1.00  0.00     0.285 C 
ATOM     15  N   UNL A   1      33.461  20.443  26.322  1.00  0.00    -0.338 N 
ATOM     16  C   UNL A   1      32.749  20.005  25.281  1.00  0.00     0.321 C 
ATOM     17  H   UNL A   1      33.187  20.008  27.162  1.00  0.00     0.165 HD
ATOM     18  O   UNL A   1      32.081  18.981  25.478  1.00  0.00    -0.248 OA
ATOM     19  N   UNL A   1      32.653  20.553  24.029  1.00  0.00    -0.273 N 
ATOM     20  H   UNL A   1      32.362  19.817  23.443  1.00  0.00     0.175 HD
ATOM     21  O   UNL A   1      32.278  21.581  22.060  1.00  0.00    -0.268 OA
BRANCH  15  22
ATOM     22  C   UNL A   1      34.528  21.391  26.527  1.00  0.00     0.114 C 
ATOM     23  C   UNL A   1      34.117  22.600  27.347  1.00  0.00     0.027 C 
ENDBRANCH  15  22
ENDBRANCH  12  14
ENDBRANCH   9  12
ENDBRANCH   7   9
BRANCH   7  24
ATOM     24  C   UNL A   1      32.482  26.495  22.135  1.00  0.00     0.453 C 
ATOM     25  F   UNL A   1      33.141  27.612  22.511  1.00  0.00    -0.164 F 
ATOM     26  F   UNL A   1      33.168  25.993  21.064  1.00  0.00    -0.164 F 
ATOM     27  F   UNL A   1      31.268  26.836  21.660  1.00  0.00    -0.164 F 
ENDBRANCH   7  24
ENDBRANCH   4   7
ENDBRANCH   2   3
ENDBRANCH   1   2
BRANCH   1  28
ATOM     28  C   UNL A   1      32.838  29.488  25.617  1.00  0.00     0.023 C 
BRANCH  28  29
ATOM     29  C   UNL A   1      33.384  29.400  27.042  1.00  0.00     0.116 C 
BRANCH  29  30
ATOM     30  N   UNL A   1      33.523  30.678  27.731  1.00  0.00    -0.352 N 
ATOM     31  C   UNL A   1      34.612  31.160  28.433  1.00  0.00     0.251 C 
ATOM     32  H   UNL A   1      32.741  31.275  27.692  1.00  0.00     0.163 HD
ATOM     33  O   UNL A   1      34.567  32.256  28.983  1.00  0.00    -0.269 OA
BRANCH  31  34
ATOM     34  C   UNL A   1      35.807  30.299  28.567  1.00  0.00     0.039 A 
ATOM     35  C   UNL A   1      36.765  30.316  27.551  1.00  0.00     0.014 A 
ATOM     36  C   UNL A   1      36.047  29.612  29.759  1.00  0.00     0.014 A 
ATOM     37  C   UNL A   1      38.026  29.764  27.789  1.00  0.00     0.010 A 
ATOM     38  C   UNL A   1      37.329  29.140  30.024  1.00  0.00     0.010 A 
ATOM     39  C   UNL A   1      38.343  29.246  29.056  1.00  0.00    -0.014 A 
BRANCH  39  40
ATOM     40  C   UNL A   1      39.742  28.896  29.422  1.00  0.00     0.031 A 
ATOM     41  C   UNL A   1      40.623  29.899  30.111  1.00  0.00     0.074 A 
ATOM     42  C   UNL A   1      40.251  27.707  29.038  1.00  0.00     0.049 A 
ATOM     43  N   UNL A   1      41.891  29.804  30.421  1.00  0.00    -0.248 NA
ATOM     44  C   UNL A   1      40.010  31.187  30.475  1.00  0.00     0.031 C 
ATOM     45  C   UNL A   1      39.522  26.664  28.308  1.00  0.00     0.029 A 
ATOM     46  N   UNL A   1      41.509  27.176  29.194  1.00  0.00    -0.354 N 
ATOM     47  C   UNL A   1      42.232  31.022  30.995  1.00  0.00     0.074 A 
ATOM     48  C   UNL A   1      41.050  31.856  30.950  1.00  0.00     0.031 C 
ATOM     49  C   UNL A   1      40.334  25.614  28.108  1.00  0.00     0.029 A 
ATOM     50  C   UNL A   1      41.653  25.920  28.649  1.00  0.00     0.049 A 
ATOM     51  H   UNL A   1      42.239  27.649  29.654  1.00  0.00     0.167 HD
ATOM     52  C   UNL A   1      43.415  31.406  31.532  1.00  0.00     0.031 A 
ATOM     53  C   UNL A   1      42.727  25.108  28.579  1.00  0.00     0.031 A 
ATOM     54  C   UNL A   1      44.586  30.572  31.592  1.00  0.00     0.049 A 
ATOM     55  C   UNL A   1      44.033  25.562  29.169  1.00  0.00     0.074 A 
ATOM     56  C   UNL A   1      45.805  30.846  32.187  1.00  0.00     0.029 A 
ATOM     57  N   UNL A   1      44.687  29.307  31.034  1.00  0.00    -0.354 N 
ATOM     58  N   UNL A   1      44.309  26.687  29.784  1.00  0.00    -0.248 NA
ATOM     59  C   UNL A   1      45.170  24.638  29.054  1.00  0.00     0.031 C 
ATOM     60  C   UNL A   1      46.662  29.767  31.943  1.00  0.00     0.029 A 
ATOM     61  C   UNL A   1      45.960  28.801  31.238  1.00  0.00     0.049 A 
ATOM     62  H   UNL A   1      43.962  28.838  30.561  1.00  0.00     0.167 HD
ATOM     63  C   UNL A   1      45.651  26.603  30.138  1.00  0.00     0.074 A 
ATOM     64  C   UNL A   1      46.124  25.309  29.689  1.00  0.00     0.031 C 
ATOM     65  C   UNL A   1      46.422  27.517  30.775  1.00  0.00     0.031 A 
BRANCH  52  66
ATOM     66  C   UNL A   1      43.500  32.798  32.098  1.00  0.00    -0.014 A 
ATOM     67  C   UNL A   1      43.278  33.037  33.465  1.00  0.00     0.010 A 
ATOM     68  C   UNL A   1      43.840  33.875  31.259  1.00  0.00     0.010 A 
ATOM     69  C   UNL A   1      43.352  34.334  33.978  1.00  0.00     0.020 A 
ATOM     70  C   UNL A   1      43.941  35.171  31.773  1.00  0.00     0.020 A 
ATOM     71  C   UNL A   1      43.678  35.394  33.127  1.00  0.00     0.054 A 
BRANCH  71  72
ATOM     72  S   UNL A   1      43.784  37.065  33.823  1.00  0.00     0.124 S 
ATOM     73  O   UNL A   1      44.608  36.845  35.009  1.00  0.00    -0.237 OA
ATOM     74  O   UNL A   1      44.422  37.821  32.748  1.00  0.00    -0.237 OA
ATOM     75  O   UNL A   1      42.391  37.420  34.088  1.00  0.00    -0.744 OA
ENDBRANCH  71  72
ENDBRANCH  52  66
BRANCH  53  76
ATOM     76  C   UNL A   1      42.610  23.777  27.922  1.00  0.00    -0.014 A 
ATOM     77  C   UNL A   1      42.914  23.628  26.558  1.00  0.00     0.010 A 
ATOM     78  C   UNL A   1      42.209  22.649  28.661  1.00  0.00     0.010 A 
ATOM     79  C   UNL A   1      42.812  22.377  25.942  1.00  0.00     0.020 A 
ATOM     80  C   UNL A   1      42.128  21.392  28.055  1.00  0.00     0.020 A 
ATOM     81  C   UNL A   1      42.422  21.266  26.696  1.00  0.00     0.054 A 
BRANCH  81  82
ATOM     82  S   UNL A   1      42.359  19.640  25.893  1.00  0.00     0.124 S 
ATOM     83  O   UNL A   1      43.353  19.786  24.834  1.00  0.00    -0.237 OA
ATOM     84  O   UNL A   1      42.720  18.735  26.982  1.00  0.00    -0.237 OA
ATOM     85  O   UNL A   1      40.973  19.536  25.443  1.00  0.00    -0.744 OA
ENDBRANCH  81  82
ENDBRANCH  53  76
BRANCH  65  86
ATOM     86  C   UNL A   1      47.860  27.157  31.026  1.00  0.00    -0.014 A 
ATOM     87  C   UNL A   1      48.220  26.364  32.130  1.00  0.00     0.010 A 
ATOM     88  C   UNL A   1      48.853  27.557  30.113  1.00  0.00     0.010 A 
ATOM     89  C   UNL A   1      49.553  25.992  32.326  1.00  0.00     0.020 A 
ATOM     90  C   UNL A   1      50.182  27.167  30.294  1.00  0.00     0.020 A 
ATOM     91  C   UNL A   1      50.525  26.394  31.405  1.00  0.00     0.054 A 
BRANCH  91  92
ATOM     92  S   UNL A   1      52.236  25.845  31.648  1.00  0.00     0.124 S 
ATOM     93  O   UNL A   1      52.056  24.447  32.031  1.00  0.00    -0.237 OA
ATOM     94  O   UNL A   1      52.834  26.065  30.334  1.00  0.00    -0.237 OA
ATOM     95  O   UNL A   1      52.734  26.721  32.707  1.00  0.00    -0.744 OA
ENDBRANCH  91  92
ENDBRANCH  65  86
ENDBRANCH  39  40
ENDBRANCH  31  34
ENDBRANCH  29  30
ENDBRANCH  28  29
ENDBRANCH   1  28
TORSDOF 19
ENDMDL
MODEL 3
REMARK VINA RESULT:      -9.1      4.812     11.095
REMARK SMILES CCNC(=O)NC(=O)[C@@H](C)[NH2+][C@](C)(C(=O)NCCCCNC(=O)c1ccc(-c2c3nc(c(-c4ccc(S(=O)(=O)[O-])cc4)c4ccc([nH]4)c(-c4ccc(S(=O)(=O)[O-])cc4)c4nc(c(-c5ccc(S(=O)(=O)[O-])cc5)c5ccc2[nH]5)C=C4)C=C3)cc1)C(F)(F)F
REMARK SMILES IDX 18 1 17 2 16 3 14 4 15 5 12 7 13 8 11 9 9 12 10 13 7 14 3 15
REMARK SMILES IDX 4 16 5 18 6 19 8 21 2 22 1 23 84 24 85 25 86 26 87 27 19 28
REMARK SMILES IDX 20 29 21 30 22 31 23 33 24 34 25 35 83 36 26 37 82 38 27 39
REMARK SMILES IDX 28 40 29 41 76 42 30 43 81 44 75 45 77 46 31 47 80 48 74 49
REMARK SMILES IDX 73 50 32 52 62 53 43 54 61 55 44 56 47 57 60 58 78 59 45 60
REMARK SMILES IDX 46 61 59 63 79 64 48 65 33 66 34 67 42 68 35 69 41 70 36 71
REMARK SMILES IDX 37 72 38 73 39 74 40 75 63 76 64 77 72 78 65 79 71 80 66 81
REMARK SMILES IDX 67 82 68 83 69 84 70 85 49 86 50 87 58 88 51 89 57 90 52 91
REMARK SMILES IDX 53 92 54 93 55 94 56 95
REMARK H PARENT 16 6 11 10 11 11 3 17 6 20 21 32 77 51 47 62
REMARK Flexibility Score: inf
ROOT
ATOM      1  C   UNL A   1      35.402  21.644  26.009  1.00  0.00     0.023 C 
ENDROOT
BRANCH   1   2
ATOM      2  C   UNL A   1      33.938  21.559  25.624  1.00  0.00     0.116 C 
BRANCH   2   3
ATOM      3  N   UNL A   1      33.605  21.770  24.245  1.00  0.00    -0.350 N 
ATOM      4  C   UNL A   1      32.930  22.847  23.728  1.00  0.00     0.290 C 
ATOM      5  O   UNL A   1      33.167  23.107  22.545  1.00  0.00    -0.267 OA
ATOM      6  H   UNL A   1      33.888  21.076  23.607  1.00  0.00     0.163 HD
BRANCH   4   7
ATOM      7  C   UNL A   1      31.880  23.632  24.540  1.00  0.00     0.269 C 
ATOM      8  C   UNL A   1      31.025  22.651  25.386  1.00  0.00     0.101 C 
BRANCH   7   9
ATOM      9  N   UNL A   1      32.361  24.670  25.535  1.00  0.00    -0.316 N 
ATOM     10  H   UNL A   1      31.594  24.787  26.197  1.00  0.00     0.348 HD
ATOM     11  H   UNL A   1      33.253  24.258  25.810  1.00  0.00     0.348 HD
BRANCH   9  12
ATOM     12  C   UNL A   1      32.797  26.036  25.192  1.00  0.00     0.271 C 
ATOM     13  C   UNL A   1      34.062  26.616  25.872  1.00  0.00     0.086 C 
BRANCH  12  14
ATOM     14  C   UNL A   1      31.682  26.996  25.632  1.00  0.00     0.285 C 
ATOM     15  N   UNL A   1      31.725  28.246  22.434  1.00  0.00    -0.338 N 
ATOM     16  C   UNL A   1      30.931  28.414  23.494  1.00  0.00     0.321 C 
ATOM     17  H   UNL A   1      31.275  28.497  21.595  1.00  0.00     0.165 HD
ATOM     18  O   UNL A   1      29.906  29.080  23.298  1.00  0.00    -0.248 OA
ATOM     19  N   UNL A   1      31.101  27.932  24.765  1.00  0.00    -0.273 N 
ATOM     20  H   UNL A   1      30.560  28.520  25.341  1.00  0.00     0.175 HD
ATOM     21  O   UNL A   1      31.227  26.933  26.780  1.00  0.00    -0.268 OA
BRANCH  15  22
ATOM     22  C   UNL A   1      33.075  27.789  22.207  1.00  0.00     0.114 C 
ATOM     23  C   UNL A   1      34.131  28.696  22.809  1.00  0.00     0.027 C 
ENDBRANCH  15  22
ENDBRANCH  12  14
ENDBRANCH   9  12
ENDBRANCH   7   9
BRANCH   7  24
ATOM     24  C   UNL A   1      30.882  24.227  23.493  1.00  0.00     0.453 C 
ATOM     25  F   UNL A   1      31.487  24.971  22.542  1.00  0.00    -0.164 F 
ATOM     26  F   UNL A   1      30.269  23.196  22.836  1.00  0.00    -0.164 F 
ATOM     27  F   UNL A   1      29.886  24.945  24.049  1.00  0.00    -0.164 F 
ENDBRANCH   7  24
ENDBRANCH   4   7
ENDBRANCH   2   3
ENDBRANCH   1   2
BRANCH   1  28
ATOM     28  C   UNL A   1      36.018  23.035  25.946  1.00  0.00     0.023 C 
BRANCH  28  29
ATOM     29  C   UNL A   1      37.249  23.207  25.058  1.00  0.00     0.116 C 
BRANCH  29  30
ATOM     30  N   UNL A   1      38.424  22.448  25.475  1.00  0.00    -0.352 N 
ATOM     31  C   UNL A   1      39.467  22.859  26.282  1.00  0.00     0.251 C 
ATOM     32  H   UNL A   1      38.481  21.525  25.137  1.00  0.00     0.163 HD
ATOM     33  O   UNL A   1      40.405  22.105  26.524  1.00  0.00    -0.269 OA
BRANCH  31  34
ATOM     34  C   UNL A   1      39.468  24.247  26.790  1.00  0.00     0.039 A 
ATOM     35  C   UNL A   1      38.909  24.504  28.044  1.00  0.00     0.014 A 
ATOM     36  C   UNL A   1      40.158  25.247  26.102  1.00  0.00     0.014 A 
ATOM     37  C   UNL A   1      39.169  25.724  28.673  1.00  0.00     0.010 A 
ATOM     38  C   UNL A   1      40.487  26.425  26.766  1.00  0.00     0.010 A 
ATOM     39  C   UNL A   1      40.028  26.660  28.073  1.00  0.00    -0.014 A 
BRANCH  39  40
ATOM     40  C   UNL A   1      40.532  27.840  28.824  1.00  0.00     0.031 A 
ATOM     41  C   UNL A   1      41.892  27.813  29.465  1.00  0.00     0.074 A 
ATOM     42  C   UNL A   1      39.721  28.901  29.017  1.00  0.00     0.049 A 
ATOM     43  N   UNL A   1      42.456  28.709  30.233  1.00  0.00    -0.248 NA
ATOM     44  C   UNL A   1      42.712  26.612  29.238  1.00  0.00     0.031 C 
ATOM     45  C   UNL A   1      38.355  29.033  28.501  1.00  0.00     0.029 A 
ATOM     46  N   UNL A   1      39.920  30.070  29.712  1.00  0.00    -0.354 N 
ATOM     47  C   UNL A   1      43.686  28.174  30.597  1.00  0.00     0.074 A 
ATOM     48  C   UNL A   1      43.765  26.857  30.002  1.00  0.00     0.031 C 
ATOM     49  C   UNL A   1      37.853  30.221  28.873  1.00  0.00     0.029 A 
ATOM     50  C   UNL A   1      38.837  30.920  29.691  1.00  0.00     0.049 A 
ATOM     51  H   UNL A   1      40.759  30.280  30.182  1.00  0.00     0.167 HD
ATOM     52  C   UNL A   1      44.669  28.735  31.340  1.00  0.00     0.031 A 
ATOM     53  C   UNL A   1      38.648  32.121  30.273  1.00  0.00     0.031 A 
ATOM     54  C   UNL A   1      44.598  30.050  31.918  1.00  0.00     0.049 A 
ATOM     55  C   UNL A   1      39.749  32.716  31.106  1.00  0.00     0.074 A 
ATOM     56  C   UNL A   1      45.576  30.734  32.620  1.00  0.00     0.029 A 
ATOM     57  N   UNL A   1      43.488  30.878  31.868  1.00  0.00    -0.354 N 
ATOM     58  N   UNL A   1      40.938  32.227  31.366  1.00  0.00    -0.248 NA
ATOM     59  C   UNL A   1      39.483  34.024  31.723  1.00  0.00     0.031 C 
ATOM     60  C   UNL A   1      45.038  31.955  33.039  1.00  0.00     0.029 A 
ATOM     61  C   UNL A   1      43.742  32.053  32.557  1.00  0.00     0.049 A 
ATOM     62  H   UNL A   1      42.642  30.663  31.411  1.00  0.00     0.167 HD
ATOM     63  C   UNL A   1      41.566  33.172  32.170  1.00  0.00     0.074 A 
ATOM     64  C   UNL A   1      40.635  34.269  32.335  1.00  0.00     0.031 C 
ATOM     65  C   UNL A   1      42.802  33.131  32.725  1.00  0.00     0.031 A 
BRANCH  52  66
ATOM     66  C   UNL A   1      45.914  27.919  31.571  1.00  0.00    -0.014 A 
ATOM     67  C   UNL A   1      46.983  27.958  30.660  1.00  0.00     0.010 A 
ATOM     68  C   UNL A   1      46.029  27.132  32.732  1.00  0.00     0.010 A 
ATOM     69  C   UNL A   1      48.129  27.191  30.882  1.00  0.00     0.020 A 
ATOM     70  C   UNL A   1      47.185  26.384  32.971  1.00  0.00     0.020 A 
ATOM     71  C   UNL A   1      48.221  26.405  32.033  1.00  0.00     0.054 A 
BRANCH  71  72
ATOM     72  S   UNL A   1      49.727  25.433  32.304  1.00  0.00     0.124 S 
ATOM     73  O   UNL A   1      50.601  26.408  32.952  1.00  0.00    -0.237 OA
ATOM     74  O   UNL A   1      49.259  24.346  33.160  1.00  0.00    -0.237 OA
ATOM     75  O   UNL A   1      50.129  25.032  30.957  1.00  0.00    -0.744 OA
ENDBRANCH  71  72
ENDBRANCH  52  66
BRANCH  53  76
ATOM     76  C   UNL A   1      37.360  32.842  30.088  1.00  0.00    -0.014 A 
ATOM     77  C   UNL A   1      37.110  33.562  28.907  1.00  0.00     0.010 A 
ATOM     78  C   UNL A   1      36.368  32.800  31.086  1.00  0.00     0.010 A 
ATOM     79  C   UNL A   1      35.897  34.234  28.730  1.00  0.00     0.020 A 
ATOM     80  C   UNL A   1      35.144  33.450  30.902  1.00  0.00     0.020 A 
ATOM     81  C   UNL A   1      34.920  34.171  29.728  1.00  0.00     0.054 A 
BRANCH  81  82
ATOM     82  S   UNL A   1      33.327  34.995  29.449  1.00  0.00     0.124 S 
ATOM     83  O   UNL A   1      33.732  36.207  28.744  1.00  0.00    -0.237 OA
ATOM     84  O   UNL A   1      32.598  34.012  28.652  1.00  0.00    -0.237 OA
ATOM     85  O   UNL A   1      32.808  35.197  30.800  1.00  0.00    -0.744 OA
ENDBRANCH  81  82
ENDBRANCH  53  76
BRANCH  65  86
ATOM     86  C   UNL A   1      43.224  34.305  33.565  1.00  0.00    -0.014 A 
ATOM     87  C   UNL A   1      43.786  35.449  32.971  1.00  0.00     0.010 A 
ATOM     88  C   UNL A   1      42.995  34.292  34.953  1.00  0.00     0.010 A 
ATOM     89  C   UNL A   1      44.127  36.555  33.754  1.00  0.00     0.020 A 
ATOM     90  C   UNL A   1      43.313  35.405  35.735  1.00  0.00     0.020 A 
ATOM     91  C   UNL A   1      43.886  36.526  35.131  1.00  0.00     0.054 A 
BRANCH  91  92
ATOM     92  S   UNL A   1      44.281  37.997  36.116  1.00  0.00     0.124 S 
ATOM     93  O   UNL A   1      43.439  37.809  37.294  1.00  0.00    -0.237 OA
ATOM     94  O   UNL A   1      45.717  37.858  36.340  1.00  0.00    -0.237 OA
ATOM     95  O   UNL A   1      43.896  39.109  35.248  1.00  0.00    -0.744 OA
ENDBRANCH  91  92
ENDBRANCH  65  86
ENDBRANCH  39  40
ENDBRANCH  31  34
ENDBRANCH  29  30
ENDBRANCH  28  29
ENDBRANCH   1  28
TORSDOF 19
ENDMDL
