MODEL 1
REMARK VINA RESULT:     -11.6      0.000      0.000
REMARK SMILES O=C(NCCCCNC(=O)[C@@H]1CC=CC[C@@H]1C(=O)Nc1ccc(O)cc1)c1ccc(-c2c3nc(c(-c4ccc(S(=O)(=O)[O-])cc4)c4ccc([nH]4)c(-c4ccc(S(=O)(=O)[O-])cc4)c4nc(c(-c5ccc(S(=O)(=O)[O-])cc5)c5ccc2[nH]5)C=C4)C=C3)cc1
REMARK SMILES IDX 5 1 4 2 3 3 1 4 2 5 27 7 28 8 86 9 29 10 85 11 30 12 31 13
REMARK SMILES IDX 32 14 79 15 33 16 84 17 78 18 80 19 34 20 83 21 77 22 76 23
REMARK SMILES IDX 35 25 65 26 46 27 64 28 47 29 50 30 63 31 81 32 48 33 49 34
REMARK SMILES IDX 62 36 82 37 51 38 36 39 37 40 45 41 38 42 44 43 39 44 40 45
REMARK SMILES IDX 41 46 42 47 43 48 66 49 67 50 75 51 68 52 74 53 69 54 70 55
REMARK SMILES IDX 71 56 72 57 73 58 52 59 53 60 61 61 54 62 60 63 55 64 56 65
REMARK SMILES IDX 57 66 58 67 59 68 6 69 7 70 8 71 9 72 10 74 11 75 12 76
REMARK SMILES IDX 16 77 13 78 15 79 14 80 17 81 18 82 19 83 20 85 21 86 26 87
REMARK SMILES IDX 22 88 25 89 23 90 24 91
REMARK H PARENT 3 6 80 24 50 35 8 73 19 84 24 92
REMARK Flexibility Score: inf
ROOT
ATOM      1  C   UNL A   1      38.152  19.818  25.116  1.00  0.00     0.023 C 
ENDROOT
BRANCH   1   2
ATOM      2  C   UNL A   1      39.258  20.182  26.095  1.00  0.00     0.116 C 
BRANCH   2   3
ATOM      3  N   UNL A   1      40.393  19.272  26.098  1.00  0.00    -0.352 N 
ATOM      4  O   UNL A   1      42.559  18.667  26.309  1.00  0.00    -0.269 OA
ATOM      5  C   UNL A   1      41.713  19.553  26.366  1.00  0.00     0.251 C 
ATOM      6  H   UNL A   1      40.190  18.332  25.882  1.00  0.00     0.163 HD
BRANCH   5   7
ATOM      7  C   UNL A   1      42.105  20.948  26.663  1.00  0.00     0.039 A 
ATOM      8  C   UNL A   1      42.350  21.851  25.629  1.00  0.00     0.014 A 
ATOM      9  C   UNL A   1      42.293  21.332  27.994  1.00  0.00     0.014 A 
ATOM     10  C   UNL A   1      42.946  23.070  25.913  1.00  0.00     0.010 A 
ATOM     11  C   UNL A   1      42.805  22.602  28.284  1.00  0.00     0.010 A 
ATOM     12  C   UNL A   1      43.176  23.465  27.243  1.00  0.00    -0.014 A 
BRANCH  12  13
ATOM     13  C   UNL A   1      43.756  24.808  27.493  1.00  0.00     0.031 A 
ATOM     14  C   UNL A   1      45.197  25.112  27.186  1.00  0.00     0.074 A 
ATOM     15  C   UNL A   1      42.932  25.782  27.928  1.00  0.00     0.049 A 
ATOM     16  N   UNL A   1      45.823  26.259  27.262  1.00  0.00    -0.248 NA
ATOM     17  C   UNL A   1      46.047  23.996  26.745  1.00  0.00     0.031 C 
ATOM     18  C   UNL A   1      41.519  25.596  28.273  1.00  0.00     0.029 A 
ATOM     19  N   UNL A   1      43.143  27.122  28.110  1.00  0.00    -0.354 N 
ATOM     20  C   UNL A   1      47.139  26.003  26.895  1.00  0.00     0.074 A 
ATOM     21  C   UNL A   1      47.229  24.586  26.616  1.00  0.00     0.031 C 
ATOM     22  C   UNL A   1      40.974  26.787  28.555  1.00  0.00     0.029 A 
ATOM     23  C   UNL A   1      42.009  27.810  28.471  1.00  0.00     0.049 A 
ATOM     24  H   UNL A   1      44.021  27.552  27.995  1.00  0.00     0.167 HD
ATOM     25  C   UNL A   1      48.175  26.873  26.795  1.00  0.00     0.031 A 
ATOM     26  C   UNL A   1      41.817  29.119  28.714  1.00  0.00     0.031 A 
ATOM     27  C   UNL A   1      48.079  28.283  27.072  1.00  0.00     0.049 A 
ATOM     28  C   UNL A   1      42.978  30.059  28.580  1.00  0.00     0.074 A 
ATOM     29  C   UNL A   1      49.073  29.245  27.004  1.00  0.00     0.029 A 
ATOM     30  N   UNL A   1      46.921  28.936  27.465  1.00  0.00    -0.354 N 
ATOM     31  N   UNL A   1      44.214  29.791  28.230  1.00  0.00    -0.248 NA
ATOM     32  C   UNL A   1      42.720  31.473  28.875  1.00  0.00     0.031 C 
ATOM     33  C   UNL A   1      48.523  30.473  27.388  1.00  0.00     0.029 A 
ATOM     34  C   UNL A   1      47.176  30.285  27.652  1.00  0.00     0.049 A 
ATOM     35  H   UNL A   1      46.045  28.505  27.593  1.00  0.00     0.167 HD
ATOM     36  C   UNL A   1      44.885  31.006  28.271  1.00  0.00     0.074 A 
ATOM     37  C   UNL A   1      43.908  32.012  28.639  1.00  0.00     0.031 C 
ATOM     38  C   UNL A   1      46.195  31.265  28.040  1.00  0.00     0.031 A 
BRANCH  25  39
ATOM     39  C   UNL A   1      49.515  26.322  26.380  1.00  0.00    -0.014 A 
ATOM     40  C   UNL A   1      49.960  26.426  25.050  1.00  0.00     0.010 A 
ATOM     41  C   UNL A   1      50.368  25.754  27.344  1.00  0.00     0.010 A 
ATOM     42  C   UNL A   1      51.225  25.950  24.687  1.00  0.00     0.020 A 
ATOM     43  C   UNL A   1      51.641  25.296  26.990  1.00  0.00     0.020 A 
ATOM     44  C   UNL A   1      52.056  25.386  25.659  1.00  0.00     0.054 A 
BRANCH  44  45
ATOM     45  S   UNL A   1      53.708  24.814  25.170  1.00  0.00     0.124 S 
ATOM     46  O   UNL A   1      53.920  25.544  23.922  1.00  0.00    -0.237 OA
ATOM     47  O   UNL A   1      54.541  25.236  26.292  1.00  0.00    -0.237 OA
ATOM     48  O   UNL A   1      53.546  23.369  25.028  1.00  0.00    -0.744 OA
ENDBRANCH  44  45
ENDBRANCH  25  39
BRANCH  26  49
ATOM     49  C   UNL A   1      40.474  29.601  29.131  1.00  0.00    -0.014 A 
ATOM     50  C   UNL A   1      39.444  29.770  28.191  1.00  0.00     0.010 A 
ATOM     51  C   UNL A   1      40.215  29.859  30.489  1.00  0.00     0.010 A 
ATOM     52  C   UNL A   1      38.180  30.203  28.601  1.00  0.00     0.020 A 
ATOM     53  C   UNL A   1      38.946  30.264  30.907  1.00  0.00     0.020 A 
ATOM     54  C   UNL A   1      37.940  30.447  29.957  1.00  0.00     0.054 A 
BRANCH  54  55
ATOM     55  S   UNL A   1      36.277  30.948  30.485  1.00  0.00     0.124 S 
ATOM     56  O   UNL A   1      35.895  29.847  31.361  1.00  0.00    -0.237 OA
ATOM     57  O   UNL A   1      36.524  32.228  31.146  1.00  0.00    -0.237 OA
ATOM     58  O   UNL A   1      35.538  31.040  29.229  1.00  0.00    -0.744 OA
ENDBRANCH  54  55
ENDBRANCH  26  49
BRANCH  38  59
ATOM     59  C   UNL A   1      46.634  32.695  28.185  1.00  0.00    -0.014 A 
ATOM     60  C   UNL A   1      46.588  33.576  27.089  1.00  0.00     0.010 A 
ATOM     61  C   UNL A   1      47.099  33.161  29.426  1.00  0.00     0.010 A 
ATOM     62  C   UNL A   1      47.046  34.888  27.220  1.00  0.00     0.020 A 
ATOM     63  C   UNL A   1      47.537  34.481  29.567  1.00  0.00     0.020 A 
ATOM     64  C   UNL A   1      47.528  35.329  28.456  1.00  0.00     0.054 A 
BRANCH  64  65
ATOM     65  S   UNL A   1      48.118  37.037  28.608  1.00  0.00     0.124 S 
ATOM     66  O   UNL A   1      46.958  37.799  28.155  1.00  0.00    -0.237 OA
ATOM     67  O   UNL A   1      48.428  37.148  30.031  1.00  0.00    -0.237 OA
ATOM     68  O   UNL A   1      49.278  37.080  27.721  1.00  0.00    -0.744 OA
ENDBRANCH  64  65
ENDBRANCH  38  59
ENDBRANCH  12  13
ENDBRANCH   5   7
ENDBRANCH   2   3
ENDBRANCH   1   2
BRANCH   1  69
ATOM     69  C   UNL A   1      37.282  20.974  24.630  1.00  0.00     0.023 C 
BRANCH  69  70
ATOM     70  C   UNL A   1      37.626  22.355  25.176  1.00  0.00     0.116 C 
BRANCH  70  71
ATOM     71  N   UNL A   1      36.737  22.818  26.217  1.00  0.00    -0.356 N 
ATOM     72  C   UNL A   1      35.446  23.220  26.189  1.00  0.00     0.224 C 
ATOM     73  H   UNL A   1      37.148  22.849  27.111  1.00  0.00     0.163 HD
ATOM     74  O   UNL A   1      34.883  23.280  27.290  1.00  0.00    -0.275 OA
BRANCH  72  75
ATOM     75  C   UNL A   1      34.682  23.672  24.952  1.00  0.00     0.095 C 
ATOM     76  C   UNL A   1      33.866  24.961  24.956  1.00  0.00     0.041 C 
ATOM     77  C   UNL A   1      33.959  22.491  24.268  1.00  0.00     0.095 C 
ATOM     78  C   UNL A   1      33.270  25.252  23.608  1.00  0.00    -0.030 C 
ATOM     79  C   UNL A   1      33.610  22.896  22.810  1.00  0.00     0.041 C 
ATOM     80  C   UNL A   1      33.172  24.329  22.640  1.00  0.00    -0.030 C 
BRANCH  77  81
ATOM     81  C   UNL A   1      32.649  22.017  24.928  1.00  0.00     0.228 C 
ATOM     82  O   UNL A   1      32.005  22.734  25.697  1.00  0.00    -0.274 OA
ATOM     83  N   UNL A   1      32.060  20.865  24.460  1.00  0.00    -0.326 N 
ATOM     84  H   UNL A   1      31.077  20.880  24.413  1.00  0.00     0.169 HD
BRANCH  83  85
ATOM     85  C   UNL A   1      32.669  19.673  24.042  1.00  0.00     0.041 A 
ATOM     86  C   UNL A   1      33.731  19.116  24.752  1.00  0.00     0.030 A 
ATOM     87  C   UNL A   1      32.136  18.971  22.960  1.00  0.00     0.030 A 
ATOM     88  C   UNL A   1      34.331  17.927  24.341  1.00  0.00     0.048 A 
ATOM     89  C   UNL A   1      32.740  17.782  22.535  1.00  0.00     0.048 A 
ATOM     90  C   UNL A   1      33.840  17.278  23.219  1.00  0.00     0.115 A 
BRANCH  90  91
ATOM     91  O   UNL A   1      34.410  16.126  22.765  1.00  0.00    -0.508 OA
ATOM     92  H   UNL A   1      34.842  16.113  21.934  1.00  0.00     0.293 HD
ENDBRANCH  90  91
ENDBRANCH  83  85
ENDBRANCH  77  81
ENDBRANCH  72  75
ENDBRANCH  70  71
ENDBRANCH  69  70
ENDBRANCH   1  69
TORSDOF 17
ENDMDL
MODEL 2
REMARK VINA RESULT:     -11.5      6.735     12.354
REMARK SMILES O=C(NCCCCNC(=O)[C@@H]1CC=CC[C@@H]1C(=O)Nc1ccc(O)cc1)c1ccc(-c2c3nc(c(-c4ccc(S(=O)(=O)[O-])cc4)c4ccc([nH]4)c(-c4ccc(S(=O)(=O)[O-])cc4)c4nc(c(-c5ccc(S(=O)(=O)[O-])cc5)c5ccc2[nH]5)C=C4)C=C3)cc1
REMARK SMILES IDX 5 1 4 2 3 3 1 4 2 5 27 7 28 8 86 9 29 10 85 11 30 12 31 13
REMARK SMILES IDX 32 14 79 15 33 16 84 17 78 18 80 19 34 20 83 21 77 22 76 23
REMARK SMILES IDX 35 25 65 26 46 27 64 28 47 29 50 30 63 31 81 32 48 33 49 34
REMARK SMILES IDX 62 36 82 37 51 38 36 39 37 40 45 41 38 42 44 43 39 44 40 45
REMARK SMILES IDX 41 46 42 47 43 48 66 49 67 50 75 51 68 52 74 53 69 54 70 55
REMARK SMILES IDX 71 56 72 57 73 58 52 59 53 60 61 61 54 62 60 63 55 64 56 65
REMARK SMILES IDX 57 66 58 67 59 68 6 69 7 70 8 71 9 72 10 74 11 75 12 76
REMARK SMILES IDX 16 77 13 78 15 79 14 80 17 81 18 82 19 83 20 85 21 86 26 87
REMARK SMILES IDX 22 88 25 89 23 90 24 91
REMARK H PARENT 3 6 80 24 50 35 8 73 19 84 24 92
REMARK Flexibility Score: inf
ROOT
ATOM      1  C   UNL A   1      31.607  32.153  26.860  1.00  0.00     0.023 C 
ENDROOT
BRANCH   1   2
ATOM      2  C   UNL A   1      32.855  32.930  27.251  1.00  0.00     0.116 C 
BRANCH   2   3
ATOM      3  N   UNL A   1      32.598  34.224  27.865  1.00  0.00    -0.352 N 
ATOM      4  O   UNL A   1      32.962  35.954  29.271  1.00  0.00    -0.269 OA
ATOM      5  C   UNL A   1      33.325  34.863  28.844  1.00  0.00     0.251 C 
ATOM      6  H   UNL A   1      31.805  34.705  27.536  1.00  0.00     0.163 HD
BRANCH   5   7
ATOM      7  C   UNL A   1      34.510  34.190  29.416  1.00  0.00     0.039 A 
ATOM      8  C   UNL A   1      34.378  33.318  30.496  1.00  0.00     0.014 A 
ATOM      9  C   UNL A   1      35.776  34.490  28.903  1.00  0.00     0.014 A 
ATOM     10  C   UNL A   1      35.511  32.888  31.171  1.00  0.00     0.010 A 
ATOM     11  C   UNL A   1      36.917  33.975  29.527  1.00  0.00     0.010 A 
ATOM     12  C   UNL A   1      36.794  33.205  30.692  1.00  0.00    -0.014 A 
BRANCH  12  13
ATOM     13  C   UNL A   1      37.973  32.663  31.415  1.00  0.00     0.031 A 
ATOM     14  C   UNL A   1      38.358  33.165  32.779  1.00  0.00     0.074 A 
ATOM     15  C   UNL A   1      38.648  31.643  30.849  1.00  0.00     0.049 A 
ATOM     16  N   UNL A   1      39.302  32.728  33.574  1.00  0.00    -0.248 NA
ATOM     17  C   UNL A   1      37.599  34.302  33.324  1.00  0.00     0.031 C 
ATOM     18  C   UNL A   1      38.371  31.086  29.521  1.00  0.00     0.029 A 
ATOM     19  N   UNL A   1      39.666  30.864  31.328  1.00  0.00    -0.354 N 
ATOM     20  C   UNL A   1      39.262  33.540  34.701  1.00  0.00     0.074 A 
ATOM     21  C   UNL A   1      38.214  34.512  34.480  1.00  0.00     0.031 C 
ATOM     22  C   UNL A   1      39.149  30.013  29.323  1.00  0.00     0.029 A 
ATOM     23  C   UNL A   1      40.020  29.843  30.479  1.00  0.00     0.049 A 
ATOM     24  H   UNL A   1      40.103  31.020  32.197  1.00  0.00     0.167 HD
ATOM     25  C   UNL A   1      40.026  33.475  35.819  1.00  0.00     0.031 A 
ATOM     26  C   UNL A   1      40.946  28.875  30.608  1.00  0.00     0.031 A 
ATOM     27  C   UNL A   1      41.068  32.503  36.034  1.00  0.00     0.049 A 
ATOM     28  C   UNL A   1      41.765  28.819  31.863  1.00  0.00     0.074 A 
ATOM     29  C   UNL A   1      41.900  32.359  37.131  1.00  0.00     0.029 A 
ATOM     30  N   UNL A   1      41.416  31.505  35.137  1.00  0.00    -0.354 N 
ATOM     31  N   UNL A   1      41.707  29.600  32.916  1.00  0.00    -0.248 NA
ATOM     32  C   UNL A   1      42.774  27.757  31.946  1.00  0.00     0.031 C 
ATOM     33  C   UNL A   1      42.774  31.294  36.883  1.00  0.00     0.029 A 
ATOM     34  C   UNL A   1      42.457  30.747  35.650  1.00  0.00     0.049 A 
ATOM     35  H   UNL A   1      40.988  31.356  34.263  1.00  0.00     0.167 HD
ATOM     36  C   UNL A   1      42.681  29.126  33.786  1.00  0.00     0.074 A 
ATOM     37  C   UNL A   1      43.281  27.968  33.152  1.00  0.00     0.031 C 
ATOM     38  C   UNL A   1      43.054  29.613  34.994  1.00  0.00     0.031 A 
BRANCH  25  39
ATOM     39  C   UNL A   1      39.778  34.496  36.899  1.00  0.00    -0.014 A 
ATOM     40  C   UNL A   1      38.960  34.198  38.003  1.00  0.00     0.010 A 
ATOM     41  C   UNL A   1      40.423  35.745  36.843  1.00  0.00     0.010 A 
ATOM     42  C   UNL A   1      38.773  35.140  39.021  1.00  0.00     0.020 A 
ATOM     43  C   UNL A   1      40.255  36.682  37.869  1.00  0.00     0.020 A 
ATOM     44  C   UNL A   1      39.420  36.376  38.946  1.00  0.00     0.054 A 
BRANCH  44  45
ATOM     45  S   UNL A   1      39.192  37.564  40.299  1.00  0.00     0.124 S 
ATOM     46  O   UNL A   1      38.254  38.515  39.708  1.00  0.00    -0.237 OA
ATOM     47  O   UNL A   1      38.651  36.733  41.370  1.00  0.00    -0.237 OA
ATOM     48  O   UNL A   1      40.538  38.081  40.537  1.00  0.00    -0.744 OA
ENDBRANCH  44  45
ENDBRANCH  25  39
BRANCH  26  49
ATOM     49  C   UNL A   1      41.153  27.903  29.504  1.00  0.00    -0.014 A 
ATOM     50  C   UNL A   1      42.343  27.899  28.759  1.00  0.00     0.010 A 
ATOM     51  C   UNL A   1      40.160  26.948  29.218  1.00  0.00     0.010 A 
ATOM     52  C   UNL A   1      42.533  26.965  27.737  1.00  0.00     0.020 A 
ATOM     53  C   UNL A   1      40.357  25.994  28.218  1.00  0.00     0.020 A 
ATOM     54  C   UNL A   1      41.538  26.017  27.474  1.00  0.00     0.054 A 
BRANCH  54  55
ATOM     55  S   UNL A   1      41.821  24.770  26.187  1.00  0.00     0.124 S 
ATOM     56  O   UNL A   1      41.264  25.424  25.007  1.00  0.00    -0.237 OA
ATOM     57  O   UNL A   1      43.275  24.621  26.201  1.00  0.00    -0.237 OA
ATOM     58  O   UNL A   1      41.081  23.610  26.673  1.00  0.00    -0.744 OA
ENDBRANCH  54  55
ENDBRANCH  26  49
BRANCH  38  59
ATOM     59  C   UNL A   1      44.168  28.888  35.696  1.00  0.00    -0.014 A 
ATOM     60  C   UNL A   1      45.509  29.267  35.501  1.00  0.00     0.010 A 
ATOM     61  C   UNL A   1      43.872  27.816  36.556  1.00  0.00     0.010 A 
ATOM     62  C   UNL A   1      46.539  28.555  36.116  1.00  0.00     0.020 A 
ATOM     63  C   UNL A   1      44.901  27.115  37.191  1.00  0.00     0.020 A 
ATOM     64  C   UNL A   1      46.229  27.476  36.949  1.00  0.00     0.054 A 
BRANCH  64  65
ATOM     65  S   UNL A   1      47.581  26.562  37.740  1.00  0.00     0.124 S 
ATOM     66  O   UNL A   1      47.096  26.434  39.112  1.00  0.00    -0.237 OA
ATOM     67  O   UNL A   1      47.628  25.321  36.971  1.00  0.00    -0.237 OA
ATOM     68  O   UNL A   1      48.737  27.439  37.566  1.00  0.00    -0.744 OA
ENDBRANCH  64  65
ENDBRANCH  38  59
ENDBRANCH  12  13
ENDBRANCH   5   7
ENDBRANCH   2   3
ENDBRANCH   1   2
BRANCH   1  69
ATOM     69  C   UNL A   1      31.805  30.664  26.584  1.00  0.00     0.023 C 
BRANCH  69  70
ATOM     70  C   UNL A   1      33.196  30.106  26.860  1.00  0.00     0.116 C 
BRANCH  70  71
ATOM     71  N   UNL A   1      33.869  29.589  25.691  1.00  0.00    -0.356 N 
ATOM     72  C   UNL A   1      33.715  28.440  24.994  1.00  0.00     0.224 C 
ATOM     73  H   UNL A   1      34.570  30.182  25.336  1.00  0.00     0.163 HD
ATOM     74  O   UNL A   1      34.241  28.422  23.873  1.00  0.00    -0.275 OA
BRANCH  72  75
ATOM     75  C   UNL A   1      33.038  27.175  25.503  1.00  0.00     0.095 C 
ATOM     76  C   UNL A   1      33.745  25.824  25.448  1.00  0.00     0.041 C 
ATOM     77  C   UNL A   1      31.557  27.110  25.068  1.00  0.00     0.095 C 
ATOM     78  C   UNL A   1      32.925  24.736  26.081  1.00  0.00    -0.030 C 
ATOM     79  C   UNL A   1      30.814  26.092  25.976  1.00  0.00     0.041 C 
ATOM     80  C   UNL A   1      31.614  24.864  26.334  1.00  0.00    -0.030 C 
BRANCH  77  81
ATOM     81  C   UNL A   1      31.291  26.689  23.610  1.00  0.00     0.228 C 
ATOM     82  O   UNL A   1      32.006  25.878  23.020  1.00  0.00    -0.274 OA
ATOM     83  N   UNL A   1      30.090  27.040  23.036  1.00  0.00    -0.326 N 
ATOM     84  H   UNL A   1      29.685  26.361  22.450  1.00  0.00     0.169 HD
BRANCH  83  85
ATOM     85  C   UNL A   1      29.365  28.233  23.174  1.00  0.00     0.041 A 
ATOM     86  C   UNL A   1      30.011  29.456  23.341  1.00  0.00     0.030 A 
ATOM     87  C   UNL A   1      27.977  28.214  23.032  1.00  0.00     0.030 A 
ATOM     88  C   UNL A   1      29.291  30.643  23.469  1.00  0.00     0.048 A 
ATOM     89  C   UNL A   1      27.246  29.401  23.170  1.00  0.00     0.048 A 
ATOM     90  C   UNL A   1      27.907  30.601  23.402  1.00  0.00     0.115 A 
BRANCH  90  91
ATOM     91  O   UNL A   1      27.160  31.732  23.547  1.00  0.00    -0.508 OA
ATOM     92  H   UNL A   1      26.304  31.683  23.926  1.00  0.00     0.293 HD
ENDBRANCH  90  91
ENDBRANCH  83  85
ENDBRANCH  77  81
ENDBRANCH  72  75
ENDBRANCH  70  71
ENDBRANCH  69  70
ENDBRANCH   1  69
TORSDOF 17
ENDMDL
MODEL 3
REMARK VINA RESULT:     -11.2      3.308      9.436
REMARK SMILES O=C(NCCCCNC(=O)[C@@H]1CC=CC[C@@H]1C(=O)Nc1ccc(O)cc1)c1ccc(-c2c3nc(c(-c4ccc(S(=O)(=O)[O-])cc4)c4ccc([nH]4)c(-c4ccc(S(=O)(=O)[O-])cc4)c4nc(c(-c5ccc(S(=O)(=O)[O-])cc5)c5ccc2[nH]5)C=C4)C=C3)cc1
REMARK SMILES IDX 5 1 4 2 3 3 1 4 2 5 27 7 28 8 86 9 29 10 85 11 30 12 31 13
REMARK SMILES IDX 32 14 79 15 33 16 84 17 78 18 80 19 34 20 83 21 77 22 76 23
REMARK SMILES IDX 35 25 65 26 46 27 64 28 47 29 50 30 63 31 81 32 48 33 49 34
REMARK SMILES IDX 62 36 82 37 51 38 36 39 37 40 45 41 38 42 44 43 39 44 40 45
REMARK SMILES IDX 41 46 42 47 43 48 66 49 67 50 75 51 68 52 74 53 69 54 70 55
REMARK SMILES IDX 71 56 72 57 73 58 52 59 53 60 61 61 54 62 60 63 55 64 56 65
REMARK SMILES IDX 57 66 58 67 59 68 6 69 7 70 8 71 9 72 10 74 11 75 12 76
REMARK SMILES IDX 16 77 13 78 15 79 14 80 17 81 18 82 19 83 20 85 21 86 26 87
REMARK SMILES IDX 22 88 25 89 23 90 24 91
REMARK H PARENT 3 6 80 24 50 35 8 73 19 84 24 92
REMARK Flexibility Score: inf
ROOT
ATOM      1  C   UNL A   1      34.796  31.764  27.723  1.00  0.00     0.023 C 
ENDROOT
BRANCH   1   2
ATOM      2  C   UNL A   1      35.907  31.818  28.760  1.00  0.00     0.116 C 
BRANCH   2   3
ATOM      3  N   UNL A   1      35.663  31.022  29.955  1.00  0.00    -0.352 N 
ATOM      4  O   UNL A   1      36.176  29.598  31.631  1.00  0.00    -0.269 OA
ATOM      5  C   UNL A   1      36.547  30.222  30.643  1.00  0.00     0.251 C 
ATOM      6  H   UNL A   1      34.749  31.064  30.319  1.00  0.00     0.163 HD
BRANCH   5   7
ATOM      7  C   UNL A   1      37.929  30.079  30.139  1.00  0.00     0.039 A 
ATOM      8  C   UNL A   1      38.173  29.909  28.776  1.00  0.00     0.014 A 
ATOM      9  C   UNL A   1      38.987  30.048  31.053  1.00  0.00     0.014 A 
ATOM     10  C   UNL A   1      39.438  29.535  28.349  1.00  0.00     0.010 A 
ATOM     11  C   UNL A   1      40.282  29.766  30.606  1.00  0.00     0.010 A 
ATOM     12  C   UNL A   1      40.510  29.465  29.256  1.00  0.00    -0.014 A 
BRANCH  12  13
ATOM     13  C   UNL A   1      41.858  29.124  28.735  1.00  0.00     0.031 A 
ATOM     14  C   UNL A   1      42.992  30.111  28.782  1.00  0.00     0.074 A 
ATOM     15  C   UNL A   1      42.066  27.868  28.290  1.00  0.00     0.049 A 
ATOM     16  N   UNL A   1      44.246  29.930  28.453  1.00  0.00    -0.248 NA
ATOM     17  C   UNL A   1      42.689  31.472  29.250  1.00  0.00     0.031 C 
ATOM     18  C   UNL A   1      41.033  26.833  28.185  1.00  0.00     0.029 A 
ATOM     19  N   UNL A   1      43.211  27.235  27.889  1.00  0.00    -0.354 N 
ATOM     20  C   UNL A   1      44.877  31.151  28.657  1.00  0.00     0.074 A 
ATOM     21  C   UNL A   1      43.864  32.074  29.119  1.00  0.00     0.031 C 
ATOM     22  C   UNL A   1      41.605  25.677  27.818  1.00  0.00     0.029 A 
ATOM     23  C   UNL A   1      43.028  25.903  27.603  1.00  0.00     0.049 A 
ATOM     24  H   UNL A   1      44.081  27.689  27.813  1.00  0.00     0.167 HD
ATOM     25  C   UNL A   1      46.184  31.469  28.481  1.00  0.00     0.031 A 
ATOM     26  C   UNL A   1      43.904  24.963  27.206  1.00  0.00     0.031 A 
ATOM     27  C   UNL A   1      47.189  30.545  28.022  1.00  0.00     0.049 A 
ATOM     28  C   UNL A   1      45.345  25.341  27.034  1.00  0.00     0.074 A 
ATOM     29  C   UNL A   1      48.537  30.774  27.806  1.00  0.00     0.029 A 
ATOM     30  N   UNL A   1      46.957  29.213  27.713  1.00  0.00    -0.354 N 
ATOM     31  N   UNL A   1      45.917  26.505  27.236  1.00  0.00    -0.248 NA
ATOM     32  C   UNL A   1      46.256  24.284  26.581  1.00  0.00     0.031 C 
ATOM     33  C   UNL A   1      49.115  29.589  27.336  1.00  0.00     0.029 A 
ATOM     34  C   UNL A   1      48.134  28.610  27.300  1.00  0.00     0.049 A 
ATOM     35  H   UNL A   1      46.085  28.762  27.776  1.00  0.00     0.167 HD
ATOM     36  C   UNL A   1      47.258  26.320  26.924  1.00  0.00     0.074 A 
ATOM     37  C   UNL A   1      47.416  24.925  26.563  1.00  0.00     0.031 C 
ATOM     38  C   UNL A   1      48.266  27.227  26.923  1.00  0.00     0.031 A 
BRANCH  25  39
ATOM     39  C   UNL A   1      46.605  32.887  28.770  1.00  0.00    -0.014 A 
ATOM     40  C   UNL A   1      46.543  33.878  27.773  1.00  0.00     0.010 A 
ATOM     41  C   UNL A   1      47.003  33.248  30.070  1.00  0.00     0.010 A 
ATOM     42  C   UNL A   1      46.895  35.200  28.067  1.00  0.00     0.020 A 
ATOM     43  C   UNL A   1      47.336  34.573  30.372  1.00  0.00     0.020 A 
ATOM     44  C   UNL A   1      47.291  35.538  29.364  1.00  0.00     0.054 A 
BRANCH  44  45
ATOM     45  S   UNL A   1      47.704  37.268  29.728  1.00  0.00     0.124 S 
ATOM     46  O   UNL A   1      46.938  37.979  28.706  1.00  0.00    -0.237 OA
ATOM     47  O   UNL A   1      47.225  37.433  31.097  1.00  0.00    -0.237 OA
ATOM     48  O   UNL A   1      49.155  37.320  29.568  1.00  0.00    -0.744 OA
ENDBRANCH  44  45
ENDBRANCH  25  39
BRANCH  26  49
ATOM     49  C   UNL A   1      43.426  23.584  26.925  1.00  0.00    -0.014 A 
ATOM     50  C   UNL A   1      43.407  23.080  25.614  1.00  0.00     0.010 A 
ATOM     51  C   UNL A   1      43.019  22.755  27.986  1.00  0.00     0.010 A 
ATOM     52  C   UNL A   1      42.975  21.774  25.367  1.00  0.00     0.020 A 
ATOM     53  C   UNL A   1      42.615  21.441  27.747  1.00  0.00     0.020 A 
ATOM     54  C   UNL A   1      42.582  20.962  26.437  1.00  0.00     0.054 A 
BRANCH  54  55
ATOM     55  S   UNL A   1      42.083  19.249  26.110  1.00  0.00     0.124 S 
ATOM     56  O   UNL A   1      42.856  18.934  24.913  1.00  0.00    -0.237 OA
ATOM     57  O   UNL A   1      42.494  18.558  27.330  1.00  0.00    -0.237 OA
ATOM     58  O   UNL A   1      40.639  19.349  25.919  1.00  0.00    -0.744 OA
ENDBRANCH  54  55
ENDBRANCH  26  49
BRANCH  38  59
ATOM     59  C   UNL A   1      49.621  26.724  26.513  1.00  0.00    -0.014 A 
ATOM     60  C   UNL A   1      50.078  26.884  25.192  1.00  0.00     0.010 A 
ATOM     61  C   UNL A   1      50.445  26.084  27.455  1.00  0.00     0.010 A 
ATOM     62  C   UNL A   1      51.317  26.368  24.807  1.00  0.00     0.020 A 
ATOM     63  C   UNL A   1      51.695  25.586  27.079  1.00  0.00     0.020 A 
ATOM     64  C   UNL A   1      52.112  25.713  25.751  1.00  0.00     0.054 A 
BRANCH  64  65
ATOM     65  S   UNL A   1      53.719  25.049  25.233  1.00  0.00     0.124 S 
ATOM     66  O   UNL A   1      54.608  25.570  26.268  1.00  0.00    -0.237 OA
ATOM     67  O   UNL A   1      53.499  23.605  25.262  1.00  0.00    -0.237 OA
ATOM     68  O   UNL A   1      53.912  25.616  23.901  1.00  0.00    -0.744 OA
ENDBRANCH  64  65
ENDBRANCH  38  59
ENDBRANCH  12  13
ENDBRANCH   5   7
ENDBRANCH   2   3
ENDBRANCH   1   2
BRANCH   1  69
ATOM     69  C   UNL A   1      34.021  30.450  27.640  1.00  0.00     0.023 C 
BRANCH  69  70
ATOM     70  C   UNL A   1      33.031  30.322  26.488  1.00  0.00     0.116 C 
BRANCH  70  71
ATOM     71  N   UNL A   1      33.609  29.818  25.264  1.00  0.00    -0.356 N 
ATOM     72  C   UNL A   1      33.488  28.629  24.631  1.00  0.00     0.224 C 
ATOM     73  H   UNL A   1      34.201  30.457  24.806  1.00  0.00     0.163 HD
ATOM     74  O   UNL A   1      33.877  28.609  23.455  1.00  0.00    -0.275 OA
BRANCH  72  75
ATOM     75  C   UNL A   1      33.005  27.330  25.262  1.00  0.00     0.095 C 
ATOM     76  C   UNL A   1      33.846  26.059  25.197  1.00  0.00     0.041 C 
ATOM     77  C   UNL A   1      31.505  27.088  24.982  1.00  0.00     0.095 C 
ATOM     78  C   UNL A   1      33.214  24.928  25.957  1.00  0.00    -0.030 C 
ATOM     79  C   UNL A   1      30.967  26.049  26.005  1.00  0.00     0.041 C 
ATOM     80  C   UNL A   1      31.927  24.933  26.334  1.00  0.00    -0.030 C 
BRANCH  77  81
ATOM     81  C   UNL A   1      31.148  26.561  23.578  1.00  0.00     0.228 C 
ATOM     82  O   UNL A   1      31.814  25.691  23.015  1.00  0.00    -0.274 OA
ATOM     83  N   UNL A   1      29.923  26.893  23.047  1.00  0.00    -0.326 N 
ATOM     84  H   UNL A   1      29.473  26.180  22.538  1.00  0.00     0.169 HD
BRANCH  83  85
ATOM     85  C   UNL A   1      29.228  28.108  23.130  1.00  0.00     0.041 A 
ATOM     86  C   UNL A   1      27.836  28.141  23.192  1.00  0.00     0.030 A 
ATOM     87  C   UNL A   1      29.939  29.301  23.265  1.00  0.00     0.030 A 
ATOM     88  C   UNL A   1      27.144  29.348  23.283  1.00  0.00     0.048 A 
ATOM     89  C   UNL A   1      29.251  30.518  23.346  1.00  0.00     0.048 A 
ATOM     90  C   UNL A   1      27.861  30.533  23.339  1.00  0.00     0.115 A 
BRANCH  90  91
ATOM     91  O   UNL A   1      27.228  31.737  23.404  1.00  0.00    -0.508 OA
ATOM     92  H   UNL A   1      27.347  32.367  22.720  1.00  0.00     0.293 HD
ENDBRANCH  90  91
ENDBRANCH  83  85
ENDBRANCH  77  81
ENDBRANCH  72  75
ENDBRANCH  70  71
ENDBRANCH  69  70
ENDBRANCH   1  69
TORSDOF 17
ENDMDL
