MODEL 1
REMARK VINA RESULT:      -9.2      0.000      0.000
REMARK SMILES C[C@@]([NH2+]CCCO)(C(=O)NCCCCNC(=O)c1ccc(-c2c3nc(c(-c4ccc(S(=O)(=O)[O-])cc4)c4ccc([nH]4)c(-c4ccc(S(=O)(=O)[O-])cc4)c4nc(c(-c5ccc(S(=O)(=O)[O-])cc5)c5ccc2[nH]5)C=C4)C=C3)cc1)C(F)(F)F
REMARK SMILES IDX 11 1 10 2 8 3 9 4 2 6 1 7 3 8 4 11 5 12 6 13 7 14 78 16
REMARK SMILES IDX 79 17 80 18 81 19 12 20 13 21 14 22 15 23 16 24 17 26 18 27
REMARK SMILES IDX 19 28 77 29 20 30 76 31 21 32 22 33 23 34 70 35 24 36 75 37
REMARK SMILES IDX 69 38 71 39 25 40 74 41 68 42 67 43 26 45 56 46 37 47 55 48
REMARK SMILES IDX 38 49 41 50 54 51 72 52 39 53 40 54 53 56 73 57 42 58 27 59
REMARK SMILES IDX 28 60 36 61 29 62 35 63 30 64 31 65 32 66 33 67 34 68 57 69
REMARK SMILES IDX 58 70 66 71 59 72 65 73 60 74 61 75 62 76 63 77 64 78 43 79
REMARK SMILES IDX 44 80 52 81 45 82 51 83 46 84 47 85 48 86 49 87 50 88
REMARK H PARENT 10 5 3 9 3 10 7 15 15 25 71 44 41 55
REMARK Flexibility Score: inf
ROOT
ATOM      1  C   UNL A   1      37.564  33.695  30.205  1.00  0.00     0.116 C 
ENDROOT
BRANCH   1   2
ATOM      2  N   UNL A   1      37.051  32.704  31.132  1.00  0.00    -0.350 N 
ATOM      3  C   UNL A   1      36.483  32.831  32.368  1.00  0.00     0.290 C 
ATOM      4  O   UNL A   1      36.201  31.772  32.933  1.00  0.00    -0.267 OA
ATOM      5  H   UNL A   1      37.126  31.776  30.814  1.00  0.00     0.163 HD
BRANCH   3   6
ATOM      6  C   UNL A   1      36.188  34.204  33.009  1.00  0.00     0.268 C 
ATOM      7  C   UNL A   1      37.498  34.854  33.508  1.00  0.00     0.101 C 
BRANCH   6   8
ATOM      8  N   UNL A   1      35.608  35.178  32.007  1.00  0.00    -0.326 N 
ATOM      9  H   UNL A   1      36.201  35.154  31.177  1.00  0.00     0.347 HD
ATOM     10  H   UNL A   1      35.582  36.073  32.495  1.00  0.00     0.347 HD
BRANCH   8  11
ATOM     11  C   UNL A   1      34.230  34.948  31.569  1.00  0.00     0.264 C 
BRANCH  11  12
ATOM     12  C   UNL A   1      33.141  35.900  32.081  1.00  0.00     0.089 C 
BRANCH  12  13
ATOM     13  C   UNL A   1      33.527  37.372  32.156  1.00  0.00     0.162 C 
BRANCH  13  14
ATOM     14  O   UNL A   1      34.083  37.700  33.421  1.00  0.00    -0.396 OA
ATOM     15  H   UNL A   1      33.810  37.037  34.075  1.00  0.00     0.210 HD
ENDBRANCH  13  14
ENDBRANCH  12  13
ENDBRANCH  11  12
ENDBRANCH   8  11
ENDBRANCH   6   8
BRANCH   6  16
ATOM     16  C   UNL A   1      35.343  33.941  34.289  1.00  0.00     0.453 C 
ATOM     17  F   UNL A   1      34.324  33.076  34.074  1.00  0.00    -0.164 F 
ATOM     18  F   UNL A   1      36.140  33.360  35.234  1.00  0.00    -0.164 F 
ATOM     19  F   UNL A   1      34.833  35.048  34.861  1.00  0.00    -0.164 F 
ENDBRANCH   6  16
ENDBRANCH   3   6
ENDBRANCH   1   2
BRANCH   1  20
ATOM     20  C   UNL A   1      37.323  33.267  28.757  1.00  0.00     0.023 C 
BRANCH  20  21
ATOM     21  C   UNL A   1      35.862  33.360  28.304  1.00  0.00     0.023 C 
BRANCH  21  22
ATOM     22  C   UNL A   1      34.861  32.616  29.182  1.00  0.00     0.116 C 
BRANCH  22  23
ATOM     23  N   UNL A   1      34.065  31.652  28.440  1.00  0.00    -0.352 N 
ATOM     24  C   UNL A   1      34.450  30.445  27.905  1.00  0.00     0.251 C 
ATOM     25  H   UNL A   1      33.120  31.897  28.301  1.00  0.00     0.163 HD
ATOM     26  O   UNL A   1      33.681  29.816  27.190  1.00  0.00    -0.269 OA
BRANCH  24  27
ATOM     27  C   UNL A   1      35.811  29.932  28.175  1.00  0.00     0.039 A 
ATOM     28  C   UNL A   1      36.767  29.988  27.159  1.00  0.00     0.014 A 
ATOM     29  C   UNL A   1      36.147  29.421  29.432  1.00  0.00     0.014 A 
ATOM     30  C   UNL A   1      38.080  29.594  27.424  1.00  0.00     0.010 A 
ATOM     31  C   UNL A   1      37.471  29.094  29.714  1.00  0.00     0.010 A 
ATOM     32  C   UNL A   1      38.451  29.178  28.714  1.00  0.00    -0.014 A 
BRANCH  32  33
ATOM     33  C   UNL A   1      39.860  28.838  29.039  1.00  0.00     0.031 A 
ATOM     34  C   UNL A   1      40.758  29.863  29.674  1.00  0.00     0.074 A 
ATOM     35  C   UNL A   1      40.349  27.629  28.697  1.00  0.00     0.049 A 
ATOM     36  N   UNL A   1      42.028  29.771  29.977  1.00  0.00    -0.248 NA
ATOM     37  C   UNL A   1      40.159  31.171  29.990  1.00  0.00     0.031 C 
ATOM     38  C   UNL A   1      39.592  26.562  28.037  1.00  0.00     0.029 A 
ATOM     39  N   UNL A   1      41.605  27.096  28.850  1.00  0.00    -0.354 N 
ATOM     40  C   UNL A   1      42.384  31.011  30.497  1.00  0.00     0.074 A 
ATOM     41  C   UNL A   1      41.209  31.850  30.428  1.00  0.00     0.031 C 
ATOM     42  C   UNL A   1      40.389  25.495  27.871  1.00  0.00     0.029 A 
ATOM     43  C   UNL A   1      41.723  25.812  28.372  1.00  0.00     0.049 A 
ATOM     44  H   UNL A   1      42.351  27.586  29.265  1.00  0.00     0.167 HD
ATOM     45  C   UNL A   1      43.577  31.408  31.002  1.00  0.00     0.031 A 
ATOM     46  C   UNL A   1      42.785  24.984  28.335  1.00  0.00     0.031 A 
ATOM     47  C   UNL A   1      44.739  30.565  31.085  1.00  0.00     0.049 A 
ATOM     48  C   UNL A   1      44.099  25.450  28.898  1.00  0.00     0.074 A 
ATOM     49  C   UNL A   1      45.973  30.856  31.639  1.00  0.00     0.029 A 
ATOM     50  N   UNL A   1      44.814  29.269  30.597  1.00  0.00    -0.354 N 
ATOM     51  N   UNL A   1      44.396  26.603  29.449  1.00  0.00    -0.248 NA
ATOM     52  C   UNL A   1      45.218  24.500  28.845  1.00  0.00     0.031 C 
ATOM     53  C   UNL A   1      46.811  29.753  31.442  1.00  0.00     0.029 A 
ATOM     54  C   UNL A   1      46.081  28.755  30.815  1.00  0.00     0.049 A 
ATOM     55  H   UNL A   1      44.076  28.786  30.161  1.00  0.00     0.167 HD
ATOM     56  C   UNL A   1      45.729  26.505  29.834  1.00  0.00     0.074 A 
ATOM     57  C   UNL A   1      46.175  25.177  29.464  1.00  0.00     0.031 C 
ATOM     58  C   UNL A   1      46.511  27.431  30.442  1.00  0.00     0.031 A 
BRANCH  45  59
ATOM     59  C   UNL A   1      43.683  32.826  31.499  1.00  0.00    -0.014 A 
ATOM     60  C   UNL A   1      44.103  33.866  30.650  1.00  0.00     0.010 A 
ATOM     61  C   UNL A   1      43.322  33.129  32.825  1.00  0.00     0.010 A 
ATOM     62  C   UNL A   1      44.204  35.174  31.131  1.00  0.00     0.020 A 
ATOM     63  C   UNL A   1      43.395  34.441  33.302  1.00  0.00     0.020 A 
ATOM     64  C   UNL A   1      43.854  35.453  32.455  1.00  0.00     0.054 A 
BRANCH  64  65
ATOM     65  S   UNL A   1      43.979  37.163  33.046  1.00  0.00     0.124 S 
ATOM     66  O   UNL A   1      43.787  37.922  31.813  1.00  0.00    -0.237 OA
ATOM     67  O   UNL A   1      42.887  37.248  34.013  1.00  0.00    -0.237 OA
ATOM     68  O   UNL A   1      45.320  37.235  33.620  1.00  0.00    -0.744 OA
ENDBRANCH  64  65
ENDBRANCH  45  59
BRANCH  46  69
ATOM     69  C   UNL A   1      42.642  23.617  27.761  1.00  0.00    -0.014 A 
ATOM     70  C   UNL A   1      42.188  22.555  28.563  1.00  0.00     0.010 A 
ATOM     71  C   UNL A   1      42.948  23.373  26.410  1.00  0.00     0.010 A 
ATOM     72  C   UNL A   1      42.058  21.270  28.029  1.00  0.00     0.020 A 
ATOM     73  C   UNL A   1      42.793  22.094  25.865  1.00  0.00     0.020 A 
ATOM     74  C   UNL A   1      42.360  21.048  26.682  1.00  0.00     0.054 A 
BRANCH  74  75
ATOM     75  S   UNL A   1      42.133  19.383  25.997  1.00  0.00     0.124 S 
ATOM     76  O   UNL A   1      40.693  19.343  25.768  1.00  0.00    -0.237 OA
ATOM     77  O   UNL A   1      42.965  19.420  24.796  1.00  0.00    -0.237 OA
ATOM     78  O   UNL A   1      42.625  18.508  27.058  1.00  0.00    -0.744 OA
ENDBRANCH  74  75
ENDBRANCH  46  69
BRANCH  58  79
ATOM     79  C   UNL A   1      47.923  27.031  30.779  1.00  0.00    -0.014 A 
ATOM     80  C   UNL A   1      48.987  27.298  29.900  1.00  0.00     0.010 A 
ATOM     81  C   UNL A   1      48.193  26.431  32.023  1.00  0.00     0.010 A 
ATOM     82  C   UNL A   1      50.293  26.943  30.246  1.00  0.00     0.020 A 
ATOM     83  C   UNL A   1      49.502  26.100  32.383  1.00  0.00     0.020 A 
ATOM     84  C   UNL A   1      50.542  26.345  31.486  1.00  0.00     0.054 A 
BRANCH  84  85
ATOM     85  S   UNL A   1      52.253  25.936  31.931  1.00  0.00     0.124 S 
ATOM     86  O   UNL A   1      52.127  24.551  32.376  1.00  0.00    -0.237 OA
ATOM     87  O   UNL A   1      52.968  26.130  30.672  1.00  0.00    -0.237 OA
ATOM     88  O   UNL A   1      52.577  26.900  32.979  1.00  0.00    -0.744 OA
ENDBRANCH  84  85
ENDBRANCH  58  79
ENDBRANCH  32  33
ENDBRANCH  24  27
ENDBRANCH  22  23
ENDBRANCH  21  22
ENDBRANCH  20  21
ENDBRANCH   1  20
TORSDOF 20
ENDMDL
MODEL 2
REMARK VINA RESULT:      -8.9      2.412      3.071
REMARK SMILES C[C@@]([NH2+]CCCO)(C(=O)NCCCCNC(=O)c1ccc(-c2c3nc(c(-c4ccc(S(=O)(=O)[O-])cc4)c4ccc([nH]4)c(-c4ccc(S(=O)(=O)[O-])cc4)c4nc(c(-c5ccc(S(=O)(=O)[O-])cc5)c5ccc2[nH]5)C=C4)C=C3)cc1)C(F)(F)F
REMARK SMILES IDX 11 1 10 2 8 3 9 4 2 6 1 7 3 8 4 11 5 12 6 13 7 14 78 16
REMARK SMILES IDX 79 17 80 18 81 19 12 20 13 21 14 22 15 23 16 24 17 26 18 27
REMARK SMILES IDX 19 28 77 29 20 30 76 31 21 32 22 33 23 34 70 35 24 36 75 37
REMARK SMILES IDX 69 38 71 39 25 40 74 41 68 42 67 43 26 45 56 46 37 47 55 48
REMARK SMILES IDX 38 49 41 50 54 51 72 52 39 53 40 54 53 56 73 57 42 58 27 59
REMARK SMILES IDX 28 60 36 61 29 62 35 63 30 64 31 65 32 66 33 67 34 68 57 69
REMARK SMILES IDX 58 70 66 71 59 72 65 73 60 74 61 75 62 76 63 77 64 78 43 79
REMARK SMILES IDX 44 80 52 81 45 82 51 83 46 84 47 85 48 86 49 87 50 88
REMARK H PARENT 10 5 3 9 3 10 7 15 15 25 71 44 41 55
REMARK Flexibility Score: inf
ROOT
ATOM      1  C   UNL A   1      36.696  33.756  29.546  1.00  0.00     0.116 C 
ENDROOT
BRANCH   1   2
ATOM      2  N   UNL A   1      36.319  32.742  30.512  1.00  0.00    -0.350 N 
ATOM      3  C   UNL A   1      35.976  32.833  31.831  1.00  0.00     0.290 C 
ATOM      4  O   UNL A   1      35.762  31.759  32.398  1.00  0.00    -0.267 OA
ATOM      5  H   UNL A   1      36.309  31.826  30.153  1.00  0.00     0.163 HD
BRANCH   3   6
ATOM      6  C   UNL A   1      35.838  34.186  32.561  1.00  0.00     0.268 C 
ATOM      7  C   UNL A   1      37.232  34.804  32.811  1.00  0.00     0.101 C 
BRANCH   6   8
ATOM      8  N   UNL A   1      35.088  35.200  31.726  1.00  0.00    -0.326 N 
ATOM      9  H   UNL A   1      35.539  35.238  30.811  1.00  0.00     0.347 HD
ATOM     10  H   UNL A   1      35.128  36.066  32.265  1.00  0.00     0.347 HD
BRANCH   8  11
ATOM     11  C   UNL A   1      33.660  34.962  31.503  1.00  0.00     0.264 C 
BRANCH  11  12
ATOM     12  C   UNL A   1      32.853  36.041  30.770  1.00  0.00     0.089 C 
BRANCH  12  13
ATOM     13  C   UNL A   1      33.416  36.493  29.428  1.00  0.00     0.162 C 
BRANCH  13  14
ATOM     14  O   UNL A   1      33.536  37.907  29.366  1.00  0.00    -0.396 OA
ATOM     15  H   UNL A   1      32.662  38.311  29.487  1.00  0.00     0.210 HD
ENDBRANCH  13  14
ENDBRANCH  12  13
ENDBRANCH  11  12
ENDBRANCH   8  11
ENDBRANCH   6   8
BRANCH   6  16
ATOM     16  C   UNL A   1      35.259  33.887  33.974  1.00  0.00     0.453 C 
ATOM     17  F   UNL A   1      36.156  33.288  34.791  1.00  0.00    -0.164 F 
ATOM     18  F   UNL A   1      34.928  35.068  34.576  1.00  0.00    -0.164 F 
ATOM     19  F   UNL A   1      34.136  33.142  33.974  1.00  0.00    -0.164 F 
ENDBRANCH   6  16
ENDBRANCH   3   6
ENDBRANCH   1   2
BRANCH   1  20
ATOM     20  C   UNL A   1      36.188  33.397  28.148  1.00  0.00     0.023 C 
BRANCH  20  21
ATOM     21  C   UNL A   1      34.663  33.326  28.028  1.00  0.00     0.023 C 
BRANCH  21  22
ATOM     22  C   UNL A   1      34.015  32.112  28.686  1.00  0.00     0.116 C 
BRANCH  22  23
ATOM     23  N   UNL A   1      33.800  31.013  27.759  1.00  0.00    -0.352 N 
ATOM     24  C   UNL A   1      34.654  29.990  27.421  1.00  0.00     0.251 C 
ATOM     25  H   UNL A   1      32.922  30.998  27.313  1.00  0.00     0.163 HD
ATOM     26  O   UNL A   1      34.362  29.219  26.517  1.00  0.00    -0.269 OA
BRANCH  24  27
ATOM     27  C   UNL A   1      35.942  29.852  28.136  1.00  0.00     0.039 A 
ATOM     28  C   UNL A   1      35.934  29.425  29.466  1.00  0.00     0.014 A 
ATOM     29  C   UNL A   1      37.152  30.120  27.488  1.00  0.00     0.014 A 
ATOM     30  C   UNL A   1      37.144  29.202  30.126  1.00  0.00     0.010 A 
ATOM     31  C   UNL A   1      38.355  29.831  28.126  1.00  0.00     0.010 A 
ATOM     32  C   UNL A   1      38.365  29.368  29.450  1.00  0.00    -0.014 A 
BRANCH  32  33
ATOM     33  C   UNL A   1      39.659  29.053  30.107  1.00  0.00     0.031 A 
ATOM     34  C   UNL A   1      40.119  29.852  31.295  1.00  0.00     0.074 A 
ATOM     35  C   UNL A   1      40.453  28.094  29.589  1.00  0.00     0.049 A 
ATOM     36  N   UNL A   1      41.240  29.764  31.963  1.00  0.00    -0.248 NA
ATOM     37  C   UNL A   1      39.210  30.903  31.783  1.00  0.00     0.031 C 
ATOM     38  C   UNL A   1      40.140  27.276  28.414  1.00  0.00     0.029 A 
ATOM     39  N   UNL A   1      41.690  27.648  29.982  1.00  0.00    -0.354 N 
ATOM     40  C   UNL A   1      41.182  30.759  32.933  1.00  0.00     0.074 A 
ATOM     41  C   UNL A   1      39.936  31.466  32.739  1.00  0.00     0.031 C 
ATOM     42  C   UNL A   1      41.144  26.411  28.200  1.00  0.00     0.029 A 
ATOM     43  C   UNL A   1      42.189  26.638  29.194  1.00  0.00     0.049 A 
ATOM     44  H   UNL A   1      42.175  28.017  30.755  1.00  0.00     0.167 HD
ATOM     45  C   UNL A   1      42.079  31.047  33.908  1.00  0.00     0.031 A 
ATOM     46  C   UNL A   1      43.358  25.970  29.260  1.00  0.00     0.031 A 
ATOM     47  C   UNL A   1      43.310  30.330  34.109  1.00  0.00     0.049 A 
ATOM     48  C   UNL A   1      44.337  26.310  30.349  1.00  0.00     0.074 A 
ATOM     49  C   UNL A   1      44.251  30.504  35.108  1.00  0.00     0.029 A 
ATOM     50  N   UNL A   1      43.773  29.308  33.295  1.00  0.00    -0.354 N 
ATOM     51  N   UNL A   1      44.232  27.209  31.299  1.00  0.00    -0.248 NA
ATOM     52  C   UNL A   1      45.588  25.540  30.381  1.00  0.00     0.031 C 
ATOM     53  C   UNL A   1      45.309  29.621  34.869  1.00  0.00     0.029 A 
ATOM     54  C   UNL A   1      45.000  28.857  33.755  1.00  0.00     0.049 A 
ATOM     55  H   UNL A   1      43.301  28.954  32.507  1.00  0.00     0.167 HD
ATOM     56  C   UNL A   1      45.391  27.091  32.059  1.00  0.00     0.074 A 
ATOM     57  C   UNL A   1      46.175  26.027  31.466  1.00  0.00     0.031 C 
ATOM     58  C   UNL A   1      45.768  27.798  33.153  1.00  0.00     0.031 A 
BRANCH  45  59
ATOM     59  C   UNL A   1      41.758  32.194  34.830  1.00  0.00    -0.014 A 
ATOM     60  C   UNL A   1      42.208  33.498  34.553  1.00  0.00     0.010 A 
ATOM     61  C   UNL A   1      40.965  31.972  35.970  1.00  0.00     0.010 A 
ATOM     62  C   UNL A   1      41.909  34.549  35.423  1.00  0.00     0.020 A 
ATOM     63  C   UNL A   1      40.639  33.026  36.829  1.00  0.00     0.020 A 
ATOM     64  C   UNL A   1      41.130  34.306  36.559  1.00  0.00     0.054 A 
BRANCH  64  65
ATOM     65  S   UNL A   1      40.743  35.692  37.662  1.00  0.00     0.124 S 
ATOM     66  O   UNL A   1      42.075  36.196  37.989  1.00  0.00    -0.237 OA
ATOM     67  O   UNL A   1      39.933  36.562  36.812  1.00  0.00    -0.237 OA
ATOM     68  O   UNL A   1      40.025  35.065  38.769  1.00  0.00    -0.744 OA
ENDBRANCH  64  65
ENDBRANCH  45  59
BRANCH  46  69
ATOM     69  C   UNL A   1      43.656  24.895  28.274  1.00  0.00    -0.014 A 
ATOM     70  C   UNL A   1      44.369  25.187  27.098  1.00  0.00     0.010 A 
ATOM     71  C   UNL A   1      43.240  23.572  28.511  1.00  0.00     0.010 A 
ATOM     72  C   UNL A   1      44.645  24.180  26.169  1.00  0.00     0.020 A 
ATOM     73  C   UNL A   1      43.538  22.557  27.597  1.00  0.00     0.020 A 
ATOM     74  C   UNL A   1      44.229  22.871  26.425  1.00  0.00     0.054 A 
BRANCH  74  75
ATOM     75  S   UNL A   1      44.646  21.571  25.229  1.00  0.00     0.124 S 
ATOM     76  O   UNL A   1      44.373  22.230  23.956  1.00  0.00    -0.237 OA
ATOM     77  O   UNL A   1      46.055  21.314  25.521  1.00  0.00    -0.237 OA
ATOM     78  O   UNL A   1      43.738  20.482  25.579  1.00  0.00    -0.744 OA
ENDBRANCH  74  75
ENDBRANCH  46  69
BRANCH  58  79
ATOM     79  C   UNL A   1      47.074  27.423  33.803  1.00  0.00    -0.014 A 
ATOM     80  C   UNL A   1      47.135  26.439  34.805  1.00  0.00     0.010 A 
ATOM     81  C   UNL A   1      48.265  28.027  33.361  1.00  0.00     0.010 A 
ATOM     82  C   UNL A   1      48.361  26.087  35.374  1.00  0.00     0.020 A 
ATOM     83  C   UNL A   1      49.496  27.659  33.909  1.00  0.00     0.020 A 
ATOM     84  C   UNL A   1      49.534  26.700  34.923  1.00  0.00     0.054 A 
BRANCH  84  85
ATOM     85  S   UNL A   1      51.120  26.194  35.646  1.00  0.00     0.124 S 
ATOM     86  O   UNL A   1      51.913  25.893  34.458  1.00  0.00    -0.237 OA
ATOM     87  O   UNL A   1      51.528  27.383  36.391  1.00  0.00    -0.237 OA
ATOM     88  O   UNL A   1      50.770  25.039  36.471  1.00  0.00    -0.744 OA
ENDBRANCH  84  85
ENDBRANCH  58  79
ENDBRANCH  32  33
ENDBRANCH  24  27
ENDBRANCH  22  23
ENDBRANCH  21  22
ENDBRANCH  20  21
ENDBRANCH   1  20
TORSDOF 20
ENDMDL
MODEL 3
REMARK VINA RESULT:      -8.6      4.384     10.314
REMARK SMILES C[C@@]([NH2+]CCCO)(C(=O)NCCCCNC(=O)c1ccc(-c2c3nc(c(-c4ccc(S(=O)(=O)[O-])cc4)c4ccc([nH]4)c(-c4ccc(S(=O)(=O)[O-])cc4)c4nc(c(-c5ccc(S(=O)(=O)[O-])cc5)c5ccc2[nH]5)C=C4)C=C3)cc1)C(F)(F)F
REMARK SMILES IDX 11 1 10 2 8 3 9 4 2 6 1 7 3 8 4 11 5 12 6 13 7 14 78 16
REMARK SMILES IDX 79 17 80 18 81 19 12 20 13 21 14 22 15 23 16 24 17 26 18 27
REMARK SMILES IDX 19 28 77 29 20 30 76 31 21 32 22 33 23 34 70 35 24 36 75 37
REMARK SMILES IDX 69 38 71 39 25 40 74 41 68 42 67 43 26 45 56 46 37 47 55 48
REMARK SMILES IDX 38 49 41 50 54 51 72 52 39 53 40 54 53 56 73 57 42 58 27 59
REMARK SMILES IDX 28 60 36 61 29 62 35 63 30 64 31 65 32 66 33 67 34 68 57 69
REMARK SMILES IDX 58 70 66 71 59 72 65 73 60 74 61 75 62 76 63 77 64 78 43 79
REMARK SMILES IDX 44 80 52 81 45 82 51 83 46 84 47 85 48 86 49 87 50 88
REMARK H PARENT 10 5 3 9 3 10 7 15 15 25 71 44 41 55
REMARK Flexibility Score: inf
ROOT
ATOM      1  C   UNL A   1      33.027  30.098  26.656  1.00  0.00     0.116 C 
ENDROOT
BRANCH   1   2
ATOM      2  N   UNL A   1      32.297  28.960  27.182  1.00  0.00    -0.350 N 
ATOM      3  C   UNL A   1      31.621  27.952  26.554  1.00  0.00     0.290 C 
ATOM      4  O   UNL A   1      31.047  27.155  27.300  1.00  0.00    -0.267 OA
ATOM      5  H   UNL A   1      32.285  28.906  28.164  1.00  0.00     0.163 HD
BRANCH   3   6
ATOM      6  C   UNL A   1      31.598  27.798  25.018  1.00  0.00     0.268 C 
ATOM      7  C   UNL A   1      30.519  26.773  24.600  1.00  0.00     0.101 C 
BRANCH   6   8
ATOM      8  N   UNL A   1      31.217  29.090  24.331  1.00  0.00    -0.326 N 
ATOM      9  H   UNL A   1      32.071  29.500  23.951  1.00  0.00     0.347 HD
ATOM     10  H   UNL A   1      30.754  29.645  25.051  1.00  0.00     0.347 HD
BRANCH   8  11
ATOM     11  C   UNL A   1      30.245  29.008  23.238  1.00  0.00     0.264 C 
BRANCH  11  12
ATOM     12  C   UNL A   1      29.088  30.016  23.221  1.00  0.00     0.089 C 
BRANCH  12  13
ATOM     13  C   UNL A   1      27.955  29.710  22.250  1.00  0.00     0.162 C 
BRANCH  13  14
ATOM     14  O   UNL A   1      26.792  29.266  22.932  1.00  0.00    -0.396 OA
ATOM     15  H   UNL A   1      27.050  28.798  23.742  1.00  0.00     0.210 HD
ENDBRANCH  13  14
ENDBRANCH  12  13
ENDBRANCH  11  12
ENDBRANCH   8  11
ENDBRANCH   6   8
BRANCH   6  16
ATOM     16  C   UNL A   1      32.956  27.164  24.600  1.00  0.00     0.453 C 
ATOM     17  F   UNL A   1      32.803  26.073  23.814  1.00  0.00    -0.164 F 
ATOM     18  F   UNL A   1      33.658  28.071  23.857  1.00  0.00    -0.164 F 
ATOM     19  F   UNL A   1      33.757  26.826  25.629  1.00  0.00    -0.164 F 
ENDBRANCH   6  16
ENDBRANCH   3   6
ENDBRANCH   1   2
BRANCH   1  20
ATOM     20  C   UNL A   1      34.458  30.126  27.196  1.00  0.00     0.023 C 
BRANCH  20  21
ATOM     21  C   UNL A   1      34.856  31.445  27.867  1.00  0.00     0.023 C 
BRANCH  21  22
ATOM     22  C   UNL A   1      36.131  31.390  28.701  1.00  0.00     0.116 C 
BRANCH  22  23
ATOM     23  N   UNL A   1      35.912  30.855  30.035  1.00  0.00    -0.352 N 
ATOM     24  C   UNL A   1      36.685  29.966  30.746  1.00  0.00     0.251 C 
ATOM     25  H   UNL A   1      35.099  31.172  30.493  1.00  0.00     0.163 HD
ATOM     26  O   UNL A   1      36.281  29.515  31.809  1.00  0.00    -0.269 OA
BRANCH  24  27
ATOM     27  C   UNL A   1      37.990  29.537  30.197  1.00  0.00     0.039 A 
ATOM     28  C   UNL A   1      38.219  29.663  28.825  1.00  0.00     0.014 A 
ATOM     29  C   UNL A   1      38.989  29.036  31.037  1.00  0.00     0.014 A 
ATOM     30  C   UNL A   1      39.476  29.349  28.304  1.00  0.00     0.010 A 
ATOM     31  C   UNL A   1      40.260  28.790  30.526  1.00  0.00     0.010 A 
ATOM     32  C   UNL A   1      40.518  28.944  29.155  1.00  0.00    -0.014 A 
BRANCH  32  33
ATOM     33  C   UNL A   1      41.885  28.690  28.633  1.00  0.00     0.031 A 
ATOM     34  C   UNL A   1      42.267  27.317  28.153  1.00  0.00     0.074 A 
ATOM     35  C   UNL A   1      42.802  29.677  28.658  1.00  0.00     0.049 A 
ATOM     36  N   UNL A   1      43.425  26.889  27.720  1.00  0.00    -0.248 NA
ATOM     37  C   UNL A   1      41.219  26.283  28.185  1.00  0.00     0.031 C 
ATOM     38  C   UNL A   1      42.568  31.042  29.140  1.00  0.00     0.029 A 
ATOM     39  N   UNL A   1      44.121  29.684  28.276  1.00  0.00    -0.354 N 
ATOM     40  C   UNL A   1      43.252  25.536  27.449  1.00  0.00     0.074 A 
ATOM     41  C   UNL A   1      41.891  25.205  27.808  1.00  0.00     0.031 C 
ATOM     42  C   UNL A   1      43.695  31.758  28.995  1.00  0.00     0.029 A 
ATOM     43  C   UNL A   1      44.742  30.898  28.452  1.00  0.00     0.049 A 
ATOM     44  H   UNL A   1      44.579  28.893  27.908  1.00  0.00     0.167 HD
ATOM     45  C   UNL A   1      44.140  24.653  26.933  1.00  0.00     0.031 A 
ATOM     46  C   UNL A   1      46.012  31.277  28.209  1.00  0.00     0.031 A 
ATOM     47  C   UNL A   1      45.489  24.989  26.560  1.00  0.00     0.049 A 
ATOM     48  C   UNL A   1      46.979  30.278  27.639  1.00  0.00     0.074 A 
ATOM     49  C   UNL A   1      46.443  24.181  25.969  1.00  0.00     0.029 A 
ATOM     50  N   UNL A   1      46.075  26.232  26.747  1.00  0.00    -0.354 N 
ATOM     51  N   UNL A   1      46.775  29.020  27.325  1.00  0.00    -0.248 NA
ATOM     52  C   UNL A   1      48.346  30.751  27.380  1.00  0.00     0.031 C 
ATOM     53  C   UNL A   1      47.624  24.921  25.843  1.00  0.00     0.029 A 
ATOM     54  C   UNL A   1      47.387  26.206  26.304  1.00  0.00     0.049 A 
ATOM     55  H   UNL A   1      45.625  27.016  27.136  1.00  0.00     0.167 HD
ATOM     56  C   UNL A   1      47.981  28.561  26.805  1.00  0.00     0.074 A 
ATOM     57  C   UNL A   1      48.903  29.678  26.835  1.00  0.00     0.031 C 
ATOM     58  C   UNL A   1      48.293  27.326  26.341  1.00  0.00     0.031 A 
BRANCH  45  59
ATOM     59  C   UNL A   1      43.679  23.231  26.746  1.00  0.00    -0.014 A 
ATOM     60  C   UNL A   1      43.937  22.533  25.552  1.00  0.00     0.010 A 
ATOM     61  C   UNL A   1      43.010  22.572  27.793  1.00  0.00     0.010 A 
ATOM     62  C   UNL A   1      43.495  21.217  25.393  1.00  0.00     0.020 A 
ATOM     63  C   UNL A   1      42.590  21.246  27.648  1.00  0.00     0.020 A 
ATOM     64  C   UNL A   1      42.820  20.583  26.440  1.00  0.00     0.054 A 
BRANCH  64  65
ATOM     65  S   UNL A   1      42.271  18.870  26.211  1.00  0.00     0.124 S 
ATOM     66  O   UNL A   1      40.873  19.051  25.829  1.00  0.00    -0.237 OA
ATOM     67  O   UNL A   1      43.155  18.389  25.152  1.00  0.00    -0.237 OA
ATOM     68  O   UNL A   1      42.485  18.259  27.521  1.00  0.00    -0.744 OA
ENDBRANCH  64  65
ENDBRANCH  45  59
BRANCH  46  69
ATOM     69  C   UNL A   1      46.434  32.678  28.484  1.00  0.00    -0.014 A 
ATOM     70  C   UNL A   1      46.948  33.030  29.745  1.00  0.00     0.010 A 
ATOM     71  C   UNL A   1      46.337  33.664  27.485  1.00  0.00     0.010 A 
ATOM     72  C   UNL A   1      47.340  34.346  30.007  1.00  0.00     0.020 A 
ATOM     73  C   UNL A   1      46.754  34.975  27.736  1.00  0.00     0.020 A 
ATOM     74  C   UNL A   1      47.243  35.310  29.000  1.00  0.00     0.054 A 
BRANCH  74  75
ATOM     75  S   UNL A   1      47.808  36.999  29.347  1.00  0.00     0.124 S 
ATOM     76  O   UNL A   1      48.803  36.777  30.391  1.00  0.00    -0.237 OA
ATOM     77  O   UNL A   1      48.333  37.428  28.052  1.00  0.00    -0.237 OA
ATOM     78  O   UNL A   1      46.592  37.685  29.775  1.00  0.00    -0.744 OA
ENDBRANCH  74  75
ENDBRANCH  46  69
BRANCH  58  79
ATOM     79  C   UNL A   1      49.681  27.122  25.794  1.00  0.00    -0.014 A 
ATOM     80  C   UNL A   1      49.964  27.313  24.430  1.00  0.00     0.010 A 
ATOM     81  C   UNL A   1      50.729  26.791  26.672  1.00  0.00     0.010 A 
ATOM     82  C   UNL A   1      51.265  27.146  23.949  1.00  0.00     0.020 A 
ATOM     83  C   UNL A   1      52.036  26.649  26.200  1.00  0.00     0.020 A 
ATOM     84  C   UNL A   1      52.293  26.814  24.838  1.00  0.00     0.054 A 
BRANCH  84  85
ATOM     85  S   UNL A   1      53.982  26.648  24.197  1.00  0.00     0.124 S 
ATOM     86  O   UNL A   1      53.793  26.902  22.773  1.00  0.00    -0.237 OA
ATOM     87  O   UNL A   1      54.708  27.682  24.931  1.00  0.00    -0.237 OA
ATOM     88  O   UNL A   1      54.349  25.276  24.541  1.00  0.00    -0.744 OA
ENDBRANCH  84  85
ENDBRANCH  58  79
ENDBRANCH  32  33
ENDBRANCH  24  27
ENDBRANCH  22  23
ENDBRANCH  21  22
ENDBRANCH  20  21
ENDBRANCH   1  20
TORSDOF 20
ENDMDL
