MODEL 1
REMARK VINA RESULT:     -10.3      0.000      0.000
REMARK SMILES CC(C)(Nc1cccc(F)c1C#N)C(C)(C)C(=O)NCCCCNC(=O)c1ccc(-c2c3nc(c(-c4ccc(S(=O)(=O)[O-])cc4)c4ccc([nH]4)c(-c4ccc(S(=O)(=O)[O-])cc4)c4nc(c(-c5ccc(S(=O)(=O)[O-])cc5)c5ccc2[nH]5)C=C4)C=C3)cc1
REMARK SMILES IDX 21 1 20 2 19 3 17 4 18 5 14 7 15 8 16 9 2 10 1 11 3 12 4 13
REMARK SMILES IDX 5 15 6 16 11 17 7 18 9 19 8 20 10 21 12 22 13 23 22 24 23 25
REMARK SMILES IDX 24 26 25 27 26 29 27 30 28 31 86 32 29 33 85 34 30 35 31 36
REMARK SMILES IDX 32 37 79 38 33 39 84 40 78 41 80 42 34 43 83 44 77 45 76 46
REMARK SMILES IDX 35 48 65 49 46 50 64 51 47 52 50 53 63 54 81 55 48 56 49 57
REMARK SMILES IDX 62 59 82 60 51 61 36 62 37 63 45 64 38 65 44 66 39 67 40 68
REMARK SMILES IDX 41 69 42 70 43 71 66 72 67 73 75 74 68 75 74 76 69 77 70 78
REMARK SMILES IDX 71 79 72 80 73 81 52 82 53 83 61 84 54 85 60 86 55 87 56 88
REMARK SMILES IDX 57 89 58 90 59 91
REMARK H PARENT 19 6 4 14 24 28 80 47 50 58
REMARK Flexibility Score: inf
ROOT
ATOM      1  C   UNL A   1      37.501  20.801  24.644  1.00  0.00     0.023 C 
ENDROOT
BRANCH   1   2
ATOM      2  C   UNL A   1      36.062  20.641  25.133  1.00  0.00     0.116 C 
BRANCH   2   3
ATOM      3  N   UNL A   1      35.678  21.744  25.993  1.00  0.00    -0.356 N 
ATOM      4  C   UNL A   1      35.035  22.870  25.581  1.00  0.00     0.228 C 
ATOM      5  O   UNL A   1      35.649  23.925  25.742  1.00  0.00    -0.274 OA
ATOM      6  H   UNL A   1      35.902  21.673  26.949  1.00  0.00     0.163 HD
BRANCH   4   7
ATOM      7  C   UNL A   1      33.682  22.824  24.852  1.00  0.00     0.066 C 
ATOM      8  C   UNL A   1      32.991  21.435  24.815  1.00  0.00     0.024 C 
ATOM      9  C   UNL A   1      34.073  23.153  23.380  1.00  0.00     0.024 C 
BRANCH   7  10
ATOM     10  C   UNL A   1      32.681  23.929  25.469  1.00  0.00     0.046 C 
ATOM     11  C   UNL A   1      32.207  23.461  26.877  1.00  0.00     0.035 C 
ATOM     12  C   UNL A   1      31.378  24.139  24.648  1.00  0.00     0.035 C 
BRANCH  10  13
ATOM     13  N   UNL A   1      33.219  25.315  25.668  1.00  0.00    -0.378 N 
ATOM     14  H   UNL A   1      33.848  25.409  26.419  1.00  0.00     0.161 HD
BRANCH  13  15
ATOM     15  C   UNL A   1      32.974  26.480  24.970  1.00  0.00     0.056 A 
ATOM     16  C   UNL A   1      33.654  26.669  23.749  1.00  0.00     0.027 A 
ATOM     17  C   UNL A   1      32.161  27.534  25.421  1.00  0.00     0.111 A 
ATOM     18  C   UNL A   1      33.422  27.786  22.939  1.00  0.00     0.005 A 
ATOM     19  C   UNL A   1      31.878  28.610  24.570  1.00  0.00     0.143 A 
ATOM     20  C   UNL A   1      32.491  28.737  23.331  1.00  0.00     0.041 A 
ATOM     21  F   UNL A   1      31.016  29.566  24.951  1.00  0.00    -0.205 F 
BRANCH  17  22
ATOM     22  C   UNL A   1      31.706  27.651  26.774  1.00  0.00     0.104 C 
ATOM     23  N   UNL A   1      31.404  27.826  27.883  1.00  0.00    -0.192 NA
ENDBRANCH  17  22
ENDBRANCH  13  15
ENDBRANCH  10  13
ENDBRANCH   7  10
ENDBRANCH   4   7
ENDBRANCH   2   3
ENDBRANCH   1   2
BRANCH   1  24
ATOM     24  C   UNL A   1      38.446  19.685  25.088  1.00  0.00     0.023 C 
BRANCH  24  25
ATOM     25  C   UNL A   1      39.479  20.106  26.125  1.00  0.00     0.116 C 
BRANCH  25  26
ATOM     26  N   UNL A   1      40.656  19.247  26.113  1.00  0.00    -0.352 N 
ATOM     27  C   UNL A   1      41.982  19.597  26.152  1.00  0.00     0.251 C 
ATOM     28  H   UNL A   1      40.475  18.280  26.071  1.00  0.00     0.163 HD
ATOM     29  O   UNL A   1      42.849  18.755  25.943  1.00  0.00    -0.269 OA
BRANCH  27  30
ATOM     30  C   UNL A   1      42.347  21.000  26.428  1.00  0.00     0.039 A 
ATOM     31  C   UNL A   1      42.576  21.396  27.747  1.00  0.00     0.014 A 
ATOM     32  C   UNL A   1      42.488  21.912  25.379  1.00  0.00     0.014 A 
ATOM     33  C   UNL A   1      42.999  22.699  28.008  1.00  0.00     0.010 A 
ATOM     34  C   UNL A   1      42.996  23.180  25.633  1.00  0.00     0.010 A 
ATOM     35  C   UNL A   1      43.242  23.593  26.950  1.00  0.00    -0.014 A 
BRANCH  35  36
ATOM     36  C   UNL A   1      43.731  24.971  27.202  1.00  0.00     0.031 A 
ATOM     37  C   UNL A   1      45.187  25.297  27.003  1.00  0.00     0.074 A 
ATOM     38  C   UNL A   1      42.881  25.911  27.662  1.00  0.00     0.049 A 
ATOM     39  N   UNL A   1      45.816  26.424  27.217  1.00  0.00    -0.248 NA
ATOM     40  C   UNL A   1      46.056  24.208  26.524  1.00  0.00     0.031 C 
ATOM     41  C   UNL A   1      41.455  25.706  27.932  1.00  0.00     0.029 A 
ATOM     42  N   UNL A   1      43.093  27.227  27.986  1.00  0.00    -0.354 N 
ATOM     43  C   UNL A   1      47.150  26.174  26.916  1.00  0.00     0.074 A 
ATOM     44  C   UNL A   1      47.251  24.776  26.561  1.00  0.00     0.031 C 
ATOM     45  C   UNL A   1      40.916  26.863  28.349  1.00  0.00     0.029 A 
ATOM     46  C   UNL A   1      41.963  27.878  28.423  1.00  0.00     0.049 A 
ATOM     47  H   UNL A   1      43.972  27.664  27.914  1.00  0.00     0.167 HD
ATOM     48  C   UNL A   1      48.195  27.036  26.911  1.00  0.00     0.031 A 
ATOM     49  C   UNL A   1      41.790  29.146  28.844  1.00  0.00     0.031 A 
ATOM     50  C   UNL A   1      48.087  28.428  27.258  1.00  0.00     0.049 A 
ATOM     51  C   UNL A   1      42.972  30.079  28.854  1.00  0.00     0.074 A 
ATOM     52  C   UNL A   1      49.073  29.397  27.236  1.00  0.00     0.029 A 
ATOM     53  N   UNL A   1      46.925  29.047  27.693  1.00  0.00    -0.354 N 
ATOM     54  N   UNL A   1      44.213  29.842  28.499  1.00  0.00    -0.248 NA
ATOM     55  C   UNL A   1      42.727  31.454  29.309  1.00  0.00     0.031 C 
ATOM     56  C   UNL A   1      48.524  30.589  27.720  1.00  0.00     0.029 A 
ATOM     57  C   UNL A   1      47.177  30.381  27.970  1.00  0.00     0.049 A 
ATOM     58  H   UNL A   1      46.051  28.605  27.791  1.00  0.00     0.167 HD
ATOM     59  C   UNL A   1      44.889  31.048  28.655  1.00  0.00     0.074 A 
ATOM     60  C   UNL A   1      43.914  32.014  29.121  1.00  0.00     0.031 C 
ATOM     61  C   UNL A   1      46.196  31.332  28.431  1.00  0.00     0.031 A 
BRANCH  48  62
ATOM     62  C   UNL A   1      49.547  26.494  26.525  1.00  0.00    -0.014 A 
ATOM     63  C   UNL A   1      50.421  25.959  27.491  1.00  0.00     0.010 A 
ATOM     64  C   UNL A   1      49.934  26.477  25.172  1.00  0.00     0.010 A 
ATOM     65  C   UNL A   1      51.670  25.457  27.116  1.00  0.00     0.020 A 
ATOM     66  C   UNL A   1      51.169  25.944  24.790  1.00  0.00     0.020 A 
ATOM     67  C   UNL A   1      52.036  25.453  25.766  1.00  0.00     0.054 A 
BRANCH  67  68
ATOM     68  S   UNL A   1      53.651  24.767  25.309  1.00  0.00     0.124 S 
ATOM     69  O   UNL A   1      53.313  23.380  25.001  1.00  0.00    -0.237 OA
ATOM     70  O   UNL A   1      54.035  25.589  24.164  1.00  0.00    -0.237 OA
ATOM     71  O   UNL A   1      54.462  24.957  26.510  1.00  0.00    -0.744 OA
ENDBRANCH  67  68
ENDBRANCH  48  62
BRANCH  49  72
ATOM     72  C   UNL A   1      40.444  29.612  29.280  1.00  0.00    -0.014 A 
ATOM     73  C   UNL A   1      39.490  30.031  28.336  1.00  0.00     0.010 A 
ATOM     74  C   UNL A   1      40.108  29.640  30.648  1.00  0.00     0.010 A 
ATOM     75  C   UNL A   1      38.237  30.492  28.750  1.00  0.00     0.020 A 
ATOM     76  C   UNL A   1      38.844  30.068  31.063  1.00  0.00     0.020 A 
ATOM     77  C   UNL A   1      37.920  30.504  30.111  1.00  0.00     0.054 A 
BRANCH  77  78
ATOM     78  S   UNL A   1      36.273  31.070  30.620  1.00  0.00     0.124 S 
ATOM     79  O   UNL A   1      35.526  30.998  29.368  1.00  0.00    -0.237 OA
ATOM     80  O   UNL A   1      35.903  30.087  31.635  1.00  0.00    -0.237 OA
ATOM     81  O   UNL A   1      36.515  32.419  31.128  1.00  0.00    -0.744 OA
ENDBRANCH  77  78
ENDBRANCH  49  72
BRANCH  61  82
ATOM     82  C   UNL A   1      46.646  32.754  28.640  1.00  0.00    -0.014 A 
ATOM     83  C   UNL A   1      47.177  33.185  29.868  1.00  0.00     0.010 A 
ATOM     84  C   UNL A   1      46.590  33.659  27.562  1.00  0.00     0.010 A 
ATOM     85  C   UNL A   1      47.611  34.504  30.025  1.00  0.00     0.020 A 
ATOM     86  C   UNL A   1      47.056  34.969  27.705  1.00  0.00     0.020 A 
ATOM     87  C   UNL A   1      47.550  35.387  28.941  1.00  0.00     0.054 A 
BRANCH  87  88
ATOM     88  S   UNL A   1      48.163  37.079  29.159  1.00  0.00     0.124 S 
ATOM     89  O   UNL A   1      47.411  37.810  28.144  1.00  0.00    -0.237 OA
ATOM     90  O   UNL A   1      47.802  37.374  30.544  1.00  0.00    -0.237 OA
ATOM     91  O   UNL A   1      49.598  36.963  28.908  1.00  0.00    -0.744 OA
ENDBRANCH  87  88
ENDBRANCH  61  82
ENDBRANCH  35  36
ENDBRANCH  27  30
ENDBRANCH  25  26
ENDBRANCH  24  25
ENDBRANCH   1  24
TORSDOF 18
ENDMDL
MODEL 2
REMARK VINA RESULT:     -10.2      1.346      8.389
REMARK SMILES CC(C)(Nc1cccc(F)c1C#N)C(C)(C)C(=O)NCCCCNC(=O)c1ccc(-c2c3nc(c(-c4ccc(S(=O)(=O)[O-])cc4)c4ccc([nH]4)c(-c4ccc(S(=O)(=O)[O-])cc4)c4nc(c(-c5ccc(S(=O)(=O)[O-])cc5)c5ccc2[nH]5)C=C4)C=C3)cc1
REMARK SMILES IDX 21 1 20 2 19 3 17 4 18 5 14 7 15 8 16 9 2 10 1 11 3 12 4 13
REMARK SMILES IDX 5 15 6 16 11 17 7 18 9 19 8 20 10 21 12 22 13 23 22 24 23 25
REMARK SMILES IDX 24 26 25 27 26 29 27 30 28 31 86 32 29 33 85 34 30 35 31 36
REMARK SMILES IDX 32 37 79 38 33 39 84 40 78 41 80 42 34 43 83 44 77 45 76 46
REMARK SMILES IDX 35 48 65 49 46 50 64 51 47 52 50 53 63 54 81 55 48 56 49 57
REMARK SMILES IDX 62 59 82 60 51 61 36 62 37 63 45 64 38 65 44 66 39 67 40 68
REMARK SMILES IDX 41 69 42 70 43 71 66 72 67 73 75 74 68 75 74 76 69 77 70 78
REMARK SMILES IDX 71 79 72 80 73 81 52 82 53 83 61 84 54 85 60 86 55 87 56 88
REMARK SMILES IDX 57 89 58 90 59 91
REMARK H PARENT 19 6 4 14 24 28 80 47 50 58
REMARK Flexibility Score: inf
ROOT
ATOM      1  C   UNL A   1      36.748  21.413  25.068  1.00  0.00     0.023 C 
ENDROOT
BRANCH   1   2
ATOM      2  C   UNL A   1      35.402  20.749  25.361  1.00  0.00     0.116 C 
BRANCH   2   3
ATOM      3  N   UNL A   1      34.350  21.324  24.547  1.00  0.00    -0.356 N 
ATOM      4  C   UNL A   1      33.167  21.804  25.020  1.00  0.00     0.228 C 
ATOM      5  O   UNL A   1      32.157  21.229  24.613  1.00  0.00    -0.274 OA
ATOM      6  H   UNL A   1      34.501  21.371  23.576  1.00  0.00     0.163 HD
BRANCH   4   7
ATOM      7  C   UNL A   1      33.096  22.908  26.087  1.00  0.00     0.066 C 
ATOM      8  C   UNL A   1      34.258  23.936  26.062  1.00  0.00     0.024 C 
ATOM      9  C   UNL A   1      33.251  22.111  27.418  1.00  0.00     0.024 C 
BRANCH   7  10
ATOM     10  C   UNL A   1      31.676  23.669  26.004  1.00  0.00     0.046 C 
ATOM     11  C   UNL A   1      31.823  25.094  26.617  1.00  0.00     0.035 C 
ATOM     12  C   UNL A   1      30.539  22.991  26.817  1.00  0.00     0.035 C 
BRANCH  10  13
ATOM     13  N   UNL A   1      31.081  23.879  24.643  1.00  0.00    -0.378 N 
ATOM     14  H   UNL A   1      30.609  23.096  24.276  1.00  0.00     0.161 HD
BRANCH  13  15
ATOM     15  C   UNL A   1      31.088  24.988  23.822  1.00  0.00     0.056 A 
ATOM     16  C   UNL A   1      29.962  25.836  23.856  1.00  0.00     0.027 A 
ATOM     17  C   UNL A   1      32.096  25.297  22.893  1.00  0.00     0.111 A 
ATOM     18  C   UNL A   1      29.905  27.019  23.111  1.00  0.00     0.005 A 
ATOM     19  C   UNL A   1      32.064  26.518  22.209  1.00  0.00     0.143 A 
ATOM     20  C   UNL A   1      30.985  27.384  22.320  1.00  0.00     0.041 A 
ATOM     21  F   UNL A   1      33.077  26.869  21.402  1.00  0.00    -0.205 F 
BRANCH  17  22
ATOM     22  C   UNL A   1      33.102  24.361  22.486  1.00  0.00     0.104 C 
ATOM     23  N   UNL A   1      33.979  23.685  22.136  1.00  0.00    -0.192 NA
ENDBRANCH  17  22
ENDBRANCH  13  15
ENDBRANCH  10  13
ENDBRANCH   7  10
ENDBRANCH   4   7
ENDBRANCH   2   3
ENDBRANCH   1   2
BRANCH   1  24
ATOM     24  C   UNL A   1      37.917  20.439  24.936  1.00  0.00     0.023 C 
BRANCH  24  25
ATOM     25  C   UNL A   1      39.101  20.745  25.845  1.00  0.00     0.116 C 
BRANCH  25  26
ATOM     26  N   UNL A   1      40.004  19.610  25.977  1.00  0.00    -0.352 N 
ATOM     27  C   UNL A   1      41.367  19.604  26.139  1.00  0.00     0.251 C 
ATOM     28  H   UNL A   1      39.578  18.723  25.947  1.00  0.00     0.163 HD
ATOM     29  O   UNL A   1      41.995  18.554  26.043  1.00  0.00    -0.269 OA
BRANCH  27  30
ATOM     30  C   UNL A   1      42.064  20.876  26.407  1.00  0.00     0.039 A 
ATOM     31  C   UNL A   1      42.396  21.708  25.337  1.00  0.00     0.014 A 
ATOM     32  C   UNL A   1      42.364  21.253  27.719  1.00  0.00     0.014 A 
ATOM     33  C   UNL A   1      42.984  22.948  25.589  1.00  0.00     0.010 A 
ATOM     34  C   UNL A   1      42.866  22.524  27.973  1.00  0.00     0.010 A 
ATOM     35  C   UNL A   1      43.195  23.379  26.911  1.00  0.00    -0.014 A 
BRANCH  35  36
ATOM     36  C   UNL A   1      43.782  24.710  27.203  1.00  0.00     0.031 A 
ATOM     37  C   UNL A   1      42.895  25.833  27.671  1.00  0.00     0.074 A 
ATOM     38  C   UNL A   1      45.096  24.924  26.995  1.00  0.00     0.049 A 
ATOM     39  N   UNL A   1      43.207  27.076  27.930  1.00  0.00    -0.248 NA
ATOM     40  C   UNL A   1      41.465  25.525  27.849  1.00  0.00     0.031 C 
ATOM     41  C   UNL A   1      46.052  23.926  26.506  1.00  0.00     0.029 A 
ATOM     42  N   UNL A   1      45.857  26.053  27.167  1.00  0.00    -0.354 N 
ATOM     43  C   UNL A   1      42.014  27.699  28.282  1.00  0.00     0.074 A 
ATOM     44  C   UNL A   1      40.965  26.714  28.147  1.00  0.00     0.031 C 
ATOM     45  C   UNL A   1      47.274  24.479  26.449  1.00  0.00     0.029 A 
ATOM     46  C   UNL A   1      47.184  25.880  26.848  1.00  0.00     0.049 A 
ATOM     47  H   UNL A   1      45.487  26.908  27.487  1.00  0.00     0.167 HD
ATOM     48  C   UNL A   1      41.813  28.970  28.703  1.00  0.00     0.031 A 
ATOM     49  C   UNL A   1      48.210  26.752  26.868  1.00  0.00     0.031 A 
ATOM     50  C   UNL A   1      42.863  29.944  28.841  1.00  0.00     0.049 A 
ATOM     51  C   UNL A   1      47.957  28.167  27.316  1.00  0.00     0.074 A 
ATOM     52  C   UNL A   1      42.773  31.243  29.309  1.00  0.00     0.029 A 
ATOM     53  N   UNL A   1      44.192  29.728  28.510  1.00  0.00    -0.354 N 
ATOM     54  N   UNL A   1      46.834  28.719  27.712  1.00  0.00    -0.248 NA
ATOM     55  C   UNL A   1      49.112  29.075  27.332  1.00  0.00     0.031 C 
ATOM     56  C   UNL A   1      44.035  31.834  29.199  1.00  0.00     0.029 A 
ATOM     57  C   UNL A   1      44.927  30.880  28.737  1.00  0.00     0.049 A 
ATOM     58  H   UNL A   1      44.558  28.882  28.166  1.00  0.00     0.167 HD
ATOM     59  C   UNL A   1      47.155  30.028  28.057  1.00  0.00     0.074 A 
ATOM     60  C   UNL A   1      48.580  30.179  27.838  1.00  0.00     0.031 C 
ATOM     61  C   UNL A   1      46.346  31.014  28.516  1.00  0.00     0.031 A 
BRANCH  48  62
ATOM     62  C   UNL A   1      40.402  29.381  29.036  1.00  0.00    -0.014 A 
ATOM     63  C   UNL A   1      39.975  29.507  30.372  1.00  0.00     0.010 A 
ATOM     64  C   UNL A   1      39.500  29.689  28.000  1.00  0.00     0.010 A 
ATOM     65  C   UNL A   1      38.663  29.892  30.664  1.00  0.00     0.020 A 
ATOM     66  C   UNL A   1      38.198  30.106  28.289  1.00  0.00     0.020 A 
ATOM     67  C   UNL A   1      37.783  30.189  29.619  1.00  0.00     0.054 A 
BRANCH  67  68
ATOM     68  S   UNL A   1      36.097  30.715  30.031  1.00  0.00     0.124 S 
ATOM     69  O   UNL A   1      35.320  30.107  28.954  1.00  0.00    -0.237 OA
ATOM     70  O   UNL A   1      35.896  30.134  31.356  1.00  0.00    -0.237 OA
ATOM     71  O   UNL A   1      36.170  32.174  29.998  1.00  0.00    -0.744 OA
ENDBRANCH  67  68
ENDBRANCH  48  62
BRANCH  49  72
ATOM     72  C   UNL A   1      49.574  26.311  26.463  1.00  0.00    -0.014 A 
ATOM     73  C   UNL A   1      50.036  26.524  25.152  1.00  0.00     0.010 A 
ATOM     74  C   UNL A   1      50.422  25.674  27.389  1.00  0.00     0.010 A 
ATOM     75  C   UNL A   1      51.307  26.086  24.767  1.00  0.00     0.020 A 
ATOM     76  C   UNL A   1      51.706  25.265  27.017  1.00  0.00     0.020 A 
ATOM     77  C   UNL A   1      52.135  25.462  25.703  1.00  0.00     0.054 A 
BRANCH  77  78
ATOM     78  S   UNL A   1      53.795  24.939  25.190  1.00  0.00     0.124 S 
ATOM     79  O   UNL A   1      53.950  25.628  23.912  1.00  0.00    -0.237 OA
ATOM     80  O   UNL A   1      54.631  25.433  26.281  1.00  0.00    -0.237 OA
ATOM     81  O   UNL A   1      53.686  23.484  25.108  1.00  0.00    -0.744 OA
ENDBRANCH  77  78
ENDBRANCH  49  72
BRANCH  61  82
ATOM     82  C   UNL A   1      46.984  32.335  28.859  1.00  0.00    -0.014 A 
ATOM     83  C   UNL A   1      47.068  33.378  27.921  1.00  0.00     0.010 A 
ATOM     84  C   UNL A   1      47.453  32.553  30.169  1.00  0.00     0.010 A 
ATOM     85  C   UNL A   1      47.642  34.602  28.274  1.00  0.00     0.020 A 
ATOM     86  C   UNL A   1      47.995  33.788  30.537  1.00  0.00     0.020 A 
ATOM     87  C   UNL A   1      48.100  34.800  29.582  1.00  0.00     0.054 A 
BRANCH  87  88
ATOM     88  S   UNL A   1      48.796  36.414  30.027  1.00  0.00     0.124 S 
ATOM     89  O   UNL A   1      48.914  37.063  28.725  1.00  0.00    -0.237 OA
ATOM     90  O   UNL A   1      47.778  36.967  30.917  1.00  0.00    -0.237 OA
ATOM     91  O   UNL A   1      50.063  36.079  30.673  1.00  0.00    -0.744 OA
ENDBRANCH  87  88
ENDBRANCH  61  82
ENDBRANCH  35  36
ENDBRANCH  27  30
ENDBRANCH  25  26
ENDBRANCH  24  25
ENDBRANCH   1  24
TORSDOF 18
ENDMDL
MODEL 3
REMARK VINA RESULT:     -10.2      1.101      1.833
REMARK SMILES CC(C)(Nc1cccc(F)c1C#N)C(C)(C)C(=O)NCCCCNC(=O)c1ccc(-c2c3nc(c(-c4ccc(S(=O)(=O)[O-])cc4)c4ccc([nH]4)c(-c4ccc(S(=O)(=O)[O-])cc4)c4nc(c(-c5ccc(S(=O)(=O)[O-])cc5)c5ccc2[nH]5)C=C4)C=C3)cc1
REMARK SMILES IDX 21 1 20 2 19 3 17 4 18 5 14 7 15 8 16 9 2 10 1 11 3 12 4 13
REMARK SMILES IDX 5 15 6 16 11 17 7 18 9 19 8 20 10 21 12 22 13 23 22 24 23 25
REMARK SMILES IDX 24 26 25 27 26 29 27 30 28 31 86 32 29 33 85 34 30 35 31 36
REMARK SMILES IDX 32 37 79 38 33 39 84 40 78 41 80 42 34 43 83 44 77 45 76 46
REMARK SMILES IDX 35 48 65 49 46 50 64 51 47 52 50 53 63 54 81 55 48 56 49 57
REMARK SMILES IDX 62 59 82 60 51 61 36 62 37 63 45 64 38 65 44 66 39 67 40 68
REMARK SMILES IDX 41 69 42 70 43 71 66 72 67 73 75 74 68 75 74 76 69 77 70 78
REMARK SMILES IDX 71 79 72 80 73 81 52 82 53 83 61 84 54 85 60 86 55 87 56 88
REMARK SMILES IDX 57 89 58 90 59 91
REMARK H PARENT 19 6 4 14 24 28 80 47 50 58
REMARK Flexibility Score: inf
ROOT
ATOM      1  C   UNL A   1      37.571  20.479  24.628  1.00  0.00     0.023 C 
ENDROOT
BRANCH   1   2
ATOM      2  C   UNL A   1      36.589  21.140  25.595  1.00  0.00     0.116 C 
BRANCH   2   3
ATOM      3  N   UNL A   1      35.224  20.754  25.296  1.00  0.00    -0.356 N 
ATOM      4  C   UNL A   1      34.112  21.359  25.795  1.00  0.00     0.228 C 
ATOM      5  O   UNL A   1      33.380  20.648  26.485  1.00  0.00    -0.274 OA
ATOM      6  H   UNL A   1      35.091  19.994  24.685  1.00  0.00     0.163 HD
BRANCH   4   7
ATOM      7  C   UNL A   1      33.843  22.862  25.614  1.00  0.00     0.066 C 
ATOM      8  C   UNL A   1      34.981  23.805  26.085  1.00  0.00     0.024 C 
ATOM      9  C   UNL A   1      32.644  23.115  26.576  1.00  0.00     0.024 C 
BRANCH   7  10
ATOM     10  C   UNL A   1      33.458  23.176  24.079  1.00  0.00     0.046 C 
ATOM     11  C   UNL A   1      32.669  21.968  23.492  1.00  0.00     0.035 C 
ATOM     12  C   UNL A   1      34.681  23.360  23.137  1.00  0.00     0.035 C 
BRANCH  10  13
ATOM     13  N   UNL A   1      32.604  24.381  23.812  1.00  0.00    -0.378 N 
ATOM     14  H   UNL A   1      31.656  24.182  23.636  1.00  0.00     0.161 HD
BRANCH  13  15
ATOM     15  C   UNL A   1      32.931  25.721  23.774  1.00  0.00     0.056 A 
ATOM     16  C   UNL A   1      32.861  26.448  24.980  1.00  0.00     0.027 A 
ATOM     17  C   UNL A   1      33.251  26.439  22.609  1.00  0.00     0.111 A 
ATOM     18  C   UNL A   1      33.236  27.794  25.055  1.00  0.00     0.005 A 
ATOM     19  C   UNL A   1      33.697  27.763  22.707  1.00  0.00     0.143 A 
ATOM     20  C   UNL A   1      33.703  28.440  23.919  1.00  0.00     0.041 A 
ATOM     21  F   UNL A   1      34.108  28.422  21.613  1.00  0.00    -0.205 F 
BRANCH  17  22
ATOM     22  C   UNL A   1      33.011  25.940  21.289  1.00  0.00     0.104 C 
ATOM     23  N   UNL A   1      32.898  25.593  20.185  1.00  0.00    -0.192 NA
ENDBRANCH  17  22
ENDBRANCH  13  15
ENDBRANCH  10  13
ENDBRANCH   7  10
ENDBRANCH   4   7
ENDBRANCH   2   3
ENDBRANCH   1   2
BRANCH   1  24
ATOM     24  C   UNL A   1      38.496  19.448  25.274  1.00  0.00     0.023 C 
BRANCH  24  25
ATOM     25  C   UNL A   1      39.617  20.043  26.116  1.00  0.00     0.116 C 
BRANCH  25  26
ATOM     26  N   UNL A   1      40.793  19.184  26.156  1.00  0.00    -0.352 N 
ATOM     27  C   UNL A   1      42.118  19.536  26.223  1.00  0.00     0.251 C 
ATOM     28  H   UNL A   1      40.613  18.217  26.131  1.00  0.00     0.163 HD
ATOM     29  O   UNL A   1      42.990  18.689  26.056  1.00  0.00    -0.269 OA
BRANCH  27  30
ATOM     30  C   UNL A   1      42.475  20.945  26.476  1.00  0.00     0.039 A 
ATOM     31  C   UNL A   1      42.662  21.372  27.792  1.00  0.00     0.014 A 
ATOM     32  C   UNL A   1      42.651  21.831  25.411  1.00  0.00     0.014 A 
ATOM     33  C   UNL A   1      43.078  22.682  28.034  1.00  0.00     0.010 A 
ATOM     34  C   UNL A   1      43.151  23.105  25.649  1.00  0.00     0.010 A 
ATOM     35  C   UNL A   1      43.356  23.549  26.963  1.00  0.00    -0.014 A 
BRANCH  35  36
ATOM     36  C   UNL A   1      43.838  24.933  27.198  1.00  0.00     0.031 A 
ATOM     37  C   UNL A   1      45.288  25.269  26.972  1.00  0.00     0.074 A 
ATOM     38  C   UNL A   1      42.988  25.869  27.664  1.00  0.00     0.049 A 
ATOM     39  N   UNL A   1      45.912  26.402  27.168  1.00  0.00    -0.248 NA
ATOM     40  C   UNL A   1      46.157  24.183  26.487  1.00  0.00     0.031 C 
ATOM     41  C   UNL A   1      41.568  25.656  27.959  1.00  0.00     0.029 A 
ATOM     42  N   UNL A   1      43.195  27.190  27.975  1.00  0.00    -0.354 N 
ATOM     43  C   UNL A   1      47.243  26.160  26.847  1.00  0.00     0.074 A 
ATOM     44  C   UNL A   1      47.349  24.761  26.502  1.00  0.00     0.031 C 
ATOM     45  C   UNL A   1      41.027  26.812  28.376  1.00  0.00     0.029 A 
ATOM     46  C   UNL A   1      42.066  27.835  28.426  1.00  0.00     0.049 A 
ATOM     47  H   UNL A   1      44.069  27.633  27.886  1.00  0.00     0.167 HD
ATOM     48  C   UNL A   1      48.280  27.031  26.819  1.00  0.00     0.031 A 
ATOM     49  C   UNL A   1      41.890  29.105  28.841  1.00  0.00     0.031 A 
ATOM     50  C   UNL A   1      48.167  28.424  27.159  1.00  0.00     0.049 A 
ATOM     51  C   UNL A   1      43.065  30.047  28.824  1.00  0.00     0.074 A 
ATOM     52  C   UNL A   1      49.145  29.401  27.113  1.00  0.00     0.029 A 
ATOM     53  N   UNL A   1      47.007  29.038  27.608  1.00  0.00    -0.354 N 
ATOM     54  N   UNL A   1      44.302  29.818  28.451  1.00  0.00    -0.248 NA
ATOM     55  C   UNL A   1      42.817  31.424  29.274  1.00  0.00     0.031 C 
ATOM     56  C   UNL A   1      48.594  30.592  27.597  1.00  0.00     0.029 A 
ATOM     57  C   UNL A   1      47.253  30.375  27.871  1.00  0.00     0.049 A 
ATOM     58  H   UNL A   1      46.139  28.590  27.723  1.00  0.00     0.167 HD
ATOM     59  C   UNL A   1      44.971  31.030  28.588  1.00  0.00     0.074 A 
ATOM     60  C   UNL A   1      43.996  31.992  29.063  1.00  0.00     0.031 C 
ATOM     61  C   UNL A   1      46.272  31.322  28.341  1.00  0.00     0.031 A 
BRANCH  48  62
ATOM     62  C   UNL A   1      49.630  26.496  26.416  1.00  0.00    -0.014 A 
ATOM     63  C   UNL A   1      50.091  26.605  25.090  1.00  0.00     0.010 A 
ATOM     64  C   UNL A   1      50.470  25.915  27.384  1.00  0.00     0.010 A 
ATOM     65  C   UNL A   1      51.347  26.106  24.733  1.00  0.00     0.020 A 
ATOM     66  C   UNL A   1      51.740  25.446  27.037  1.00  0.00     0.020 A 
ATOM     67  C   UNL A   1      52.164  25.530  25.710  1.00  0.00     0.054 A 
BRANCH  67  68
ATOM     68  S   UNL A   1      53.800  24.920  25.221  1.00  0.00     0.124 S 
ATOM     69  O   UNL A   1      53.565  23.482  25.111  1.00  0.00    -0.237 OA
ATOM     70  O   UNL A   1      54.037  25.616  23.959  1.00  0.00    -0.237 OA
ATOM     71  O   UNL A   1      54.667  25.325  26.326  1.00  0.00    -0.744 OA
ENDBRANCH  67  68
ENDBRANCH  48  62
BRANCH  49  72
ATOM     72  C   UNL A   1      40.548  29.564  29.295  1.00  0.00    -0.014 A 
ATOM     73  C   UNL A   1      39.511  29.771  28.370  1.00  0.00     0.010 A 
ATOM     74  C   UNL A   1      40.299  29.796  30.662  1.00  0.00     0.010 A 
ATOM     75  C   UNL A   1      38.259  30.226  28.796  1.00  0.00     0.020 A 
ATOM     76  C   UNL A   1      39.040  30.219  31.096  1.00  0.00     0.020 A 
ATOM     77  C   UNL A   1      38.031  30.444  30.157  1.00  0.00     0.054 A 
BRANCH  77  78
ATOM     78  S   UNL A   1      36.386  30.997  30.690  1.00  0.00     0.124 S 
ATOM     79  O   UNL A   1      36.673  32.319  31.239  1.00  0.00    -0.237 OA
ATOM     80  O   UNL A   1      35.631  30.981  29.440  1.00  0.00    -0.237 OA
ATOM     81  O   UNL A   1      35.984  29.987  31.665  1.00  0.00    -0.744 OA
ENDBRANCH  77  78
ENDBRANCH  49  72
BRANCH  61  82
ATOM     82  C   UNL A   1      46.714  32.749  28.532  1.00  0.00    -0.014 A 
ATOM     83  C   UNL A   1      47.250  33.196  29.752  1.00  0.00     0.010 A 
ATOM     84  C   UNL A   1      46.644  33.642  27.445  1.00  0.00     0.010 A 
ATOM     85  C   UNL A   1      47.677  34.519  29.892  1.00  0.00     0.020 A 
ATOM     86  C   UNL A   1      47.103  34.957  27.572  1.00  0.00     0.020 A 
ATOM     87  C   UNL A   1      47.602  35.391  28.800  1.00  0.00     0.054 A 
BRANCH  87  88
ATOM     88  S   UNL A   1      48.206  37.089  28.997  1.00  0.00     0.124 S 
ATOM     89  O   UNL A   1      49.315  37.130  28.049  1.00  0.00    -0.237 OA
ATOM     90  O   UNL A   1      47.038  37.888  28.634  1.00  0.00    -0.237 OA
ATOM     91  O   UNL A   1      48.589  37.161  30.405  1.00  0.00    -0.744 OA
ENDBRANCH  87  88
ENDBRANCH  61  82
ENDBRANCH  35  36
ENDBRANCH  27  30
ENDBRANCH  25  26
ENDBRANCH  24  25
ENDBRANCH   1  24
TORSDOF 18
ENDMDL
