MODEL 1
REMARK VINA RESULT:     -10.4      0.000      0.000
REMARK SMILES C[NH2+][C@]1(C(=O)NCCCCNC(=O)c2ccc(-c3c4nc(c(-c5ccc(S(=O)(=O)[O-])cc5)c5ccc([nH]5)c(-c5ccc(S(=O)(=O)[O-])cc5)c5nc(c(-c6ccc(S(=O)(=O)[O-])cc6)c6ccc3[nH]6)C=C5)C=C4)cc2)CCC[C@H]([N@H+](C)C2CC2)C1
REMARK SMILES IDX 9 1 8 2 7 3 6 4 4 5 5 6 3 8 74 9 83 10 75 11 77 12 76 13
REMARK SMILES IDX 2 14 1 15 78 18 79 19 80 21 81 22 82 23 10 24 11 25 12 26
REMARK SMILES IDX 13 28 14 29 15 30 73 31 16 32 72 33 17 34 18 35 19 36 66 37
REMARK SMILES IDX 20 38 71 39 65 40 67 41 21 42 70 43 64 44 63 45 22 47 52 48
REMARK SMILES IDX 33 49 51 50 34 51 37 52 50 53 68 54 35 55 36 56 49 58 69 59
REMARK SMILES IDX 38 60 23 61 24 62 32 63 25 64 31 65 26 66 27 67 28 68 29 69
REMARK SMILES IDX 30 70 53 71 54 72 62 73 55 74 61 75 56 76 57 77 58 78 59 79
REMARK SMILES IDX 60 80 39 81 40 82 48 83 41 84 47 85 42 86 43 87 44 88 45 89
REMARK SMILES IDX 46 90
REMARK H PARENT 6 7 2 16 2 17 78 20 11 27 67 46 37 57
REMARK Flexibility Score: inf
ROOT
ATOM      1  C   UNL A   1      32.660  28.113  26.065  1.00  0.00     0.023 C 
ENDROOT
BRANCH   1   2
ATOM      2  C   UNL A   1      31.375  27.564  26.676  1.00  0.00     0.023 C 
BRANCH   2   3
ATOM      3  C   UNL A   1      30.616  26.571  25.799  1.00  0.00     0.116 C 
BRANCH   3   4
ATOM      4  N   UNL A   1      30.272  25.349  26.502  1.00  0.00    -0.351 N 
ATOM      5  C   UNL A   1      30.853  24.115  26.537  1.00  0.00     0.281 C 
ATOM      6  O   UNL A   1      30.383  23.324  27.365  1.00  0.00    -0.268 OA
ATOM      7  H   UNL A   1      29.464  25.423  27.060  1.00  0.00     0.163 HD
BRANCH   5   8
ATOM      8  C   UNL A   1      32.087  23.723  25.641  1.00  0.00     0.181 C 
ATOM      9  C   UNL A   1      31.790  23.950  24.141  1.00  0.00     0.079 C 
ATOM     10  C   UNL A   1      33.311  24.564  26.130  1.00  0.00     0.144 C 
ATOM     11  C   UNL A   1      33.029  23.961  23.262  1.00  0.00     0.013 C 
ATOM     12  C   UNL A   1      34.562  24.563  25.200  1.00  0.00     0.190 C 
ATOM     13  C   UNL A   1      34.058  24.953  23.797  1.00  0.00     0.065 C 
BRANCH   8  14
ATOM     14  N   UNL A   1      32.442  22.294  25.925  1.00  0.00    -0.336 N 
ATOM     15  C   UNL A   1      32.017  21.309  24.939  1.00  0.00     0.331 C 
ATOM     16  H   UNL A   1      33.457  22.236  26.002  1.00  0.00     0.346 HD
ATOM     17  H   UNL A   1      31.937  22.055  26.779  1.00  0.00     0.346 HD
ENDBRANCH   8  14
BRANCH  12  18
ATOM     18  N   UNL A   1      35.332  23.296  25.225  1.00  0.00    -0.332 N 
ATOM     19  C   UNL A   1      35.647  22.893  26.606  1.00  0.00     0.333 C 
ATOM     20  H   UNL A   1      34.701  22.636  24.772  1.00  0.00     0.348 HD
BRANCH  18  21
ATOM     21  C   UNL A   1      36.584  23.269  24.432  1.00  0.00     0.184 C 
ATOM     22  C   UNL A   1      37.021  21.884  23.997  1.00  0.00     0.071 C 
ATOM     23  C   UNL A   1      36.689  22.916  22.972  1.00  0.00     0.071 C 
ENDBRANCH  18  21
ENDBRANCH  12  18
ENDBRANCH   5   8
ENDBRANCH   3   4
ENDBRANCH   2   3
ENDBRANCH   1   2
BRANCH   1  24
ATOM     24  C   UNL A   1      33.743  28.490  27.066  1.00  0.00     0.116 C 
BRANCH  24  25
ATOM     25  N   UNL A   1      33.654  29.870  27.519  1.00  0.00    -0.352 N 
ATOM     26  C   UNL A   1      34.616  30.624  28.149  1.00  0.00     0.251 C 
ATOM     27  H   UNL A   1      32.795  30.321  27.355  1.00  0.00     0.163 HD
ATOM     28  O   UNL A   1      34.352  31.749  28.561  1.00  0.00    -0.269 OA
BRANCH  26  29
ATOM     29  C   UNL A   1      35.954  30.039  28.360  1.00  0.00     0.039 A 
ATOM     30  C   UNL A   1      36.895  30.116  27.333  1.00  0.00     0.014 A 
ATOM     31  C   UNL A   1      36.295  29.483  29.597  1.00  0.00     0.014 A 
ATOM     32  C   UNL A   1      38.206  29.700  27.570  1.00  0.00     0.010 A 
ATOM     33  C   UNL A   1      37.618  29.142  29.855  1.00  0.00     0.010 A 
ATOM     34  C   UNL A   1      38.586  29.249  28.845  1.00  0.00    -0.014 A 
BRANCH  34  35
ATOM     35  C   UNL A   1      39.992  28.884  29.147  1.00  0.00     0.031 A 
ATOM     36  C   UNL A   1      40.903  29.887  29.798  1.00  0.00     0.074 A 
ATOM     37  C   UNL A   1      40.465  27.678  28.775  1.00  0.00     0.049 A 
ATOM     38  N   UNL A   1      42.177  29.783  30.078  1.00  0.00    -0.248 NA
ATOM     39  C   UNL A   1      40.313  31.188  30.156  1.00  0.00     0.031 C 
ATOM     40  C   UNL A   1      39.691  26.635  28.097  1.00  0.00     0.029 A 
ATOM     41  N   UNL A   1      41.715  27.128  28.908  1.00  0.00    -0.354 N 
ATOM     42  C   UNL A   1      42.543  31.007  30.626  1.00  0.00     0.074 A 
ATOM     43  C   UNL A   1      41.371  31.854  30.593  1.00  0.00     0.031 C 
ATOM     44  C   UNL A   1      40.475  25.561  27.902  1.00  0.00     0.029 A 
ATOM     45  C   UNL A   1      41.814  25.853  28.405  1.00  0.00     0.049 A 
ATOM     46  H   UNL A   1      42.470  27.603  29.327  1.00  0.00     0.167 HD
ATOM     47  C   UNL A   1      43.740  31.385  31.132  1.00  0.00     0.031 A 
ATOM     48  C   UNL A   1      42.866  25.013  28.352  1.00  0.00     0.031 A 
ATOM     49  C   UNL A   1      44.899  30.534  31.181  1.00  0.00     0.049 A 
ATOM     50  C   UNL A   1      44.185  25.454  28.921  1.00  0.00     0.074 A 
ATOM     51  C   UNL A   1      46.144  30.805  31.720  1.00  0.00     0.029 A 
ATOM     52  N   UNL A   1      44.953  29.245  30.674  1.00  0.00    -0.354 N 
ATOM     53  N   UNL A   1      44.498  26.597  29.485  1.00  0.00    -0.248 NA
ATOM     54  C   UNL A   1      45.292  24.490  28.857  1.00  0.00     0.031 C 
ATOM     55  C   UNL A   1      46.964  29.694  31.503  1.00  0.00     0.029 A 
ATOM     56  C   UNL A   1      46.215  28.712  30.875  1.00  0.00     0.049 A 
ATOM     57  H   UNL A   1      44.205  28.777  30.237  1.00  0.00     0.167 HD
ATOM     58  C   UNL A   1      45.829  26.478  29.867  1.00  0.00     0.074 A 
ATOM     59  C   UNL A   1      46.259  25.149  29.481  1.00  0.00     0.031 C 
ATOM     60  C   UNL A   1      46.624  27.386  30.485  1.00  0.00     0.031 A 
BRANCH  47  61
ATOM     61  C   UNL A   1      43.851  32.784  31.677  1.00  0.00    -0.014 A 
ATOM     62  C   UNL A   1      43.932  33.016  33.062  1.00  0.00     0.010 A 
ATOM     63  C   UNL A   1      43.900  33.879  30.796  1.00  0.00     0.010 A 
ATOM     64  C   UNL A   1      44.017  34.319  33.558  1.00  0.00     0.020 A 
ATOM     65  C   UNL A   1      44.012  35.182  31.286  1.00  0.00     0.020 A 
ATOM     66  C   UNL A   1      44.051  35.395  32.666  1.00  0.00     0.054 A 
BRANCH  66  67
ATOM     67  S   UNL A   1      44.178  37.076  33.336  1.00  0.00     0.124 S 
ATOM     68  O   UNL A   1      42.816  37.313  33.809  1.00  0.00    -0.237 OA
ATOM     69  O   UNL A   1      45.188  36.930  34.381  1.00  0.00    -0.237 OA
ATOM     70  O   UNL A   1      44.586  37.877  32.186  1.00  0.00    -0.744 OA
ENDBRANCH  66  67
ENDBRANCH  47  61
BRANCH  48  71
ATOM     71  C   UNL A   1      42.706  23.657  27.760  1.00  0.00    -0.014 A 
ATOM     72  C   UNL A   1      42.492  22.542  28.589  1.00  0.00     0.010 A 
ATOM     73  C   UNL A   1      42.752  23.474  26.366  1.00  0.00     0.010 A 
ATOM     74  C   UNL A   1      42.344  21.266  28.037  1.00  0.00     0.020 A 
ATOM     75  C   UNL A   1      42.579  22.204  25.809  1.00  0.00     0.020 A 
ATOM     76  C   UNL A   1      42.388  21.105  26.650  1.00  0.00     0.054 A 
BRANCH  76  77
ATOM     77  S   UNL A   1      42.139  19.448  25.952  1.00  0.00     0.124 S 
ATOM     78  O   UNL A   1      40.706  19.446  25.680  1.00  0.00    -0.237 OA
ATOM     79  O   UNL A   1      43.008  19.465  24.777  1.00  0.00    -0.237 OA
ATOM     80  O   UNL A   1      42.576  18.559  27.026  1.00  0.00    -0.744 OA
ENDBRANCH  76  77
ENDBRANCH  48  71
BRANCH  60  81
ATOM     81  C   UNL A   1      48.030  26.965  30.813  1.00  0.00    -0.014 A 
ATOM     82  C   UNL A   1      49.091  27.214  29.925  1.00  0.00     0.010 A 
ATOM     83  C   UNL A   1      48.299  26.362  32.056  1.00  0.00     0.010 A 
ATOM     84  C   UNL A   1      50.394  26.840  30.262  1.00  0.00     0.020 A 
ATOM     85  C   UNL A   1      49.604  26.011  32.406  1.00  0.00     0.020 A 
ATOM     86  C   UNL A   1      50.643  26.241  31.502  1.00  0.00     0.054 A 
BRANCH  86  87
ATOM     87  S   UNL A   1      52.349  25.808  31.937  1.00  0.00     0.124 S 
ATOM     88  O   UNL A   1      52.647  26.770  32.994  1.00  0.00    -0.237 OA
ATOM     89  O   UNL A   1      52.229  24.417  32.369  1.00  0.00    -0.237 OA
ATOM     90  O   UNL A   1      53.084  26.003  30.690  1.00  0.00    -0.744 OA
ENDBRANCH  86  87
ENDBRANCH  60  81
ENDBRANCH  34  35
ENDBRANCH  26  29
ENDBRANCH  24  25
ENDBRANCH   1  24
TORSDOF 17
ENDMDL
MODEL 2
REMARK VINA RESULT:      -9.9      4.631     10.415
REMARK SMILES C[NH2+][C@]1(C(=O)NCCCCNC(=O)c2ccc(-c3c4nc(c(-c5ccc(S(=O)(=O)[O-])cc5)c5ccc([nH]5)c(-c5ccc(S(=O)(=O)[O-])cc5)c5nc(c(-c6ccc(S(=O)(=O)[O-])cc6)c6ccc3[nH]6)C=C5)C=C4)cc2)CCC[C@H]([N@H+](C)C2CC2)C1
REMARK SMILES IDX 9 1 8 2 7 3 6 4 4 5 5 6 3 8 74 9 83 10 75 11 77 12 76 13
REMARK SMILES IDX 2 14 1 15 78 18 79 19 80 21 81 22 82 23 10 24 11 25 12 26
REMARK SMILES IDX 13 28 14 29 15 30 73 31 16 32 72 33 17 34 18 35 19 36 66 37
REMARK SMILES IDX 20 38 71 39 65 40 67 41 21 42 70 43 64 44 63 45 22 47 52 48
REMARK SMILES IDX 33 49 51 50 34 51 37 52 50 53 68 54 35 55 36 56 49 58 69 59
REMARK SMILES IDX 38 60 23 61 24 62 32 63 25 64 31 65 26 66 27 67 28 68 29 69
REMARK SMILES IDX 30 70 53 71 54 72 62 73 55 74 61 75 56 76 57 77 58 78 59 79
REMARK SMILES IDX 60 80 39 81 40 82 48 83 41 84 47 85 42 86 43 87 44 88 45 89
REMARK SMILES IDX 46 90
REMARK H PARENT 6 7 2 16 2 17 78 20 11 27 67 46 37 57
REMARK Flexibility Score: inf
ROOT
ATOM      1  C   UNL A   1      40.049  21.707  26.998  1.00  0.00     0.023 C 
ENDROOT
BRANCH   1   2
ATOM      2  C   UNL A   1      39.304  21.641  25.669  1.00  0.00     0.023 C 
BRANCH   2   3
ATOM      3  C   UNL A   1      37.810  21.946  25.751  1.00  0.00     0.116 C 
BRANCH   3   4
ATOM      4  N   UNL A   1      36.984  20.787  25.467  1.00  0.00    -0.351 N 
ATOM      5  C   UNL A   1      35.711  20.661  24.994  1.00  0.00     0.281 C 
ATOM      6  O   UNL A   1      35.350  19.508  24.725  1.00  0.00    -0.268 OA
ATOM      7  H   UNL A   1      37.426  19.927  25.653  1.00  0.00     0.163 HD
BRANCH   5   8
ATOM      8  C   UNL A   1      34.767  21.894  24.734  1.00  0.00     0.181 C 
ATOM      9  C   UNL A   1      35.398  22.886  23.730  1.00  0.00     0.079 C 
ATOM     10  C   UNL A   1      33.395  21.340  24.227  1.00  0.00     0.144 C 
ATOM     11  C   UNL A   1      34.412  23.883  23.145  1.00  0.00     0.013 C 
ATOM     12  C   UNL A   1      32.412  22.387  23.624  1.00  0.00     0.190 C 
ATOM     13  C   UNL A   1      33.205  23.160  22.553  1.00  0.00     0.065 C 
BRANCH   8  14
ATOM     14  N   UNL A   1      34.474  22.551  26.050  1.00  0.00    -0.336 N 
ATOM     15  C   UNL A   1      34.191  21.667  27.172  1.00  0.00     0.331 C 
ATOM     16  H   UNL A   1      35.283  23.119  26.300  1.00  0.00     0.346 HD
ATOM     17  H   UNL A   1      33.614  23.080  25.900  1.00  0.00     0.346 HD
ENDBRANCH   8  14
BRANCH  12  18
ATOM     18  N   UNL A   1      31.766  23.262  24.633  1.00  0.00    -0.332 N 
ATOM     19  C   UNL A   1      31.113  22.466  25.686  1.00  0.00     0.333 C 
ATOM     20  H   UNL A   1      32.548  23.805  24.998  1.00  0.00     0.348 HD
BRANCH  18  21
ATOM     21  C   UNL A   1      30.790  24.252  24.120  1.00  0.00     0.184 C 
ATOM     22  C   UNL A   1      31.011  25.667  24.617  1.00  0.00     0.071 C 
ATOM     23  C   UNL A   1      31.096  25.369  23.158  1.00  0.00     0.071 C 
ENDBRANCH  18  21
ENDBRANCH  12  18
ENDBRANCH   5   8
ENDBRANCH   3   4
ENDBRANCH   2   3
ENDBRANCH   1   2
BRANCH   1  24
ATOM     24  C   UNL A   1      40.646  23.065  27.339  1.00  0.00     0.116 C 
BRANCH  24  25
ATOM     25  N   UNL A   1      40.937  23.878  26.167  1.00  0.00    -0.352 N 
ATOM     26  C   UNL A   1      41.102  25.241  26.095  1.00  0.00     0.251 C 
ATOM     27  H   UNL A   1      41.026  23.389  25.318  1.00  0.00     0.163 HD
ATOM     28  O   UNL A   1      41.245  25.792  25.008  1.00  0.00    -0.269 OA
BRANCH  26  29
ATOM     29  C   UNL A   1      41.059  26.031  27.340  1.00  0.00     0.039 A 
ATOM     30  C   UNL A   1      42.091  26.931  27.606  1.00  0.00     0.014 A 
ATOM     31  C   UNL A   1      39.963  25.930  28.203  1.00  0.00     0.014 A 
ATOM     32  C   UNL A   1      41.990  27.788  28.702  1.00  0.00     0.010 A 
ATOM     33  C   UNL A   1      39.828  26.836  29.249  1.00  0.00     0.010 A 
ATOM     34  C   UNL A   1      40.839  27.775  29.508  1.00  0.00    -0.014 A 
BRANCH  34  35
ATOM     35  C   UNL A   1      40.668  28.734  30.626  1.00  0.00     0.031 A 
ATOM     36  C   UNL A   1      41.517  28.605  31.860  1.00  0.00     0.074 A 
ATOM     37  C   UNL A   1      39.706  29.676  30.558  1.00  0.00     0.049 A 
ATOM     38  N   UNL A   1      41.471  29.299  32.968  1.00  0.00    -0.248 NA
ATOM     39  C   UNL A   1      42.532  27.538  31.861  1.00  0.00     0.031 C 
ATOM     40  C   UNL A   1      38.789  29.874  29.433  1.00  0.00     0.029 A 
ATOM     41  N   UNL A   1      39.334  30.640  31.462  1.00  0.00    -0.354 N 
ATOM     42  C   UNL A   1      42.434  28.743  33.801  1.00  0.00     0.074 A 
ATOM     43  C   UNL A   1      43.013  27.623  33.091  1.00  0.00     0.031 C 
ATOM     44  C   UNL A   1      37.982  30.915  29.701  1.00  0.00     0.029 A 
ATOM     45  C   UNL A   1      38.297  31.432  31.029  1.00  0.00     0.049 A 
ATOM     46  H   UNL A   1      39.770  30.753  32.338  1.00  0.00     0.167 HD
ATOM     47  C   UNL A   1      42.818  29.140  35.037  1.00  0.00     0.031 A 
ATOM     48  C   UNL A   1      37.669  32.458  31.634  1.00  0.00     0.031 A 
ATOM     49  C   UNL A   1      42.253  30.265  35.733  1.00  0.00     0.049 A 
ATOM     50  C   UNL A   1      38.113  32.883  33.006  1.00  0.00     0.074 A 
ATOM     51  C   UNL A   1      42.608  30.781  36.966  1.00  0.00     0.029 A 
ATOM     52  N   UNL A   1      41.216  31.050  35.253  1.00  0.00    -0.354 N 
ATOM     53  N   UNL A   1      39.064  32.378  33.757  1.00  0.00    -0.248 NA
ATOM     54  C   UNL A   1      37.409  34.022  33.609  1.00  0.00     0.031 C 
ATOM     55  C   UNL A   1      41.758  31.854  37.251  1.00  0.00     0.029 A 
ATOM     56  C   UNL A   1      40.908  32.038  36.173  1.00  0.00     0.049 A 
ATOM     57  H   UNL A   1      40.765  30.924  34.387  1.00  0.00     0.167 HD
ATOM     58  C   UNL A   1      39.089  33.155  34.908  1.00  0.00     0.074 A 
ATOM     59  C   UNL A   1      38.067  34.171  34.751  1.00  0.00     0.031 C 
ATOM     60  C   UNL A   1      39.888  33.041  35.998  1.00  0.00     0.031 A 
BRANCH  47  61
ATOM     61  C   UNL A   1      43.908  28.350  35.711  1.00  0.00    -0.014 A 
ATOM     62  C   UNL A   1      45.262  28.670  35.513  1.00  0.00     0.010 A 
ATOM     63  C   UNL A   1      43.574  27.290  36.573  1.00  0.00     0.010 A 
ATOM     64  C   UNL A   1      46.265  27.918  36.130  1.00  0.00     0.020 A 
ATOM     65  C   UNL A   1      44.573  26.553  37.214  1.00  0.00     0.020 A 
ATOM     66  C   UNL A   1      45.913  26.861  36.973  1.00  0.00     0.054 A 
BRANCH  66  67
ATOM     67  S   UNL A   1      47.236  25.912  37.774  1.00  0.00     0.124 S 
ATOM     68  O   UNL A   1      46.493  25.147  38.773  1.00  0.00    -0.237 OA
ATOM     69  O   UNL A   1      47.786  25.132  36.669  1.00  0.00    -0.237 OA
ATOM     70  O   UNL A   1      48.123  26.940  38.311  1.00  0.00    -0.744 OA
ENDBRANCH  66  67
ENDBRANCH  47  61
BRANCH  48  71
ATOM     71  C   UNL A   1      36.568  33.174  30.934  1.00  0.00    -0.014 A 
ATOM     72  C   UNL A   1      35.280  33.218  31.495  1.00  0.00     0.010 A 
ATOM     73  C   UNL A   1      36.804  33.828  29.710  1.00  0.00     0.010 A 
ATOM     74  C   UNL A   1      34.243  33.887  30.839  1.00  0.00     0.020 A 
ATOM     75  C   UNL A   1      35.775  34.519  29.064  1.00  0.00     0.020 A 
ATOM     76  C   UNL A   1      34.498  34.534  29.627  1.00  0.00     0.054 A 
BRANCH  76  77
ATOM     77  S   UNL A   1      33.149  35.442  28.820  1.00  0.00     0.124 S 
ATOM     78  O   UNL A   1      33.878  36.435  28.037  1.00  0.00    -0.237 OA
ATOM     79  O   UNL A   1      32.478  34.396  28.051  1.00  0.00    -0.237 OA
ATOM     80  O   UNL A   1      32.377  35.971  29.942  1.00  0.00    -0.744 OA
ENDBRANCH  76  77
ENDBRANCH  48  71
BRANCH  60  81
ATOM     81  C   UNL A   1      39.714  34.058  37.092  1.00  0.00    -0.014 A 
ATOM     82  C   UNL A   1      38.942  33.776  38.232  1.00  0.00     0.010 A 
ATOM     83  C   UNL A   1      40.383  35.293  37.002  1.00  0.00     0.010 A 
ATOM     84  C   UNL A   1      38.817  34.723  39.251  1.00  0.00     0.020 A 
ATOM     85  C   UNL A   1      40.281  36.232  38.030  1.00  0.00     0.020 A 
ATOM     86  C   UNL A   1      39.489  35.947  39.144  1.00  0.00     0.054 A 
BRANCH  86  87
ATOM     87  S   UNL A   1      39.350  37.142  40.500  1.00  0.00     0.124 S 
ATOM     88  O   UNL A   1      40.745  37.504  40.731  1.00  0.00    -0.237 OA
ATOM     89  O   UNL A   1      38.516  38.193  39.920  1.00  0.00    -0.237 OA
ATOM     90  O   UNL A   1      38.719  36.377  41.573  1.00  0.00    -0.744 OA
ENDBRANCH  86  87
ENDBRANCH  60  81
ENDBRANCH  34  35
ENDBRANCH  26  29
ENDBRANCH  24  25
ENDBRANCH   1  24
TORSDOF 17
ENDMDL
MODEL 3
REMARK VINA RESULT:      -9.9      2.668      9.296
REMARK SMILES C[NH2+][C@]1(C(=O)NCCCCNC(=O)c2ccc(-c3c4nc(c(-c5ccc(S(=O)(=O)[O-])cc5)c5ccc([nH]5)c(-c5ccc(S(=O)(=O)[O-])cc5)c5nc(c(-c6ccc(S(=O)(=O)[O-])cc6)c6ccc3[nH]6)C=C5)C=C4)cc2)CCC[C@H]([N@H+](C)C2CC2)C1
REMARK SMILES IDX 9 1 8 2 7 3 6 4 4 5 5 6 3 8 74 9 83 10 75 11 77 12 76 13
REMARK SMILES IDX 2 14 1 15 78 18 79 19 80 21 81 22 82 23 10 24 11 25 12 26
REMARK SMILES IDX 13 28 14 29 15 30 73 31 16 32 72 33 17 34 18 35 19 36 66 37
REMARK SMILES IDX 20 38 71 39 65 40 67 41 21 42 70 43 64 44 63 45 22 47 52 48
REMARK SMILES IDX 33 49 51 50 34 51 37 52 50 53 68 54 35 55 36 56 49 58 69 59
REMARK SMILES IDX 38 60 23 61 24 62 32 63 25 64 31 65 26 66 27 67 28 68 29 69
REMARK SMILES IDX 30 70 53 71 54 72 62 73 55 74 61 75 56 76 57 77 58 78 59 79
REMARK SMILES IDX 60 80 39 81 40 82 48 83 41 84 47 85 42 86 43 87 44 88 45 89
REMARK SMILES IDX 46 90
REMARK H PARENT 6 7 2 16 2 17 78 20 11 27 67 46 37 57
REMARK Flexibility Score: inf
ROOT
ATOM      1  C   UNL A   1      36.107  23.395  24.117  1.00  0.00     0.023 C 
ENDROOT
BRANCH   1   2
ATOM      2  C   UNL A   1      35.238  22.142  24.096  1.00  0.00     0.023 C 
BRANCH   2   3
ATOM      3  C   UNL A   1      33.750  22.392  23.860  1.00  0.00     0.116 C 
BRANCH   3   4
ATOM      4  N   UNL A   1      33.487  23.075  22.606  1.00  0.00    -0.351 N 
ATOM      5  C   UNL A   1      33.086  24.347  22.321  1.00  0.00     0.281 C 
ATOM      6  O   UNL A   1      33.096  24.656  21.122  1.00  0.00    -0.268 OA
ATOM      7  H   UNL A   1      33.623  22.512  21.809  1.00  0.00     0.163 HD
BRANCH   5   8
ATOM      8  C   UNL A   1      32.698  25.393  23.431  1.00  0.00     0.181 C 
ATOM      9  C   UNL A   1      32.619  24.732  24.826  1.00  0.00     0.079 C 
ATOM     10  C   UNL A   1      33.756  26.543  23.386  1.00  0.00     0.144 C 
ATOM     11  C   UNL A   1      32.628  25.722  25.979  1.00  0.00     0.013 C 
ATOM     12  C   UNL A   1      33.745  27.535  24.589  1.00  0.00     0.190 C 
ATOM     13  C   UNL A   1      33.817  26.671  25.862  1.00  0.00     0.065 C 
BRANCH   8  14
ATOM     14  N   UNL A   1      31.395  26.029  23.046  1.00  0.00    -0.336 N 
ATOM     15  C   UNL A   1      30.193  25.465  23.644  1.00  0.00     0.331 C 
ATOM     16  H   UNL A   1      31.440  27.013  23.312  1.00  0.00     0.346 HD
ATOM     17  H   UNL A   1      31.300  25.864  22.044  1.00  0.00     0.346 HD
ENDBRANCH   8  14
BRANCH  12  18
ATOM     18  N   UNL A   1      32.607  28.486  24.578  1.00  0.00    -0.332 N 
ATOM     19  C   UNL A   1      32.315  28.950  23.211  1.00  0.00     0.333 C 
ATOM     20  H   UNL A   1      31.842  27.930  24.961  1.00  0.00     0.348 HD
BRANCH  18  21
ATOM     21  C   UNL A   1      32.728  29.670  25.460  1.00  0.00     0.184 C 
ATOM     22  C   UNL A   1      31.925  29.583  26.743  1.00  0.00     0.071 C 
ATOM     23  C   UNL A   1      33.411  29.699  26.802  1.00  0.00     0.071 C 
ENDBRANCH  18  21
ENDBRANCH  12  18
ENDBRANCH   5   8
ENDBRANCH   3   4
ENDBRANCH   2   3
ENDBRANCH   1   2
BRANCH   1  24
ATOM     24  C   UNL A   1      36.885  23.621  25.405  1.00  0.00     0.116 C 
BRANCH  24  25
ATOM     25  N   UNL A   1      38.013  22.716  25.564  1.00  0.00    -0.352 N 
ATOM     26  C   UNL A   1      39.228  22.964  26.159  1.00  0.00     0.251 C 
ATOM     27  H   UNL A   1      37.891  21.810  25.200  1.00  0.00     0.163 HD
ATOM     28  O   UNL A   1      40.119  22.121  26.125  1.00  0.00    -0.269 OA
BRANCH  26  29
ATOM     29  C   UNL A   1      39.455  24.275  26.796  1.00  0.00     0.039 A 
ATOM     30  C   UNL A   1      39.014  24.476  28.104  1.00  0.00     0.014 A 
ATOM     31  C   UNL A   1      40.165  25.274  26.123  1.00  0.00     0.014 A 
ATOM     32  C   UNL A   1      39.350  25.657  28.768  1.00  0.00     0.010 A 
ATOM     33  C   UNL A   1      40.565  26.414  26.811  1.00  0.00     0.010 A 
ATOM     34  C   UNL A   1      40.163  26.616  28.141  1.00  0.00    -0.014 A 
BRANCH  34  35
ATOM     35  C   UNL A   1      40.607  27.838  28.855  1.00  0.00     0.031 A 
ATOM     36  C   UNL A   1      41.974  27.885  29.479  1.00  0.00     0.074 A 
ATOM     37  C   UNL A   1      39.758  28.874  28.999  1.00  0.00     0.049 A 
ATOM     38  N   UNL A   1      42.517  28.832  30.201  1.00  0.00    -0.248 NA
ATOM     39  C   UNL A   1      42.833  26.704  29.291  1.00  0.00     0.031 C 
ATOM     40  C   UNL A   1      38.390  28.930  28.476  1.00  0.00     0.029 A 
ATOM     41  N   UNL A   1      39.918  30.079  29.636  1.00  0.00    -0.354 N 
ATOM     42  C   UNL A   1      43.770  28.353  30.567  1.00  0.00     0.074 A 
ATOM     43  C   UNL A   1      43.886  27.015  30.032  1.00  0.00     0.031 C 
ATOM     44  C   UNL A   1      37.849  30.120  28.788  1.00  0.00     0.029 A 
ATOM     45  C   UNL A   1      38.813  30.894  29.562  1.00  0.00     0.049 A 
ATOM     46  H   UNL A   1      40.747  30.336  30.101  1.00  0.00     0.167 HD
ATOM     47  C   UNL A   1      44.745  28.979  31.268  1.00  0.00     0.031 A 
ATOM     48  C   UNL A   1      38.600  32.125  30.065  1.00  0.00     0.031 A 
ATOM     49  C   UNL A   1      44.633  30.317  31.784  1.00  0.00     0.049 A 
ATOM     50  C   UNL A   1      39.697  32.801  30.839  1.00  0.00     0.074 A 
ATOM     51  C   UNL A   1      45.583  31.060  32.462  1.00  0.00     0.029 A 
ATOM     52  N   UNL A   1      43.503  31.114  31.675  1.00  0.00    -0.354 N 
ATOM     53  N   UNL A   1      40.897  32.354  31.129  1.00  0.00    -0.248 NA
ATOM     54  C   UNL A   1      39.419  34.152  31.344  1.00  0.00     0.031 C 
ATOM     55  C   UNL A   1      45.013  32.292  32.799  1.00  0.00     0.029 A 
ATOM     56  C   UNL A   1      43.727  32.335  32.287  1.00  0.00     0.049 A 
ATOM     57  H   UNL A   1      42.667  30.849  31.229  1.00  0.00     0.167 HD
ATOM     58  C   UNL A   1      41.524  33.379  31.827  1.00  0.00     0.074 A 
ATOM     59  C   UNL A   1      40.576  34.473  31.905  1.00  0.00     0.031 C 
ATOM     60  C   UNL A   1      42.772  33.413  32.353  1.00  0.00     0.031 A 
BRANCH  47  61
ATOM     61  C   UNL A   1      46.020  28.217  31.512  1.00  0.00    -0.014 A 
ATOM     62  C   UNL A   1      46.175  27.415  32.657  1.00  0.00     0.010 A 
ATOM     63  C   UNL A   1      47.067  28.284  30.575  1.00  0.00     0.010 A 
ATOM     64  C   UNL A   1      47.370  26.727  32.882  1.00  0.00     0.020 A 
ATOM     65  C   UNL A   1      48.253  27.576  30.783  1.00  0.00     0.020 A 
ATOM     66  C   UNL A   1      48.404  26.816  31.945  1.00  0.00     0.054 A 
BRANCH  66  67
ATOM     67  S   UNL A   1      49.938  25.899  32.255  1.00  0.00     0.124 S 
ATOM     68  O   UNL A   1      49.985  24.998  31.107  1.00  0.00    -0.237 OA
ATOM     69  O   UNL A   1      50.947  26.955  32.266  1.00  0.00    -0.237 OA
ATOM     70  O   UNL A   1      49.701  25.254  33.544  1.00  0.00    -0.744 OA
ENDBRANCH  66  67
ENDBRANCH  47  61
BRANCH  48  71
ATOM     71  C   UNL A   1      37.301  32.811  29.828  1.00  0.00    -0.014 A 
ATOM     72  C   UNL A   1      36.259  32.702  30.766  1.00  0.00     0.010 A 
ATOM     73  C   UNL A   1      37.101  33.587  28.671  1.00  0.00     0.010 A 
ATOM     74  C   UNL A   1      35.037  33.342  30.546  1.00  0.00     0.020 A 
ATOM     75  C   UNL A   1      35.888  34.249  28.460  1.00  0.00     0.020 A 
ATOM     76  C   UNL A   1      34.859  34.112  29.394  1.00  0.00     0.054 A 
BRANCH  76  77
ATOM     77  S   UNL A   1      33.282  34.979  29.154  1.00  0.00     0.124 S 
ATOM     78  O   UNL A   1      33.723  36.282  28.668  1.00  0.00    -0.237 OA
ATOM     79  O   UNL A   1      32.601  34.134  28.176  1.00  0.00    -0.237 OA
ATOM     80  O   UNL A   1      32.687  34.975  30.489  1.00  0.00    -0.744 OA
ENDBRANCH  76  77
ENDBRANCH  48  71
BRANCH  60  81
ATOM     81  C   UNL A   1      43.202  34.685  33.032  1.00  0.00    -0.014 A 
ATOM     82  C   UNL A   1      43.864  35.701  32.321  1.00  0.00     0.010 A 
ATOM     83  C   UNL A   1      42.886  34.886  34.388  1.00  0.00     0.010 A 
ATOM     84  C   UNL A   1      44.228  36.887  32.964  1.00  0.00     0.020 A 
ATOM     85  C   UNL A   1      43.226  36.080  35.027  1.00  0.00     0.020 A 
ATOM     86  C   UNL A   1      43.907  37.069  34.314  1.00  0.00     0.054 A 
BRANCH  86  87
ATOM     87  S   UNL A   1      44.348  38.636  35.114  1.00  0.00     0.124 S 
ATOM     88  O   UNL A   1      45.766  38.755  34.788  1.00  0.00    -0.237 OA
ATOM     89  O   UNL A   1      43.468  39.595  34.450  1.00  0.00    -0.237 OA
ATOM     90  O   UNL A   1      44.049  38.400  36.524  1.00  0.00    -0.744 OA
ENDBRANCH  86  87
ENDBRANCH  60  81
ENDBRANCH  34  35
ENDBRANCH  26  29
ENDBRANCH  24  25
ENDBRANCH   1  24
TORSDOF 17
ENDMDL
