MODEL 1
REMARK VINA RESULT:     -11.5      0.000      0.000
REMARK SMILES C[N@H+]1[C@H]2CC[C@@H]1c1sc(=O)n(CCCC(=O)NCCCCNC(=O)c3ccc(-c4c5nc(c(-c6ccc(S(=O)(=O)[O-])cc6)c6ccc([nH]6)c(-c6ccc(S(=O)(=O)[O-])cc6)c6nc(c(-c7ccc(S(=O)(=O)[O-])cc7)c7ccc4[nH]7)C=C6)C=C5)cc3)c1C2
REMARK SMILES IDX 19 1 18 2 17 3 15 4 16 5 14 7 13 8 12 9 11 10 1 11 2 12 3 13
REMARK SMILES IDX 6 14 4 16 86 17 5 18 7 19 85 20 8 21 9 22 10 23 20 24 21 25
REMARK SMILES IDX 22 26 23 27 24 29 25 30 26 31 84 32 27 33 83 34 28 35 29 36
REMARK SMILES IDX 30 37 77 38 31 39 82 40 76 41 78 42 32 43 81 44 75 45 74 46
REMARK SMILES IDX 33 48 63 49 44 50 62 51 45 52 48 53 61 54 79 55 46 56 47 57
REMARK SMILES IDX 60 59 80 60 49 61 34 62 35 63 43 64 36 65 42 66 37 67 38 68
REMARK SMILES IDX 39 69 40 70 41 71 64 72 65 73 73 74 66 75 72 76 67 77 68 78
REMARK SMILES IDX 69 79 70 80 71 81 50 82 51 83 59 84 52 85 58 86 53 87 54 88
REMARK SMILES IDX 55 89 56 90 57 91
REMARK H PARENT 17 6 2 15 22 28 78 47 48 58
REMARK Flexibility Score: inf
ROOT
ATOM      1  C   UNL A   1      39.836  21.394  26.382  1.00  0.00     0.023 C 
ENDROOT
BRANCH   1   2
ATOM      2  C   UNL A   1      38.543  21.461  25.553  1.00  0.00     0.116 C 
BRANCH   2   3
ATOM      3  N   UNL A   1      37.697  22.549  25.997  1.00  0.00    -0.356 N 
ATOM      4  C   UNL A   1      36.878  23.394  25.317  1.00  0.00     0.220 C 
ATOM      5  O   UNL A   1      36.329  24.288  25.970  1.00  0.00    -0.275 OA
ATOM      6  H   UNL A   1      37.718  22.704  26.970  1.00  0.00     0.163 HD
BRANCH   4   7
ATOM      7  C   UNL A   1      36.559  23.225  23.843  1.00  0.00     0.102 C 
BRANCH   7   8
ATOM      8  C   UNL A   1      35.224  22.627  23.399  1.00  0.00     0.032 C 
BRANCH   8   9
ATOM      9  C   UNL A   1      33.995  23.485  23.096  1.00  0.00     0.127 C 
BRANCH   9  10
ATOM     10  N   UNL A   1      33.381  24.389  24.075  1.00  0.00    -0.302 N 
ATOM     11  C   UNL A   1      30.898  29.082  22.508  1.00  0.00     0.333 C 
ATOM     12  N   UNL A   1      31.654  27.890  22.873  1.00  0.00    -0.328 N 
ATOM     13  C   UNL A   1      33.029  27.855  22.333  1.00  0.00     0.190 C 
ATOM     14  C   UNL A   1      31.886  27.776  24.342  1.00  0.00     0.227 C 
ATOM     15  H   UNL A   1      31.067  27.148  22.493  1.00  0.00     0.348 HD
ATOM     16  C   UNL A   1      33.791  28.814  23.256  1.00  0.00     0.072 C 
ATOM     17  C   UNL A   1      33.539  26.377  22.439  1.00  0.00     0.120 C 
ATOM     18  C   UNL A   1      33.098  28.683  24.616  1.00  0.00     0.077 C 
ATOM     19  C   UNL A   1      32.323  26.362  24.593  1.00  0.00     0.087 A 
ATOM     20  C   UNL A   1      33.079  25.698  23.709  1.00  0.00     0.047 A 
ATOM     21  S   UNL A   1      31.962  25.423  25.984  1.00  0.00    -0.073 S 
ATOM     22  C   UNL A   1      32.910  24.062  25.343  1.00  0.00     0.307 A 
ATOM     23  O   UNL A   1      33.057  23.035  25.991  1.00  0.00    -0.257 OA
ENDBRANCH   9  10
ENDBRANCH   8   9
ENDBRANCH   7   8
ENDBRANCH   4   7
ENDBRANCH   2   3
ENDBRANCH   1   2
BRANCH   1  24
ATOM     24  C   UNL A   1      40.574  20.050  26.349  1.00  0.00     0.023 C 
BRANCH  24  25
ATOM     25  C   UNL A   1      41.934  20.064  27.032  1.00  0.00     0.116 C 
BRANCH  25  26
ATOM     26  N   UNL A   1      43.025  19.614  26.168  1.00  0.00    -0.352 N 
ATOM     27  C   UNL A   1      43.762  20.401  25.301  1.00  0.00     0.251 C 
ATOM     28  H   UNL A   1      43.255  18.657  26.207  1.00  0.00     0.163 HD
ATOM     29  O   UNL A   1      44.329  19.921  24.328  1.00  0.00    -0.269 OA
BRANCH  27  30
ATOM     30  C   UNL A   1      43.859  21.839  25.601  1.00  0.00     0.039 A 
ATOM     31  C   UNL A   1      43.022  22.774  24.989  1.00  0.00     0.014 A 
ATOM     32  C   UNL A   1      44.764  22.220  26.592  1.00  0.00     0.014 A 
ATOM     33  C   UNL A   1      43.036  24.087  25.458  1.00  0.00     0.010 A 
ATOM     34  C   UNL A   1      44.687  23.480  27.133  1.00  0.00     0.010 A 
ATOM     35  C   UNL A   1      43.846  24.430  26.557  1.00  0.00    -0.014 A 
BRANCH  35  36
ATOM     36  C   UNL A   1      43.653  25.706  27.253  1.00  0.00     0.031 A 
ATOM     37  C   UNL A   1      44.692  26.714  26.898  1.00  0.00     0.074 A 
ATOM     38  C   UNL A   1      42.531  26.031  27.939  1.00  0.00     0.049 A 
ATOM     39  N   UNL A   1      45.699  27.090  27.616  1.00  0.00    -0.248 NA
ATOM     40  C   UNL A   1      44.752  27.205  25.506  1.00  0.00     0.031 C 
ATOM     41  C   UNL A   1      41.314  25.218  28.071  1.00  0.00     0.029 A 
ATOM     42  N   UNL A   1      42.172  27.194  28.560  1.00  0.00    -0.354 N 
ATOM     43  C   UNL A   1      46.307  28.108  26.887  1.00  0.00     0.074 A 
ATOM     44  C   UNL A   1      45.868  27.939  25.528  1.00  0.00     0.031 C 
ATOM     45  C   UNL A   1      40.287  25.993  28.483  1.00  0.00     0.029 A 
ATOM     46  C   UNL A   1      40.804  27.306  28.823  1.00  0.00     0.049 A 
ATOM     47  H   UNL A   1      42.822  27.893  28.803  1.00  0.00     0.167 HD
ATOM     48  C   UNL A   1      46.758  29.227  27.524  1.00  0.00     0.031 A 
ATOM     49  C   UNL A   1      40.132  28.392  29.287  1.00  0.00     0.031 A 
ATOM     50  C   UNL A   1      46.774  29.026  28.950  1.00  0.00     0.049 A 
ATOM     51  C   UNL A   1      41.123  29.250  29.970  1.00  0.00     0.074 A 
ATOM     52  C   UNL A   1      47.487  28.292  29.871  1.00  0.00     0.029 A 
ATOM     53  N   UNL A   1      45.596  29.400  29.543  1.00  0.00    -0.354 N 
ATOM     54  N   UNL A   1      41.748  28.885  31.055  1.00  0.00    -0.248 NA
ATOM     55  C   UNL A   1      41.714  30.369  29.249  1.00  0.00     0.031 C 
ATOM     56  C   UNL A   1      46.611  28.101  30.982  1.00  0.00     0.029 A 
ATOM     57  C   UNL A   1      45.414  28.778  30.741  1.00  0.00     0.049 A 
ATOM     58  H   UNL A   1      44.959  30.040  29.150  1.00  0.00     0.167 HD
ATOM     59  C   UNL A   1      43.017  29.408  30.904  1.00  0.00     0.074 A 
ATOM     60  C   UNL A   1      42.888  30.443  29.884  1.00  0.00     0.031 C 
ATOM     61  C   UNL A   1      44.109  28.732  31.366  1.00  0.00     0.031 A 
BRANCH  48  62
ATOM     62  C   UNL A   1      46.588  30.640  26.979  1.00  0.00    -0.014 A 
ATOM     63  C   UNL A   1      47.656  31.550  27.144  1.00  0.00     0.010 A 
ATOM     64  C   UNL A   1      45.338  31.193  26.631  1.00  0.00     0.010 A 
ATOM     65  C   UNL A   1      47.464  32.936  27.042  1.00  0.00     0.020 A 
ATOM     66  C   UNL A   1      45.143  32.570  26.492  1.00  0.00     0.020 A 
ATOM     67  C   UNL A   1      46.202  33.436  26.725  1.00  0.00     0.054 A 
BRANCH  67  68
ATOM     68  S   UNL A   1      45.942  35.226  26.668  1.00  0.00     0.124 S 
ATOM     69  O   UNL A   1      46.953  35.644  25.702  1.00  0.00    -0.237 OA
ATOM     70  O   UNL A   1      44.556  35.318  26.221  1.00  0.00    -0.237 OA
ATOM     71  O   UNL A   1      46.175  35.646  28.048  1.00  0.00    -0.744 OA
ENDBRANCH  67  68
ENDBRANCH  48  62
BRANCH  49  72
ATOM     72  C   UNL A   1      38.744  28.850  29.008  1.00  0.00    -0.014 A 
ATOM     73  C   UNL A   1      37.827  29.092  30.053  1.00  0.00     0.010 A 
ATOM     74  C   UNL A   1      38.412  29.340  27.730  1.00  0.00     0.010 A 
ATOM     75  C   UNL A   1      36.663  29.854  29.841  1.00  0.00     0.020 A 
ATOM     76  C   UNL A   1      37.252  30.099  27.510  1.00  0.00     0.020 A 
ATOM     77  C   UNL A   1      36.394  30.374  28.573  1.00  0.00     0.054 A 
BRANCH  77  78
ATOM     78  S   UNL A   1      34.988  31.509  28.346  1.00  0.00     0.124 S 
ATOM     79  O   UNL A   1      33.999  30.658  27.692  1.00  0.00    -0.237 OA
ATOM     80  O   UNL A   1      34.671  31.906  29.715  1.00  0.00    -0.237 OA
ATOM     81  O   UNL A   1      35.537  32.575  27.507  1.00  0.00    -0.744 OA
ENDBRANCH  77  78
ENDBRANCH  49  72
BRANCH  61  82
ATOM     82  C   UNL A   1      43.929  27.797  32.526  1.00  0.00    -0.014 A 
ATOM     83  C   UNL A   1      43.530  28.174  33.820  1.00  0.00     0.010 A 
ATOM     84  C   UNL A   1      44.096  26.431  32.239  1.00  0.00     0.010 A 
ATOM     85  C   UNL A   1      43.321  27.199  34.807  1.00  0.00     0.020 A 
ATOM     86  C   UNL A   1      43.872  25.457  33.208  1.00  0.00     0.020 A 
ATOM     87  C   UNL A   1      43.495  25.845  34.492  1.00  0.00     0.054 A 
BRANCH  87  88
ATOM     88  S   UNL A   1      43.201  24.579  35.757  1.00  0.00     0.124 S 
ATOM     89  O   UNL A   1      44.226  23.584  35.454  1.00  0.00    -0.237 OA
ATOM     90  O   UNL A   1      43.388  25.317  37.003  1.00  0.00    -0.237 OA
ATOM     91  O   UNL A   1      41.827  24.145  35.505  1.00  0.00    -0.744 OA
ENDBRANCH  87  88
ENDBRANCH  61  82
ENDBRANCH  35  36
ENDBRANCH  27  30
ENDBRANCH  25  26
ENDBRANCH  24  25
ENDBRANCH   1  24
TORSDOF 17
ENDMDL
MODEL 2
REMARK VINA RESULT:     -11.3      2.859      9.460
REMARK SMILES C[N@H+]1[C@H]2CC[C@@H]1c1sc(=O)n(CCCC(=O)NCCCCNC(=O)c3ccc(-c4c5nc(c(-c6ccc(S(=O)(=O)[O-])cc6)c6ccc([nH]6)c(-c6ccc(S(=O)(=O)[O-])cc6)c6nc(c(-c7ccc(S(=O)(=O)[O-])cc7)c7ccc4[nH]7)C=C6)C=C5)cc3)c1C2
REMARK SMILES IDX 19 1 18 2 17 3 15 4 16 5 14 7 13 8 12 9 11 10 1 11 2 12 3 13
REMARK SMILES IDX 6 14 4 16 86 17 5 18 7 19 85 20 8 21 9 22 10 23 20 24 21 25
REMARK SMILES IDX 22 26 23 27 24 29 25 30 26 31 84 32 27 33 83 34 28 35 29 36
REMARK SMILES IDX 30 37 77 38 31 39 82 40 76 41 78 42 32 43 81 44 75 45 74 46
REMARK SMILES IDX 33 48 63 49 44 50 62 51 45 52 48 53 61 54 79 55 46 56 47 57
REMARK SMILES IDX 60 59 80 60 49 61 34 62 35 63 43 64 36 65 42 66 37 67 38 68
REMARK SMILES IDX 39 69 40 70 41 71 64 72 65 73 73 74 66 75 72 76 67 77 68 78
REMARK SMILES IDX 69 79 70 80 71 81 50 82 51 83 59 84 52 85 58 86 53 87 54 88
REMARK SMILES IDX 55 89 56 90 57 91
REMARK H PARENT 17 6 2 15 22 28 78 47 48 58
REMARK Flexibility Score: inf
ROOT
ATOM      1  C   UNL A   1      34.877  30.653  27.917  1.00  0.00     0.023 C 
ENDROOT
BRANCH   1   2
ATOM      2  C   UNL A   1      34.413  29.476  27.044  1.00  0.00     0.116 C 
BRANCH   2   3
ATOM      3  N   UNL A   1      33.299  28.782  27.655  1.00  0.00    -0.356 N 
ATOM      4  C   UNL A   1      32.028  28.559  27.228  1.00  0.00     0.220 C 
ATOM      5  O   UNL A   1      31.266  27.988  28.014  1.00  0.00    -0.275 OA
ATOM      6  H   UNL A   1      33.499  28.402  28.541  1.00  0.00     0.163 HD
BRANCH   4   7
ATOM      7  C   UNL A   1      31.558  28.900  25.826  1.00  0.00     0.102 C 
BRANCH   7   8
ATOM      8  C   UNL A   1      31.729  27.900  24.681  1.00  0.00     0.032 C 
BRANCH   8   9
ATOM      9  C   UNL A   1      31.868  26.396  24.914  1.00  0.00     0.127 C 
BRANCH   9  10
ATOM     10  N   UNL A   1      32.548  25.494  23.978  1.00  0.00    -0.302 N 
ATOM     11  C   UNL A   1      35.406  21.102  25.763  1.00  0.00     0.333 C 
ATOM     12  N   UNL A   1      34.731  22.328  25.355  1.00  0.00    -0.328 N 
ATOM     13  C   UNL A   1      35.217  23.545  26.037  1.00  0.00     0.190 C 
ATOM     14  C   UNL A   1      34.945  22.661  23.918  1.00  0.00     0.227 C 
ATOM     15  H   UNL A   1      33.760  22.115  25.585  1.00  0.00     0.348 HD
ATOM     16  C   UNL A   1      36.537  23.844  25.315  1.00  0.00     0.072 C 
ATOM     17  C   UNL A   1      34.143  24.665  25.827  1.00  0.00     0.120 C 
ATOM     18  C   UNL A   1      36.319  23.354  23.880  1.00  0.00     0.077 C 
ATOM     19  C   UNL A   1      33.917  23.695  23.563  1.00  0.00     0.087 A 
ATOM     20  C   UNL A   1      33.526  24.621  24.449  1.00  0.00     0.047 A 
ATOM     21  S   UNL A   1      33.130  23.861  22.047  1.00  0.00    -0.073 S 
ATOM     22  C   UNL A   1      32.239  25.283  22.637  1.00  0.00     0.307 A 
ATOM     23  O   UNL A   1      31.486  25.906  21.901  1.00  0.00    -0.257 OA
ENDBRANCH   9  10
ENDBRANCH   8   9
ENDBRANCH   7   8
ENDBRANCH   4   7
ENDBRANCH   2   3
ENDBRANCH   1   2
BRANCH   1  24
ATOM     24  C   UNL A   1      33.997  31.908  27.858  1.00  0.00     0.023 C 
BRANCH  24  25
ATOM     25  C   UNL A   1      34.766  33.218  27.958  1.00  0.00     0.116 C 
BRANCH  25  26
ATOM     26  N   UNL A   1      34.254  34.115  28.993  1.00  0.00    -0.352 N 
ATOM     27  C   UNL A   1      34.429  33.976  30.359  1.00  0.00     0.251 C 
ATOM     28  H   UNL A   1      33.734  34.894  28.688  1.00  0.00     0.163 HD
ATOM     29  O   UNL A   1      33.647  34.476  31.157  1.00  0.00    -0.269 OA
BRANCH  27  30
ATOM     30  C   UNL A   1      35.604  33.219  30.821  1.00  0.00     0.039 A 
ATOM     31  C   UNL A   1      35.495  31.908  31.287  1.00  0.00     0.014 A 
ATOM     32  C   UNL A   1      36.847  33.838  30.690  1.00  0.00     0.014 A 
ATOM     33  C   UNL A   1      36.664  31.187  31.527  1.00  0.00     0.010 A 
ATOM     34  C   UNL A   1      37.993  33.089  30.808  1.00  0.00     0.010 A 
ATOM     35  C   UNL A   1      37.916  31.771  31.252  1.00  0.00    -0.014 A 
BRANCH  35  36
ATOM     36  C   UNL A   1      39.126  30.945  31.204  1.00  0.00     0.031 A 
ATOM     37  C   UNL A   1      39.703  30.696  32.556  1.00  0.00     0.074 A 
ATOM     38  C   UNL A   1      39.538  30.271  30.104  1.00  0.00     0.049 A 
ATOM     39  N   UNL A   1      40.748  31.248  33.077  1.00  0.00    -0.248 NA
ATOM     40  C   UNL A   1      38.912  29.909  33.525  1.00  0.00     0.031 C 
ATOM     41  C   UNL A   1      38.850  30.198  28.807  1.00  0.00     0.029 A 
ATOM     42  N   UNL A   1      40.582  29.407  29.927  1.00  0.00    -0.354 N 
ATOM     43  C   UNL A   1      40.922  30.614  34.305  1.00  0.00     0.074 A 
ATOM     44  C   UNL A   1      39.648  30.032  34.634  1.00  0.00     0.031 C 
ATOM     45  C   UNL A   1      39.330  29.157  28.092  1.00  0.00     0.029 A 
ATOM     46  C   UNL A   1      40.477  28.606  28.787  1.00  0.00     0.049 A 
ATOM     47  H   UNL A   1      41.343  29.353  30.550  1.00  0.00     0.167 HD
ATOM     48  C   UNL A   1      42.173  30.264  34.721  1.00  0.00     0.031 A 
ATOM     49  C   UNL A   1      41.270  27.561  28.428  1.00  0.00     0.031 A 
ATOM     50  C   UNL A   1      43.175  30.892  33.897  1.00  0.00     0.049 A 
ATOM     51  C   UNL A   1      42.557  27.737  29.134  1.00  0.00     0.074 A 
ATOM     52  C   UNL A   1      43.670  32.157  33.678  1.00  0.00     0.029 A 
ATOM     53  N   UNL A   1      43.527  30.118  32.822  1.00  0.00    -0.354 N 
ATOM     54  N   UNL A   1      43.365  28.732  28.897  1.00  0.00    -0.248 NA
ATOM     55  C   UNL A   1      42.789  27.021  30.381  1.00  0.00     0.031 C 
ATOM     56  C   UNL A   1      44.189  32.149  32.347  1.00  0.00     0.029 A 
ATOM     57  C   UNL A   1      44.058  30.866  31.815  1.00  0.00     0.049 A 
ATOM     58  H   UNL A   1      43.409  29.141  32.783  1.00  0.00     0.167 HD
ATOM     59  C   UNL A   1      43.889  29.044  30.136  1.00  0.00     0.074 A 
ATOM     60  C   UNL A   1      43.644  27.867  30.963  1.00  0.00     0.031 C 
ATOM     61  C   UNL A   1      44.164  30.338  30.471  1.00  0.00     0.031 A 
BRANCH  48  62
ATOM     62  C   UNL A   1      42.501  28.941  35.402  1.00  0.00    -0.014 A 
ATOM     63  C   UNL A   1      43.493  28.940  36.409  1.00  0.00     0.010 A 
ATOM     64  C   UNL A   1      42.136  27.684  34.877  1.00  0.00     0.010 A 
ATOM     65  C   UNL A   1      44.133  27.757  36.808  1.00  0.00     0.020 A 
ATOM     66  C   UNL A   1      42.743  26.496  35.292  1.00  0.00     0.020 A 
ATOM     67  C   UNL A   1      43.758  26.542  36.237  1.00  0.00     0.054 A 
BRANCH  67  68
ATOM     68  S   UNL A   1      44.638  25.030  36.700  1.00  0.00     0.124 S 
ATOM     69  O   UNL A   1      44.473  25.021  38.150  1.00  0.00    -0.237 OA
ATOM     70  O   UNL A   1      43.896  24.010  35.966  1.00  0.00    -0.237 OA
ATOM     71  O   UNL A   1      45.997  25.270  36.221  1.00  0.00    -0.744 OA
ENDBRANCH  67  68
ENDBRANCH  48  62
BRANCH  49  72
ATOM     72  C   UNL A   1      40.934  26.314  27.689  1.00  0.00    -0.014 A 
ATOM     73  C   UNL A   1      41.880  25.675  26.861  1.00  0.00     0.010 A 
ATOM     74  C   UNL A   1      39.778  25.586  28.034  1.00  0.00     0.010 A 
ATOM     75  C   UNL A   1      41.709  24.337  26.456  1.00  0.00     0.020 A 
ATOM     76  C   UNL A   1      39.600  24.253  27.632  1.00  0.00     0.020 A 
ATOM     77  C   UNL A   1      40.580  23.625  26.865  1.00  0.00     0.054 A 
BRANCH  77  78
ATOM     78  S   UNL A   1      40.453  21.847  26.493  1.00  0.00     0.124 S 
ATOM     79  O   UNL A   1      39.144  21.752  25.854  1.00  0.00    -0.237 OA
ATOM     80  O   UNL A   1      41.600  21.619  25.618  1.00  0.00    -0.237 OA
ATOM     81  O   UNL A   1      40.546  21.212  27.808  1.00  0.00    -0.744 OA
ENDBRANCH  77  78
ENDBRANCH  49  72
BRANCH  61  82
ATOM     82  C   UNL A   1      44.489  31.304  29.371  1.00  0.00    -0.014 A 
ATOM     83  C   UNL A   1      45.700  31.347  28.658  1.00  0.00     0.010 A 
ATOM     84  C   UNL A   1      43.446  32.165  28.987  1.00  0.00     0.010 A 
ATOM     85  C   UNL A   1      45.862  32.249  27.595  1.00  0.00     0.020 A 
ATOM     86  C   UNL A   1      43.593  33.048  27.922  1.00  0.00     0.020 A 
ATOM     87  C   UNL A   1      44.805  33.095  27.236  1.00  0.00     0.054 A 
BRANCH  87  88
ATOM     88  S   UNL A   1      45.001  34.244  25.846  1.00  0.00     0.124 S 
ATOM     89  O   UNL A   1      44.794  35.544  26.478  1.00  0.00    -0.237 OA
ATOM     90  O   UNL A   1      46.362  33.973  25.391  1.00  0.00    -0.237 OA
ATOM     91  O   UNL A   1      43.953  33.840  24.909  1.00  0.00    -0.744 OA
ENDBRANCH  87  88
ENDBRANCH  61  82
ENDBRANCH  35  36
ENDBRANCH  27  30
ENDBRANCH  25  26
ENDBRANCH  24  25
ENDBRANCH   1  24
TORSDOF 17
ENDMDL
MODEL 3
REMARK VINA RESULT:     -11.1      1.678      2.325
REMARK SMILES C[N@H+]1[C@H]2CC[C@@H]1c1sc(=O)n(CCCC(=O)NCCCCNC(=O)c3ccc(-c4c5nc(c(-c6ccc(S(=O)(=O)[O-])cc6)c6ccc([nH]6)c(-c6ccc(S(=O)(=O)[O-])cc6)c6nc(c(-c7ccc(S(=O)(=O)[O-])cc7)c7ccc4[nH]7)C=C6)C=C5)cc3)c1C2
REMARK SMILES IDX 19 1 18 2 17 3 15 4 16 5 14 7 13 8 12 9 11 10 1 11 2 12 3 13
REMARK SMILES IDX 6 14 4 16 86 17 5 18 7 19 85 20 8 21 9 22 10 23 20 24 21 25
REMARK SMILES IDX 22 26 23 27 24 29 25 30 26 31 84 32 27 33 83 34 28 35 29 36
REMARK SMILES IDX 30 37 77 38 31 39 82 40 76 41 78 42 32 43 81 44 75 45 74 46
REMARK SMILES IDX 33 48 63 49 44 50 62 51 45 52 48 53 61 54 79 55 46 56 47 57
REMARK SMILES IDX 60 59 80 60 49 61 34 62 35 63 43 64 36 65 42 66 37 67 38 68
REMARK SMILES IDX 39 69 40 70 41 71 64 72 65 73 73 74 66 75 72 76 67 77 68 78
REMARK SMILES IDX 69 79 70 80 71 81 50 82 51 83 59 84 52 85 58 86 53 87 54 88
REMARK SMILES IDX 55 89 56 90 57 91
REMARK H PARENT 17 6 2 15 22 28 78 47 48 58
REMARK Flexibility Score: inf
ROOT
ATOM      1  C   UNL A   1      39.360  23.234  26.676  1.00  0.00     0.023 C 
ENDROOT
BRANCH   1   2
ATOM      2  C   UNL A   1      37.928  23.577  26.233  1.00  0.00     0.116 C 
BRANCH   2   3
ATOM      3  N   UNL A   1      37.770  23.404  24.804  1.00  0.00    -0.356 N 
ATOM      4  C   UNL A   1      36.679  23.138  24.040  1.00  0.00     0.220 C 
ATOM      5  O   UNL A   1      36.869  22.969  22.831  1.00  0.00    -0.275 OA
ATOM      6  H   UNL A   1      38.607  23.496  24.293  1.00  0.00     0.163 HD
BRANCH   4   7
ATOM      7  C   UNL A   1      35.266  23.130  24.595  1.00  0.00     0.102 C 
BRANCH   7   8
ATOM      8  C   UNL A   1      34.272  22.044  24.182  1.00  0.00     0.032 C 
BRANCH   8   9
ATOM      9  C   UNL A   1      33.056  22.330  23.301  1.00  0.00     0.127 C 
BRANCH   9  10
ATOM     10  N   UNL A   1      32.674  23.679  22.866  1.00  0.00    -0.302 N 
ATOM     11  C   UNL A   1      31.657  27.710  26.521  1.00  0.00     0.333 C 
ATOM     12  N   UNL A   1      31.833  26.587  25.608  1.00  0.00    -0.328 N 
ATOM     13  C   UNL A   1      30.998  25.410  25.926  1.00  0.00     0.190 C 
ATOM     14  C   UNL A   1      31.420  26.903  24.210  1.00  0.00     0.227 C 
ATOM     15  H   UNL A   1      32.829  26.395  25.706  1.00  0.00     0.348 HD
ATOM     16  C   UNL A   1      29.612  25.817  25.410  1.00  0.00     0.072 C 
ATOM     17  C   UNL A   1      31.597  24.185  25.154  1.00  0.00     0.120 C 
ATOM     18  C   UNL A   1      29.891  26.723  24.207  1.00  0.00     0.077 C 
ATOM     19  C   UNL A   1      31.996  25.822  23.343  1.00  0.00     0.087 A 
ATOM     20  C   UNL A   1      32.096  24.559  23.778  1.00  0.00     0.047 A 
ATOM     21  S   UNL A   1      32.572  26.012  21.737  1.00  0.00    -0.073 S 
ATOM     22  C   UNL A   1      32.947  24.277  21.639  1.00  0.00     0.307 A 
ATOM     23  O   UNL A   1      33.384  23.782  20.609  1.00  0.00    -0.257 OA
ENDBRANCH   9  10
ENDBRANCH   8   9
ENDBRANCH   7   8
ENDBRANCH   4   7
ENDBRANCH   2   3
ENDBRANCH   1   2
BRANCH   1  24
ATOM     24  C   UNL A   1      39.757  21.758  26.547  1.00  0.00     0.023 C 
BRANCH  24  25
ATOM     25  C   UNL A   1      40.913  21.339  27.445  1.00  0.00     0.116 C 
BRANCH  25  26
ATOM     26  N   UNL A   1      42.019  20.718  26.717  1.00  0.00    -0.352 N 
ATOM     27  C   UNL A   1      43.009  21.378  26.009  1.00  0.00     0.251 C 
ATOM     28  H   UNL A   1      42.063  19.734  26.732  1.00  0.00     0.163 HD
ATOM     29  O   UNL A   1      43.617  20.830  25.099  1.00  0.00    -0.269 OA
BRANCH  27  30
ATOM     30  C   UNL A   1      43.320  22.762  26.403  1.00  0.00     0.039 A 
ATOM     31  C   UNL A   1      42.892  23.855  25.647  1.00  0.00     0.014 A 
ATOM     32  C   UNL A   1      43.987  22.940  27.616  1.00  0.00     0.014 A 
ATOM     33  C   UNL A   1      43.054  25.134  26.175  1.00  0.00     0.010 A 
ATOM     34  C   UNL A   1      44.034  24.189  28.187  1.00  0.00     0.010 A 
ATOM     35  C   UNL A   1      43.595  25.296  27.465  1.00  0.00    -0.014 A 
BRANCH  35  36
ATOM     36  C   UNL A   1      43.495  26.586  28.156  1.00  0.00     0.031 A 
ATOM     37  C   UNL A   1      44.737  27.400  28.032  1.00  0.00     0.074 A 
ATOM     38  C   UNL A   1      42.336  27.098  28.635  1.00  0.00     0.049 A 
ATOM     39  N   UNL A   1      45.641  27.596  28.934  1.00  0.00    -0.248 NA
ATOM     40  C   UNL A   1      45.137  27.875  26.691  1.00  0.00     0.031 C 
ATOM     41  C   UNL A   1      40.996  26.508  28.515  1.00  0.00     0.029 A 
ATOM     42  N   UNL A   1      42.070  28.305  29.219  1.00  0.00    -0.354 N 
ATOM     43  C   UNL A   1      46.538  28.494  28.363  1.00  0.00     0.074 A 
ATOM     44  C   UNL A   1      46.338  28.405  26.942  1.00  0.00     0.031 C 
ATOM     45  C   UNL A   1      40.057  27.448  28.757  1.00  0.00     0.029 A 
ATOM     46  C   UNL A   1      40.716  28.651  29.231  1.00  0.00     0.049 A 
ATOM     47  H   UNL A   1      42.773  28.881  29.600  1.00  0.00     0.167 HD
ATOM     48  C   UNL A   1      47.046  29.517  29.109  1.00  0.00     0.031 A 
ATOM     49  C   UNL A   1      40.163  29.836  29.600  1.00  0.00     0.031 A 
ATOM     50  C   UNL A   1      46.762  29.315  30.507  1.00  0.00     0.049 A 
ATOM     51  C   UNL A   1      41.140  30.510  30.481  1.00  0.00     0.074 A 
ATOM     52  C   UNL A   1      47.155  28.467  31.517  1.00  0.00     0.029 A 
ATOM     53  N   UNL A   1      45.574  29.886  30.886  1.00  0.00    -0.354 N 
ATOM     54  N   UNL A   1      41.482  30.041  31.649  1.00  0.00    -0.248 NA
ATOM     55  C   UNL A   1      42.037  31.511  29.919  1.00  0.00     0.031 C 
ATOM     56  C   UNL A   1      46.068  28.429  32.442  1.00  0.00     0.029 A 
ATOM     57  C   UNL A   1      45.070  29.303  32.008  1.00  0.00     0.049 A 
ATOM     58  H   UNL A   1      45.140  30.627  30.404  1.00  0.00     0.167 HD
ATOM     59  C   UNL A   1      42.827  30.337  31.751  1.00  0.00     0.074 A 
ATOM     60  C   UNL A   1      43.067  31.380  30.759  1.00  0.00     0.031 C 
ATOM     61  C   UNL A   1      43.683  29.482  32.382  1.00  0.00     0.031 A 
BRANCH  48  62
ATOM     62  C   UNL A   1      47.221  30.940  28.589  1.00  0.00    -0.014 A 
ATOM     63  C   UNL A   1      46.100  31.580  28.015  1.00  0.00     0.010 A 
ATOM     64  C   UNL A   1      48.479  31.525  28.336  1.00  0.00     0.010 A 
ATOM     65  C   UNL A   1      46.241  32.696  27.176  1.00  0.00     0.020 A 
ATOM     66  C   UNL A   1      48.628  32.657  27.530  1.00  0.00     0.020 A 
ATOM     67  C   UNL A   1      47.509  33.220  26.932  1.00  0.00     0.054 A 
BRANCH  67  68
ATOM     68  S   UNL A   1      47.693  34.612  25.791  1.00  0.00     0.124 S 
ATOM     69  O   UNL A   1      48.898  34.241  25.057  1.00  0.00    -0.237 OA
ATOM     70  O   UNL A   1      46.443  34.555  25.037  1.00  0.00    -0.237 OA
ATOM     71  O   UNL A   1      47.825  35.764  26.681  1.00  0.00    -0.744 OA
ENDBRANCH  67  68
ENDBRANCH  48  62
BRANCH  49  72
ATOM     72  C   UNL A   1      38.949  30.528  29.087  1.00  0.00    -0.014 A 
ATOM     73  C   UNL A   1      37.992  29.847  28.307  1.00  0.00     0.010 A 
ATOM     74  C   UNL A   1      38.581  31.780  29.617  1.00  0.00     0.010 A 
ATOM     75  C   UNL A   1      36.695  30.366  28.126  1.00  0.00     0.020 A 
ATOM     76  C   UNL A   1      37.291  32.305  29.439  1.00  0.00     0.020 A 
ATOM     77  C   UNL A   1      36.345  31.583  28.714  1.00  0.00     0.054 A 
BRANCH  77  78
ATOM     78  S   UNL A   1      34.619  32.158  28.632  1.00  0.00     0.124 S 
ATOM     79  O   UNL A   1      34.718  33.324  27.759  1.00  0.00    -0.237 OA
ATOM     80  O   UNL A   1      33.922  31.006  28.067  1.00  0.00    -0.237 OA
ATOM     81  O   UNL A   1      34.287  32.455  30.025  1.00  0.00    -0.744 OA
ENDBRANCH  77  78
ENDBRANCH  49  72
BRANCH  61  82
ATOM     82  C   UNL A   1      43.134  28.590  33.457  1.00  0.00    -0.014 A 
ATOM     83  C   UNL A   1      42.856  27.220  33.311  1.00  0.00     0.010 A 
ATOM     84  C   UNL A   1      42.979  29.183  34.722  1.00  0.00     0.010 A 
ATOM     85  C   UNL A   1      42.415  26.468  34.412  1.00  0.00     0.020 A 
ATOM     86  C   UNL A   1      42.561  28.439  35.821  1.00  0.00     0.020 A 
ATOM     87  C   UNL A   1      42.270  27.086  35.660  1.00  0.00     0.054 A 
BRANCH  87  88
ATOM     88  S   UNL A   1      41.726  26.113  37.091  1.00  0.00     0.124 S 
ATOM     89  O   UNL A   1      41.570  24.776  36.525  1.00  0.00    -0.237 OA
ATOM     90  O   UNL A   1      42.832  26.274  38.031  1.00  0.00    -0.237 OA
ATOM     91  O   UNL A   1      40.480  26.760  37.500  1.00  0.00    -0.744 OA
ENDBRANCH  87  88
ENDBRANCH  61  82
ENDBRANCH  35  36
ENDBRANCH  27  30
ENDBRANCH  25  26
ENDBRANCH  24  25
ENDBRANCH   1  24
TORSDOF 17
ENDMDL
