MODEL 1
REMARK VINA RESULT:     -10.3      0.000      0.000
REMARK SMILES CC(C)(C(=O)NCCCCNC(=O)c1ccc(-c2c3nc(c(-c4ccc(S(=O)(=O)[O-])cc4)c4ccc([nH]4)c(-c4ccc(S(=O)(=O)[O-])cc4)c4nc(c(-c5ccc(S(=O)(=O)[O-])cc5)c5ccc2[nH]5)C=C4)C=C3)cc1)n1nnnc1C(F)(F)C(F)F
REMARK SMILES IDX 8 1 7 2 6 3 4 4 5 5 2 7 1 8 3 9 74 10 75 11 78 12 76 13
REMARK SMILES IDX 77 14 79 15 80 16 81 17 82 18 83 19 84 20 9 21 10 22 11 23
REMARK SMILES IDX 12 24 13 26 14 27 15 28 73 29 16 30 72 31 17 32 18 33 19 34
REMARK SMILES IDX 66 35 20 36 71 37 65 38 67 39 21 40 70 41 64 42 63 43 22 45
REMARK SMILES IDX 52 46 33 47 51 48 34 49 37 50 50 51 68 52 35 53 36 54 49 56
REMARK SMILES IDX 69 57 38 58 23 59 24 60 32 61 25 62 31 63 26 64 27 65 28 66
REMARK SMILES IDX 29 67 30 68 53 69 54 70 62 71 55 72 61 73 56 74 57 75 58 76
REMARK SMILES IDX 59 77 60 78 39 79 40 80 48 81 41 82 47 83 42 84 43 85 44 86
REMARK SMILES IDX 45 87 46 88
REMARK H PARENT 6 6 11 25 67 44 37 55
REMARK Flexibility Score: inf
ROOT
ATOM      1  C   UNL A   1      31.259  27.356  26.458  1.00  0.00     0.023 C 
ENDROOT
BRANCH   1   2
ATOM      2  C   UNL A   1      32.038  26.763  25.288  1.00  0.00     0.116 C 
BRANCH   2   3
ATOM      3  N   UNL A   1      31.198  26.100  24.309  1.00  0.00    -0.354 N 
ATOM      4  C   UNL A   1      31.229  24.842  23.777  1.00  0.00     0.247 C 
ATOM      5  O   UNL A   1      30.190  24.479  23.214  1.00  0.00    -0.272 OA
ATOM      6  H   UNL A   1      30.468  26.662  23.964  1.00  0.00     0.163 HD
BRANCH   4   7
ATOM      7  C   UNL A   1      32.458  23.899  23.877  1.00  0.00     0.139 C 
ATOM      8  C   UNL A   1      32.234  22.632  22.996  1.00  0.00     0.047 C 
ATOM      9  C   UNL A   1      33.722  24.573  23.346  1.00  0.00     0.047 C 
BRANCH   7  10
ATOM     10  N   UNL A   1      32.563  23.452  25.292  1.00  0.00    -0.209 N 
ATOM     11  N   UNL A   1      31.438  23.669  26.031  1.00  0.00    -0.044 NA
ATOM     12  C   UNL A   1      33.494  22.838  26.121  1.00  0.00     0.228 A 
ATOM     13  N   UNL A   1      31.646  23.153  27.219  1.00  0.00    -0.024 NA
ATOM     14  N   UNL A   1      32.886  22.628  27.288  1.00  0.00    -0.107 NA
BRANCH  12  15
ATOM     15  C   UNL A   1      34.915  22.383  25.995  1.00  0.00     0.367 C 
ATOM     16  F   UNL A   1      35.098  21.352  26.898  1.00  0.00    -0.191 F 
ATOM     17  F   UNL A   1      35.079  21.770  24.773  1.00  0.00    -0.191 F 
BRANCH  15  18
ATOM     18  C   UNL A   1      36.109  23.290  26.197  1.00  0.00     0.419 C 
ATOM     19  F   UNL A   1      37.248  22.748  25.694  1.00  0.00    -0.203 F 
ATOM     20  F   UNL A   1      35.944  24.500  25.617  1.00  0.00    -0.203 F 
ENDBRANCH  15  18
ENDBRANCH  12  15
ENDBRANCH   7  10
ENDBRANCH   4   7
ENDBRANCH   2   3
ENDBRANCH   1   2
BRANCH   1  21
ATOM     21  C   UNL A   1      32.105  27.857  27.630  1.00  0.00     0.023 C 
BRANCH  21  22
ATOM     22  C   UNL A   1      33.408  28.557  27.261  1.00  0.00     0.116 C 
BRANCH  22  23
ATOM     23  N   UNL A   1      33.420  29.978  27.591  1.00  0.00    -0.352 N 
ATOM     24  C   UNL A   1      34.434  30.748  28.107  1.00  0.00     0.251 C 
ATOM     25  H   UNL A   1      32.577  30.456  27.419  1.00  0.00     0.163 HD
ATOM     26  O   UNL A   1      34.225  31.915  28.405  1.00  0.00    -0.269 OA
BRANCH  24  27
ATOM     27  C   UNL A   1      35.766  30.144  28.338  1.00  0.00     0.039 A 
ATOM     28  C   UNL A   1      36.694  30.137  27.292  1.00  0.00     0.014 A 
ATOM     29  C   UNL A   1      36.111  29.631  29.590  1.00  0.00     0.014 A 
ATOM     30  C   UNL A   1      37.996  29.696  27.531  1.00  0.00     0.010 A 
ATOM     31  C   UNL A   1      37.429  29.266  29.845  1.00  0.00     0.010 A 
ATOM     32  C   UNL A   1      38.388  29.302  28.820  1.00  0.00    -0.014 A 
BRANCH  32  33
ATOM     33  C   UNL A   1      39.797  28.942  29.126  1.00  0.00     0.031 A 
ATOM     34  C   UNL A   1      40.718  29.958  29.746  1.00  0.00     0.074 A 
ATOM     35  C   UNL A   1      40.268  27.729  28.773  1.00  0.00     0.049 A 
ATOM     36  N   UNL A   1      41.995  29.857  30.012  1.00  0.00    -0.248 NA
ATOM     37  C   UNL A   1      40.135  31.266  30.084  1.00  0.00     0.031 C 
ATOM     38  C   UNL A   1      39.490  26.671  28.121  1.00  0.00     0.029 A 
ATOM     39  N   UNL A   1      41.521  27.183  28.903  1.00  0.00    -0.354 N 
ATOM     40  C   UNL A   1      42.373  31.094  30.523  1.00  0.00     0.074 A 
ATOM     41  C   UNL A   1      41.201  31.941  30.487  1.00  0.00     0.031 C 
ATOM     42  C   UNL A   1      40.275  25.597  27.937  1.00  0.00     0.029 A 
ATOM     43  C   UNL A   1      41.619  25.900  28.418  1.00  0.00     0.049 A 
ATOM     44  H   UNL A   1      42.279  27.665  29.307  1.00  0.00     0.167 HD
ATOM     45  C   UNL A   1      43.580  31.484  30.995  1.00  0.00     0.031 A 
ATOM     46  C   UNL A   1      42.673  25.062  28.361  1.00  0.00     0.031 A 
ATOM     47  C   UNL A   1      44.738  30.632  31.051  1.00  0.00     0.049 A 
ATOM     48  C   UNL A   1      44.001  25.515  28.901  1.00  0.00     0.074 A 
ATOM     49  C   UNL A   1      45.987  30.914  31.577  1.00  0.00     0.029 A 
ATOM     50  N   UNL A   1      44.788  29.333  30.570  1.00  0.00    -0.354 N 
ATOM     51  N   UNL A   1      44.320  26.666  29.442  1.00  0.00    -0.248 NA
ATOM     52  C   UNL A   1      45.108  24.551  28.833  1.00  0.00     0.031 C 
ATOM     53  C   UNL A   1      46.807  29.798  31.373  1.00  0.00     0.029 A 
ATOM     54  C   UNL A   1      46.053  28.806  30.767  1.00  0.00     0.049 A 
ATOM     55  H   UNL A   1      44.037  28.857  30.150  1.00  0.00     0.167 HD
ATOM     56  C   UNL A   1      45.658  26.556  29.804  1.00  0.00     0.074 A 
ATOM     57  C   UNL A   1      46.083  25.222  29.432  1.00  0.00     0.031 C 
ATOM     58  C   UNL A   1      46.460  27.475  30.395  1.00  0.00     0.031 A 
BRANCH  45  59
ATOM     59  C   UNL A   1      43.709  32.902  31.486  1.00  0.00    -0.014 A 
ATOM     60  C   UNL A   1      44.132  33.932  30.627  1.00  0.00     0.010 A 
ATOM     61  C   UNL A   1      43.371  33.214  32.816  1.00  0.00     0.010 A 
ATOM     62  C   UNL A   1      44.259  35.240  31.100  1.00  0.00     0.020 A 
ATOM     63  C   UNL A   1      43.471  34.527  33.285  1.00  0.00     0.020 A 
ATOM     64  C   UNL A   1      43.932  35.529  32.427  1.00  0.00     0.054 A 
BRANCH  64  65
ATOM     65  S   UNL A   1      44.091  37.238  33.011  1.00  0.00     0.124 S 
ATOM     66  O   UNL A   1      45.444  37.242  33.563  1.00  0.00    -0.237 OA
ATOM     67  O   UNL A   1      43.912  38.014  31.786  1.00  0.00    -0.237 OA
ATOM     68  O   UNL A   1      43.017  37.372  33.991  1.00  0.00    -0.744 OA
ENDBRANCH  64  65
ENDBRANCH  45  59
BRANCH  46  69
ATOM     69  C   UNL A   1      42.509  23.696  27.791  1.00  0.00    -0.014 A 
ATOM     70  C   UNL A   1      42.113  22.627  28.615  1.00  0.00     0.010 A 
ATOM     71  C   UNL A   1      42.737  23.458  26.424  1.00  0.00     0.010 A 
ATOM     72  C   UNL A   1      41.967  21.342  28.086  1.00  0.00     0.020 A 
ATOM     73  C   UNL A   1      42.567  22.178  25.886  1.00  0.00     0.020 A 
ATOM     74  C   UNL A   1      42.195  21.126  26.724  1.00  0.00     0.054 A 
BRANCH  74  75
ATOM     75  S   UNL A   1      41.949  19.459  26.050  1.00  0.00     0.124 S 
ATOM     76  O   UNL A   1      42.764  19.498  24.841  1.00  0.00    -0.237 OA
ATOM     77  O   UNL A   1      42.448  18.605  27.124  1.00  0.00    -0.237 OA
ATOM     78  O   UNL A   1      40.504  19.390  25.833  1.00  0.00    -0.744 OA
ENDBRANCH  74  75
ENDBRANCH  46  69
BRANCH  58  79
ATOM     79  C   UNL A   1      47.872  27.062  30.709  1.00  0.00    -0.014 A 
ATOM     80  C   UNL A   1      48.916  27.280  29.793  1.00  0.00     0.010 A 
ATOM     81  C   UNL A   1      48.165  26.498  31.964  1.00  0.00     0.010 A 
ATOM     82  C   UNL A   1      50.226  26.915  30.117  1.00  0.00     0.020 A 
ATOM     83  C   UNL A   1      49.476  26.156  32.302  1.00  0.00     0.020 A 
ATOM     84  C   UNL A   1      50.497  26.354  31.369  1.00  0.00     0.054 A 
BRANCH  84  85
ATOM     85  S   UNL A   1      52.211  25.933  31.786  1.00  0.00     0.124 S 
ATOM     86  O   UNL A   1      52.912  26.254  30.546  1.00  0.00    -0.237 OA
ATOM     87  O   UNL A   1      52.494  26.817  32.915  1.00  0.00    -0.237 OA
ATOM     88  O   UNL A   1      52.148  24.512  32.116  1.00  0.00    -0.744 OA
ENDBRANCH  84  85
ENDBRANCH  58  79
ENDBRANCH  32  33
ENDBRANCH  24  27
ENDBRANCH  22  23
ENDBRANCH  21  22
ENDBRANCH   1  21
TORSDOF 17
ENDMDL
MODEL 2
REMARK VINA RESULT:      -9.9      2.821      3.577
REMARK SMILES CC(C)(C(=O)NCCCCNC(=O)c1ccc(-c2c3nc(c(-c4ccc(S(=O)(=O)[O-])cc4)c4ccc([nH]4)c(-c4ccc(S(=O)(=O)[O-])cc4)c4nc(c(-c5ccc(S(=O)(=O)[O-])cc5)c5ccc2[nH]5)C=C4)C=C3)cc1)n1nnnc1C(F)(F)C(F)F
REMARK SMILES IDX 8 1 7 2 6 3 4 4 5 5 2 7 1 8 3 9 74 10 75 11 78 12 76 13
REMARK SMILES IDX 77 14 79 15 80 16 81 17 82 18 83 19 84 20 9 21 10 22 11 23
REMARK SMILES IDX 12 24 13 26 14 27 15 28 73 29 16 30 72 31 17 32 18 33 19 34
REMARK SMILES IDX 66 35 20 36 71 37 65 38 67 39 21 40 70 41 64 42 63 43 22 45
REMARK SMILES IDX 52 46 33 47 51 48 34 49 37 50 50 51 68 52 35 53 36 54 49 56
REMARK SMILES IDX 69 57 38 58 23 59 24 60 32 61 25 62 31 63 26 64 27 65 28 66
REMARK SMILES IDX 29 67 30 68 53 69 54 70 62 71 55 72 61 73 56 74 57 75 58 76
REMARK SMILES IDX 59 77 60 78 39 79 40 80 48 81 41 82 47 83 42 84 43 85 44 86
REMARK SMILES IDX 45 87 46 88
REMARK H PARENT 6 6 11 25 67 44 37 55
REMARK Flexibility Score: inf
ROOT
ATOM      1  C   UNL A   1      32.948  29.306  27.152  1.00  0.00     0.023 C 
ENDROOT
BRANCH   1   2
ATOM      2  C   UNL A   1      32.014  28.128  26.892  1.00  0.00     0.116 C 
BRANCH   2   3
ATOM      3  N   UNL A   1      31.614  28.001  25.503  1.00  0.00    -0.354 N 
ATOM      4  C   UNL A   1      31.606  26.937  24.646  1.00  0.00     0.247 C 
ATOM      5  O   UNL A   1      30.908  27.077  23.635  1.00  0.00    -0.272 OA
ATOM      6  H   UNL A   1      31.287  28.839  25.104  1.00  0.00     0.163 HD
BRANCH   4   7
ATOM      7  C   UNL A   1      32.386  25.620  24.906  1.00  0.00     0.139 C 
ATOM      8  C   UNL A   1      32.483  24.788  23.591  1.00  0.00     0.047 C 
ATOM      9  C   UNL A   1      33.823  25.902  25.343  1.00  0.00     0.047 C 
BRANCH   7  10
ATOM     10  N   UNL A   1      31.603  24.825  25.888  1.00  0.00    -0.209 N 
ATOM     11  N   UNL A   1      30.332  25.279  26.089  1.00  0.00    -0.044 NA
ATOM     12  C   UNL A   1      31.773  23.699  26.685  1.00  0.00     0.228 A 
ATOM     13  N   UNL A   1      29.742  24.438  26.905  1.00  0.00    -0.024 NA
ATOM     14  N   UNL A   1      30.597  23.461  27.266  1.00  0.00    -0.107 NA
BRANCH  12  15
ATOM     15  C   UNL A   1      32.897  22.760  26.999  1.00  0.00     0.367 C 
ATOM     16  F   UNL A   1      34.004  23.530  27.302  1.00  0.00    -0.191 F 
ATOM     17  F   UNL A   1      32.621  22.117  28.184  1.00  0.00    -0.191 F 
BRANCH  15  18
ATOM     18  C   UNL A   1      33.408  21.711  26.037  1.00  0.00     0.419 C 
ATOM     19  F   UNL A   1      33.659  20.531  26.660  1.00  0.00    -0.203 F 
ATOM     20  F   UNL A   1      32.538  21.462  25.031  1.00  0.00    -0.203 F 
ENDBRANCH  15  18
ENDBRANCH  12  15
ENDBRANCH   7  10
ENDBRANCH   4   7
ENDBRANCH   2   3
ENDBRANCH   1   2
BRANCH   1  21
ATOM     21  C   UNL A   1      34.420  28.948  27.364  1.00  0.00     0.023 C 
BRANCH  21  22
ATOM     22  C   UNL A   1      35.355  30.117  27.657  1.00  0.00     0.116 C 
BRANCH  22  23
ATOM     23  N   UNL A   1      35.376  30.507  29.063  1.00  0.00    -0.352 N 
ATOM     24  C   UNL A   1      36.365  30.342  30.002  1.00  0.00     0.251 C 
ATOM     25  H   UNL A   1      34.562  30.957  29.387  1.00  0.00     0.163 HD
ATOM     26  O   UNL A   1      36.162  30.657  31.166  1.00  0.00    -0.269 OA
BRANCH  24  27
ATOM     27  C   UNL A   1      37.658  29.740  29.605  1.00  0.00     0.039 A 
ATOM     28  C   UNL A   1      38.070  29.846  28.273  1.00  0.00     0.014 A 
ATOM     29  C   UNL A   1      38.477  29.117  30.549  1.00  0.00     0.014 A 
ATOM     30  C   UNL A   1      39.344  29.405  27.910  1.00  0.00     0.010 A 
ATOM     31  C   UNL A   1      39.773  28.750  30.200  1.00  0.00     0.010 A 
ATOM     32  C   UNL A   1      40.223  28.898  28.879  1.00  0.00    -0.014 A 
BRANCH  32  33
ATOM     33  C   UNL A   1      41.623  28.533  28.540  1.00  0.00     0.031 A 
ATOM     34  C   UNL A   1      42.694  29.590  28.519  1.00  0.00     0.074 A 
ATOM     35  C   UNL A   1      41.914  27.268  28.175  1.00  0.00     0.049 A 
ATOM     36  N   UNL A   1      43.951  29.481  28.171  1.00  0.00    -0.248 NA
ATOM     37  C   UNL A   1      42.295  30.951  28.910  1.00  0.00     0.031 C 
ATOM     38  C   UNL A   1      40.956  26.160  28.108  1.00  0.00     0.029 A 
ATOM     39  N   UNL A   1      43.100  26.701  27.780  1.00  0.00    -0.354 N 
ATOM     40  C   UNL A   1      44.484  30.761  28.277  1.00  0.00     0.074 A 
ATOM     41  C   UNL A   1      43.404  31.636  28.677  1.00  0.00     0.031 C 
ATOM     42  C   UNL A   1      41.599  25.045  27.725  1.00  0.00     0.029 A 
ATOM     43  C   UNL A   1      43.002  25.362  27.481  1.00  0.00     0.049 A 
ATOM     44  H   UNL A   1      43.943  27.206  27.716  1.00  0.00     0.167 HD
ATOM     45  C   UNL A   1      45.760  31.168  28.076  1.00  0.00     0.031 A 
ATOM     46  C   UNL A   1      43.934  24.488  27.053  1.00  0.00     0.031 A 
ATOM     47  C   UNL A   1      46.837  30.292  27.702  1.00  0.00     0.049 A 
ATOM     48  C   UNL A   1      45.346  24.963  26.848  1.00  0.00     0.074 A 
ATOM     49  C   UNL A   1      48.178  30.597  27.543  1.00  0.00     0.029 A 
ATOM     50  N   UNL A   1      46.699  28.939  27.431  1.00  0.00    -0.354 N 
ATOM     51  N   UNL A   1      45.844  26.164  27.019  1.00  0.00    -0.248 NA
ATOM     52  C   UNL A   1      46.324  23.960  26.403  1.00  0.00     0.031 C 
ATOM     53  C   UNL A   1      48.843  29.436  27.133  1.00  0.00     0.029 A 
ATOM     54  C   UNL A   1      47.926  28.399  27.087  1.00  0.00     0.049 A 
ATOM     55  H   UNL A   1      45.853  28.438  27.477  1.00  0.00     0.167 HD
ATOM     56  C   UNL A   1      47.199  26.056  26.729  1.00  0.00     0.074 A 
ATOM     57  C   UNL A   1      47.444  24.671  26.384  1.00  0.00     0.031 C 
ATOM     58  C   UNL A   1      48.154  27.017  26.750  1.00  0.00     0.031 A 
BRANCH  45  59
ATOM     59  C   UNL A   1      46.057  32.633  28.257  1.00  0.00    -0.014 A 
ATOM     60  C   UNL A   1      46.367  33.160  29.524  1.00  0.00     0.010 A 
ATOM     61  C   UNL A   1      46.059  33.489  27.140  1.00  0.00     0.010 A 
ATOM     62  C   UNL A   1      46.628  34.523  29.679  1.00  0.00     0.020 A 
ATOM     63  C   UNL A   1      46.347  34.849  27.287  1.00  0.00     0.020 A 
ATOM     64  C   UNL A   1      46.612  35.360  28.560  1.00  0.00     0.054 A 
BRANCH  64  65
ATOM     65  S   UNL A   1      46.970  37.124  28.786  1.00  0.00     0.124 S 
ATOM     66  O   UNL A   1      46.803  37.640  27.430  1.00  0.00    -0.237 OA
ATOM     67  O   UNL A   1      45.949  37.538  29.746  1.00  0.00    -0.237 OA
ATOM     68  O   UNL A   1      48.339  37.137  29.295  1.00  0.00    -0.744 OA
ENDBRANCH  64  65
ENDBRANCH  45  59
BRANCH  46  69
ATOM     69  C   UNL A   1      43.567  23.065  26.815  1.00  0.00    -0.014 A 
ATOM     70  C   UNL A   1      43.063  22.277  27.864  1.00  0.00     0.010 A 
ATOM     71  C   UNL A   1      43.709  22.494  25.537  1.00  0.00     0.010 A 
ATOM     72  C   UNL A   1      42.726  20.939  27.646  1.00  0.00     0.020 A 
ATOM     73  C   UNL A   1      43.350  21.162  25.309  1.00  0.00     0.020 A 
ATOM     74  C   UNL A   1      42.872  20.389  26.369  1.00  0.00     0.054 A 
BRANCH  74  75
ATOM     75  S   UNL A   1      42.379  18.663  26.097  1.00  0.00     0.124 S 
ATOM     76  O   UNL A   1      43.311  18.242  25.058  1.00  0.00    -0.237 OA
ATOM     77  O   UNL A   1      42.585  18.064  27.414  1.00  0.00    -0.237 OA
ATOM     78  O   UNL A   1      40.981  18.771  25.683  1.00  0.00    -0.744 OA
ENDBRANCH  74  75
ENDBRANCH  46  69
BRANCH  58  79
ATOM     79  C   UNL A   1      49.563  26.601  26.423  1.00  0.00    -0.014 A 
ATOM     80  C   UNL A   1      50.095  26.778  25.135  1.00  0.00     0.010 A 
ATOM     81  C   UNL A   1      50.382  26.076  27.439  1.00  0.00     0.010 A 
ATOM     82  C   UNL A   1      51.416  26.411  24.861  1.00  0.00     0.020 A 
ATOM     83  C   UNL A   1      51.710  25.732  27.176  1.00  0.00     0.020 A 
ATOM     84  C   UNL A   1      52.214  25.890  25.883  1.00  0.00     0.054 A 
BRANCH  84  85
ATOM     85  S   UNL A   1      53.939  25.466  25.517  1.00  0.00     0.124 S 
ATOM     86  O   UNL A   1      54.561  25.561  26.834  1.00  0.00    -0.237 OA
ATOM     87  O   UNL A   1      53.829  24.116  24.969  1.00  0.00    -0.237 OA
ATOM     88  O   UNL A   1      54.351  26.489  24.559  1.00  0.00    -0.744 OA
ENDBRANCH  84  85
ENDBRANCH  58  79
ENDBRANCH  32  33
ENDBRANCH  24  27
ENDBRANCH  22  23
ENDBRANCH  21  22
ENDBRANCH   1  21
TORSDOF 17
ENDMDL
MODEL 3
REMARK VINA RESULT:      -9.8      4.714     10.248
REMARK SMILES CC(C)(C(=O)NCCCCNC(=O)c1ccc(-c2c3nc(c(-c4ccc(S(=O)(=O)[O-])cc4)c4ccc([nH]4)c(-c4ccc(S(=O)(=O)[O-])cc4)c4nc(c(-c5ccc(S(=O)(=O)[O-])cc5)c5ccc2[nH]5)C=C4)C=C3)cc1)n1nnnc1C(F)(F)C(F)F
REMARK SMILES IDX 8 1 7 2 6 3 4 4 5 5 2 7 1 8 3 9 74 10 75 11 78 12 76 13
REMARK SMILES IDX 77 14 79 15 80 16 81 17 82 18 83 19 84 20 9 21 10 22 11 23
REMARK SMILES IDX 12 24 13 26 14 27 15 28 73 29 16 30 72 31 17 32 18 33 19 34
REMARK SMILES IDX 66 35 20 36 71 37 65 38 67 39 21 40 70 41 64 42 63 43 22 45
REMARK SMILES IDX 52 46 33 47 51 48 34 49 37 50 50 51 68 52 35 53 36 54 49 56
REMARK SMILES IDX 69 57 38 58 23 59 24 60 32 61 25 62 31 63 26 64 27 65 28 66
REMARK SMILES IDX 29 67 30 68 53 69 54 70 62 71 55 72 61 73 56 74 57 75 58 76
REMARK SMILES IDX 59 77 60 78 39 79 40 80 48 81 41 82 47 83 42 84 43 85 44 86
REMARK SMILES IDX 45 87 46 88
REMARK H PARENT 6 6 11 25 67 44 37 55
REMARK Flexibility Score: inf
ROOT
ATOM      1  C   UNL A   1      37.303  23.124  25.070  1.00  0.00     0.023 C 
ENDROOT
BRANCH   1   2
ATOM      2  C   UNL A   1      35.945  23.820  25.044  1.00  0.00     0.116 C 
BRANCH   2   3
ATOM      3  N   UNL A   1      35.214  23.618  23.807  1.00  0.00    -0.354 N 
ATOM      4  C   UNL A   1      34.061  22.943  23.525  1.00  0.00     0.247 C 
ATOM      5  O   UNL A   1      33.530  23.229  22.446  1.00  0.00    -0.272 OA
ATOM      6  H   UNL A   1      35.627  24.049  23.025  1.00  0.00     0.163 HD
BRANCH   4   7
ATOM      7  C   UNL A   1      33.420  21.902  24.482  1.00  0.00     0.139 C 
ATOM      8  C   UNL A   1      32.345  21.066  23.722  1.00  0.00     0.047 C 
ATOM      9  C   UNL A   1      34.457  20.904  24.994  1.00  0.00     0.047 C 
BRANCH   7  10
ATOM     10  N   UNL A   1      32.726  22.656  25.560  1.00  0.00    -0.209 N 
ATOM     11  N   UNL A   1      32.775  22.054  26.784  1.00  0.00    -0.044 NA
ATOM     12  C   UNL A   1      32.028  23.848  25.711  1.00  0.00     0.228 A 
ATOM     13  N   UNL A   1      32.203  22.865  27.641  1.00  0.00    -0.024 NA
ATOM     14  N   UNL A   1      31.756  23.970  27.010  1.00  0.00    -0.107 NA
BRANCH  12  15
ATOM     15  C   UNL A   1      31.562  24.947  24.806  1.00  0.00     0.367 C 
ATOM     16  F   UNL A   1      30.936  25.892  25.595  1.00  0.00    -0.191 F 
ATOM     17  F   UNL A   1      32.662  25.616  24.318  1.00  0.00    -0.191 F 
BRANCH  15  18
ATOM     18  C   UNL A   1      30.623  24.733  23.640  1.00  0.00     0.419 C 
ATOM     19  F   UNL A   1      31.140  25.212  22.479  1.00  0.00    -0.203 F 
ATOM     20  F   UNL A   1      30.327  23.428  23.445  1.00  0.00    -0.203 F 
ENDBRANCH  15  18
ENDBRANCH  12  15
ENDBRANCH   7  10
ENDBRANCH   4   7
ENDBRANCH   2   3
ENDBRANCH   1   2
BRANCH   1  21
ATOM     21  C   UNL A   1      38.102  23.281  26.364  1.00  0.00     0.023 C 
BRANCH  21  22
ATOM     22  C   UNL A   1      38.774  24.634  26.573  1.00  0.00     0.116 C 
BRANCH  22  23
ATOM     23  N   UNL A   1      39.961  24.828  25.747  1.00  0.00    -0.352 N 
ATOM     24  C   UNL A   1      41.027  25.675  25.931  1.00  0.00     0.251 C 
ATOM     25  H   UNL A   1      40.005  24.270  24.937  1.00  0.00     0.163 HD
ATOM     26  O   UNL A   1      41.894  25.763  25.073  1.00  0.00    -0.269 OA
BRANCH  24  27
ATOM     27  C   UNL A   1      41.096  26.509  27.152  1.00  0.00     0.039 A 
ATOM     28  C   UNL A   1      41.559  27.824  27.045  1.00  0.00     0.014 A 
ATOM     29  C   UNL A   1      40.664  26.012  28.383  1.00  0.00     0.014 A 
ATOM     30  C   UNL A   1      41.504  28.666  28.157  1.00  0.00     0.010 A 
ATOM     31  C   UNL A   1      40.538  26.875  29.468  1.00  0.00     0.010 A 
ATOM     32  C   UNL A   1      40.949  28.213  29.364  1.00  0.00    -0.014 A 
BRANCH  32  33
ATOM     33  C   UNL A   1      40.770  29.123  30.525  1.00  0.00     0.031 A 
ATOM     34  C   UNL A   1      41.631  28.962  31.749  1.00  0.00     0.074 A 
ATOM     35  C   UNL A   1      39.782  30.039  30.510  1.00  0.00     0.049 A 
ATOM     36  N   UNL A   1      41.572  29.605  32.887  1.00  0.00    -0.248 NA
ATOM     37  C   UNL A   1      42.675  27.927  31.698  1.00  0.00     0.031 C 
ATOM     38  C   UNL A   1      38.847  30.263  29.403  1.00  0.00     0.029 A 
ATOM     39  N   UNL A   1      39.390  30.950  31.460  1.00  0.00    -0.354 N 
ATOM     40  C   UNL A   1      42.549  29.035  33.694  1.00  0.00     0.074 A 
ATOM     41  C   UNL A   1      43.156  27.966  32.932  1.00  0.00     0.031 C 
ATOM     42  C   UNL A   1      38.012  31.264  29.727  1.00  0.00     0.029 A 
ATOM     43  C   UNL A   1      38.323  31.727  31.075  1.00  0.00     0.049 A 
ATOM     44  H   UNL A   1      39.832  31.038  32.335  1.00  0.00     0.167 HD
ATOM     45  C   UNL A   1      42.922  29.380  34.950  1.00  0.00     0.031 A 
ATOM     46  C   UNL A   1      37.664  32.701  31.734  1.00  0.00     0.031 A 
ATOM     47  C   UNL A   1      42.333  30.459  35.698  1.00  0.00     0.049 A 
ATOM     48  C   UNL A   1      38.104  33.073  33.124  1.00  0.00     0.074 A 
ATOM     49  C   UNL A   1      42.689  30.931  36.949  1.00  0.00     0.029 A 
ATOM     50  N   UNL A   1      41.271  31.235  35.262  1.00  0.00    -0.354 N 
ATOM     51  N   UNL A   1      39.075  32.566  33.843  1.00  0.00    -0.248 NA
ATOM     52  C   UNL A   1      37.363  34.157  33.785  1.00  0.00     0.031 C 
ATOM     53  C   UNL A   1      41.811  31.966  37.289  1.00  0.00     0.029 A 
ATOM     54  C   UNL A   1      40.943  32.171  36.229  1.00  0.00     0.049 A 
ATOM     55  H   UNL A   1      40.816  31.136  34.395  1.00  0.00     0.167 HD
ATOM     56  C   UNL A   1      39.081  33.287  35.032  1.00  0.00     0.074 A 
ATOM     57  C   UNL A   1      38.025  34.273  34.929  1.00  0.00     0.031 C 
ATOM     58  C   UNL A   1      39.891  33.147  36.110  1.00  0.00     0.031 A 
BRANCH  45  59
ATOM     59  C   UNL A   1      44.019  28.575  35.595  1.00  0.00    -0.014 A 
ATOM     60  C   UNL A   1      43.726  27.432  36.361  1.00  0.00     0.010 A 
ATOM     61  C   UNL A   1      45.362  28.948  35.407  1.00  0.00     0.010 A 
ATOM     62  C   UNL A   1      44.753  26.703  36.964  1.00  0.00     0.020 A 
ATOM     63  C   UNL A   1      46.395  28.204  35.986  1.00  0.00     0.020 A 
ATOM     64  C   UNL A   1      46.081  27.096  36.777  1.00  0.00     0.054 A 
BRANCH  64  65
ATOM     65  S   UNL A   1      47.396  26.122  37.559  1.00  0.00     0.124 S 
ATOM     66  O   UNL A   1      46.744  24.827  37.736  1.00  0.00    -0.237 OA
ATOM     67  O   UNL A   1      48.460  26.157  36.559  1.00  0.00    -0.237 OA
ATOM     68  O   UNL A   1      47.681  26.851  38.792  1.00  0.00    -0.744 OA
ENDBRANCH  64  65
ENDBRANCH  45  59
BRANCH  46  69
ATOM     69  C   UNL A   1      36.533  33.412  31.077  1.00  0.00    -0.014 A 
ATOM     70  C   UNL A   1      36.714  34.031  29.828  1.00  0.00     0.010 A 
ATOM     71  C   UNL A   1      35.269  33.466  31.691  1.00  0.00     0.010 A 
ATOM     72  C   UNL A   1      35.658  34.707  29.213  1.00  0.00     0.020 A 
ATOM     73  C   UNL A   1      34.203  34.121  31.066  1.00  0.00     0.020 A 
ATOM     74  C   UNL A   1      34.407  34.747  29.836  1.00  0.00     0.054 A 
BRANCH  74  75
ATOM     75  S   UNL A   1      33.037  35.587  28.994  1.00  0.00     0.124 S 
ATOM     76  O   UNL A   1      32.231  36.052  30.117  1.00  0.00    -0.237 OA
ATOM     77  O   UNL A   1      33.722  36.627  28.232  1.00  0.00    -0.237 OA
ATOM     78  O   UNL A   1      32.436  34.528  28.184  1.00  0.00    -0.744 OA
ENDBRANCH  74  75
ENDBRANCH  46  69
BRANCH  58  79
ATOM     79  C   UNL A   1      39.692  34.104  37.254  1.00  0.00    -0.014 A 
ATOM     80  C   UNL A   1      38.948  33.738  38.389  1.00  0.00     0.010 A 
ATOM     81  C   UNL A   1      40.308  35.368  37.214  1.00  0.00     0.010 A 
ATOM     82  C   UNL A   1      38.800  34.633  39.453  1.00  0.00     0.020 A 
ATOM     83  C   UNL A   1      40.185  36.255  38.285  1.00  0.00     0.020 A 
ATOM     84  C   UNL A   1      39.419  35.885  39.394  1.00  0.00     0.054 A 
BRANCH  84  85
ATOM     85  S   UNL A   1      39.254  37.010  40.807  1.00  0.00     0.124 S 
ATOM     86  O   UNL A   1      38.476  38.105  40.234  1.00  0.00    -0.237 OA
ATOM     87  O   UNL A   1      38.553  36.189  41.792  1.00  0.00    -0.237 OA
ATOM     88  O   UNL A   1      40.635  37.340  41.150  1.00  0.00    -0.744 OA
ENDBRANCH  84  85
ENDBRANCH  58  79
ENDBRANCH  32  33
ENDBRANCH  24  27
ENDBRANCH  22  23
ENDBRANCH  21  22
ENDBRANCH   1  21
TORSDOF 17
ENDMDL
