MODEL 1
REMARK VINA RESULT:     -11.7      0.000      0.000
REMARK SMILES COc1cc(C)cc2c1O[C@H](C(F)(F)F)C(C(=O)NCCCCNC(=O)c1ccc(-c3c4nc(c(-c5ccc(S(=O)(=O)[O-])cc5)c5ccc([nH]5)c(-c5ccc(S(=O)(=O)[O-])cc5)c5nc(c(-c6ccc(S(=O)(=O)[O-])cc6)c6ccc3[nH]6)C=C5)C=C4)cc1)=C2
REMARK SMILES IDX 22 1 21 2 20 3 19 4 17 5 18 6 16 8 3 9 4 10 9 11 5 12 8 13
REMARK SMILES IDX 10 14 6 15 7 16 87 17 11 18 2 19 1 20 12 21 13 22 14 23
REMARK SMILES IDX 15 24 23 25 24 26 25 27 26 29 27 30 28 31 86 32 29 33 85 34
REMARK SMILES IDX 30 35 31 36 32 37 79 38 33 39 84 40 78 41 80 42 34 43 83 44
REMARK SMILES IDX 77 45 76 46 35 48 65 49 46 50 64 51 47 52 50 53 63 54 81 55
REMARK SMILES IDX 48 56 49 57 62 59 82 60 51 61 36 62 37 63 45 64 38 65 44 66
REMARK SMILES IDX 39 67 40 68 41 69 42 70 43 71 66 72 67 73 75 74 68 75 74 76
REMARK SMILES IDX 69 77 70 78 71 79 72 80 73 81 52 82 53 83 61 84 54 85 60 86
REMARK SMILES IDX 55 87 56 88 57 89 58 90 59 91
REMARK H PARENT 19 7 24 28 80 47 50 58
REMARK Flexibility Score: inf
ROOT
ATOM      1  C   UNL A   1      33.632  28.523  25.689  1.00  0.00     0.023 C 
ENDROOT
BRANCH   1   2
ATOM      2  C   UNL A   1      32.511  28.920  24.725  1.00  0.00     0.023 C 
BRANCH   2   3
ATOM      3  C   UNL A   1      31.733  27.741  24.148  1.00  0.00     0.116 C 
BRANCH   3   4
ATOM      4  N   UNL A   1      30.910  27.085  25.150  1.00  0.00    -0.352 N 
ATOM      5  C   UNL A   1      30.880  25.881  25.767  1.00  0.00     0.251 C 
ATOM      6  O   UNL A   1      29.967  25.733  26.588  1.00  0.00    -0.270 OA
ATOM      7  H   UNL A   1      30.183  27.671  25.461  1.00  0.00     0.163 HD
BRANCH   5   8
ATOM      8  C   UNL A   1      31.841  24.763  25.531  1.00  0.00     0.067 C 
ATOM      9  C   UNL A   1      34.679  21.696  25.109  1.00  0.00     0.161 A 
ATOM     10  C   UNL A   1      36.039  21.982  25.228  1.00  0.00     0.054 A 
ATOM     11  C   UNL A   1      33.725  22.698  25.298  1.00  0.00     0.169 A 
ATOM     12  C   UNL A   1      36.456  23.270  25.585  1.00  0.00    -0.047 A 
ATOM     13  C   UNL A   1      34.127  23.986  25.651  1.00  0.00     0.021 A 
ATOM     14  O   UNL A   1      32.405  22.359  25.189  1.00  0.00    -0.471 OA
ATOM     15  C   UNL A   1      37.913  23.597  25.728  1.00  0.00     0.044 C 
ATOM     16  C   UNL A   1      35.491  24.268  25.798  1.00  0.00     0.015 A 
ATOM     17  C   UNL A   1      33.116  25.011  25.888  1.00  0.00     0.025 C 
ATOM     18  C   UNL A   1      31.486  23.447  24.896  1.00  0.00     0.314 C 
BRANCH   9  19
ATOM     19  O   UNL A   1      34.271  20.446  24.720  1.00  0.00    -0.493 OA
ATOM     20  C   UNL A   1      35.332  19.504  24.865  1.00  0.00     0.278 C 
ENDBRANCH   9  19
BRANCH  18  21
ATOM     21  C   UNL A   1      31.288  23.553  23.373  1.00  0.00     0.429 C 
ATOM     22  F   UNL A   1      32.125  24.485  22.849  1.00  0.00    -0.167 F 
ATOM     23  F   UNL A   1      31.564  22.392  22.733  1.00  0.00    -0.167 F 
ATOM     24  F   UNL A   1      30.027  23.900  23.029  1.00  0.00    -0.167 F 
ENDBRANCH  18  21
ENDBRANCH   5   8
ENDBRANCH   3   4
ENDBRANCH   2   3
ENDBRANCH   1   2
BRANCH   1  25
ATOM     25  C   UNL A   1      33.352  28.784  27.168  1.00  0.00     0.116 C 
BRANCH  25  26
ATOM     26  N   UNL A   1      33.404  30.188  27.552  1.00  0.00    -0.352 N 
ATOM     27  C   UNL A   1      34.470  30.877  28.091  1.00  0.00     0.251 C 
ATOM     28  H   UNL A   1      32.580  30.708  27.409  1.00  0.00     0.163 HD
ATOM     29  O   UNL A   1      34.350  32.050  28.430  1.00  0.00    -0.269 OA
BRANCH  27  30
ATOM     30  C   UNL A   1      35.740  30.154  28.305  1.00  0.00     0.039 A 
ATOM     31  C   UNL A   1      36.030  29.608  29.555  1.00  0.00     0.014 A 
ATOM     32  C   UNL A   1      36.684  30.121  27.275  1.00  0.00     0.014 A 
ATOM     33  C   UNL A   1      37.327  29.193  29.832  1.00  0.00     0.010 A 
ATOM     34  C   UNL A   1      37.966  29.629  27.536  1.00  0.00     0.010 A 
ATOM     35  C   UNL A   1      38.314  29.217  28.831  1.00  0.00    -0.014 A 
BRANCH  35  36
ATOM     36  C   UNL A   1      39.704  28.828  29.179  1.00  0.00     0.031 A 
ATOM     37  C   UNL A   1      40.543  29.694  30.082  1.00  0.00     0.074 A 
ATOM     38  C   UNL A   1      40.177  27.642  28.750  1.00  0.00     0.049 A 
ATOM     39  N   UNL A   1      41.751  29.473  30.538  1.00  0.00    -0.248 NA
ATOM     40  C   UNL A   1      39.959  30.968  30.536  1.00  0.00     0.031 C 
ATOM     41  C   UNL A   1      39.442  26.708  27.895  1.00  0.00     0.029 A 
ATOM     42  N   UNL A   1      41.361  26.999  29.008  1.00  0.00    -0.354 N 
ATOM     43  C   UNL A   1      42.074  30.578  31.317  1.00  0.00     0.074 A 
ATOM     44  C   UNL A   1      40.948  31.483  31.253  1.00  0.00     0.031 C 
ATOM     45  C   UNL A   1      40.158  25.582  27.762  1.00  0.00     0.029 A 
ATOM     46  C   UNL A   1      41.428  25.739  28.465  1.00  0.00     0.049 A 
ATOM     47  H   UNL A   1      42.091  27.402  29.532  1.00  0.00     0.167 HD
ATOM     48  C   UNL A   1      43.202  30.811  32.028  1.00  0.00     0.031 A 
ATOM     49  C   UNL A   1      42.400  24.807  28.521  1.00  0.00     0.031 A 
ATOM     50  C   UNL A   1      44.316  29.900  32.098  1.00  0.00     0.049 A 
ATOM     51  C   UNL A   1      43.655  25.103  29.285  1.00  0.00     0.074 A 
ATOM     52  C   UNL A   1      45.504  30.052  32.793  1.00  0.00     0.029 A 
ATOM     53  N   UNL A   1      44.378  28.669  31.465  1.00  0.00    -0.354 N 
ATOM     54  N   UNL A   1      43.952  26.167  29.992  1.00  0.00    -0.248 NA
ATOM     55  C   UNL A   1      44.711  24.082  29.254  1.00  0.00     0.031 C 
ATOM     56  C   UNL A   1      46.304  28.934  32.540  1.00  0.00     0.029 A 
ATOM     57  C   UNL A   1      45.591  28.059  31.735  1.00  0.00     0.049 A 
ATOM     58  H   UNL A   1      43.664  28.284  30.906  1.00  0.00     0.167 HD
ATOM     59  C   UNL A   1      45.231  25.948  30.486  1.00  0.00     0.074 A 
ATOM     60  C   UNL A   1      45.641  24.638  30.020  1.00  0.00     0.031 C 
ATOM     61  C   UNL A   1      45.997  26.765  31.248  1.00  0.00     0.031 A 
BRANCH  48  62
ATOM     62  C   UNL A   1      43.308  32.104  32.793  1.00  0.00    -0.014 A 
ATOM     63  C   UNL A   1      42.793  32.186  34.101  1.00  0.00     0.010 A 
ATOM     64  C   UNL A   1      43.820  33.264  32.185  1.00  0.00     0.010 A 
ATOM     65  C   UNL A   1      42.768  33.408  34.779  1.00  0.00     0.020 A 
ATOM     66  C   UNL A   1      43.817  34.483  32.869  1.00  0.00     0.020 A 
ATOM     67  C   UNL A   1      43.272  34.551  34.154  1.00  0.00     0.054 A 
BRANCH  67  68
ATOM     68  S   UNL A   1      43.229  36.133  35.044  1.00  0.00     0.124 S 
ATOM     69  O   UNL A   1      44.466  36.084  35.816  1.00  0.00    -0.237 OA
ATOM     70  O   UNL A   1      43.197  37.112  33.960  1.00  0.00    -0.237 OA
ATOM     71  O   UNL A   1      41.997  36.047  35.826  1.00  0.00    -0.744 OA
ENDBRANCH  67  68
ENDBRANCH  48  62
BRANCH  49  72
ATOM     72  C   UNL A   1      42.186  23.506  27.834  1.00  0.00    -0.014 A 
ATOM     73  C   UNL A   1      41.537  22.450  28.502  1.00  0.00     0.010 A 
ATOM     74  C   UNL A   1      42.725  23.281  26.556  1.00  0.00     0.010 A 
ATOM     75  C   UNL A   1      41.490  21.176  27.933  1.00  0.00     0.020 A 
ATOM     76  C   UNL A   1      42.654  22.012  25.972  1.00  0.00     0.020 A 
ATOM     77  C   UNL A   1      42.067  20.961  26.680  1.00  0.00     0.054 A 
BRANCH  77  78
ATOM     78  S   UNL A   1      42.055  19.285  25.987  1.00  0.00     0.124 S 
ATOM     79  O   UNL A   1      42.923  19.438  24.823  1.00  0.00    -0.237 OA
ATOM     80  O   UNL A   1      42.600  18.480  27.077  1.00  0.00    -0.237 OA
ATOM     81  O   UNL A   1      40.644  19.051  25.690  1.00  0.00    -0.744 OA
ENDBRANCH  77  78
ENDBRANCH  49  72
BRANCH  61  82
ATOM     82  C   UNL A   1      47.374  26.289  31.620  1.00  0.00    -0.014 A 
ATOM     83  C   UNL A   1      48.411  26.327  30.670  1.00  0.00     0.010 A 
ATOM     84  C   UNL A   1      47.612  25.704  32.876  1.00  0.00     0.010 A 
ATOM     85  C   UNL A   1      49.657  25.766  30.960  1.00  0.00     0.020 A 
ATOM     86  C   UNL A   1      48.865  25.162  33.177  1.00  0.00     0.020 A 
ATOM     87  C   UNL A   1      49.871  25.177  32.209  1.00  0.00     0.054 A 
BRANCH  87  88
ATOM     88  S   UNL A   1      51.490  24.439  32.566  1.00  0.00     0.124 S 
ATOM     89  O   UNL A   1      52.388  25.273  31.774  1.00  0.00    -0.237 OA
ATOM     90  O   UNL A   1      51.603  24.591  34.016  1.00  0.00    -0.237 OA
ATOM     91  O   UNL A   1      51.345  23.060  32.104  1.00  0.00    -0.744 OA
ENDBRANCH  87  88
ENDBRANCH  61  82
ENDBRANCH  35  36
ENDBRANCH  27  30
ENDBRANCH  25  26
ENDBRANCH   1  25
TORSDOF 16
ENDMDL
MODEL 2
REMARK VINA RESULT:     -11.3      4.092      9.999
REMARK SMILES COc1cc(C)cc2c1O[C@H](C(F)(F)F)C(C(=O)NCCCCNC(=O)c1ccc(-c3c4nc(c(-c5ccc(S(=O)(=O)[O-])cc5)c5ccc([nH]5)c(-c5ccc(S(=O)(=O)[O-])cc5)c5nc(c(-c6ccc(S(=O)(=O)[O-])cc6)c6ccc3[nH]6)C=C5)C=C4)cc1)=C2
REMARK SMILES IDX 22 1 21 2 20 3 19 4 17 5 18 6 16 8 3 9 4 10 9 11 5 12 8 13
REMARK SMILES IDX 10 14 6 15 7 16 87 17 11 18 2 19 1 20 12 21 13 22 14 23
REMARK SMILES IDX 15 24 23 25 24 26 25 27 26 29 27 30 28 31 86 32 29 33 85 34
REMARK SMILES IDX 30 35 31 36 32 37 79 38 33 39 84 40 78 41 80 42 34 43 83 44
REMARK SMILES IDX 77 45 76 46 35 48 65 49 46 50 64 51 47 52 50 53 63 54 81 55
REMARK SMILES IDX 48 56 49 57 62 59 82 60 51 61 36 62 37 63 45 64 38 65 44 66
REMARK SMILES IDX 39 67 40 68 41 69 42 70 43 71 66 72 67 73 75 74 68 75 74 76
REMARK SMILES IDX 69 77 70 78 71 79 72 80 73 81 52 82 53 83 61 84 54 85 60 86
REMARK SMILES IDX 55 87 56 88 57 89 58 90 59 91
REMARK H PARENT 19 7 24 28 80 47 50 58
REMARK Flexibility Score: inf
ROOT
ATOM      1  C   UNL A   1      39.673  22.652  27.077  1.00  0.00     0.023 C 
ENDROOT
BRANCH   1   2
ATOM      2  C   UNL A   1      39.281  21.519  26.126  1.00  0.00     0.023 C 
BRANCH   2   3
ATOM      3  C   UNL A   1      38.032  21.801  25.295  1.00  0.00     0.116 C 
BRANCH   3   4
ATOM      4  N   UNL A   1      36.811  21.546  26.039  1.00  0.00    -0.352 N 
ATOM      5  C   UNL A   1      35.528  21.977  26.007  1.00  0.00     0.251 C 
ATOM      6  O   UNL A   1      34.785  21.481  26.862  1.00  0.00    -0.270 OA
ATOM      7  H   UNL A   1      36.955  20.886  26.755  1.00  0.00     0.163 HD
BRANCH   5   8
ATOM      8  C   UNL A   1      34.974  22.973  25.043  1.00  0.00     0.067 C 
ATOM      9  C   UNL A   1      33.600  25.968  22.439  1.00  0.00     0.161 A 
ATOM     10  C   UNL A   1      33.256  27.224  22.939  1.00  0.00     0.054 A 
ATOM     11  C   UNL A   1      34.106  24.981  23.288  1.00  0.00     0.169 A 
ATOM     12  C   UNL A   1      33.461  27.519  24.292  1.00  0.00    -0.047 A 
ATOM     13  C   UNL A   1      34.312  25.262  24.639  1.00  0.00     0.021 A 
ATOM     14  O   UNL A   1      34.446  23.774  22.742  1.00  0.00    -0.471 OA
ATOM     15  C   UNL A   1      33.107  28.867  24.849  1.00  0.00     0.044 C 
ATOM     16  C   UNL A   1      33.993  26.532  25.136  1.00  0.00     0.015 A 
ATOM     17  C   UNL A   1      34.882  24.235  25.503  1.00  0.00     0.025 C 
ATOM     18  C   UNL A   1      34.487  22.646  23.658  1.00  0.00     0.314 C 
BRANCH   9  19
ATOM     19  O   UNL A   1      33.362  25.663  21.123  1.00  0.00    -0.493 OA
ATOM     20  C   UNL A   1      32.001  25.924  20.786  1.00  0.00     0.278 C 
ENDBRANCH   9  19
BRANCH  18  21
ATOM     21  C   UNL A   1      33.120  21.937  23.658  1.00  0.00     0.429 C 
ATOM     22  F   UNL A   1      32.561  21.982  22.422  1.00  0.00    -0.167 F 
ATOM     23  F   UNL A   1      33.216  20.627  23.985  1.00  0.00    -0.167 F 
ATOM     24  F   UNL A   1      32.240  22.493  24.522  1.00  0.00    -0.167 F 
ENDBRANCH  18  21
ENDBRANCH   5   8
ENDBRANCH   3   4
ENDBRANCH   2   3
ENDBRANCH   1   2
BRANCH   1  25
ATOM     25  C   UNL A   1      41.112  23.149  26.952  1.00  0.00     0.116 C 
BRANCH  25  26
ATOM     26  N   UNL A   1      41.323  24.118  25.884  1.00  0.00    -0.352 N 
ATOM     27  C   UNL A   1      41.409  25.490  25.993  1.00  0.00     0.251 C 
ATOM     28  H   UNL A   1      41.415  23.749  24.976  1.00  0.00     0.163 HD
ATOM     29  O   UNL A   1      41.522  26.191  24.994  1.00  0.00    -0.269 OA
BRANCH  27  30
ATOM     30  C   UNL A   1      41.302  26.097  27.335  1.00  0.00     0.039 A 
ATOM     31  C   UNL A   1      40.101  26.024  28.040  1.00  0.00     0.014 A 
ATOM     32  C   UNL A   1      42.380  26.834  27.834  1.00  0.00     0.014 A 
ATOM     33  C   UNL A   1      39.917  26.835  29.154  1.00  0.00     0.010 A 
ATOM     34  C   UNL A   1      42.214  27.587  28.999  1.00  0.00     0.010 A 
ATOM     35  C   UNL A   1      40.964  27.639  29.634  1.00  0.00    -0.014 A 
BRANCH  35  36
ATOM     36  C   UNL A   1      40.711  28.542  30.787  1.00  0.00     0.031 A 
ATOM     37  C   UNL A   1      41.630  28.543  31.980  1.00  0.00     0.074 A 
ATOM     38  C   UNL A   1      39.699  29.427  30.712  1.00  0.00     0.049 A 
ATOM     39  N   UNL A   1      41.593  29.309  33.041  1.00  0.00    -0.248 NA
ATOM     40  C   UNL A   1      42.732  27.565  31.989  1.00  0.00     0.031 C 
ATOM     41  C   UNL A   1      38.763  29.537  29.592  1.00  0.00     0.029 A 
ATOM     42  N   UNL A   1      39.316  30.429  31.567  1.00  0.00    -0.354 N 
ATOM     43  C   UNL A   1      42.651  28.901  33.845  1.00  0.00     0.074 A 
ATOM     44  C   UNL A   1      43.298  27.801  33.164  1.00  0.00     0.031 C 
ATOM     45  C   UNL A   1      37.963  30.594  29.791  1.00  0.00     0.029 A 
ATOM     46  C   UNL A   1      38.285  31.197  31.082  1.00  0.00     0.049 A 
ATOM     47  H   UNL A   1      39.738  30.582  32.443  1.00  0.00     0.167 HD
ATOM     48  C   UNL A   1      43.051  29.405  35.036  1.00  0.00     0.031 A 
ATOM     49  C   UNL A   1      37.661  32.269  31.610  1.00  0.00     0.031 A 
ATOM     50  C   UNL A   1      42.410  30.508  35.704  1.00  0.00     0.049 A 
ATOM     51  C   UNL A   1      38.100  32.785  32.948  1.00  0.00     0.074 A 
ATOM     52  C   UNL A   1      42.745  31.087  36.916  1.00  0.00     0.029 A 
ATOM     53  N   UNL A   1      41.316  31.206  35.216  1.00  0.00    -0.354 N 
ATOM     54  N   UNL A   1      39.086  32.367  33.704  1.00  0.00    -0.248 NA
ATOM     55  C   UNL A   1      37.340  33.911  33.509  1.00  0.00     0.031 C 
ATOM     56  C   UNL A   1      41.823  32.103  37.185  1.00  0.00     0.029 A 
ATOM     57  C   UNL A   1      40.949  32.195  36.113  1.00  0.00     0.049 A 
ATOM     58  H   UNL A   1      40.866  31.025  34.360  1.00  0.00     0.167 HD
ATOM     59  C   UNL A   1      39.062  33.172  34.835  1.00  0.00     0.074 A 
ATOM     60  C   UNL A   1      37.982  34.121  34.652  1.00  0.00     0.031 C 
ATOM     61  C   UNL A   1      39.859  33.120  35.929  1.00  0.00     0.031 A 
BRANCH  48  62
ATOM     62  C   UNL A   1      44.239  28.773  35.714  1.00  0.00    -0.014 A 
ATOM     63  C   UNL A   1      45.540  29.179  35.363  1.00  0.00     0.010 A 
ATOM     64  C   UNL A   1      44.073  27.708  36.617  1.00  0.00     0.010 A 
ATOM     65  C   UNL A   1      46.655  28.518  35.887  1.00  0.00     0.020 A 
ATOM     66  C   UNL A   1      45.187  27.060  37.160  1.00  0.00     0.020 A 
ATOM     67  C   UNL A   1      46.471  27.456  36.775  1.00  0.00     0.054 A 
BRANCH  67  68
ATOM     68  S   UNL A   1      47.928  26.604  37.445  1.00  0.00     0.124 S 
ATOM     69  O   UNL A   1      47.923  27.037  38.838  1.00  0.00    -0.237 OA
ATOM     70  O   UNL A   1      47.609  25.196  37.218  1.00  0.00    -0.237 OA
ATOM     71  O   UNL A   1      49.026  27.122  36.630  1.00  0.00    -0.744 OA
ENDBRANCH  67  68
ENDBRANCH  48  62
BRANCH  49  72
ATOM     72  C   UNL A   1      36.567  32.915  30.838  1.00  0.00    -0.014 A 
ATOM     73  C   UNL A   1      36.869  33.816  29.800  1.00  0.00     0.010 A 
ATOM     74  C   UNL A   1      35.226  32.718  31.208  1.00  0.00     0.010 A 
ATOM     75  C   UNL A   1      35.856  34.559  29.190  1.00  0.00     0.020 A 
ATOM     76  C   UNL A   1      34.206  33.440  30.580  1.00  0.00     0.020 A 
ATOM     77  C   UNL A   1      34.533  34.380  29.599  1.00  0.00     0.054 A 
BRANCH  77  78
ATOM     78  S   UNL A   1      33.238  35.402  28.844  1.00  0.00     0.124 S 
ATOM     79  O   UNL A   1      34.026  36.349  28.061  1.00  0.00    -0.237 OA
ATOM     80  O   UNL A   1      32.470  34.430  28.069  1.00  0.00    -0.237 OA
ATOM     81  O   UNL A   1      32.538  35.968  29.994  1.00  0.00    -0.744 OA
ENDBRANCH  77  78
ENDBRANCH  49  72
BRANCH  61  82
ATOM     82  C   UNL A   1      39.593  34.101  37.038  1.00  0.00    -0.014 A 
ATOM     83  C   UNL A   1      40.207  35.367  37.018  1.00  0.00     0.010 A 
ATOM     84  C   UNL A   1      38.823  33.727  38.153  1.00  0.00     0.010 A 
ATOM     85  C   UNL A   1      40.076  36.234  38.105  1.00  0.00     0.020 A 
ATOM     86  C   UNL A   1      38.671  34.602  39.232  1.00  0.00     0.020 A 
ATOM     87  C   UNL A   1      39.317  35.840  39.210  1.00  0.00     0.054 A 
BRANCH  87  88
ATOM     88  S   UNL A   1      39.167  36.971  40.621  1.00  0.00     0.124 S 
ATOM     89  O   UNL A   1      38.637  36.094  41.661  1.00  0.00    -0.237 OA
ATOM     90  O   UNL A   1      40.542  37.425  40.821  1.00  0.00    -0.237 OA
ATOM     91  O   UNL A   1      38.246  37.998  40.138  1.00  0.00    -0.744 OA
ENDBRANCH  87  88
ENDBRANCH  61  82
ENDBRANCH  35  36
ENDBRANCH  27  30
ENDBRANCH  25  26
ENDBRANCH   1  25
TORSDOF 16
ENDMDL
MODEL 3
REMARK VINA RESULT:     -11.2      1.769      2.544
REMARK SMILES COc1cc(C)cc2c1O[C@H](C(F)(F)F)C(C(=O)NCCCCNC(=O)c1ccc(-c3c4nc(c(-c5ccc(S(=O)(=O)[O-])cc5)c5ccc([nH]5)c(-c5ccc(S(=O)(=O)[O-])cc5)c5nc(c(-c6ccc(S(=O)(=O)[O-])cc6)c6ccc3[nH]6)C=C5)C=C4)cc1)=C2
REMARK SMILES IDX 22 1 21 2 20 3 19 4 17 5 18 6 16 8 3 9 4 10 9 11 5 12 8 13
REMARK SMILES IDX 10 14 6 15 7 16 87 17 11 18 2 19 1 20 12 21 13 22 14 23
REMARK SMILES IDX 15 24 23 25 24 26 25 27 26 29 27 30 28 31 86 32 29 33 85 34
REMARK SMILES IDX 30 35 31 36 32 37 79 38 33 39 84 40 78 41 80 42 34 43 83 44
REMARK SMILES IDX 77 45 76 46 35 48 65 49 46 50 64 51 47 52 50 53 63 54 81 55
REMARK SMILES IDX 48 56 49 57 62 59 82 60 51 61 36 62 37 63 45 64 38 65 44 66
REMARK SMILES IDX 39 67 40 68 41 69 42 70 43 71 66 72 67 73 75 74 68 75 74 76
REMARK SMILES IDX 69 77 70 78 71 79 72 80 73 81 52 82 53 83 61 84 54 85 60 86
REMARK SMILES IDX 55 87 56 88 57 89 58 90 59 91
REMARK H PARENT 19 7 24 28 80 47 50 58
REMARK Flexibility Score: inf
ROOT
ATOM      1  C   UNL A   1      32.584  28.530  26.149  1.00  0.00     0.023 C 
ENDROOT
BRANCH   1   2
ATOM      2  C   UNL A   1      32.377  29.710  25.197  1.00  0.00     0.023 C 
BRANCH   2   3
ATOM      3  C   UNL A   1      30.923  30.146  25.044  1.00  0.00     0.116 C 
BRANCH   3   4
ATOM      4  N   UNL A   1      30.458  30.030  23.673  1.00  0.00    -0.352 N 
ATOM      5  C   UNL A   1      30.334  29.044  22.754  1.00  0.00     0.251 C 
ATOM      6  O   UNL A   1      29.877  29.397  21.661  1.00  0.00    -0.270 OA
ATOM      7  H   UNL A   1      30.155  30.897  23.319  1.00  0.00     0.163 HD
BRANCH   5   8
ATOM      8  C   UNL A   1      30.699  27.612  22.967  1.00  0.00     0.067 C 
ATOM      9  C   UNL A   1      31.456  23.539  23.659  1.00  0.00     0.161 A 
ATOM     10  C   UNL A   1      31.106  22.962  24.880  1.00  0.00     0.054 A 
ATOM     11  C   UNL A   1      31.162  24.880  23.399  1.00  0.00     0.169 A 
ATOM     12  C   UNL A   1      30.415  23.713  25.838  1.00  0.00    -0.047 A 
ATOM     13  C   UNL A   1      30.477  25.640  24.347  1.00  0.00     0.021 A 
ATOM     14  O   UNL A   1      31.509  25.390  22.179  1.00  0.00    -0.471 OA
ATOM     15  C   UNL A   1      30.021  23.109  27.154  1.00  0.00     0.044 C 
ATOM     16  C   UNL A   1      30.101  25.053  25.562  1.00  0.00     0.015 A 
ATOM     17  C   UNL A   1      30.139  27.025  24.043  1.00  0.00     0.025 C 
ATOM     18  C   UNL A   1      31.657  26.835  22.107  1.00  0.00     0.314 C 
BRANCH   9  19
ATOM     19  O   UNL A   1      32.168  22.818  22.736  1.00  0.00    -0.493 OA
ATOM     20  C   UNL A   1      32.501  21.531  23.254  1.00  0.00     0.278 C 
ENDBRANCH   9  19
BRANCH  18  21
ATOM     21  C   UNL A   1      33.128  27.211  22.362  1.00  0.00     0.429 C 
ATOM     22  F   UNL A   1      33.459  26.983  23.658  1.00  0.00    -0.167 F 
ATOM     23  F   UNL A   1      33.987  26.478  21.616  1.00  0.00    -0.167 F 
ATOM     24  F   UNL A   1      33.391  28.512  22.099  1.00  0.00    -0.167 F 
ENDBRANCH  18  21
ENDBRANCH   5   8
ENDBRANCH   3   4
ENDBRANCH   2   3
ENDBRANCH   1   2
BRANCH   1  25
ATOM     25  C   UNL A   1      33.571  28.768  27.290  1.00  0.00     0.116 C 
BRANCH  25  26
ATOM     26  N   UNL A   1      33.595  30.137  27.788  1.00  0.00    -0.352 N 
ATOM     27  C   UNL A   1      34.658  30.814  28.347  1.00  0.00     0.251 C 
ATOM     28  H   UNL A   1      32.751  30.639  27.718  1.00  0.00     0.163 HD
ATOM     29  O   UNL A   1      34.516  31.950  28.787  1.00  0.00    -0.269 OA
BRANCH  27  30
ATOM     30  C   UNL A   1      35.956  30.118  28.456  1.00  0.00     0.039 A 
ATOM     31  C   UNL A   1      36.324  29.513  29.658  1.00  0.00     0.014 A 
ATOM     32  C   UNL A   1      36.848  30.171  27.381  1.00  0.00     0.014 A 
ATOM     33  C   UNL A   1      37.645  29.122  29.845  1.00  0.00     0.010 A 
ATOM     34  C   UNL A   1      38.154  29.704  27.549  1.00  0.00     0.010 A 
ATOM     35  C   UNL A   1      38.578  29.231  28.801  1.00  0.00    -0.014 A 
BRANCH  35  36
ATOM     36  C   UNL A   1      39.995  28.865  29.057  1.00  0.00     0.031 A 
ATOM     37  C   UNL A   1      40.886  29.761  29.875  1.00  0.00     0.074 A 
ATOM     38  C   UNL A   1      40.450  27.674  28.623  1.00  0.00     0.049 A 
ATOM     39  N   UNL A   1      42.126  29.565  30.248  1.00  0.00    -0.248 NA
ATOM     40  C   UNL A   1      40.320  31.040  30.339  1.00  0.00     0.031 C 
ATOM     41  C   UNL A   1      39.666  26.711  27.846  1.00  0.00     0.029 A 
ATOM     42  N   UNL A   1      41.656  27.050  28.811  1.00  0.00    -0.354 N 
ATOM     43  C   UNL A   1      42.491  30.692  30.975  1.00  0.00     0.074 A 
ATOM     44  C   UNL A   1      41.352  31.584  30.970  1.00  0.00     0.031 C 
ATOM     45  C   UNL A   1      40.384  25.589  27.689  1.00  0.00     0.029 A 
ATOM     46  C   UNL A   1      41.699  25.776  28.294  1.00  0.00     0.049 A 
ATOM     47  H   UNL A   1      42.417  27.472  29.270  1.00  0.00     0.167 HD
ATOM     48  C   UNL A   1      43.664  30.953  31.597  1.00  0.00     0.031 A 
ATOM     49  C   UNL A   1      42.684  24.856  28.303  1.00  0.00     0.031 A 
ATOM     50  C   UNL A   1      44.791  30.056  31.608  1.00  0.00     0.049 A 
ATOM     51  C   UNL A   1      43.987  25.184  28.967  1.00  0.00     0.074 A 
ATOM     52  C   UNL A   1      46.024  30.237  32.212  1.00  0.00     0.029 A 
ATOM     53  N   UNL A   1      44.822  28.810  31.002  1.00  0.00    -0.354 N 
ATOM     54  N   UNL A   1      44.321  26.268  29.625  1.00  0.00    -0.248 NA
ATOM     55  C   UNL A   1      45.050  24.173  28.885  1.00  0.00     0.031 C 
ATOM     56  C   UNL A   1      46.817  29.122  31.929  1.00  0.00     0.029 A 
ATOM     57  C   UNL A   1      46.058  28.220  31.199  1.00  0.00     0.049 A 
ATOM     58  H   UNL A   1      44.075  28.404  30.505  1.00  0.00     0.167 HD
ATOM     59  C   UNL A   1      45.635  26.074  30.030  1.00  0.00     0.074 A 
ATOM     60  C   UNL A   1      46.027  24.758  29.568  1.00  0.00     0.031 C 
ATOM     61  C   UNL A   1      46.444  26.918  30.715  1.00  0.00     0.031 A 
BRANCH  48  62
ATOM     62  C   UNL A   1      43.810  32.266  32.321  1.00  0.00    -0.014 A 
ATOM     63  C   UNL A   1      43.443  32.360  33.677  1.00  0.00     0.010 A 
ATOM     64  C   UNL A   1      44.207  33.429  31.637  1.00  0.00     0.010 A 
ATOM     65  C   UNL A   1      43.451  33.596  34.330  1.00  0.00     0.020 A 
ATOM     66  C   UNL A   1      44.238  34.662  32.294  1.00  0.00     0.020 A 
ATOM     67  C   UNL A   1      43.839  34.741  33.632  1.00  0.00     0.054 A 
BRANCH  67  68
ATOM     68  S   UNL A   1      43.841  36.340  34.492  1.00  0.00     0.124 S 
ATOM     69  O   UNL A   1      43.913  35.935  35.892  1.00  0.00    -0.237 OA
ATOM     70  O   UNL A   1      45.036  36.991  33.959  1.00  0.00    -0.237 OA
ATOM     71  O   UNL A   1      42.578  36.948  34.078  1.00  0.00    -0.744 OA
ENDBRANCH  67  68
ENDBRANCH  48  62
BRANCH  49  72
ATOM     72  C   UNL A   1      42.436  23.536  27.665  1.00  0.00    -0.014 A 
ATOM     73  C   UNL A   1      41.766  22.521  28.373  1.00  0.00     0.010 A 
ATOM     74  C   UNL A   1      42.965  23.252  26.394  1.00  0.00     0.010 A 
ATOM     75  C   UNL A   1      41.686  21.228  27.852  1.00  0.00     0.020 A 
ATOM     76  C   UNL A   1      42.862  21.965  25.857  1.00  0.00     0.020 A 
ATOM     77  C   UNL A   1      42.253  20.954  26.606  1.00  0.00     0.054 A 
BRANCH  77  78
ATOM     78  S   UNL A   1      42.199  19.255  25.974  1.00  0.00     0.124 S 
ATOM     79  O   UNL A   1      42.716  18.499  27.111  1.00  0.00    -0.237 OA
ATOM     80  O   UNL A   1      40.781  19.062  25.682  1.00  0.00    -0.237 OA
ATOM     81  O   UNL A   1      43.071  19.300  24.804  1.00  0.00    -0.744 OA
ENDBRANCH  77  78
ENDBRANCH  49  72
BRANCH  61  82
ATOM     82  C   UNL A   1      47.850  26.466  30.999  1.00  0.00    -0.014 A 
ATOM     83  C   UNL A   1      48.153  25.840  32.222  1.00  0.00     0.010 A 
ATOM     84  C   UNL A   1      48.890  26.759  30.100  1.00  0.00     0.010 A 
ATOM     85  C   UNL A   1      49.476  25.538  32.553  1.00  0.00     0.020 A 
ATOM     86  C   UNL A   1      50.212  26.437  30.418  1.00  0.00     0.020 A 
ATOM     87  C   UNL A   1      50.498  25.849  31.652  1.00  0.00     0.054 A 
BRANCH  87  88
ATOM     88  S   UNL A   1      52.213  25.463  32.101  1.00  0.00     0.124 S 
ATOM     89  O   UNL A   1      52.156  24.021  32.318  1.00  0.00    -0.237 OA
ATOM     90  O   UNL A   1      52.962  25.893  30.922  1.00  0.00    -0.237 OA
ATOM     91  O   UNL A   1      52.441  26.268  33.300  1.00  0.00    -0.744 OA
ENDBRANCH  87  88
ENDBRANCH  61  82
ENDBRANCH  35  36
ENDBRANCH  27  30
ENDBRANCH  25  26
ENDBRANCH   1  25
TORSDOF 16
ENDMDL
